Measurement: Raman, , ccw, Raman Data Processed
Mineral: Aspedamite
Rruff sample: R130014
Ideal chemistry: [box]_12_(Fe^3+^,Fe^2+^)_3_Nb^5+^_4_[Th^4+^(Nb^5+^,Fe^3+^)_12_O_42_][(H_2_O),(OH)]_12_
Locality: Herrebøkasa quarry, Aspedammen, Østfold, Norway
Source: Frank C. Hawthorne
Description: ﻿Brownish orange crystals with adamantine luster. Data from Cooper et al. (2012)
Measured chemistry: K_0.09_Ca_0.13_Ce_0.26_La_0.08_Nd_0.07_Fe^2+^_1.00_ Mn_0.30_Fe^3+^_3.48_Th_0.56_Ti^4+^_0.71_Si_0.34_Nb_12.98_Ta_0.21_O_42_(H_2_O)_9_(OH)_3_
Raman shift (cm-1)	intensity
100	0
109.789	274.37
119.578	431.94
129.368	4.70606
139.157	677.44
148.946	1409.89
158.735	2392.51
168.524	4867.91
178.313	3932.49
188.102	2764.46
197.892	2410.65
207.681	2366.16
217.47	3091.25
227.259	4167.11
237.048	5228.91
246.837	4149.16
256.627	2997.2
266.416	2205.82
276.205	1441.52
285.994	704.062
295.783	326.322
305.572	172.247
315.361	56.2773
325.151	401.497
334.94	846.526
344.729	1376.75
354.518	1831.45
364.307	2006.58
374.096	1902.44
383.885	1459.26
393.675	792.747
403.464	353.527
413.253	136.629
423.042	332.784
432.831	537.137
442.62	518.481
452.41	371.081
462.199	370.139
471.988	22.4238
481.777	57.7129
491.566	197.012
501.355	26.874
511.145	8.66309
520.934	210.399
530.723	204.494
540.512	268.011
550.301	238.044
560.09	431.193
569.88	384.019
579.669	796.913
589.458	1134.8
599.247	1499.41
609.036	1992.89
618.825	2302.19
628.614	2559.84
638.404	3093.89
648.193	3470.6
657.982	3919.75
667.771	4582.96
677.56	4789.45
687.349	3998.83
697.139	3265.44
706.928	2271.63
716.717	1074.11
726.506	236.55
736.295	175.055
746.084	144.724
755.874	57.4775
765.663	229.014
775.452	772.902
785.241	1447.59
795.03	2129.76
804.819	2697.21
814.609	2724.09
824.398	2267.26
834.187	1694.31
843.976	1195.73
853.765	1319.16
863.554	1625.51
873.343	1714.54
883.133	1643.55
892.922	1516.13
902.711	1637.15
912.5	1934.31
922.289	2874.76
932.078	3534.69
941.867	3528.27
951.657	2723.25
961.446	1196.65
971.235	267.81
981.024	44.2925
990.813	93.6973
1000.6	85.1138
1010.39	110.64
1020.18	249.757
1029.97	238.891
1039.76	288.904
1049.55	367.294
1059.34	451.366
1069.13	229.787
1078.92	133.927
1088.7	147.469
1098.49	109.829
1108.28	66.5997
1118.07	76.7878
1127.86	184.105
1137.65	180.88
1147.44	115.627
1157.23	93.4906
1167.02	109.946
1176.81	106.067
1186.6	0.818359
1196.38	25.2338
1206.17	58.0354
1215.96	46.6044
1225.75	22.4185
1235.54	46.2351
1245.33	72.0913
1255.12	60.0626
1264.91	94.5452
1274.7	109.607
1284.49	56.5883
1294.28	82.9967
1304.07	71.3163
1313.86	71.6848
1323.64	24.2507
1333.43	102.499
1343.22	66.483
1353.01	101.829
1362.8	95.4493
1372.59	26.3564
1382.38	66.8901
1392.17	44.266
1401.96	10.0233
1411.75	12.5331
1421.54	84.6571
1431.33	89.3464
1441.12	56.2864
1450.9	23.6763
1460.69	107.772
1470.48	2.67847
1480.27	70.7257
1490.06	44.9819
1499.85	78.1871
1509.64	10.2459
1519.43	24.4946
1529.22	20.8816
1539.01	60.415
1548.8	69.7894
1558.58	69.0593
1568.37	92.7877
1578.16	158.799
1587.95	254.944
1597.74	310.254
1607.53	403.388
1617.32	397.299
1627.11	224.612
1636.9	115.733
1646.69	50.0155
1656.48	37.7824
1666.27	70.7843
1676.05	35.4326
1685.84	71.6156
1695.63	6.60413
1705.42	5.03003
1715.21	25.8296
1725	24.4215
1734.79	30.1612
1744.58	5.41309
1754.37	55.0256
1764.16	46.5162
1773.95	19.9709
1783.73	28.4557
1793.52	13.3077
1803.31	49.4407
1813.1	28.7257
1822.89	76.027
1832.68	73.061
1842.47	41.1867
1852.26	41.6381
1862.05	47.9873
1871.84	25.9706
1881.63	72.8671
1891.42	92.2281
1901.2	51.5194
1910.99	70.2335
1920.78	63.768
1930.57	90.357
1940.36	78.619
1950.15	15.0409
1959.94	45.1278
1969.73	30.0224
1979.52	10.9772
1989.31	82.0089
1999.1	62.3531
2008.88	66.6909
2018.67	62.9392
2028.46	80.4339
2038.25	116.144
2048.04	91.5144
2057.83	42.9444
2067.62	51.0643
2077.41	68.0678
2087.2	58.4738
2096.99	36.3498
2106.78	34.7919
2116.57	28.0227
2126.36	56.7371
2136.14	59.3864
2145.93	71.856
2155.72	27.6915
2165.51	36.5784
2175.3	49.7275
2185.09	68.2952
2194.88	63.5475
2204.67	15.8281
2214.46	19.2204
2224.25	25.4027
2234.04	18.6359
2243.82	24.2704
2253.61	1.6283
2263.4	35.5414
2273.19	29.3811
2282.98	0.99292
2292.77	31.4373
2302.56	31.5055
2312.35	25.5623
2322.14	40.1007
2331.93	1.57367
2341.72	24.8785
2351.51	44.8225
2361.3	17.6489
2371.08	18.7707
2380.87	51.7469
2390.66	68.5249
2400.45	0.95459
2410.24	37.2354
2420.03	38.128
2429.82	47.5182
2439.61	34.1395
2449.4	48.9872
2459.19	27.6705
2468.98	36.1577
2478.76	52.2878
2488.55	44.4238
2498.34	48.0877
2508.13	40.8299
2517.92	54.8699
2527.71	56.1599
2537.5	64.2723
2547.29	69.3784
2557.08	42.418
2566.87	43.2112
2576.66	49.9984
2586.45	26.1229
2596.24	73.4603
2606.02	23.5632
2615.81	55.9657
2625.6	2.80231
2635.39	134.192
2645.18	23.7153
2654.97	69.4173
2664.76	51.9156
2674.55	82.4102
2684.34	35.6083
2694.13	43.5793
2703.92	46.3993
2713.7	2.71912
2723.49	54.522
2733.28	104.066
2743.07	40.6488
2752.86	7.77682
2762.65	27.6107
2772.44	38.0405
2782.23	1.00525
2792.02	11.399
2801.81	51.705
2811.6	44.19
2821.39	19.9141
2831.18	9.83768
2840.96	36.1014
2850.75	34.8184
2860.54	68.9506
2870.33	71.0804
2880.12	74.5278
2889.91	31.3079
2899.7	98.2365
2909.49	82.5972
2919.28	132.018
2929.07	76.384
2938.86	101.474
2948.64	90.0552
2958.43	75.4928
2968.22	127.09
2978.01	60.6822
2987.8	10.2363
2997.59	72.9899
3007.38	3.1669
3017.17	8.33874
3026.96	0.986786
3036.75	30.61
3046.54	34.0972
3056.32	45.7871
3066.11	55.6001
3075.9	52.1322
3085.69	96.9864
3095.48	82.4548
3105.27	27.1515
3115.06	57.4053
3124.85	70.2521
3134.64	20.5292
3144.43	26.3191
3154.22	89.4325
3164.01	47.7356
3173.8	53.6384
3183.58	50.265
3193.37	62.8999
3203.16	2.72873
3212.95	65.1164
3222.74	66.2456
3232.53	46.7501
3242.32	5.26965
3252.11	50.7305
3261.9	17.8959
3271.69	31.3062
3281.48	9.69122
3291.26	28.9844
3301.05	40.5549
3310.84	80.2204
3320.63	38.3538
3330.42	36.4304
3340.21	32.9562
3350	5.02759
3359.79	67.5383
3369.58	47.182
3379.37	35.8797
3389.16	24.5483
3398.95	32.2976
3408.74	53.1831
3418.52	69.4262
3428.31	89.8231
3438.1	109.663
3447.89	173.683
3457.68	125.935
3467.47	161.148
3477.26	176.11
3487.05	111.51
3496.84	77.0458
3506.63	74.1225
3516.42	92.4153
3526.2	26.2352
3535.99	25.3989
3545.78	24.9829
3555.57	22.3321
3565.36	39.8386
3575.15	22.7441
3584.94	33.2836
3594.73	58.7409
3604.52	37.9307
3614.31	36.485
3624.1	51.6205
3633.89	47.6625
3643.68	49.6046
3653.46	57.5383
3663.25	15.0581
3673.04	34.7634
3682.83	17.1926
3692.62	46.5975
3702.41	35.9766
3712.2	74.9284
3721.99	49.1259
3731.78	36.1198
3741.57	49.4944
3751.36	37.8042
3761.14	12.5449
3770.93	60.0158
3780.72	10.6638
3790.51	63.0836
3800.3	49.1352
3810.09	39.6651
3819.88	5.85785
3829.67	20.3774
3839.46	51.4148
3849.25	25.0253
3859.04	33.1788
3868.82	25.7606
3878.61	15.8905
3888.4	52.1692
3898.19	20.9864
3907.98	10.916
3917.77	19.6874
3927.56	22.1996
3937.35	31.0592
3947.14	14.5248
3956.93	7.56448
3966.72	25.9439
3976.51	18.6187
3986.3	18.4605
3996.08	6.95175
