Measurement: Raman, 514 nm, ccw, Raman Data Processed
Mineral: Buseckite
Rruff sample: R130007
Ideal chemistry: (Fe^2+^,Zn^2+^,Mn^2+^)S^2-^
Locality: Zakłodzie meteorite, Zakłodzie, Poland
Source: Chi Ma
Description: Black grains associated with enstatite, plagioclase, quartz, and tridymite. Data from Ma et al (2012)
Measured chemistry: (Fe_0.46_Zn_0.32_Mn_0.16_Mg_0.04_)_Σ=0.99_S_1.01_
Raman shift (cm-1)	intensity
168.923	0
171.365	398.497
173.807	468.768
176.249	281.147
178.689	299.666
181.13	402.649
183.569	171.217
186.009	379.88
188.447	312.024
190.885	400.719
193.323	137.888
195.759	117.586
198.196	748.298
200.631	92.5215
203.066	83.7956
205.501	140.791
207.934	558.202
210.367	424.211
212.8	453.868
215.231	297.687
217.663	427.97
220.093	89.3684
222.523	43.6443
224.952	319.965
227.38	156.458
229.808	100.085
232.235	51.0176
234.661	113.25
237.086	22.2041
239.511	68.7144
241.935	152.168
244.358	272.183
246.781	72.0964
249.203	205.217
251.624	119.513
254.044	195.105
256.463	188.211
258.882	11.6746
261.3	352.035
263.717	404.991
266.133	633.702
268.549	638.783
270.964	1045.49
273.378	1326.12
275.791	1594.12
278.203	2002.94
280.615	2291.17
283.026	2717.07
285.436	3136.63
287.845	3315.77
290.253	3955.39
292.661	3717.38
295.068	4205.09
297.474	4221.82
299.879	4047.68
302.283	4016.4
304.686	3731.94
307.089	3223.83
309.491	2664.77
311.892	2556.51
314.292	2720.41
316.691	2209.73
319.089	2129.47
321.487	1723.11
323.884	1535.03
326.28	1275.46
328.675	1173.76
331.069	901.975
333.462	960.15
335.855	835.669
338.247	631.635
340.638	648.791
343.028	704.305
345.417	643.11
347.805	458.296
350.193	475.996
352.579	609.158
354.965	251.572
357.35	231.017
359.734	330.019
362.118	563.168
364.5	518.845
366.882	409.944
369.263	514.555
371.643	241.108
374.022	355.655
376.4	415.671
378.777	387.899
381.154	248.002
383.53	315.583
385.905	283.505
388.279	269.457
390.652	23.6989
393.025	253.621
395.396	358.952
397.767	267.533
400.137	304.662
402.507	267.788
404.875	384.016
407.243	321.613
409.609	172.596
411.975	272.832
414.34	360.376
416.705	293.478
419.068	110.069
421.431	110.235
423.793	102.258
426.154	496.613
428.514	56.3268
430.874	24.0161
433.233	98.985
435.591	417.122
437.948	154.039
440.304	98.6826
442.66	327.683
445.015	189.251
447.369	42.1486
449.722	11.6693
452.074	29.5043
454.426	86.4639
456.777	185.395
459.127	228.969
461.477	298.018
463.825	367.009
466.173	26.9392
468.52	104.138
470.867	294.242
473.212	81.2809
475.557	292.392
477.901	243.309
480.245	104.403
482.587	31.4334
484.929	144.112
487.27	75.2095
489.611	61.7356
491.95	3.11597
494.289	128.597
496.627	392.937
498.965	118.149
501.302	211.297
503.638	214.528
505.973	254.092
508.308	77.2854
510.642	99.5913
512.975	6.12061
515.307	210.552
517.639	28.8905
519.97	55.3126
522.3	70.9791
524.63	20.1075
526.959	194.639
529.287	165.168
531.614	153.699
533.941	140.191
536.267	182.264
538.593	85.7953
540.918	200.05
543.242	25.7765
545.565	43.0088
547.888	102.589
550.21	305.372
552.531	135.095
554.851	276.933
557.171	93.0644
559.491	77.9477
561.809	39.8298
564.127	246.534
566.444	332.441
568.761	306.273
571.077	340.462
573.392	623.783
575.706	210.254
578.02	317.742
580.333	169.669
582.646	396.914
584.957	171.227
587.269	157.986
589.579	436.097
591.889	387.38
594.198	281.455
596.506	304.398
598.814	550.288
601.121	200.276
603.428	416.144
605.733	310.645
608.038	218.255
610.343	225.399
612.647	430.425
614.95	209.923
617.252	59.0171
619.554	411.75
621.855	262.002
624.155	284.792
626.455	411.756
628.754	351.668
631.052	235.137
633.35	369.016
635.647	306.904
637.943	264.485
640.238	320.2
642.533	460.763
644.828	217.895
647.121	203.98
649.414	152.797
651.706	202.007
653.997	238.316
656.288	166.921
658.578	219.956
660.867	229.846
663.156	219.543
665.444	124.52
667.731	93.18
670.017	127.526
672.303	363.797
674.588	166.239
676.872	25.4653
679.155	154.048
681.438	103.564
683.72	265.638
686.001	158.187
688.282	200.157
690.561	126.426
692.84	371.857
695.118	221.584
697.396	229.77
699.672	303.313
701.948	148.42
704.223	99.0085
706.498	390.49
708.771	171.881
711.044	2.78326
713.315	198.984
715.586	0.09613
717.857	124.96
720.126	175.103
722.394	135.182
724.662	117.326
726.929	59.1871
729.195	179.202
731.46	170.577
733.724	186.348
735.987	40.8962
738.25	160.691
740.511	8.61725
742.772	55.6143
745.032	107.15
747.29	205.32
749.548	153.052
751.805	196.287
754.061	171.104
756.316	130.581
758.57	55.9463
760.823	11.2822
763.075	4.41577
765.326	222.416
767.576	182.874
769.825	14.5944
772.073	217.784
774.32	83.3013
776.566	107.141
778.811	196.917
781.055	11.39
783.297	193.841
785.539	201.106
787.779	61.2755
790.019	194.579
792.257	117.168
794.494	140.789
796.73	449.102
798.964	163.084
801.198	108.088
803.43	98.5706
805.661	111.358
807.891	310.368
810.12	342.572
812.347	175.026
814.573	448.788
816.798	308.576
819.022	317.873
821.244	267.908
823.465	349.991
825.685	284.889
827.903	0
