Measurement: Raman, 532 nm, ccw, Raman Data Processed
Mineral: Cairncrossite
Rruff sample: R150126
Ideal chemistry: Sr_2_Ca_7-x_Na_2x_(Si_4_O_10_)_4_(OH)_2_(H_2_O)_15-x_
Locality: Block 17, Wessels mine, Northern Cape Province, South Africa
Source: Arnold Gucsik
Description: Massive colorless to white. Data are from the original description of the type sample. Photo is courtesy of Bruce Cairncross, 7 mm width.
Raman shift (cm-1)	intensity
99.2524	0
113.601	2.43958
127.927	5.47858
142.23	3.23224
156.51	4.62244
170.767	4.63611
185.001	5.19867
199.212	1.31842
213.401	2.01349
227.567	1.43854
241.71	0.260071
255.831	0.944397
269.929	4.85718
284.004	5.36108
298.057	4.1872
312.088	2.69904
326.097	1.76691
340.083	4.64514
354.047	2.80182
367.988	1.25269
381.908	0.305603
395.805	1.00342
409.681	3.00922
423.534	3.59674
437.366	5.84064
451.175	2.88422
464.963	2.97571
478.729	2.39789
492.473	0.826904
506.196	1.10687
519.896	1.85553
533.576	1.30512
547.233	0.415344
560.869	2.12488
574.484	6.13452
588.077	12.7413
601.649	41.2433
615.2	23.745
628.729	9.04639
642.237	3.05322
655.724	0.5672
669.19	2.24414
682.635	0.110229
696.058	0.577515
709.461	0.558533
722.843	0.018738
736.204	0.774109
749.544	0.726318
762.863	2.47022
776.161	4.00781
789.439	0.679016
802.696	1.53717
815.932	1.46576
829.148	1.59259
842.343	0.317932
855.518	1.2345
868.673	0.076965
881.807	0.689514
894.92	2.80017
908.013	0.990356
921.086	1.2146
934.139	0.398132
947.172	2.60199
960.184	2.90161
973.177	3.40015
986.149	2.9978
999.101	5.19391
1012.03	5.42297
1024.95	8.60748
1037.84	7.69476
1050.71	9.56934
1063.56	21.0949
1076.4	8.16736
1089.21	2.99963
1102.01	2.38489
1114.78	1.86987
1127.53	1.95447
1140.27	2.23975
1152.98	2.52332
1165.68	2.10638
1178.36	2.18567
1191.01	1.45325
1203.65	3.01929
1216.27	0.108154
1228.87	1.64185
1241.45	1.48071
1254.01	1.86578
1266.55	1.53485
1279.08	1.30768
1291.58	0.779602
1304.07	0.354187
1316.53	1.1145
1328.98	3.54755
1341.41	0.427673
1353.82	0.355103
1366.21	2.01068
1378.58	2.31848
1390.93	0.582703
1403.27	2.51105
1415.58	2.22022
1427.88	0.874146
1440.16	0.920349
1452.42	1.98071
1464.66	1.04828
1476.88	1.81567
1489.09	3.18298
1501.27	0.650024
1513.44	1.01605
1525.59	0.781921
1537.72	3.14789
1549.83	4.01502
1561.93	2.28308
1574.01	1.15125
1586.07	0.419128
1598.11	2.71088
1610.13	1.77783
1622.13	0.055176
1634.12	4.4118
1646.09	0.572571
1658.04	3.04022
1669.97	0.708191
1681.89	0.758667
1693.79	4.12781
1705.67	0.88031
1717.53	3.95019
1729.37	3.1214
1741.2	2.09973
1753.01	3.27185
1764.8	4.1441
1776.58	3.2146
1788.33	2.12408
1800.07	2.29571
1811.79	0.730347
1823.5	2.54297
1835.18	1.71747
1846.86	0.76239
1858.51	1.73895
1870.14	2.81635
1881.76	0.694702
1893.36	3.77942
1904.95	0.731445
1916.51	2.31146
1928.06	1.39215
1939.6	2.77319
1951.11	2.16717
1962.61	2.4491
1974.1	2.19659
1985.56	3.17944
1997.01	1.66266
2008.44	2.14624
2019.86	3.23022
2031.25	0.214539
2042.63	3.39935
2054	0.368042
2065.35	2.61737
2076.68	1.90301
2087.99	2.28803
2099.29	0.174805
2110.58	2.46204
2121.84	1.30841
2133.09	1.04309
2144.32	1.03192
2155.54	1.32123
2166.74	2.61102
2177.92	3.20135
2189.09	0.107849
2200.24	1.96887
2211.38	2.66022
2222.5	1.65179
2233.6	0.743896
2244.69	2.33691
2255.76	1.33057
2266.81	0.491882
2277.85	3.63501
2288.87	0.729858
2299.88	1.62445
2310.87	1.51862
2321.85	3.51343
2332.8	3.20905
2343.75	2.27698
2354.68	1.87207
2365.59	1.06628
2376.48	1.86078
2387.36	4.25555
2398.23	3.05048
2409.08	1.65979
2419.91	3.25525
2430.73	4.25134
2441.53	3.14777
2452.32	2.54437
2463.09	1.64123
2473.85	3.73932
2484.59	1.46228
2495.31	2.24719
2506.02	1.53686
2516.72	0.236938
2527.4	4.33722
2538.06	0.155273
2548.71	0.943726
2559.34	1.35596
2569.96	2.0556
2580.57	3.95502
2591.15	1.5564
2601.73	3.05603
2612.29	1.35583
2622.83	2.95087
2633.36	1.14996
2643.87	1.75049
2654.37	1.15094
2664.85	0.951599
2675.32	2.45203
2685.78	1.25287
2696.21	3.15332
2706.64	1.95392
2717.05	0.354553
2727.44	2.18603
2737.82	1.45178
2748.19	4.85248
2758.54	2.75372
2768.88	1.05963
2779.2	2.28937
2789.5	1.59167
2799.8	2.09393
2810.07	0.99646
2820.34	0.213562
2830.59	0.988953
2840.82	2.29156
2851.04	2.09448
2861.25	2.29767
2871.44	2.20117
2881.62	0.470154
2891.78	1.97424
2901.93	2.50494
2912.06	2.21014
2922.18	2.6134
2932.29	3.31683
2942.38	0.179749
2952.46	0.923645
2962.53	0.168884
2972.57	2.97308
2982.61	1.97162
2992.63	2.27271
3002.64	2.37244
3012.64	0.872192
3022.61	1.67169
3032.58	3.86951
3042.53	2.46777
3052.47	2.36096
3062.4	1.35266
3072.31	2.24322
3082.21	1.24164
3092.09	2.60107
3101.96	0.909912
3111.82	4.31976
3121.66	1.32904
3131.49	0.560059
3141.3	3.75244
3151.1	1.74805
3160.89	3.16132
3170.67	2.17517
3180.43	1.48877
3190.18	2.26654
3199.91	2.27722
3209.63	0.862244
3219.34	1.67328
3229.03	0.786621
3238.71	1.99774
3248.38	3.61285
3258.03	1.72852
3267.68	1.64667
3277.3	2.0669
3286.92	1.89075
3296.52	0.416199
3306.11	2.58643
3315.68	0.479797
3325.24	2.59766
3334.79	2.11847
3344.33	1.54205
3353.85	3.96741
3363.36	1.19409
3372.86	0.547729
3382.34	1.91425
3391.81	0.804321
3401.27	2.08862
3410.71	1.25671
3420.14	2.4596
3429.56	0.979675
3438.97	0.144531
3448.36	0.410034
3457.74	4.87909
