Measurement: Raman, 532 nm, ccw, Raman Data Processed
Mineral: Cechite
Rruff sample: R170047
Ideal chemistry: Pb^2+^Fe^2+^V^5+^O_4_(OH)
Locality: Maria Magdalena mine, Ulldemolins, Priorat, Tarragona, Catalonia, Spain
Source: Joan Rosell, Tariq Jawhari, Jordi Ibáñez and Xavier Llovet (CCiTUB Barcelona)
Description: Black tabular or pyramidal crystals
Measured chemistry: Pb_1.00_(Fe_0.97_Zn_0.01_)(VO_4_)_1.00_(OH)_0.96_
Raman shift (cm-1)	intensity
62.8642	0
68.4052	7.85944
73.9429	2.9145
79.4773	0.034428
85.0085	1.66325
90.5364	6.95472
96.061	1.81829
101.582	3.12704
107.101	5.75509
112.615	1.81678
118.127	1.08977
123.633	1.11906
129.138	0.097018
134.64	0.079579
140.137	0.940356
145.632	2.52698
151.122	5.0275
156.609	6.67538
162.095	4.36955
167.575	2.06859
173.052	1.50498
178.526	1.42495
183.997	1.11024
189.464	0.965556
194.928	0.624796
200.389	0.267562
205.847	0.158018
211.302	0.018148
216.751	0.08346
222.199	0.007538
227.644	0.118798
233.084	0.095509
238.523	0.122364
243.956	0.24158
249.386	0.37742
254.816	0.508574
260.239	0.463636
265.66	0.550947
271.078	0.76677
276.492	1.16124
281.903	1.55687
287.311	2.70395
292.716	4.09383
298.118	3.61473
303.516	3.95858
308.909	3.63639
314.302	4.41667
319.691	5.5265
325.075	8.07765
330.455	10.4509
335.835	9.70404
341.21	7.78338
346.581	6.49598
351.951	5.46678
357.316	4.42329
362.678	3.41981
368.037	2.88041
373.393	3.56006
378.745	3.79906
384.095	3.05095
389.439	2.38913
394.783	2.37358
400.123	2.28421
405.458	2.42143
410.792	2.80471
416.121	3.25002
421.449	4.1172
426.771	3.94638
432.091	2.64123
437.409	2.09056
442.723	1.43257
448.033	1.02291
453.34	1.09013
458.645	0.509336
463.946	0.419349
469.244	0.162469
474.537	0.442303
479.829	0.062177
485.118	0.056665
490.402	0.217185
495.684	0.003851
500.962	0.102748
506.239	0.078211
511.51	0.016091
516.779	0.043849
522.045	0.090431
527.309	0.037101
532.569	0.02648
537.825	0.066556
543.079	0.083571
548.329	0.079571
553.574	0.008056
558.819	0.069732
564.06	0.027466
569.298	0.281337
574.532	0.056195
579.764	0.56402
584.991	0.624863
590.216	0.872066
595.439	0.838974
600.657	0.472376
605.873	0.285553
611.085	0.41861
616.294	0.11514
621.501	0.022112
626.704	0.269737
631.905	0.128825
637.102	0.00843
642.297	0.037982
647.486	0.223155
652.675	0.211605
657.858	0.227156
663.041	0.476389
668.218	0.565666
673.395	0.634847
678.567	0.922282
683.735	1.2509
688.901	1.13431
694.064	1.66782
699.224	2.13625
704.381	2.35281
709.535	2.4282
714.686	2.75575
719.834	2.75161
724.978	2.68344
730.12	2.58493
735.259	3.17056
740.394	3.80607
745.525	4.9976
750.656	7.80919
755.782	10.9588
760.905	10.6684
766.025	8.09948
771.143	7.03377
776.258	5.70869
781.367	5.22343
786.475	4.87239
791.581	5.12169
796.683	4.13831
801.783	4.38097
806.877	4.18364
811.971	4.23297
817.06	4.73913
822.148	6.35034
827.232	8.44623
832.312	14.5337
837.389	17.2709
842.466	14.4112
847.538	10.9477
852.607	8.6401
857.673	6.7412
862.734	5.87321
867.794	5.59253
872.852	4.47539
877.906	3.68947
882.956	2.67099
888.005	2.18663
893.049	1.57664
898.09	1.28766
903.131	1.16622
908.166	0.879057
913.199	0.726311
918.229	0.501451
923.256	0.978022
928.28	0.742554
933.302	0.694797
938.32	0.621616
943.336	0.543028
948.347	0.732484
953.357	0.616484
958.365	0.815072
963.367	0.508506
968.369	0.876063
973.366	0.081233
978.36	0.620518
983.351	0.377354
988.34	0.181569
993.328	0.3199
998.309	0.092302
1003.29	0.081216
1008.27	0.292482
1013.24	0.119866
1018.21	0.071729
1023.18	0.170342
1028.15	0.047046
1033.11	0.0694
1038.07	0.066857
1043.02	0.102367
1047.98	0.018255
1052.93	0.006804
1057.88	0.078971
1062.82	0.206432
1067.77	0.033933
1072.71	0.346064
1077.64	0.653362
1082.57	0.510898
1087.51	0.272561
1092.43	0.653338
1097.36	0.897658
1102.28	0.311221
1107.2	0.717405
1112.12	0.931463
1117.03	1.14781
1121.94	1.00478
1126.85	1.18022
1131.75	1.09834
1136.65	1.2191
1141.55	0.90506
1146.45	0.995189
1151.34	1.01813
1156.23	1.09443
1161.12	0.821402
1166.01	1.06857
1170.89	1.09561
1175.77	1.25757
1180.64	0.891522
1185.52	0.748833
1190.39	0.992432
1195.26	0.999988
1200.12	0.64664
1204.98	0.722943
1209.84	0.826491
1214.7	0.622352
1219.55	0.516456
1224.4	0.38475
1229.25	0.416365
1234.1	0.453155
1238.94	0.283998
1243.78	0.479844
1248.62	0.220518
1253.45	0.211503
1258.28	0.098913
1263.11	0.210094
1267.94	0.217243
1272.76	0.090906
1277.58	0.055575
1282.4	0.062601
1287.21	0.183563
1292.02	0.182741
1296.83	0.12747
1301.64	0.00773
1306.44	0.129911
1311.24	0.207081
1316.04	0.163724
1320.83	0.059833
1325.63	0.215409
1330.41	0.177175
1335.2	0.11847
1339.99	0.246063
1344.77	0.026738
1349.55	0.05383
1354.32	0.007276
1359.09	0.247078
1363.87	0.093354
1368.63	0.179498
1373.4	0.052065
1378.16	0.064306
1382.92	0.216286
1387.67	0.080806
1392.43	0.012786
1397.18	0.030685
1401.93	0.077961
1406.67	0.032071
1411.41	0.128749
1416.16	0.21181
1420.89	0.221237
1425.63	0.049479
1430.36	0.060333
1435.09	0.321956
1439.81	0.330727
1444.54	0.539409
1449.26	0.659706
1453.98	0.701479
1458.69	0.956549
1463.41	1.23805
1468.12	1.38969
1472.82	1.43459
1477.53	1.78674
1482.23	1.79556
1486.93	2.10312
1491.63	2.47234
1496.32	2.89861
1501.01	3.10051
1505.7	3.54896
1510.39	3.61941
1515.07	3.93417
1519.75	3.88659
1524.43	3.49425
1529.1	3.7049
1533.78	3.4855
1538.45	3.37488
1543.11	3.49571
1547.78	3.10581
1552.44	3.05539
1557.1	3.1414
1561.76	2.66459
1566.41	2.55871
1571.06	2.56059
1575.71	2.4688
1580.35	2.44031
1585	1.97014
1589.64	2.21067
1594.28	2.03196
1598.91	1.77888
1603.55	2.20422
1608.18	1.86933
1612.8	1.98095
1617.43	1.96585
1622.05	1.79761
1626.67	1.69678
1631.29	1.20974
1635.9	1.17676
1640.51	0.991499
1645.12	0.900518
1649.73	1.04361
1654.33	0.680293
1658.93	0.824018
1663.53	0.70124
1668.13	0.658768
1672.72	0.763338
1677.31	0.761808
1681.9	0.695959
1686.49	0.505759
1691.07	0.370343
1695.65	0.629808
1700.23	0.444348
1704.8	0.340767
1709.37	0.279197
1713.94	0.059257
1718.51	0.036466
1723.08	0.344018
1727.64	0.181909
1732.2	0.204368
1736.75	0.232333
1741.31	0.245203
1745.86	0.238553
1750.41	0.056542
1754.96	0.010844
1759.5	0.108629
1764.04	0.094555
