Measurement: Raman, 514 nm, ccw, Raman Data Processed
Mineral: Devitoite
Rruff sample: R130083
Ideal chemistry: Ba_6_Fe^2+^_7_Fe^3+^_2_(Si_4_O_12_)_2_(PO_4_)_2_(CO_3_)O_2_(OH)_4_
Locality: Big Creek in eastern Fresno County, California, USA
Source: George R. Rossman
Description: Cream to pale brown streak, a silky luster.  Data from Kampf et al (2010)
Measured chemistry: [(Ba_5.45_Ca_0.19_)_Σ=5.64_(PO_4_)_1.47_O_0.30_(CO_3_)][(Fe^2+^_6.60_Mg_0.40_)_Σ=7_(Fe^3+^_1.64_Ti^4+^_0.22_Al^3+^_0.14_)_Σ=2_(Si_7.51_Al_0.49_)_Σ=8_O_26_(OH)_4_]
Raman shift (cm-1)	intensity
101.046	0
115.232	349.338
129.396	269.931
143.537	190.152
157.656	277.295
171.754	383.129
185.829	283.114
199.882	335.222
213.914	390.014
227.923	395.657
241.911	962.349
255.877	782.299
269.822	484.497
283.744	142.277
297.645	101.954
311.525	87.7953
325.383	36.1497
339.219	303.87
353.035	116.164
366.828	40.4558
380.601	149.792
394.352	67.9309
408.082	187.392
421.791	597.814
435.478	518.448
449.145	31.1634
462.79	476.174
476.415	138.503
490.018	166.327
503.601	384.686
517.163	252.694
530.704	172.23
544.224	161.601
557.723	188.392
571.202	114.199
584.66	183.177
598.098	100.728
611.515	636.811
624.911	1222.67
638.287	1980.15
651.643	2514.86
664.978	2713.99
678.293	1551.3
691.587	1171.44
704.862	767.645
718.116	799.257
731.35	361.144
744.564	150.206
757.758	123.569
770.932	46.1298
784.086	72.5882
797.22	294.553
810.334	152.14
823.428	313.026
836.502	136.287
849.557	72.7225
862.592	106.867
875.607	195.949
888.603	192.994
901.579	894.61
914.535	4711.36
927.472	2423.86
940.389	1310.08
953.287	707.887
966.166	924.59
979.025	1096.45
991.865	836.596
1004.69	452.728
1017.49	279.052
1030.27	183.778
1043.03	592.332
1055.78	1217.87
1068.5	1451.04
1081.21	599.818
1093.89	39.203
1106.56	507.927
1119.21	77.4155
1131.84	25.2353
1144.45	200.225
1157.05	185.101
1169.62	328.56
1182.18	164.429
1194.71	49.1129
1207.23	10.063
1219.73	84.7338
1232.21	268.62
1244.67	491.107
1257.12	55.8874
1269.54	181.035
1281.95	255.76
1294.34	232.176
1306.71	433.146
1319.06	12.1237
1331.39	45.1962
1343.71	492.793
1356.01	351.765
1368.28	525.357
1380.55	547.254
1392.79	381.933
1405.01	704.088
1417.22	413.283
1429.41	356.95
1441.58	671.08
1453.74	431.465
1465.87	279.714
1477.99	262.127
1490.09	223.063
1502.17	683.685
1514.24	375.06
1526.28	280.353
1538.31	355.899
1550.32	254.338
1562.32	325.556
1574.29	237.471
1586.25	166.371
1598.2	360.706
1610.12	651.905
1622.03	672.602
1633.92	698.361
1645.79	229.617
1657.64	225.728
1669.48	17.027
1681.3	523.522
1693.11	300.272
1704.89	700.852
1716.66	663.853
1728.41	1221.8
1740.15	1274.45
1751.87	930.685
1763.57	1170.29
1775.25	1111.16
1786.92	1317.01
1798.57	876.067
1810.21	1008.64
1821.82	785.179
1833.42	989.232
1845.01	583.8
1856.58	523.543
1868.13	529.873
1879.66	728.855
1891.18	222.042
1902.68	109.844
1914.16	362.2
1925.63	358.119
1937.08	348.29
1948.52	147.542
1959.93	142.089
1971.34	10.6635
1982.72	363.708
1994.09	439.556
2005.45	410.071
2016.78	17.1923
2028.1	485.21
2039.41	115.315
2050.7	267.163
2061.97	54.2971
2073.23	385.35
2084.47	26.217
2095.69	591.385
2106.9	195.71
2118.09	591.558
2129.27	379.661
2140.43	220.871
2151.58	801.316
2162.71	700.716
2173.82	764.523
2184.92	553.751
2196	691.587
2207.07	732.507
2218.12	779.385
2229.15	951.557
2240.17	583.401
2251.18	541.789
2262.17	401.513
2273.14	258.255
2284.1	273.216
2295.04	388.993
2305.97	28.2362
2316.88	164.944
2327.77	142.397
2338.65	31.8403
2349.52	498.331
2360.37	438.182
2371.2	165.153
2382.02	271.276
2392.83	496.729
2403.62	739.447
2414.39	382.057
2425.15	705.459
2435.9	578.669
2446.63	571.74
2457.34	320.088
2468.04	1012.36
2478.72	735.041
2489.39	964.285
2500.05	1167.94
2510.69	465.348
2521.31	780.956
2531.92	706.096
2542.52	829.824
2553.1	935.139
2563.67	347.253
2574.22	597.197
2584.76	303.112
2595.28	316.841
2605.79	481.701
2616.28	231.77
2626.76	407.377
2637.22	38.4746
2647.67	310.535
2658.11	177.236
2668.53	340.565
2678.93	54.7412
2689.33	296.586
2699.7	6.23968
2710.07	494.969
2720.42	70.1788
2730.75	74.8126
2741.07	464.164
2751.38	207.242
2761.67	352.177
2771.95	349.982
2782.21	518.894
2792.46	828.078
2802.7	763.673
2812.92	542.515
2823.13	527.639
2833.32	500.585
2843.5	821.48
2853.67	491.44
2863.82	619.595
2873.96	749.75
2884.08	589.61
2894.19	691.592
2904.29	409.831
2914.37	703.344
2924.44	955.325
2934.49	277.466
2944.54	499.815
2954.56	329.711
2964.58	591.15
2974.58	520.815
2984.57	195.508
2994.54	17.0604
3004.5	366.652
3014.45	353.724
3024.38	269.625
3034.3	98.8026
3044.21	57.3206
3054.1	259.846
3063.98	6.08398
3073.84	178.293
3083.7	12.4385
3093.54	88.0416
3103.36	84.0519
3113.17	285.363
3122.97	361.799
3132.76	367.378
3142.53	108.971
3152.29	63.7866
3162.04	185.363
3171.77	305.065
3181.49	126.985
3191.2	151.01
3200.9	353.356
3210.58	355.501
3220.25	130.537
3229.9	18.5613
3239.54	278.684
3249.17	44.9817
3258.79	316.5
3268.39	392.359
3277.98	443.064
3287.56	554.053
3297.13	471.952
3306.68	527.754
3316.22	653.851
3325.75	667.259
3335.26	633.957
3344.76	648.622
3354.25	816.097
3363.73	625.006
3373.19	709.543
3382.64	893.129
3392.08	445.449
3401.51	604.756
3410.92	851.182
3420.32	807.816
3429.71	842.483
3439.08	801.356
3448.45	558.701
3457.8	623.313
3467.14	540.909
3476.46	574.593
3485.78	459.551
3495.08	436.684
3504.37	427.538
3513.65	324.575
3522.91	243.299
3532.16	258.908
3541.4	209.985
3550.63	272.024
3559.85	274.529
3569.05	15.1987
3578.24	152.615
3587.42	82.9667
3596.59	133.849
3605.74	320.238
3614.89	34.577
3624.02	63.0349
3633.14	90.029
3642.24	50.3339
3651.34	199.234
3660.42	79.1648
3669.49	69.0489
3678.55	11.5662
3687.6	209.421
3696.64	132.948
3705.66	145.529
3714.67	232.032
3723.67	147.513
3732.66	363.25
3741.64	130.168
3750.6	278.799
3759.56	172.5
3768.5	418.034
3777.43	170.398
3786.35	334.207
3795.25	319.38
3804.15	411.291
3813.03	375.889
3821.91	250.888
3830.77	283.066
3839.62	256.486
3848.45	225.935
3857.28	319.777
3866.09	47.6965
3874.9	269.964
3883.69	363.409
3892.47	158.75
3901.24	366.151
3909.99	128.175
3918.74	210.293
3927.48	315.902
3936.2	274.083
3944.91	218.443
3953.61	250.006
3962.3	252.878
3970.98	134.458
3979.65	341.289
3988.3	68.2872
3996.95	224.655
