Measurement: Raman, 638 nm, ccw, Raman Data Processed
Mineral: Heisenbergite
Rruff sample: R140422
Ideal chemistry: U^6+^O_2_(OH)_2_H_2_O
Locality: Menzenschwand, Southern Black Forest, Baden WÃ¼rttemberg, Germany
Source: Thomas Theye
Description: Small yellow, yellow brown or orange brown prismatic crystals associated with quartz, baryte, uraninite, billietite, studtite, rutherfordine, joliotite, goethite and hematite. Type sample
Measured chemistry: U_1.044_Pb_0.020_Ba_0.004_Ca_0.008_H_3.672_O_5_
Raman shift (cm-1)	intensity
150	0
159.918	9.59607
169.836	33.5531
179.754	18.4751
189.672	79.3301
199.59	64.5542
209.508	0.509888
219.426	6.02454
229.344	20.8043
239.262	50.2888
249.18	50.2456
259.098	20.4967
269.016	5.99329
278.934	12.5099
288.852	12.1669
298.771	2.05249
308.688	32.9413
318.607	47.2601
328.525	53.5513
338.443	45.2336
348.361	58.9801
358.279	15.7261
368.197	32.4568
378.115	48.5381
388.033	62.6883
397.951	69.5678
407.869	65.1867
417.787	80.1995
427.705	114.616
437.623	109.222
447.541	102.217
457.459	53.67
467.377	59.7661
477.295	22.8588
487.213	5.17212
497.131	8.61096
507.049	25.4303
516.967	60.5774
526.885	111.933
536.803	121.643
546.721	118.093
556.639	78.9773
566.557	56.7676
576.475	31.7653
586.393	32.689
596.312	6.26294
606.23	15.4465
616.148	6.65955
626.066	7.79004
635.984	5.33069
645.902	1.4231
655.82	9.96411
665.738	38.2285
675.656	31.1788
685.574	21.1946
695.492	52.0052
705.41	53.4451
715.328	104.199
725.246	225.523
735.164	404.553
745.082	433.661
755	298.761
764.918	191.452
774.836	148.45
784.754	220.653
794.672	309.04
804.59	420.618
814.508	727.773
824.426	1268.35
834.344	1209.61
844.262	458.684
854.18	115.906
864.098	52.2789
874.016	15.092
883.934	6.09094
893.852	3.6084
903.77	22.9232
913.688	24.3893
923.607	18.3053
933.525	17.2484
943.443	19.9579
953.361	35.8882
963.279	0.604126
973.197	17.8711
983.115	15.1293
993.033	18.9893
1002.95	55.8281
1012.87	55.4202
1022.79	41.8601
1032.7	31.9166
1042.62	10.9175
1052.54	5.71167
1062.46	0.830688
1072.38	7.59912
1082.3	10.3118
1092.21	38.1827
1102.13	60.5956
1112.05	24.5726
1121.97	41.5938
1131.88	38.1067
1141.8	37.1024
1151.72	29.8243
1161.64	16.3832
1171.56	37.3854
1181.47	25.4463
1191.39	14.5093
1201.31	37.1039
1211.23	39.6867
1221.15	12.3872
1231.07	15.8079
1240.98	12.7443
1250.9	23.2924
1260.82	18.4813
1270.74	35.229
1280.66	22.4636
1290.57	17.3356
1300.49	25.2683
1310.41	0.7677
1320.33	9.44006
1330.25	7.12707
1340.16	1.07434
1350.08	8.67835
1360	37.0971
1369.92	6.23743
1379.84	25.7546
1389.75	6.53723
1399.67	50.6743
1409.59	21.696
1419.51	20.4016
1429.43	13.386
1439.34	22.9703
1449.26	15.2402
1459.18	23.4163
1469.1	21.0598
1479.02	30.7124
1488.93	16.8313
1498.85	7.96265
1508.77	22.8673
1518.69	37.5579
1528.61	1.38294
1538.53	38.2722
1548.44	39.8479
1558.36	45.7831
1568.28	19.6312
1578.2	91.531
1588.12	38.9124
1598.03	34.49
1607.95	20.0472
1617.87	8.5498
1627.79	27.9622
1637.7	62.9857
1647.62	53.7518
1657.54	48.197
1667.46	30.8722
1677.38	56.9514
1687.3	18.4266
1697.21	9.07544
1707.13	13.3369
1717.05	26.3685
1726.97	2.31042
1736.88	10.6329
1746.8	46.7393
1756.72	36.7827
1766.64	49.0543
1776.56	61.9022
1786.47	56.6969
1796.39	51.2201
1806.31	56.8865
1816.23	35.3854
1826.15	6.95068
1836.07	5.2865
1845.98	3.7262
1855.9	5.37231
1865.82	11.0492
1875.74	15.5913
1885.66	13.2078
1895.57	0.467163
1905.49	8.32825
1915.41	0.572998
1925.33	10.169
1935.25	4.78845
1945.16	6.06689
1955.08	18.4277
1965	10.3242
1974.92	31.4008
1984.84	28.8973
1994.75	47.8184
2004.67	12.916
2014.59	16.1153
2024.51	23.2228
2034.43	0.296692
2044.34	7.82697
2054.26	28.2225
2064.18	15.7337
2074.1	20.1014
2084.02	21.876
2093.93	57.7133
2103.85	34.0557
2113.77	30.0172
2123.69	16.827
2133.61	26.6063
2143.53	6.18695
2153.44	10.07
2163.36	7.01349
2173.28	13.4279
2183.2	29.7846
2193.11	25.6393
2203.03	18.8619
2212.95	20.872
2222.87	17.8391
2232.79	19.4304
2242.7	13.3519
2252.62	2.92889
2262.54	12.7548
2272.46	18.8459
2282.38	10.0625
2292.3	5.51202
2302.21	18.6268
2312.13	15.9686
2322.05	18.0362
2331.97	17.8757
2341.89	8.9151
2351.8	17.2741
2361.72	16.1301
2371.64	15.5135
2381.56	11.915
2391.47	19.9943
2401.39	17.7709
2411.31	20.7857
2421.23	16.8365
2431.15	19.4928
2441.07	14.7218
2450.98	15.208
2460.9	13.7977
2470.82	4.42944
2480.74	14.0576
2490.66	19.8824
2500.57	1.23395
2510.49	6.93744
2520.41	13.4976
2530.33	23.5403
2540.25	5.81982
2550.16	3.01343
2560.08	4.94751
2570	2.73157
2579.92	2.64655
2589.84	9.26886
2599.75	23.4753
2609.67	4.68512
2619.59	10.2473
2629.51	19.1928
2639.43	7.07001
2649.34	10.9615
2659.26	15.8659
2669.18	14.0471
2679.1	11.9617
2689.02	23.0596
2698.93	2.5202
2708.85	7.78247
2718.77	1.93933
2728.69	13.8703
2738.61	15.1199
2748.53	12.1806
2758.44	4.22748
2768.36	4.33936
2778.28	21.654
2788.2	2.57104
2798.11	4.48425
2808.03	0.019775
2817.95	14.8072
2827.87	13.7727
2837.79	23.096
2847.7	22.1309
2857.62	35.7679
2867.54	21.9795
2877.46	28.5463
2887.38	12.5154
2897.3	18.127
2907.21	18.3309
2917.13	23.4003
2927.05	30.2831
2936.97	27.9206
2946.89	21.3764
2956.8	22.408
2966.72	6.06598
2976.64	1.06439
2986.56	3.0863
2996.47	6.80878
3006.39	6.48749
3016.31	2.65008
3026.23	3.75067
3036.15	10.4589
3046.07	0.545349
3055.98	4.26508
3065.9	7.20538
3075.82	10.0645
3085.74	7.26032
3095.66	0.594299
3105.57	9.45245
3115.49	9.53156
3125.41	12.4809
3135.33	11.1851
3145.25	8.52502
3155.16	8.72086
3165.08	6.18756
3175	0.065857
3184.92	3.79102
3194.84	20.9074
3204.75	15.1916
3214.67	12.9441
3224.59	8.8443
3234.51	9.86496
3244.43	9.29822
3254.34	15.5822
3264.26	11.5727
3274.18	11.5023
3284.1	6.29791
3294.02	0.388336
3303.93	7.88806
3313.85	6.59479
3323.77	2.33401
3333.69	5.93521
3343.61	11.2427
3353.53	16.3366
3363.44	10.5324
3373.36	5.32587
3383.28	15.2397
3393.2	7.88025
3403.11	12.4716
3413.03	10.8421
3422.95	5.31384
3432.87	13.2688
3442.79	5.10883
3452.7	10.718
3462.62	1.8024
3472.54	11.9256
3482.46	16.3906
3492.38	5.0994
3502.3	14.2695
3512.21	12.3962
3522.13	9.11493
3532.05	10.7644
3541.97	5.65027
3551.89	0.585144
3561.8	5.44751
3571.72	4.20132
3581.64	24.4927
3591.56	6.34949
3601.47	1.63061
3611.39	6.09403
3621.31	5.48044
3631.23	19.0551
3641.15	7.67474
3651.07	6.32339
3660.98	8.06
3670.9	2.46323
3680.82	8.68338
3690.74	12.0813
3700.66	4.02335
3710.57	5.94717
3720.49	5.34256
3730.41	8.83749
3740.33	4.16736
3750.25	3.88681
3760.16	7.2225
3770.08	5.15198
3780	2.41824
3789.92	1.1936
3799.84	4.80057
3809.75	1.70157
3819.67	1.4375
3829.59	0.877655
3839.51	5.43539
3849.43	3.43884
3859.34	11.0998
3869.26	7.40915
3879.18	1.01059
3889.1	7.36343
3899.02	10.3478
3908.93	2.06314
3918.85	4.26761
3928.77	7.64618
3938.69	6.91873
3948.61	7.10016
3958.53	10.6339
3968.44	8.04346
3978.36	12.0708
3988.28	0.717621
3998.2	2.57486
