Measurement: Raman, 514.5, ccw, Raman Data RAW
Mineral: Tazzoliite
Rruff sample: R130042
Ideal chemistry: Ba_2_CaSr_0.5_Na_0.5_Ti^4+^_2_Nb^5+^_3_SiO_17_[PO_2_(OH)_2_]_0.5_
Locality: Monte delle Basse, Euganei Hills, Galzignano Terme, Padova, Italy
Source: Fabrizio Nestola
Description: Lamellar pale orange transparent crystals. Associated with a diopsidic pyroxene and titanite. Data from Camara et al (2012)
Measured chemistry: (Ba_1.93_Ca_1.20_Sr_0.52_Na_0.25_Fe^2+^_0.10_)_Σ=4_(Nb_2.88_Ti_2.05_Ta_0.07_Zr_0.01_V^5+^_0.01_)_Σ=5.02_SiO_17_[(P_0.13_Si_0.12_S_0.07_)_Σ=0.32_O_0.66_(OH)_0.66_][F_0.09_(OH)_0.23_]_Σ=0.32_
Raman shift (cm-1)	intensity
150	3759.55
154.981	3933.38
159.961	4154.79
164.942	4365.5
169.922	4473.94
174.903	4520.58
179.884	4489.59
184.864	4473.56
189.845	4459.13
194.825	4639.34
199.806	4941.6
204.787	5069.18
209.767	4982
214.748	5050.55
219.728	5231.22
224.709	5441.91
229.69	5487.29
234.67	5379.38
239.651	5220.68
244.631	5170.96
249.612	5168.72
254.593	5235.5
259.573	5321.15
264.554	5309.59
269.534	5256.61
274.515	5090.8
279.495	4984.14
284.476	4979.59
289.457	5011.37
294.437	4894.73
299.418	4653.48
304.398	4462.11
309.379	4350.54
314.36	4354.78
319.34	4441.55
324.321	4521.14
329.301	4541.08
334.282	4398.04
339.263	4124.25
344.243	3860.65
349.224	3754.48
354.204	3693.35
359.185	3776.77
364.166	3812.59
369.146	3752.31
374.127	3657.96
379.107	3505.61
384.088	3470.47
389.069	3439.4
394.049	3406.35
399.03	3368.18
404.01	3340.96
408.991	3311.79
413.972	3390.96
418.952	3424.27
423.933	3377.61
428.913	3352.96
433.894	3333.53
438.875	3344.96
443.855	3408.5
448.836	3470.38
453.816	3479.03
458.797	3439.13
463.777	3363.24
468.758	3257.78
473.739	3203.16
478.719	3224.37
483.7	3319.41
488.68	3469.51
493.661	3627.73
498.642	3789.92
503.622	3924.36
508.603	4016.14
513.583	4103.33
518.564	4199.94
523.545	4256.64
528.525	4301.65
533.506	4277.22
538.486	4276.5
543.467	4320.05
548.448	4392.87
553.428	4546.38
558.409	4722.32
563.389	4802.92
568.37	4774.76
573.351	4693.46
578.331	4591.17
583.312	4440.21
588.292	4346.93
593.273	4252.92
598.254	4176.69
603.234	4112.96
608.215	4013.36
613.195	3958.04
618.176	3832.21
623.157	3774.84
628.137	3668.25
633.118	3596.89
638.098	3526.1
643.079	3453.55
648.06	3432.72
653.04	3358.36
658.021	3320.56
663.001	3258.53
667.982	3234.45
672.962	3225.01
677.943	3173.7
682.924	3185.77
687.904	3186.43
692.885	3183.66
697.865	3206.6
702.846	3220.14
707.827	3225.4
712.807	3317.02
717.788	3436.02
722.768	3641.61
727.749	3913.15
732.73	4315.16
737.71	4838.47
742.691	5425.75
747.671	5972.38
752.652	6274.15
757.633	6185.02
762.613	5917.76
767.594	5628.96
772.574	5351.14
777.555	5105.91
782.536	4797.31
787.516	4396.19
792.497	4085.28
797.477	3787.73
802.458	3565.52
807.439	3376.96
812.419	3232.25
817.4	3096.46
822.38	2999.24
827.361	2916.26
832.342	2797.8
837.322	2698.03
842.303	2596.37
847.283	2499.01
852.264	2423.99
857.245	2378.82
862.225	2351.47
867.206	2383.82
872.186	2391.3
877.167	2333.22
882.147	2249.59
887.128	2184.18
892.109	2125.18
897.089	2086.78
902.07	2057.34
907.05	2016.65
912.031	1992.57
917.012	1978.03
921.992	1961.42
926.973	1955.03
931.953	1975.99
936.934	1985.47
941.915	1969.49
946.895	1985.74
951.876	2033.32
956.856	2088.38
961.837	2084.76
966.818	2032.08
971.798	1997.96
976.779	1990.72
981.759	2003.97
986.74	1968.47
991.721	1925
996.701	1888.15
1001.68	1870.77
1006.66	1852.14
1011.64	1809.89
1016.62	1805.45
1021.6	1792.3
1026.58	1791.05
1031.57	1788.77
1036.55	1779.78
1041.53	1775.85
1046.51	1794.68
1051.49	1809.25
1056.47	1842.53
1061.45	1894.73
1066.43	1882.93
1071.41	1833.08
1076.39	1815.23
1081.37	1836.33
1086.35	1827.17
1091.33	1816.79
1096.31	1824.33
1101.29	1812.74
1106.27	1802.62
1111.25	1784.41
1116.24	1764.63
1121.22	1754.52
1126.2	1733.55
1131.18	1715.05
1136.16	1698.68
1141.14	1684.46
1146.12	1665.76
1151.1	1647.75
1156.08	1639.73
1161.06	1624.94
1166.04	1614.45
1171.02	1599.97
1176	1579.69
1180.98	1574.03
1185.96	1569.92
1190.94	1562.52
1195.92	1549.94
1200.91	1538.7
1205.89	1540.79
1210.87	1526.75
1215.85	1515.19
1220.83	1509.55
1225.81	1507.15
1230.79	1498.94
1235.77	1496.11
1240.75	1493.68
1245.73	1492.42
1250.71	1486.83
1255.69	1481.85
1260.67	1480.53
1265.65	1472.85
1270.63	1474.41
1275.61	1476.65
1280.6	1470.47
1285.58	1465.58
1290.56	1476.33
1295.54	1464.43
1300.52	1468.03
1305.5	1469.5
1310.48	1466.03
1315.46	1462.41
1320.44	1459.47
1325.42	1461.82
1330.4	1459.75
1335.38	1459.39
1340.36	1458.82
1345.34	1457.16
1350.32	1454.83
1355.3	1448.21
1360.28	1461.01
1365.27	1449.56
1370.25	1453.08
1375.23	1448.68
1380.21	1457.54
1385.19	1448.71
1390.17	1457.52
1395.15	1455.42
1400.13	1449.43
1405.11	1452.81
1410.09	1458.94
1415.07	1454.54
1420.05	1456.11
1425.03	1450.08
1430.01	1453.75
1434.99	1453.26
1439.97	1455.53
1444.95	1461.57
1449.94	1457.51
1454.92	1459.13
1459.9	1451.76
1464.88	1453.1
1469.86	1458.7
1474.84	1453.68
1479.82	1449.73
1484.8	1447.07
1489.78	1449.61
1494.76	1452.78
1499.74	1456.33
1504.72	1450.78
1509.7	1447.44
1514.68	1453.15
1519.66	1455.02
1524.64	1454.65
1529.62	1452.06
1534.61	1450.87
1539.59	1443.87
1544.57	1456.1
1549.55	1459.02
1554.53	1458.87
1559.51	1460.03
1564.49	1449.75
1569.47	1457.57
1574.45	1459.54
1579.43	1464.59
1584.41	1454.64
1589.39	1458.8
1594.37	1457.99
1599.35	1454.46
1604.33	1459.33
1609.31	1457.43
1614.29	1460.92
1619.28	1465.35
1624.26	1465.58
1629.24	1456.55
1634.22	1455.65
1639.2	1461.57
1644.18	1461.26
1649.16	1463.11
1654.14	1456.58
1659.12	1454.49
1664.1	1455.71
1669.08	1453.5
1674.06	1463.5
1679.04	1453.64
1684.02	1454.89
1689	1458.16
1693.98	1450.31
1698.97	1449.67
1703.95	1442.73
1708.93	1447.52
1713.91	1451.28
1718.89	1443.79
1723.87	1457.15
1728.85	1445.47
1733.83	1455.13
1738.81	1446.43
1743.79	1446.69
1748.77	1446.06
1753.75	1448.87
1758.73	1448.45
1763.71	1442.46
1768.69	1448.47
1773.67	1441.02
1778.65	1444.86
1783.64	1443.46
1788.62	1442.8
1793.6	1446.34
1798.58	1440.51
1803.56	1443.34
1808.54	1444.9
1813.52	1445.53
1818.5	1436.64
1823.48	1433.43
1828.46	1435.25
1833.44	1432.76
1838.42	1441.82
1843.4	1432.74
1848.38	1442.41
1853.36	1431.73
1858.34	1437.82
1863.32	1432.06
1868.31	1429.4
1873.29	1435.39
1878.27	1441.67
1883.25	1432.49
1888.23	1432.45
1893.21	1436.08
1898.19	1433.32
1903.17	1432.06
1908.15	1440.47
1913.13	1431.24
1918.11	1434.38
1923.09	1437.8
1928.07	1434.17
1933.05	1434.94
1938.03	1433.83
1943.01	1435.71
1947.99	1429.75
1952.98	1438.51
1957.96	1435.11
1962.94	1421.22
1967.92	1431.81
1972.9	1433.25
1977.88	1434.55
1982.86	1422.53
1987.84	1434.2
1992.82	1433.09
1997.8	1432.65
