Measurement: Raman, 632 nm, ccw, Raman Data Processed
Mineral: Yukonite
Rruff sample: X100001
Ideal chemistry: Ca_7_Fe^3+^_15_(As^5+^O_4_)_9_O_16_25H_2_O
Locality: Tagish Lake, Yukon, Canada
Source: Geological Survey of Canada
Description: Single homogeneous crystals. Sample and data are from Gomez et al (2010).
Raman shift (cm-1)	intensity
146.866	0
152.154	49.9605
157.438	292.737
162.719	517.372
167.996	618.383
173.27	736.929
178.539	1056.51
183.806	888.248
189.068	689.145
194.327	286.947
199.582	181.599
204.833	77.3184
210.081	15.2832
215.325	17.3306
220.566	198.152
225.803	431.207
231.036	475.15
236.265	647.918
241.491	679.709
246.714	879.023
251.932	758.645
257.147	724.671
262.359	589.187
267.567	715.797
272.771	645.924
277.972	568.148
283.169	428.151
288.362	446.463
293.552	602.218
298.738	522.444
303.921	431.078
309.1	271.593
314.275	407.735
319.447	355.559
324.616	335.325
329.78	351.456
334.942	627.912
340.099	600.736
345.253	707.507
350.404	903.331
355.551	1110.36
360.694	1241.12
365.834	1602.91
370.97	1903.17
376.103	2365.93
381.232	3105.61
386.358	3685.99
391.48	4047.71
396.599	3844.71
401.714	3349.24
406.826	2699.73
411.934	2084.86
417.039	1746.32
422.14	1592.33
427.237	1385.6
432.331	1358.43
437.422	1397.66
442.509	1345.58
447.593	1187.05
452.673	1028.75
457.749	1041.55
462.823	1024.83
467.892	1056.98
472.959	1149.9
478.021	1099.18
483.081	1232.27
488.136	1052.34
493.189	990.951
498.238	713.951
503.283	711.656
508.325	590.251
513.364	608.634
518.399	434.74
523.431	619.943
528.459	750.133
533.484	1153.7
538.505	1112.46
543.523	1012.8
548.538	624.178
553.549	395.278
558.557	160.219
563.561	118.416
568.562	3.21875
573.559	74.5796
578.553	20.0444
583.544	131.894
588.531	123.778
593.515	68.2266
598.496	1.03516
603.473	71.9502
608.447	10.6499
613.417	97.0598
618.384	159.451
623.348	330.784
628.308	222.406
633.265	334.787
638.219	341.176
643.169	468.738
648.116	467.424
653.059	531.264
657.999	426.474
662.936	651.225
667.87	686.039
672.8	863.813
677.727	935.081
682.65	1036.77
687.57	1205.53
692.487	1261.45
697.4	1353.91
702.311	1429.52
707.217	1454.6
712.121	1465.76
717.021	1407.85
721.918	1338.95
726.812	1073.51
731.702	1003.92
736.589	851.283
741.473	680.946
746.353	673.25
751.231	698.019
756.104	746.784
760.975	1009.97
765.842	1085.22
770.706	1216.42
775.567	1516.96
780.425	1592.19
785.279	1615.91
790.13	1738.01
794.978	1770.71
799.822	2044.12
804.664	2295.4
809.502	2467.68
814.336	2882.75
819.168	3521.86
823.996	3987.72
828.821	4633.07
833.643	4741.07
838.461	4533.69
843.277	4523.7
848.089	4471.89
852.898	4552.09
857.704	4525.31
862.506	4309.42
867.305	3755.1
872.101	3017.72
876.894	2405.88
881.684	1978.04
886.47	1555.27
891.254	1297.84
896.034	1038.17
900.81	903.539
905.584	724.446
910.355	639.204
915.122	563.023
919.886	412.437
924.647	283.436
929.405	119.269
934.16	31.8865
938.911	8.65063
943.659	71.7856
948.405	60.1909
953.147	64.355
957.886	60.1221
962.621	56.5037
967.354	43.6045
972.083	27.7056
976.81	46.7554
981.533	60.8457
986.253	5.34546
990.97	102.142
995.683	126.847
1000.39	53.6721
1005.1	195.871
1009.81	102.975
1014.51	101.605
1019.21	114.198
1023.9	180.635
1028.59	160.434
1033.28	125.308
1037.97	121.259
1042.65	177.727
1047.33	186.692
1052.01	164.628
1056.68	154.11
1061.35	205.852
1066.02	246.534
1070.68	190.313
1075.34	263.121
1080	251.513
1084.65	271.408
1089.31	313.954
1093.96	346.266
1098.6	334.731
1103.24	274.144
1107.88	383.203
1112.52	312.39
1117.15	319.984
1121.78	290.363
1126.41	287.349
1131.04	283.506
1135.66	125.851
1140.27	236.838
1144.89	228.025
1149.5	130.076
1154.11	105.448
1158.72	136.297
1163.32	163.199
1167.92	208.098
1172.52	21.8254
1177.11	92.7144
1181.7	16.4524
1186.29	166.405
1190.88	8.52539
1195.46	91.5901
1200.04	11.6396
1204.61	67.2844
1209.19	58.6096
1213.76	81.3691
1218.32	2.86304
1222.89	33.9233
1227.45	32.4543
1232.01	80.4822
1236.56	60.3835
1241.11	40.0493
1245.66	15.855
1250.21	4.37622
1254.75	32.9641
1259.29	1.53711
1263.83	72.4707
1268.37	12.0496
1272.9	42.3862
1277.43	159.786
1281.95	71.7104
1286.47	18.3618
1290.99	154.16
1295.51	102.45
1300.02	135.645
1304.53	177.525
1309.04	204.159
1313.55	234.333
1318.05	244.744
1322.55	179.633
1327.04	222.898
1331.54	140.191
1336.03	253.065
1340.52	280.14
1345	251.728
1349.48	204.446
1353.96	213.877
1358.44	235.51
1362.91	326.135
1367.38	307.675
1371.85	365.175
1376.31	278.138
1380.77	289.072
1385.23	350.012
1389.69	300.398
1394.14	308.94
1398.59	408.917
1403.04	271.374
1407.48	312.563
1411.92	306.498
1416.36	297.043
1420.8	241.836
1425.23	340.565
1429.66	287.038
1434.08	304.8
1438.51	270.574
1442.93	192.668
1447.35	67.6326
1451.76	216.381
1456.18	170.073
1460.59	22.0151
1464.99	85.4316
1469.4	222.936
1473.8	10.321
1478.2	26.1533
1482.59	102.366
1486.99	58.3772
1491.38	114.971
1495.76	64.8687
1500.15	23.7749
