Measurement: Raman, 532.6, ccw, Raman Data Processed
Mineral: Zaccariniite
Rruff sample: R130010
Ideal chemistry: RhNiAs
Locality: Synthetic
Source: Anna Vymazalova
Description: Opaque with metallic luster. It is brittle, with no cleavage. Data from Vymazalova et al. (2012)
Measured chemistry: Rh_1.02_Ni_0.98_As_1.00_
Raman shift (cm-1)	intensity
102.605	0
107.517	11.343
112.437	52.1545
117.35	118.621
122.262	210.785
127.174	389.595
132.079	524.038
136.983	580.041
141.881	535.527
146.785	433.846
151.675	460.119
156.572	205.939
161.461	331.9
166.35	423.899
171.232	541.308
176.114	448.162
180.996	443.781
185.87	611.635
190.744	762.069
195.61	443.045
200.477	233.53
205.343	185.234
210.21	169.601
215.061	138.771
219.92	126.129
224.771	90.4008
229.622	77.9423
234.473	83.3213
239.317	45.3163
244.161	44.8903
249.004	67.9325
253.84	82.6827
258.676	74.5156
263.504	56.8387
268.332	57.9092
273.161	70.8765
277.981	109.436
282.802	168.787
287.623	252.334
292.436	228.572
297.249	141.917
302.062	113.842
306.867	93.692
311.672	43.7616
316.47	30.6853
321.268	45.7895
326.066	14.0655
330.856	26.7496
335.646	13.6855
340.436	3.53503
345.218	12.7069
350.001	10.8402
354.783	17.8458
359.558	12.3889
364.333	2.17139
369.1	42.4932
373.875	3.5072
378.634	7.94104
383.401	13.0521
388.161	19.2531
392.92	36.7942
397.672	17.7228
402.424	0.379944
407.176	15.3705
411.92	12.0356
416.665	21.3823
421.401	30.322
426.145	7.32074
430.882	22.9109
435.611	4.83905
440.34	18.7888
445.069	2.09003
449.798	32.7256
454.519	25.3292
459.24	20.64
463.954	47.6238
468.668	54.3244
473.382	34.7067
478.088	27.4151
482.794	43.0045
487.5	67.6314
492.198	10.5329
496.896	46.6235
501.587	30.127
506.286	34.8875
510.969	53.6939
515.659	58.8476
520.343	32.7824
525.026	65.9987
529.709	46.3543
534.384	71.3554
539.052	87.0241
543.728	117.162
548.396	135.613
553.056	118.291
557.724	120.03
562.384	143.931
567.036	154.75
571.697	131.768
576.349	138.814
580.994	134.855
585.647	136.209
590.292	70.0887
594.929	120.092
599.566	96.9087
604.203	70.6528
608.841	84.6197
613.47	67.1458
618.1	82.3599
622.722	79.0579
627.344	72.5739
631.966	48.4427
636.58	66.23
641.195	74.0431
645.809	55.1233
650.416	51.0364
655.023	43.041
659.629	30.869
664.236	47.9866
668.827	41.8351
673.427	51.0784
678.018	27.6557
682.609	27.6327
687.201	15.4697
691.785	9.61841
696.368	15.6005
700.952	13.8864
705.528	20.7761
710.105	23.7583
714.673	4.09125
719.242	6.22882
723.81	13.0297
728.379	5.60321
732.94	23.1865
737.5	21.415
742.054	37.9571
746.607	9.95776
751.16	11.5559
755.714	15.4403
760.259	25.2781
764.797	41.4211
769.343	74.182
773.881	74.5684
778.411	54.259
782.949	41.916
787.479	49.9041
792.01	51.1777
796.532	71.4257
801.055	60.9788
805.578	85.8373
810.093	69.9702
814.608	39.7535
819.123	43.1565
823.63	25.5205
828.138	24.1891
832.637	0.212036
837.145	5.98077
841.645	1.83136
846.137	9.69641
850.637	7.36182
855.121	1.64276
859.613	27.631
864.098	2.69464
868.582	4.92566
873.067	8.83533
877.543	15.0947
882.02	19.0176
886.497	28.0459
890.966	17.7712
895.436	35.4153
899.897	44.34
904.359	56.5087
908.82	70.3494
913.282	70.3076
917.736	68.2343
922.19	63.6072
926.636	66.4008
931.082	74.5491
935.529	89.6208
939.975	81.7409
944.414	105.147
948.845	72.8967
953.283	120.631
957.714	112.328
962.145	100.041
966.576	111.397
971	113.407
975.415	143.092
979.839	150.42
984.255	143.081
988.67	152.702
993.078	147.687
997.486	168.286
1001.89	138.549
1006.3	163.833
1010.7	171.89
1015.1	171.912
1019.5	195.828
1023.89	173.743
1028.28	195.48
1032.67	205.552
1037.06	189.344
1041.44	219.579
1045.82	229.858
1050.2	223.461
1054.58	231.754
1058.95	223.478
1063.32	261.853
1067.69	256.853
1072.06	236.298
1076.42	280.794
1080.78	265.834
1085.14	275.489
1089.49	307.672
1093.85	270.129
1098.2	271.669
1102.55	297.95
1106.89	284.807
1111.23	261.791
1115.57	239.196
1119.91	230.842
1124.25	218.331
1128.58	180.91
1132.92	168.486
1137.24	163.757
1141.56	134.171
1145.89	132.784
1150.21	136.697
1154.53	131.312
1158.84	106.391
1163.15	115.657
1167.46	82.4367
1171.77	86.0553
1176.08	82.8332
1180.38	63.4836
1184.68	59.7999
1188.98	36.7953
1193.28	38.4424
1197.57	36.1007
1201.86	38.4687
1206.15	38.541
1210.43	26.9058
1214.71	17.9697
1219	22.0194
1223.27	25.7682
1227.55	23.8665
1231.82	11.9677
1236.1	23.0258
1240.36	28.7493
1244.63	14.8593
1248.89	11.4513
1253.15	23.5523
1257.41	3.75793
1261.67	25.0428
1265.91	2.6272
1270.17	20.5161
1274.42	21.7736
1278.66	22.994
1282.9	26.1997
1287.14	26.4236
1291.38	19.952
1295.62	34.4675
1299.86	15.9671
1304.08	19.491
1308.31	6.97302
1312.54	13.446
1316.76	29.218
1320.98	9.02295
1325.2	34.1064
1329.42	20.2181
1333.63	24.017
1337.84	16.4153
1342.05	15.116
1346.26	6.82947
1350.46	26.1852
1354.66	4.91724
1358.87	22.2559
1363.06	27.2261
1367.25	21.1767
1371.44	1.53705
1375.64	39.0796
1379.82	19.9998
1384.01	23.6011
1388.19	51.1715
1392.37	39.0361
1396.55	60.2331
1400.72	50.0539
1404.89	33.2537
1409.06	59.2961
1413.23	36.0451
1417.39	33.2438
1421.56	37.6069
1425.71	23.1871
1429.87	18.2291
1434.03	40.3149
1438.18	25.7398
1442.33	32.3907
1446.48	46.4323
1450.63	26.698
1454.77	40.5784
1458.91	21.8884
1463.04	38.0221
1467.18	22.921
1471.31	1.01562
1475.45	41.8379
1479.57	20.5647
1483.7	4.5448
1487.82	15.3341
1491.94	20.3795
1496.06	12.6899
1500.18	25.7187
1504.3	37.9168
1508.41	37.8716
1512.52	31.8121
1516.62	33.0505
1520.73	60.0131
1524.82	32.0406
1528.93	15.8403
1533.02	3.18878
1537.12	18.8411
1541.21	12.1911
1545.3	12.546
1549.39	60.8198
1553.47	28.9999
1557.56	25.7112
1561.64	21.8014
1565.72	5.06299
1569.79	20.5898
1573.86	24.967
1577.93	7.48718
1582.01	2.12604
1586.07	22.0548
1590.13	7.02039
1594.19	68.1641
1598.26	23.122
1602.31	18.9189
1606.36	22.7281
1610.42	33.193
1614.47	10.5744
1618.52	36.6062
1622.56	40.2531
1626.61	0
