Measurement: Raman, 532.6, ccw, Raman Data Processed
Mineral: Zaccariniite
Rruff sample: R130009
Ideal chemistry: RhNiAs
Locality: Loma Peguera chromitite, Dominican Replubic
Source: Anna Vymazalova
Description: Anhedral grains, intergrown with garutiite, in association with hexaferrum, Ru-Os-Ir-Fe alloys, and Ru-Os-Ir-Fe oxygenated compounds in chromite. Data from Vymazalova et al. (2012)
Measured chemistry: (Rh_1.01_Os_0.01_Ir_0.01_Ru_0.01_Pd_0.01_)_Σ=1.05_(Ni_1.00_Fe_0.02_)_Σ=1.02_(As_0.92_S_0.01_)_Σ=0.93_
Raman shift (cm-1)	intensity
127.174	0
132.079	31.6991
136.983	121.484
141.881	95.3395
146.785	66.8185
151.675	226.989
156.572	129.921
161.461	453.291
166.35	557.292
171.232	583.916
176.114	466.448
180.996	439.216
185.87	855.097
190.744	708.601
195.61	249.726
200.477	84.6252
205.343	69.0055
210.21	30.2082
215.061	46.9069
219.92	13.8239
224.771	7.68811
229.622	28.613
234.473	4.97803
239.317	15.4116
244.161	17.2444
249.004	31.0586
253.84	32.4592
258.676	37.4706
263.504	1.60217
268.332	30.2775
273.161	60.316
277.981	140.413
282.802	254.821
287.623	473.589
292.436	412.665
297.249	206.001
302.062	142.381
306.867	80.3821
311.672	50.0753
316.47	29.4833
321.268	28.8612
326.066	1.6936
330.856	3.72913
335.646	10.1515
340.436	0.113892
345.218	14.824
350.001	12.2423
354.783	3.60388
359.558	4.2096
364.333	23.3308
369.1	5.36829
373.875	8.03613
378.634	16.0082
383.401	0.409424
388.161	45.7197
392.92	46.1208
397.672	53.4932
402.424	61.8368
407.176	36.8318
411.92	60.4137
416.665	36.9939
421.401	44.1807
426.145	46.885
430.882	43.1896
435.611	103.074
440.34	87.1716
445.069	57.2154
449.798	22.6284
454.519	30.5115
459.24	43.4927
463.954	77.8262
468.668	85.4653
473.382	89.7609
478.088	77.7394
482.794	140.685
487.5	98.3351
492.198	52.3406
496.896	59.7336
501.587	71.3685
506.286	56.0354
510.969	76.005
515.659	77.8088
520.343	63.2356
525.026	82.5482
529.709	79.0685
534.384	113.052
539.052	142.649
543.728	139.948
548.396	177.615
553.056	155.896
557.724	144.864
562.384	213.89
567.036	175.257
571.697	125.658
576.349	167.313
580.994	127.928
585.647	146.184
590.292	129.422
594.929	117.651
599.566	93.3274
604.203	111.456
608.841	123.074
613.47	116.986
618.1	84.3545
622.722	109.078
627.344	100.397
631.966	87.7324
636.58	81.7022
641.195	80.1389
645.809	73.0894
650.416	95.7849
655.023	32.0114
659.629	42.1808
664.236	80.1223
668.827	47.9699
673.427	41.5752
678.018	15.6133
682.609	9.1294
687.201	55.1527
691.785	37.5968
696.368	1.24353
700.952	5.80969
705.528	18.4674
710.105	9.23242
714.673	26.271
719.242	9.58008
723.81	11.8536
728.379	12.5525
732.94	35.6407
737.5	55.6188
742.054	29.9495
746.607	31.2513
751.16	44.5254
755.714	85.4612
760.259	61.9889
764.797	73.8694
769.343	50.6924
773.881	31.4808
778.411	58.3004
782.949	58.0693
787.479	63.514
792.01	62.2135
796.532	87.8972
801.055	40.5963
805.578	43.5807
810.093	53.2011
814.608	52.7875
819.123	30.0504
823.63	35.2776
828.138	40.1405
832.637	5.36121
837.145	4.224
841.645	13.155
846.137	8.75989
850.637	8.44543
855.121	21.7861
859.613	9.03223
864.098	8.55725
868.582	4.54858
873.067	4.22082
877.543	13.6477
882.02	8.69665
886.497	12.3332
890.966	40.8054
895.436	61.8807
899.897	70.0757
904.359	57.4545
908.82	3.24316
913.282	33.2371
917.736	45.3317
922.19	52.4581
926.636	59.0092
931.082	92.1996
935.529	61.4844
939.975	83.9807
944.414	115.158
948.845	107.666
953.283	82.7894
957.714	109.122
962.145	155.431
966.576	103.575
971	124.374
975.415	119.518
979.839	167.321
984.255	125.479
988.67	179.982
993.078	120.781
997.486	182.281
1001.89	160.646
1006.3	134.109
1010.7	174.269
1015.1	209.825
1019.5	187.145
1023.89	159.503
1028.28	221.675
1032.67	180.44
1037.06	204.233
1041.44	193.999
1045.82	210.521
1050.2	246.898
1054.58	216.626
1058.95	240.579
1063.32	238.339
1067.69	238.024
1072.06	255.646
1076.42	289.18
1080.78	247.869
1085.14	220.485
1089.49	290.805
1093.85	290.814
1098.2	301.877
1102.55	294.288
1106.89	264.506
1111.23	251.268
1115.57	254.355
1119.91	217.013
1124.25	200.943
1128.58	144.064
1132.92	176.633
1137.24	176.45
1141.56	159.59
1145.89	115.083
1150.21	116.265
1154.53	131.531
1158.84	109.705
1163.15	87.2256
1167.46	77.4026
1171.77	84.9075
1176.08	78.2227
1180.38	72.7703
1184.68	89.3984
1188.98	43.9716
1193.28	74.9218
1197.57	46.5471
1201.86	38.5493
1206.15	14.5686
1210.43	16.5851
1214.71	9.66431
1219	40.5935
1223.27	55.1967
1227.55	33.3449
1231.82	7.54785
1236.1	8.2218
1240.36	40.9778
1244.63	10.2623
1248.89	24.1815
1253.15	48.5532
1257.41	5.38086
1261.67	4.96716
1265.91	33.0084
1270.17	17.0358
1274.42	25.8187
1278.66	4.73975
1282.9	18.7589
1287.14	33.4205
1291.38	35.4237
1295.62	37.7507
1299.86	0.239014
1304.08	48.739
1308.31	4.24915
1312.54	58.0332
1316.76	18.9886
1320.98	14.6418
1325.2	12.8744
1329.42	32.8004
1333.63	21.0095
1337.84	3.74231
1342.05	4.88318
1346.26	28.6569
1350.46	30.1947
1354.66	9.7301
1358.87	40.7734
1363.06	47.543
1367.25	35.0532
1371.44	36.212
1375.64	46.4096
1379.82	60.8358
1384.01	66.6907
1388.19	85.8435
1392.37	35.0355
1396.55	66.9651
1400.72	42.4154
1404.89	53.1158
1409.06	76.3096
1413.23	72.2554
1417.39	41.3453
1421.56	52.4443
1425.71	96.5702
1429.87	34.3805
1434.03	9.89539
1438.18	3.36511
1442.33	23.1173
1446.48	44.0707
1450.63	76.889
1454.77	81.5338
1458.91	52.9194
1463.04	11.8707
1467.18	45.7982
1471.31	66.4394
1475.45	65.1766
1479.57	33.7053
1483.7	0.265625
1487.82	89.9016
1491.94	10.3318
1496.06	54.5353
1500.18	16.2985
1504.3	72.3431
1508.41	22.7098
1512.52	30.042
1516.62	57.1135
1520.73	62.839
1524.82	37.434
1528.93	73.2198
1533.02	76.4183
1537.12	75.8994
1541.21	11.545
1545.3	49.3204
1549.39	36.5525
1553.47	37.1798
1557.56	100.159
1561.64	53.6588
1565.72	47.9049
1569.79	3.40295
1573.86	29.9935
1577.93	50.54
1582.01	39.1558
1586.07	63.7502
1590.13	42.5431
1594.19	55.0046
1598.26	74.7554
1602.31	8.95972
1606.36	13.8181
1610.42	49.5087
1614.47	36.0688
1618.52	36.6829
1622.56	40.2336
1626.61	0
