Measurement: Raman, 514 nm, depolarized, Raman Data Processed
Mineral: Actinolite
Rruff sample: R050336
Ideal chemistry: Ca_2_(Mg_4.5-2.5_Fe^2+^_0.5-2.5_)Si_8_O_22_(OH)_2_
Locality: Kragerø, Norway
Source: California Institute of Technology
Description: Dark green prismatic fragment
Measured chemistry: ([box]_0.62_Na_0.34_K_0.04_)(Ca_1.60_Na_0.40_)_Σ=2_(Mg_3.90_Fe^2+^_0.70_Al_0.20_Ti_0.10_Fe^3+^_0.10_)_Σ=5_(Si_7.52_Al_0.48_)_Σ=8_O_22_((OH)_0.97_F_0.03_)_2_
Pin_id: M00343
Orientation: Laser parallel to -a* (-1 0 0). Fiducial mark perpendicular to laser is parallel to b [0 1 0]
Raman shift (cm-1)	intensity
144.817	0
149.732	125.56
154.644	1093.39
159.554	1856.97
164.461	1970.48
169.366	2378.32
174.269	3288.47
179.168	3579.77
184.066	2481.26
188.961	1725.85
193.853	1313.76
198.743	1366.9
203.631	1609.71
208.516	2731.75
213.398	4785.33
218.278	7235.49
223.156	9340.72
228.031	9826.22
232.903	8197.15
237.773	5190.44
242.641	3503.79
247.506	2806.78
252.368	1898.89
257.228	963.858
262.086	334.867
266.941	139.582
271.793	379.896
276.643	351.201
281.491	180.516
286.336	205.873
291.178	477.688
296.018	649.731
300.856	825.145
305.691	725.195
310.523	515.089
315.353	693.214
320.181	908.662
325.006	1075.86
329.828	1382.86
334.648	1518.9
339.465	1370.92
344.28	1126.86
349.093	1288.77
353.903	1604.09
358.71	2381.51
363.515	3851.41
368.317	4950.02
373.117	4830.31
377.914	4518.2
382.709	5570.62
387.501	7318.28
392.291	7703.81
397.078	5799.46
401.863	4062.44
406.645	3991.71
411.425	4644.97
416.202	4756.56
420.977	3821.97
425.749	2802
430.518	2310.44
435.285	1842.41
440.05	1241.51
444.812	618.429
449.571	266.61
454.328	225.011
459.083	130.63
463.835	251.917
468.584	285.848
473.331	301.352
478.075	333.979
482.817	464.976
487.556	685.148
492.293	920.453
497.027	1404.52
501.758	1985.55
506.488	2859.3
511.214	3593.76
515.938	3889.9
520.66	3976.7
525.379	4160.13
530.095	4033.18
534.809	3976.83
539.52	3906.06
544.229	3699.84
548.935	3403.18
553.639	3300.19
558.34	3376.64
563.039	3460.23
567.735	3283
572.428	2928.59
577.119	2157.41
581.808	1524.28
586.494	665.715
591.177	131.651
595.858	192.651
600.536	306.069
605.212	131.703
609.885	117.171
614.556	74.8769
619.224	201.619
623.889	480.115
628.552	699.905
633.213	1162.05
637.871	1836.41
642.526	2697.29
647.179	3636.68
651.829	5393.3
656.477	8453.3
661.122	14469.7
665.764	25338.5
670.404	34810.6
675.042	30639.2
679.677	18150.2
684.309	10382.6
688.939	7290.4
693.566	6075.67
698.191	5662.39
702.813	5985.91
707.432	6461.09
712.049	7307.05
716.664	8168.22
721.276	9079.1
725.885	9614.15
730.492	9720.82
735.096	9838.25
739.697	9336.87
744.297	8312.83
748.893	7222.89
753.487	5794.95
758.078	4649.24
762.667	3828.84
767.253	3384.8
771.837	2797.9
776.418	2654.54
780.997	2549.09
785.573	2402.46
790.146	2265.98
794.717	2065.77
799.285	1818.98
803.851	1604.67
808.414	1236.43
812.975	1041.28
817.533	875.244
822.088	598.342
826.641	458.331
831.192	187.04
835.739	48.6797
840.284	171.537
844.827	184.624
849.367	149.019
853.904	76.6865
858.439	11.001
862.972	12.2227
867.501	158.736
872.029	319.589
876.553	429.315
881.075	576.219
885.595	826.16
890.111	1141.59
894.626	1079.04
899.137	1286.12
903.647	1265.86
908.153	1453.27
912.657	1722.52
917.158	1891.83
921.657	2579.07
926.154	2742.11
930.647	2750.88
935.138	2024.53
939.627	1692.99
944.113	1647.2
948.596	1725.12
953.077	1380.85
957.555	1384.35
962.031	1520.54
966.504	1507.34
970.974	1621.72
975.442	1514.5
979.907	1490.92
984.37	1419.28
988.83	1623.11
993.288	1880.73
997.742	2111.38
1002.2	2570.96
1006.64	3110.28
1011.09	3310.68
1015.54	3826.72
1019.98	4054.33
1024.42	4735.49
1028.86	5323.25
1033.29	4838.02
1037.72	4517.59
1042.15	4074.11
1046.58	3989.89
1051	4318.05
1055.42	4751.18
1059.84	5230.18
1064.26	4963.08
1068.67	4219.18
1073.08	3204.47
1077.49	2643.05
1081.89	2293.43
1086.3	2132.15
1090.7	1687.35
1095.1	1580.13
1099.49	1153.6
1103.88	1172.36
1108.28	989.701
1112.66	778.554
1117.05	840.736
1121.43	873.001
1125.81	633.159
1130.19	540.9
1134.56	439.375
1138.93	309.131
1143.3	258.001
1147.67	212.048
1152.04	89.2793
1156.4	53.0693
1160.76	14.6494
1165.11	95.1572
1169.47	97.5644
1173.82	81.083
1178.17	215.686
1182.51	8.77539
1186.86	95.5098
1191.2	34.1309
1195.54	16.3975
1199.87	87.166
1204.2	13.502
1208.54	11.3066
1212.86	28.4922
1217.19	10.1533
1221.51	58.5557
1225.83	74.2549
1230.15	270.969
1234.46	111.061
1238.78	152.785
1243.09	191.483
1247.39	252.617
1251.7	186.954
1256	234.915
1260.3	330.233
1264.6	273.014
1268.89	173.231
1273.18	267.825
1277.47	291.236
1281.76	333.97
1286.04	278.288
1290.32	238.525
1294.6	324.931
1298.88	305.609
1303.15	310.434
1307.42	295.44
1311.69	217.412
1315.96	151.888
1320.22	280.219
1324.48	140.595
1328.74	85.8027
1332.99	152.216
1337.24	237.808
1341.49	44.0527
1345.74	201.626
1349.99	131.737
1354.23	41.5107
1358.47	63.8418
1362.71	28.458
1366.94	196.085
1371.17	127.51
1375.4	187.782
1379.63	47.373
1383.85	97.4971
1388.07	110.491
1392.29	95.335
1396.51	80.7519
1400.72	11.6523
1404.93	83.9248
1409.14	127.251
1413.35	136.54
1417.55	102.633
1421.75	230.089
1425.95	115.718
1430.14	156.984
1434.34	179.935
1438.53	234.551
1442.71	210.217
1446.9	294.742
1451.08	331.692
1455.26	291.548
1459.44	220.601
1463.61	89.3096
1467.78	272.946
1471.95	296.406
1476.12	388.598
1480.28	145.036
1484.45	115.495
1488.61	264.246
1492.76	92.6484
1496.91	100.841
1501.07	29.3916
1505.21	61.0176
1509.36	19.3857
1513.5	25.7812
1517.64	70.2773
1521.78	158.56
1525.92	106.329
1530.05	74.4902
1534.18	128.913
1538.31	0.875977
