Measurement: Raman, 514 nm, depolarized, Raman Data Processed
Mineral: Actinolite
Rruff sample: R040064
Ideal chemistry: Ca_2_(Mg_4.5-2.5_Fe^2+^_0.5-2.5_)Si_8_O_22_(OH)_2_
Locality: Ehime Perfecture, Uma Gun, Japan
Source: University of Arizona Mineral Museum
Description: Aggregate of green acicular crystals associated with chlorite
Measured chemistry: (Ca_0.95_Na_0.04_Mn_0.01_)_2_(Mg_0.88_Fe_0.12_)_5_(Si_0.98_Al_0.02_)_8_O_22_(OH)_2_
Pin_id: M00235
Orientation: Laser parallel to b* (0 1 0). Fiducial mark perpendicular to laser is parallel to -c [0 0 -1]
Raman shift (cm-1)	intensity
106.729	0
110.905	551.734
115.079	1643.82
119.251	2699.77
123.422	2912.12
127.59	1595.68
131.756	531.691
135.92	125.981
140.082	75.234
144.242	22.298
148.4	88.479
152.556	927.639
156.71	2804.81
160.862	4560.9
165.012	2346.39
169.16	1071.33
173.306	2435.9
177.449	5780.18
181.591	5764.19
185.731	2411.44
189.869	1184.1
194.005	700.244
198.139	447.157
202.271	625.4
206.4	664.705
210.528	1054.39
214.654	2087.76
218.778	4498.17
222.9	7328.88
227.019	5950.32
231.137	3152.2
235.253	1384.06
239.367	545.871
243.479	187.62
247.589	419.334
251.697	430.983
255.803	442.619
259.906	214.363
264.008	106.05
268.108	222.362
272.206	32.841
276.302	528.854
280.396	1762.54
284.488	2077.09
288.578	1523.55
292.666	1109.12
296.753	746.2
300.837	832.468
304.919	916.187
308.999	571.37
313.077	242.859
317.154	50.622
321.228	25.889
325.3	259.34
329.371	483.108
333.439	827.6
337.506	891.9
341.57	1047.52
345.633	978.795
349.693	1143.69
353.752	984.975
357.809	895.557
361.863	916.104
365.916	1756.6
369.967	2807.03
374.016	2267.37
378.063	1357.62
382.108	968.499
386.151	1299.07
390.192	2418.99
394.231	3268.83
398.269	2269.66
402.304	1116.87
406.337	816.823
410.369	756.663
414.398	1287.05
418.426	1127.33
422.452	816.336
426.475	604.053
430.497	274.26
434.517	471.049
438.535	558.464
442.551	244.13
446.565	14.096
450.577	15.328
454.588	173.543
458.596	152.564
462.602	229.416
466.607	44.263
470.61	81.745
474.61	12.44
478.609	12.555
482.606	246.371
486.601	171.583
490.594	110.426
494.585	111.682
498.575	83.593
502.562	9.25
506.548	24.71
510.531	148.319
514.513	241.736
518.493	265.1
522.47	288.332
526.446	481.397
530.421	374.346
534.393	397.42
538.363	70.379
542.331	73.234
546.298	385.939
550.263	278.618
554.225	151.104
558.186	163.38
562.145	345.368
566.103	167.018
570.058	108.588
574.011	229.995
577.963	261.133
581.912	362.193
585.86	72.891
589.806	35.968
593.75	104.923
597.692	195.741
601.632	116.098
605.571	15.723
609.507	240.061
613.442	20.096
617.375	135.402
621.306	291.375
625.235	385.734
629.162	328.93
633.087	437.002
637.011	655.098
640.932	897.463
644.852	1316.69
648.77	2027.14
652.686	3024.7
656.6	3712.53
660.513	4482.85
664.423	6902.82
668.332	13428.5
672.239	25499.6
676.144	25416.9
680.047	12954.8
683.948	6112.21
687.848	3180.26
691.746	2277.9
695.641	1602.9
699.535	1180.43
703.427	929.098
707.318	844.109
711.206	1228.82
715.093	1332.14
718.978	818.65
722.861	432.246
726.742	267.826
730.621	420.236
734.499	692.295
738.374	594.582
742.248	215.549
746.12	683.691
749.99	936.377
753.859	1016.72
757.725	460.203
761.59	417.389
765.453	657.889
769.314	376.387
773.174	277.486
777.031	156.174
780.887	246.586
784.741	116.896
788.593	206.99
792.443	276.846
796.291	406.398
800.138	245.531
803.983	34.275
807.826	82.781
811.667	181.053
815.507	189.121
819.344	379.113
823.18	164.924
827.014	147.547
830.847	59.494
834.677	76.527
838.506	53.135
842.333	132.713
846.158	94.713
849.981	190.041
853.803	124.771
857.623	329.352
861.441	443.572
865.257	267.674
869.071	261.703
872.884	155.686
876.695	469.504
880.504	423.006
884.311	56.439
888.117	259.779
891.92	322.908
895.722	235.91
899.523	329.1
903.321	352.293
907.118	555.486
910.913	558.656
914.706	771.812
918.497	854.902
922.287	1437.91
926.075	1950.85
929.861	3073.04
933.645	2704.91
937.428	1566.69
941.208	1765.92
944.987	1425.92
948.765	1253.46
952.54	1194.04
956.314	852.082
960.086	753.213
963.856	786.873
967.625	657.516
971.392	650.053
975.157	690.824
978.92	767.816
982.682	529.236
986.441	378.73
990.199	330.656
993.956	321.373
997.71	554.6
1001.46	528.248
1005.21	363.594
1008.96	554.098
1012.71	687.932
1016.46	886.725
1020.2	961.314
1023.94	1675.53
1027.68	2069.93
1031.42	2127.16
1035.16	1721.53
1038.9	1706.38
1042.63	2236.96
1046.36	2281.21
1050.09	3466.23
1053.82	5830.63
1057.55	8385.2
1061.27	8299.26
1065	5142.39
1068.72	3894.56
1072.44	2887.58
1076.16	1949.56
1079.87	1611.72
1083.59	3252.7
1087.3	11393.9
1091.01	3054.19
1094.72	444.082
1098.43	613.801
1102.14	674.768
1105.84	195.715
1109.55	316.959
1113.25	186.541
1116.94	27.771
1120.64	227.512
1124.34	237.299
1128.03	6.223
1131.73	396.561
1135.42	178.729
1139.11	168.518
1142.8	68.283
1146.48	39.025
1150.16	392.621
1153.85	332.998
1157.53	140.861
1161.21	108.871
1164.88	66.68
1168.56	95.219
1172.23	96.918
1175.91	80.832
1179.58	347.045
1183.25	545.008
1186.91	523.908
1190.58	279.896
1194.24	122.932
1197.91	105.016
1201.57	36.783
1205.23	467.439
1208.88	397.48
1212.54	557.43
1216.19	536.084
1219.85	564.051
1223.5	550.529
1227.14	827.318
1230.79	781.33
1234.44	494.283
1238.08	696.08
1241.72	565.955
1245.37	615.096
1249	763.008
1252.64	219.34
1256.28	705.557
1259.91	350.252
1263.54	452.992
1267.17	376.336
1270.8	407.578
1274.43	455.887
1278.06	264.627
1281.68	382.523
1285.3	236.998
1288.92	354.41
1292.54	368.264
1296.16	298.988
1299.78	3.963
1303.39	604
1307	455.381
1310.61	254.129
1314.22	100.307
1317.83	513.074
1321.44	237.227
1325.04	4.123
1328.64	47.092
1332.24	201.262
1335.85	517.68
1339.44	613.084
1343.04	1081.79
1346.63	1022.94
1350.23	671.471
1353.82	727.713
1357.41	767.994
1360.99	367.863
1364.58	557.594
1368.17	647.414
1371.75	419.898
1375.33	349.457
1378.91	604.812
1382.49	623.176
1386.07	719.43
1389.64	448.316
1393.21	292.562
1396.79	60.723
1400.36	352.566
1403.92	150.164
1407.49	31.797
1411.06	475.82
1414.62	561.969
1418.18	91.086
1421.74	1.137
1425.3	336.066
1428.86	1.52
