Measurement: Raman, 514 nm, depolarized, Raman Data Processed
Mineral: Actinolite
Rruff sample: R040064
Ideal chemistry: Ca_2_(Mg_4.5-2.5_Fe^2+^_0.5-2.5_)Si_8_O_22_(OH)_2_
Locality: Ehime Perfecture, Uma Gun, Japan
Source: University of Arizona Mineral Museum
Description: Aggregate of green acicular crystals associated with chlorite
Measured chemistry: (Ca_0.95_Na_0.04_Mn_0.01_)_2_(Mg_0.88_Fe_0.12_)_5_(Si_0.98_Al_0.02_)_8_O_22_(OH)_2_
Pin_id: M00405
Orientation: Laser parallel to a [1 0 0]. Fiducial mark perpendicular to laser is parallel to b* (0 1 0)
Raman shift (cm-1)	intensity
107.817	0
111.996	790.844
116.172	2522.43
120.347	3272.84
124.519	2207.37
128.69	773.188
132.858	265.132
137.025	8.283
141.189	144.758
145.352	51.579
149.512	199.229
153.67	468.788
157.827	1758.84
161.981	1218.25
166.133	307.419
170.283	831.633
174.431	2674.9
178.577	3573.4
182.721	1611.77
186.863	520.062
191.003	285.218
195.141	364.302
199.277	160.968
203.411	394.981
207.543	1040.18
211.673	1785.7
215.801	3374.53
219.927	6220.25
224.051	6816.4
228.173	7162.94
232.292	6729.69
236.41	3456.55
240.526	1803.45
244.64	2110.38
248.752	2577.34
252.861	1884.32
256.969	982.25
261.075	608.46
265.179	485.18
269.281	62.683
273.38	18.065
277.478	95.548
281.574	135.761
285.668	44.549
289.76	327.604
293.85	212.064
297.937	405.979
302.023	680.033
306.107	403.592
310.189	251.942
314.269	146.01
318.347	157.832
322.423	7.208
326.497	266.479
330.569	485.681
334.639	654.817
338.707	571.515
342.773	700.787
346.837	989.721
350.899	1528.59
354.96	1357.19
359.018	1174.73
363.074	2081.68
367.128	4418.63
371.181	4425.55
375.231	2552.44
379.28	1979.27
383.326	2146.03
387.37	4102.74
391.413	6829.4
395.454	5876.28
399.492	3299.76
403.529	1971.63
407.564	2218.63
411.596	3306.73
415.627	3883.05
419.656	2849.23
423.683	1545.49
427.708	811.698
431.731	918.097
435.752	1084.33
439.772	759.181
443.789	231.478
447.804	61.87
451.817	42.275
455.829	203.21
459.838	8.356
463.846	8.497
467.852	65.316
471.855	188.97
475.857	7.396
479.857	206.444
483.855	207.356
487.851	220.803
491.845	144.234
495.837	92.433
499.828	60.577
503.816	153.54
507.802	366.468
511.787	629.396
515.77	862.189
519.75	864.97
523.729	967.793
527.706	1380.6
531.681	973.355
535.654	636.013
539.625	348.551
543.595	310.972
547.562	263.281
551.527	65.486
555.491	287.646
559.453	19.648
563.412	71.485
567.37	63.182
571.326	184.725
575.28	296.107
579.233	107.361
583.183	228.479
587.131	69.464
591.078	9.693
595.022	161.077
598.965	11.705
602.906	82.404
606.845	142.279
610.782	165.224
614.718	90.032
618.651	57.102
622.582	221.966
626.512	229.739
630.44	288.786
634.366	455.147
638.29	584.653
642.212	771.623
646.132	1294.75
650.05	1637.71
653.967	2381.46
657.882	3473.55
661.794	5774.32
665.705	11503.9
669.614	24742.6
673.522	32640.3
677.427	18587.8
681.331	8595.67
685.232	4649.37
689.132	3180.04
693.03	1948.24
696.926	1486.69
700.82	944.668
704.713	894.386
708.603	808.169
712.492	605.489
716.379	270.349
720.264	507.212
724.147	493.652
728.028	559.084
731.908	495.777
735.785	622.301
739.661	988.824
743.535	1234.79
747.407	1658.92
751.278	1831.44
755.146	895.938
759.013	500.543
762.878	284.344
766.741	269.855
770.602	371.793
774.461	77.35
778.319	108.01
782.174	324.211
786.028	140.357
789.88	126.465
793.73	222.521
797.579	111.617
801.425	46.199
805.27	20.996
809.113	164.123
812.954	359.223
816.794	94.004
820.631	118.535
824.467	22.834
828.301	177.006
832.133	290.904
835.963	134.447
839.792	167.775
843.618	30.973
847.443	14.115
851.266	97.221
855.088	110.328
858.907	283.434
862.725	96.473
866.541	149.49
870.355	362.596
874.167	395.822
877.978	249.07
881.787	432.43
885.594	285.832
889.399	309.289
893.202	322.779
897.004	366.334
900.803	489.965
904.601	583.695
908.398	537.607
912.192	631.566
915.985	835.592
919.776	1069.68
923.565	2053.86
927.352	2927.77
931.138	3162.01
934.922	1896.34
938.704	1420.67
942.484	1384.62
946.262	1379
950.039	927.939
953.814	832.725
957.587	405.09
961.359	589.773
965.128	550.957
968.896	273.65
972.662	327.693
976.427	342.355
980.189	18.469
983.95	474.75
987.709	340.898
991.467	450.502
995.222	393.383
998.976	428.574
1002.73	514.375
1006.48	626.189
1010.23	840.104
1013.97	1202.85
1017.72	1582.35
1021.46	2605.79
1025.2	4293.71
1028.94	5246.88
1032.68	3944.73
1036.42	2135.76
1040.15	2033.6
1043.89	1893.12
1047.62	2014.92
1051.35	2674.08
1055.07	3742.25
1058.8	4609.27
1062.52	3796.5
1066.25	3326.44
1069.97	3213.95
1073.69	1770.72
1077.4	1307.8
1081.12	936.322
1084.83	883.34
1088.55	729.865
1092.26	522.234
1095.96	562.861
1099.67	419.162
1103.38	285.949
1107.08	64.379
1110.78	136.99
1114.48	362.885
1118.18	449.867
1121.88	487.002
1125.57	262.275
1129.27	219.494
1132.96	51.982
1136.65	157.875
1140.34	109.57
1144.02	154.635
1147.71	143.557
1151.39	541.133
1155.07	372.428
1158.75	60.008
1162.43	160.135
1166.11	41.072
1169.78	196.381
1173.45	370.609
1177.12	334.039
1180.79	290.832
1184.46	194.555
1188.13	2.805
1191.79	28.199
1195.45	45.334
1199.11	214.76
1202.77	592.715
1206.43	492.104
1210.09	323.168
1213.74	246.365
1217.39	303.355
1221.05	140.291
1224.69	58.355
1228.34	306.859
1231.99	658.498
1235.63	427.656
1239.27	780.852
1242.91	443.455
1246.55	364.926
1250.19	36.506
1253.83	41.799
1257.46	409.711
1261.09	620.172
1264.72	720.582
1268.35	789.383
1271.98	597.449
1275.61	564.35
1279.23	449.607
1282.85	21.459
1286.47	26.541
1290.09	226.961
1293.71	229.562
1297.33	521.604
1300.94	666.561
1304.55	463.26
1308.16	18.01
1311.77	7.018
1315.38	106.256
1318.99	98.461
1322.59	180.385
1326.19	563.83
1329.79	593.053
1333.39	583.531
1336.99	661.264
1340.59	469.256
1344.18	278.102
1347.77	47.027
1351.37	4.162
1354.95	16.455
1358.54	327.701
1362.13	464.238
1365.71	880.168
1369.3	507.262
1372.88	452.846
1376.46	288.539
1380.04	234.697
1383.61	182.211
1387.19	345.818
1390.76	205.064
1394.33	219.154
1397.9	482.279
1401.47	525.223
1405.04	920.176
1408.6	520.854
1412.16	438.668
1415.72	451.803
1419.29	169.746
1422.84	183.236
1426.4	120.246
1429.96	152.652
1433.51	496.283
1437.06	348.75
1440.61	999.256
1444.16	1097.46
1447.71	863.393
1451.25	671.625
1454.8	645.17
1458.34	486.766
1461.88	553.094
1465.42	186.863
1468.96	411.961
1472.49	358.424
1476.03	370.645
1479.56	854.977
1483.09	976.492
1486.62	1012.95
1490.15	809.631
1493.67	525.947
1497.2	273.709
1500.72	118.279
1504.24	57.465
1507.76	56.967
1511.28	49.938
1514.8	444.324
1518.31	527.746
