Measurement: Raman, 514 nm, ccw, Raman Data RAW
Mineral: Actinolite
Rruff sample: R040063
Ideal chemistry: Ca_2_(Mg_4.5-2.5_Fe^2+^_0.5-2.5_)Si_8_O_22_(OH)_2_
Locality: Harford County, Maryland, USA
Source: University of Arizona Mineral Museum
Description: Mass of green acicular to bladed crystals associated with chlorite
Measured chemistry: (Ca_1.90_Na_0.06_Mn_0.04_)_Σ=2_(Mg_4.35_Fe_0.65_)_Σ=5_(Si_7.92_Al_0.08_)_Σ=8_O_22_(OH)_2_
Pin_id: S00298
Orientation: Laser parallel to -a* (-1 0 0). Fiducial mark perpendicular to laser is parallel to b [0 1 0]
Raman shift (cm-1)	intensity
62.903	208
67.906	263
72.906	252
77.902	392
82.896	683
87.886	1221
92.873	2427
97.857	4189
102.837	7361
107.814	12570
112.789	23319
117.759	38600
122.727	40924
127.692	24903
132.653	12704
137.611	9009
142.566	7944
147.518	7875
152.466	9145
157.412	11424
162.354	11470
167.293	11638
172.229	19229
177.162	29208
182.091	25156
187.018	13612
191.941	9625
196.861	8594
201.778	8542
206.692	9261
211.603	11618
216.511	16490
221.415	22535
226.317	23013
231.215	19078
236.11	15609
241.002	11862
245.891	11481
250.777	11858
255.66	11136
260.54	9528
265.417	8558
270.29	8135
275.161	7903
280.028	8267
284.893	9400
289.754	10803.4
294.612	10930
299.468	10903
304.32	10796
309.169	9705
314.015	8915
318.858	8798
323.698	9473
328.535	11141
333.369	12566
338.2	11921
343.028	11202
347.853	10957
352.675	10861
357.494	11387.7
362.31	14450
367.122	20344
371.932	22396
376.739	17804
381.543	17106
386.344	23527
391.142	34287
395.937	34984
400.729	22585
405.518	16799
410.304	17727
415.087	19702
419.868	17627
424.645	12939
429.419	10224
434.19	9525
438.959	9050
443.724	8270
448.487	7709
453.246	7489
458.003	7534
462.757	7478
467.508	7657
472.256	7540
477.001	7838
481.743	8400
486.482	9015
491.218	8283
495.952	7660
500.682	7441
505.41	7759
510.134	8284
514.856	8544
519.575	8653
524.291	8926
529.005	9521
533.715	9989.49
538.422	10108
543.127	9960
547.829	9741
552.528	9478
557.224	9125.58
561.917	8969.79
566.608	8708.65
571.295	8736.06
575.98	8760
580.662	8727
585.341	8406
590.017	8097.52
594.691	7456
599.361	7272
604.029	7247
608.694	7318.83
613.356	7412
618.016	7578
622.672	7944
627.326	8513
631.977	8721
636.625	9331
641.271	10274
645.914	11870.6
650.553	14356
655.191	18577
659.825	27389
664.457	50677
669.085	103021
673.711	145501
678.335	100985
682.955	46051
687.573	24593
692.188	17161
696.801	13419
701.41	11673
706.017	10565
710.621	9884
715.223	9486
719.821	9321
724.417	9311
729.011	9559
733.601	9965
738.189	10674
742.774	11957
747.357	14132
751.936	14638
756.513	12064
761.088	10014
765.659	9031
770.228	8861
774.795	8494
779.358	8316
783.919	8158
788.478	8111
793.033	8056
797.586	7995
802.136	7989
806.684	7972
811.229	7876
815.771	7955
820.311	8052
824.848	8064
829.382	8229
833.914	8288
838.443	8400
842.97	8523
847.494	8566.83
852.015	8658
856.534	8609
861.05	8745
865.563	8813.41
870.074	8602
874.582	8711
879.088	8832
883.591	8898
888.091	8941
892.589	9202
897.084	9235
901.577	9394
906.067	9675
910.554	9789
915.039	10123
919.521	11148
924.001	13427
928.478	16672
932.953	17374
937.425	14105
941.894	11864
946.361	11040
950.825	10391
955.287	10028
959.747	9642
964.203	9443
968.657	9245
973.109	9393
977.558	9371.24
982.005	9298
986.449	9450
990.89	9450
995.33	9625
999.766	9977
1004.2	10495
1008.63	10586
1013.06	11074
1017.49	11908
1021.91	13999
1026.33	18371
1030.75	18804
1035.17	14817
1039.58	12998
1043.99	12058
1048.4	12752
1052.81	15277
1057.21	18300
1061.62	18418
1066.01	18628
1070.41	18251
1074.81	14570
1079.2	12482
1083.59	11391
1087.97	10781.2
1092.36	10431.1
1096.74	9975.87
1101.12	9824
1105.5	9742
1109.87	9974
1114.24	9571
1118.61	9481
1122.98	9415
1127.35	9378.06
1131.71	9287.37
1136.07	9091.32
1140.42	9183.74
1144.78	9161.76
1149.13	8973
1153.48	8995
1157.83	8843
1162.18	8820
1166.52	8859
1170.86	8879
1175.2	8855
1179.54	8732.92
1183.87	8853
1188.2	8768
1192.53	8846
1196.86	8755
1201.18	8884
1205.5	8792
1209.82	8834
1214.14	8857
1218.45	8924.71
1222.77	8878
1227.08	8921
1231.38	8958
1235.69	9040
1239.99	9210.78
1244.29	9109.19
1248.59	9211.51
1252.89	9248.18
1257.18	9410
1261.47	9487
1265.76	9361
1270.05	9663
1274.33	9651
1278.61	9672
1282.89	9541
1287.17	9508
1291.45	9626
1295.72	9719
1299.99	9553
1304.26	9681
1308.52	9821
1312.79	9983
1317.05	10081
1321.31	10126
1325.56	9924
1329.82	9919
1334.07	9728
1338.32	9812
1342.57	9926
1346.81	9918
1351.06	9884
1355.3	9741
1359.54	9863
1363.77	9771
1368.01	9777
1372.24	9914
1376.47	9842
1380.69	9982
1384.92	10189
1389.14	10036
1393.36	10259.2
1397.58	10067.1
1401.8	10193.4
1406.01	10311.9
1410.22	10158.7
1414.43	10373.6
1418.64	10306
1422.84	10366
1427.04	10309
1431.24	10457
1435.44	10582
1439.64	10749
1443.83	10952
1448.02	10915.1
1452.21	11175
1456.4	11171
1460.59	11009
1464.77	11032
1468.95	11076
1473.13	10893
1477.3	10832
1481.48	11024
1485.65	10858
1489.82	10818
1493.99	10934
1498.15	10905
1502.31	10782
1506.47	10940
1510.63	10998
1514.79	11163
1518.94	11147
1523.1	11204
1527.25	11073
1531.39	11225
1535.54	11289
1539.68	11274
1543.83	11393
1547.97	11402
1552.1	11528
1556.24	11636
1560.37	11553
1564.5	11574
1568.63	11573.2
1572.76	11764.1
1576.88	11695.6
