Measurement: Raman, 514 nm, ccw, Raman Data RAW
Mineral: Actinolite
Rruff sample: R040063
Ideal chemistry: Ca_2_(Mg_4.5-2.5_Fe^2+^_0.5-2.5_)Si_8_O_22_(OH)_2_
Locality: Harford County, Maryland, USA
Source: University of Arizona Mineral Museum
Description: Mass of green acicular to bladed crystals associated with chlorite
Measured chemistry: (Ca_1.90_Na_0.06_Mn_0.04_)_Σ=2_(Mg_4.35_Fe_0.65_)_Σ=5_(Si_7.92_Al_0.08_)_Σ=8_O_22_(OH)_2_
Pin_id: S00298
Orientation: Laser parallel to -a* (-1 0 0). Fiducial mark perpendicular to laser is parallel to b [0 1 0]
Raman shift (cm-1)	intensity
62.903	160
67.906	213
72.906	203
77.902	337
82.896	616
87.886	989
92.873	1804
97.857	2799
102.837	3868
107.814	4769
112.789	5305
117.759	6015
122.727	6197
127.692	5943
132.653	6020
137.611	6551
142.566	6559
147.518	7432
152.466	9982
157.412	13820
162.354	12888
167.293	10429
172.229	13249
177.162	16531
182.091	13490
187.018	9494
191.941	8461
196.861	8490
201.778	9678
206.692	12243
211.603	18023
216.511	29704
221.415	44378
226.317	52914
231.215	53741
236.11	39277
241.002	24425
245.891	22008
250.777	21418
255.66	16646
260.54	12308
265.417	9864
270.29	8715
275.161	8098.65
280.028	7812
284.893	7901
289.754	8214
294.612	8893
299.468	10190
304.32	10548
309.169	9849
314.015	9098
318.858	8491
323.698	8118
328.535	8031
333.369	8406
338.2	9072.47
343.028	10558
347.853	12734
352.675	14208
357.494	14078
362.31	17111
367.122	24607
371.932	24802
376.739	18256
381.543	16708
386.344	22097
391.142	30301
395.937	28834
400.729	19947
405.518	17923
410.304	21783
415.087	25787
419.868	22620
424.645	16176
429.419	13781
434.19	15054
438.959	14278
443.724	10491
448.487	8729
453.246	8089
458.003	7940
462.757	8094
467.508	7994
472.256	7826
477.001	7874
481.743	8222
486.482	8467
491.218	8129
495.952	7913
500.682	8282.92
505.41	8991
510.134	10552
514.856	12805
519.575	14773
524.291	15698
529.005	15661
533.715	13142
538.422	10754
543.127	9818
547.829	9271
552.528	8845
557.224	8613
561.917	8502
566.608	8569
571.295	8485
575.98	8541
580.662	8509
585.341	8143
590.017	7638
594.691	7205
599.361	6962
604.029	7024
608.694	7081
613.356	7129
618.016	7311
622.672	7545
627.326	7760
631.977	8126
636.625	8603
641.271	9585
645.914	11016
650.553	13460
655.191	16711
659.825	22909
664.457	40497
669.085	77512
673.711	101256
678.335	65738
682.955	31650
687.573	18610
692.188	13824
696.801	11569
701.41	10186
706.017	9494
710.621	9186
715.223	9031
719.821	8704
724.417	8763
729.011	8833
733.601	9125
738.189	10028
742.774	10997
747.357	12228
751.936	12023
756.513	10206
761.088	9093
765.659	8906
770.228	8713
774.795	8602
779.358	8449
783.919	8381
788.478	8168
793.033	8068
797.586	8119
802.136	7998
806.684	8091.7
811.229	8052.29
815.771	8086.36
820.311	8221
824.848	8174
829.382	8222
833.914	8101
838.443	8377
842.97	8635
847.494	8608
852.015	8829
856.534	8769
861.05	8945
865.563	9004.14
870.074	8948
874.582	8991
879.088	9267
883.591	9254
888.091	9453
892.589	9712
897.084	9726
901.577	10121
906.067	10479
910.554	11110
915.039	11973
919.521	13465
924.001	17044
928.478	21082
932.953	20166
937.425	15685
941.894	14191
946.361	14473
950.825	13523
955.287	12420
959.747	11549
964.203	11204
968.657	10951
973.109	11132
977.558	11250.3
982.005	11239
986.449	11472
990.89	11598
995.33	12041
999.766	12777
1004.2	13797
1008.63	14580
1013.06	15730
1017.49	18492
1021.91	24571
1026.33	35032
1030.75	35622
1035.17	24238
1039.58	18267
1043.99	16871
1048.4	18519
1052.81	23168
1057.21	27822
1061.62	25595
1066.01	23022
1070.41	20632
1074.81	16055
1079.2	13746
1083.59	12419
1087.97	11690
1092.36	11069
1096.74	10957
1101.12	10855
1105.5	10905
1109.87	10857.5
1114.24	10805
1118.61	10866
1122.98	11047
1127.35	10587
1131.71	10349
1136.07	10192
1140.42	10012
1144.78	10020
1149.13	9867
1153.48	9735
1157.83	9794
1162.18	9595
1166.52	9669
1170.86	9626
1175.2	9611
1179.54	9532
1183.87	9561
1188.2	9801
1192.53	9593
1196.86	9699
1201.18	9800
1205.5	9791
1209.82	9856
1214.14	9991
1218.45	9840
1222.77	9953
1227.08	9895
1231.38	9991
1235.69	9948
1239.99	10191
1244.29	10099
1248.59	10204
1252.89	10167
1257.18	10275
1261.47	10310
1265.76	10389
1270.05	10466
1274.33	10736
1278.61	10602
1282.89	10617
1287.17	10584
1291.45	10724.7
1295.72	10756.3
1299.99	10759.3
1304.26	10840.8
1308.52	10891.1
1312.79	10944.7
1317.05	10921.4
1321.31	10896
1325.56	10974
1329.82	11066
1334.07	11066
1338.32	11112
1342.57	11076
1346.81	11132
1351.06	11282
1355.3	11197
1359.54	11225
1363.77	11198.2
1368.01	11345
1372.24	11373
1376.47	11366
1380.69	11398
1384.92	11454
1389.14	11449
1393.36	11441
1397.58	11407.8
1401.8	11578
1406.01	11574
1410.22	11536
1414.43	11670
1418.64	11829
1422.84	11609
1427.04	11943
1431.24	11951
1435.44	11946
1439.64	12260
1443.83	12196
1448.02	12411
1452.21	12304
1456.4	12449.9
1460.59	12397
1464.77	12345
1468.95	12311
1473.13	12325
1477.3	12491.5
1481.48	12453.7
1485.65	12502.6
1489.82	12549.4
1493.99	12522.1
1498.15	12681
1502.31	12608
1506.47	12697
1510.63	12719.2
1514.79	12858
1518.94	12862
1523.1	12987
1527.25	13034
1531.39	13131
1535.54	13148
1539.68	13211
1543.83	13234
1547.97	13401
1552.1	13575
1556.24	13496
1560.37	13455
1564.5	13741
1568.63	13587
1572.76	13664
1576.88	13644
