Measurement: Raman, 514 nm, ccw, Raman Data Processed
Mineral: Actinolite
Rruff sample: R040063
Ideal chemistry: Ca_2_(Mg_4.5-2.5_Fe^2+^_0.5-2.5_)Si_8_O_22_(OH)_2_
Locality: Harford County, Maryland, USA
Source: University of Arizona Mineral Museum
Description: Mass of green acicular to bladed crystals associated with chlorite
Measured chemistry: (Ca_1.90_Na_0.06_Mn_0.04_)_Σ=2_(Mg_4.35_Fe_0.65_)_Σ=5_(Si_7.92_Al_0.08_)_Σ=8_O_22_(OH)_2_
Pin_id: S00102
Orientation: Laser parallel to c* (0 0 1). Fiducial mark perpendicular to laser is parallel to b [0 1 0]
Raman shift (cm-1)	intensity
62.887	0
67.86	49.0821
72.831	167.424
77.8	1578.03
82.765	1059.69
87.727	719.963
92.687	962.889
97.644	957.297
102.598	1067.07
107.549	1925.43
112.498	2939.93
117.443	5671.3
122.386	2648.73
127.326	1145.16
132.263	935.363
137.197	979.043
142.129	1141.45
147.057	1207.2
151.983	1982.24
156.906	4516.94
161.827	5853.44
166.744	3214.76
171.659	3869.63
176.57	7127.19
181.479	7131.93
186.386	2926.39
191.289	1285.91
196.19	900.103
201.088	998.662
205.983	1504.89
210.875	2933.68
215.764	6052.43
220.651	10903
225.535	12415.1
230.416	8778.66
235.294	5223.84
240.17	2500.11
245.043	1632.07
249.912	1899.42
254.78	1644.92
259.644	1304.4
264.506	983.713
269.365	531.707
274.221	32.2671
279.074	119.73
283.925	68.4731
288.772	55.0254
293.617	275.817
298.46	573.891
303.299	808.442
308.136	478.5
312.97	176.12
317.801	83.8013
322.629	165.632
327.455	75.9692
332.278	299.713
337.098	498.12
341.916	795.899
346.73	1519.6
351.542	2234.9
356.351	2204.33
361.158	2238.84
365.961	3030.46
370.762	4139.05
375.561	3628.52
380.356	2401.78
385.149	2054.78
389.939	2931.45
394.726	3475.75
399.511	2132.64
404.292	1121.07
409.071	1290.01
413.848	1807.42
418.621	1833.27
423.392	1013.23
428.16	597.136
432.926	631.54
437.688	737.87
442.448	293.834
447.206	74.7358
451.96	98.6973
456.712	163.575
461.461	78.1045
466.207	2.31445
470.951	47.2139
475.692	127.86
480.43	36.2559
485.166	130.805
489.899	97.7602
494.629	99.5684
499.356	197.316
504.081	270.033
508.803	597.686
513.522	899.288
518.239	1294.85
522.953	1608.28
527.664	2254.59
532.373	2291.8
537.079	1307.89
541.782	678.931
546.482	416.871
551.18	396.699
555.875	329.411
560.568	238.914
565.257	202.204
569.944	279.357
574.629	276.358
579.31	135.089
583.989	248.49
588.666	163.031
593.339	174.597
598.01	72.8076
602.679	10.6636
607.344	18.7588
612.007	119.88
616.668	175.806
621.325	235.197
625.98	320.361
630.633	430.394
635.282	639.573
639.929	927.047
644.573	1389.56
649.215	2088.59
653.854	2934.72
658.491	4262.53
663.124	7863.97
667.755	17041
672.384	29897.5
677.009	25818.2
681.633	11851.2
686.253	6534.54
690.871	4934.59
695.486	3391.66
700.098	2081.32
704.708	1152.6
709.316	795.512
713.92	593.77
718.522	494.823
723.122	470.106
727.718	406.165
732.312	478.916
736.904	435.171
741.493	625.205
746.079	707.364
750.662	722.327
755.243	413.503
759.822	262.296
764.397	167.198
768.97	57.9414
773.541	3.51611
778.108	55.8101
782.674	58.8643
787.236	30.6802
791.796	14.1509
796.354	72.2993
800.908	19.8633
805.461	15.8955
810.01	4.19141
814.557	42.1543
819.101	34.3345
823.643	7.27344
828.182	67.582
832.719	33.6777
837.252	2.75244
841.784	35.6274
846.312	94.6919
850.839	41.3648
855.362	37.2202
859.883	32.2441
864.401	94.5244
868.917	156.272
873.43	18.1626
877.941	119.196
882.449	89.3735
886.954	243.673
891.457	315.004
895.957	544.338
900.455	649.644
904.95	753.901
909.442	800.456
913.932	946.523
918.42	1303.58
922.904	2001.92
927.387	3394.69
931.866	4249.92
936.343	2902.28
940.818	1709.36
945.29	1485.75
949.759	1612.39
954.226	1258.54
958.69	1016.65
963.152	900.486
967.611	857.295
972.067	829.564
976.521	740.431
980.973	662.147
985.421	537.706
989.868	584.075
994.311	490.411
998.753	667.27
1003.19	872.652
1007.63	984.192
1012.06	1385.88
1016.49	2284.72
1020.92	3219.81
1025.35	3993.13
1029.77	4514.41
1034.19	3381.83
1038.61	2494.99
1043.03	2700.36
1047.44	4007.03
1051.85	7603.11
1056.26	12444.6
1060.66	13217.2
1065.07	8065.65
1069.47	4756.89
1073.86	2677.22
1078.26	1451.91
1082.65	1119.83
1087.04	881.612
1091.43	866.31
1095.82	669.759
1100.2	435.675
1104.58	278
1108.96	320.029
1113.33	330.415
1117.7	290.247
1122.08	167.138
1126.44	185.824
1130.81	169.699
1135.17	157.824
1139.53	181.231
1143.89	94.7012
1148.24	89.3057
1152.6	40.8423
1156.95	77.1475
1161.3	119.795
1165.64	14.0869
1169.98	12.6787
1174.32	9.72461
1178.66	48.0659
1183	75.7651
1187.33	4.82129
1191.66	30.354
1195.99	57.1895
1200.31	89.8994
1204.63	44.543
1208.96	28.1401
1213.27	112.971
1217.59	97.3823
1221.9	32.6626
1226.21	167.81
1230.52	107.021
1234.83	174.202
1239.13	30.9863
1243.43	100.412
1247.73	37.8789
1252.02	48.1543
1256.32	89.1201
1260.61	66.6157
1264.89	113.838
1269.18	181.806
1273.46	143.516
1277.74	183.461
1282.02	178.593
1286.3	60.7856
1290.57	231.624
1294.84	5.3916
1299.11	156.572
1303.38	103.272
1307.64	114.492
1311.9	227.414
1316.16	294.51
1320.41	279.183
1324.67	220.383
1328.92	55.0063
1333.17	116.951
1337.41	244.434
1341.66	97.8027
1345.9	155.82
1350.14	210.806
1354.38	105.12
1358.61	191.886
1362.84	134.601
1367.07	1.29492
1371.3	59.8667
1375.52	156.404
1379.74	179.564
1383.96	133.087
1388.18	119.651
1392.39	91.1826
1396.61	88.9385
1400.82	41.5049
1405.02	31.4072
1409.23	59.5195
1413.43	37.0801
1417.63	144.927
1421.83	31.4209
1426.02	45.3496
1430.21	198.31
1434.41	39.2832
1438.59	128.94
1442.78	129.683
1446.96	149.885
1451.14	42.5967
1455.32	91.3496
1459.5	51.2188
1463.67	111.559
1467.84	70.5566
1472.01	177.34
1476.18	74.9609
1480.34	157.592
1484.5	49.6494
1488.66	142.23
1492.82	57.418
1496.97	4.49219
1501.12	143.151
1505.27	47.4531
1509.42	139.635
1513.56	72.2266
1517.71	68.3691
1521.85	204.941
1525.98	135.949
1530.12	144.526
1534.25	92.4072
1538.38	35.4316
1542.51	92.2275
1546.63	88.5606
1550.76	124.415
1554.88	200.94
1559	64.1953
1563.11	63.7197
1567.22	75.1035
1571.34	118.947
1575.44	27.1846
