Measurement: Raman, 514 nm, depolarized, Raman Data Processed
Mineral: Actinolite
Rruff sample: R050336
Ideal chemistry: Ca_2_(Mg_4.5-2.5_Fe^2+^_0.5-2.5_)Si_8_O_22_(OH)_2_
Locality: Kragerø, Norway
Source: California Institute of Technology
Description: Dark green prismatic fragment
Measured chemistry: ([box]_0.62_Na_0.34_K_0.04_)(Ca_1.60_Na_0.40_)_Σ=2_(Mg_3.90_Fe^2+^_0.70_Al_0.20_Ti_0.10_Fe^3+^_0.10_)_Σ=5_(Si_7.52_Al_0.48_)_Σ=8_O_22_((OH)_0.97_F_0.03_)_2_
Pin_id: M00348
Orientation: Laser parallel to (1 0 1). Fiducial mark perpendicular to laser is parallel to b [0 1 0]
Raman shift (cm-1)	intensity
103.3	0
108.251	1147.62
113.2	2174.72
118.145	3570.51
123.088	1694.03
128.028	59.2812
132.965	117.103
137.9	337.988
142.832	327.589
147.761	949.052
152.687	2871.8
157.61	5135.38
162.531	7045.23
167.448	6944.03
172.363	8289.85
177.276	10545.5
182.185	10279.7
187.092	7182.32
191.996	5074.08
196.897	4149.32
201.795	4374.19
206.691	6191.11
211.584	10266.3
216.474	16082.5
221.361	22510.1
226.245	24370.5
231.127	19078.1
236.006	12876.5
240.882	7468.4
245.756	4647.74
250.626	3452.03
255.494	2470.74
260.36	1536.94
265.222	659.095
270.082	107.63
274.939	324.711
279.793	182.7
284.644	136.716
289.493	737.779
294.339	1059.41
299.182	1111.19
304.022	1485.92
308.86	1264.55
313.695	1149.04
318.527	1317.12
323.357	1878.45
328.183	2612.52
333.007	3252.55
337.829	3710.59
342.647	4174.54
347.463	4845.62
352.276	5242.87
357.086	6019.92
361.894	7756.1
366.699	11035.7
371.501	12266.3
376.3	10186.5
381.097	8197.01
385.891	7611.15
390.682	7661.9
395.47	7059.46
400.256	6179.33
405.039	3375.74
409.82	3634.94
414.597	4133.52
419.372	3964.54
424.144	3223.74
428.914	2362.52
433.681	2043.6
438.445	1524.04
443.206	738.797
447.965	341.828
452.721	10.7334
457.474	135.212
462.225	29.5225
466.972	23.6504
471.718	2.34961
476.46	30.0547
481.2	111.865
485.937	55.8975
490.671	286.287
495.403	846.816
500.132	1640.95
504.858	3017.51
509.582	4561.45
514.303	5638.75
519.021	6229
523.736	5577.94
528.449	5500.57
533.159	5109.06
537.867	4357.79
542.572	3559.73
547.274	3152.67
551.973	2911.13
556.67	2817.54
561.364	2727.49
566.055	2875.85
570.744	2650.02
575.43	2334.34
580.114	1773.44
584.794	1210.81
589.472	423.734
594.148	0.686035
598.82	183.277
603.49	228.773
608.158	90.1851
612.823	134.09
617.485	266.851
622.144	917.524
626.801	1291.57
631.455	2165.31
636.106	3213.94
640.755	4801.67
645.401	7221.51
650.045	10480.5
654.685	13947.6
659.323	19555.8
663.959	31025.2
668.592	49892.8
673.222	63929.6
677.85	50563.6
682.475	27636.9
687.097	15750.4
691.717	10371.2
696.334	7512.82
700.948	5830.22
705.56	5379.87
710.169	5395.75
714.775	5950.41
719.379	6608.27
723.98	7140.62
728.579	7845.36
733.175	8105.52
737.768	8363.19
742.359	7764.09
746.947	6781.77
751.532	5322.15
756.115	4055.74
760.695	3259.64
765.273	2600.55
769.847	2377.08
774.42	1991.1
778.989	1940.73
783.557	1943.66
788.121	1759.11
792.683	1757.97
797.242	1853.32
801.799	1530.77
806.353	1220.24
810.904	949.071
815.453	752.214
819.999	598.636
824.543	554.799
829.084	247.799
833.622	124.618
838.158	2.52344
842.691	269.607
847.221	359.394
851.749	227.158
856.275	104.544
860.798	40.4731
865.318	81.5796
869.835	181.989
874.35	522.484
878.863	729.613
883.373	1082.35
887.88	1424.88
892.384	1875.96
896.886	2367.35
901.386	2618.56
905.883	2802.75
910.377	2908.76
914.869	3424.84
919.358	4016.1
923.844	4933.99
928.328	5556
932.81	5313.25
937.289	4495.57
941.765	4474.22
946.239	4282.04
950.71	4326.84
955.178	3924.64
959.644	3779.36
964.108	3616.01
968.569	3695.03
973.027	3517.65
977.482	3433.51
981.936	3325.82
986.386	3342.66
990.834	3436.96
995.28	3818.29
999.723	4639.2
1004.16	5340.13
1008.6	6273.82
1013.04	7213.98
1017.47	7756.71
1021.9	8479.23
1026.33	9371.45
1030.75	10501.9
1035.17	10220.9
1039.59	9833.76
1044.01	10188.6
1048.43	11678.4
1052.84	13614.3
1057.25	15865.5
1061.65	15861
1066.06	13359.6
1070.46	10076.7
1074.86	7091.54
1079.26	5386.64
1083.65	4500.19
1088.05	3509.02
1092.43	3014.26
1096.82	2466.73
1101.21	2101.12
1105.59	1793.7
1109.97	1592.45
1114.34	1404.52
1118.72	1185.44
1123.09	884.013
1127.46	804.119
1131.83	549.645
1136.19	511.936
1140.55	303.21
1144.91	211.706
1149.27	82.0137
1153.62	33.1465
1157.97	34.23
1162.32	44.3232
1166.67	35.0107
1171.01	46.376
1175.36	77.6934
1179.69	5.40869
1184.03	201.473
1188.36	139.15
1192.7	181.122
1197.03	127.466
1201.35	3.98144
1205.67	46.5352
1210	109.234
1214.32	35.7031
1218.63	158.949
1222.95	65.9312
1227.26	135.8
1231.57	153.502
1235.87	208.978
1240.18	216.565
1244.48	163.026
1248.78	274.54
1253.07	318.618
1257.37	368.888
1261.66	255.686
1265.95	412.184
1270.24	332.95
1274.52	393.335
1278.8	386.272
1283.08	317.612
1287.36	409.617
1291.63	433.897
1295.9	460.989
1300.17	326.645
1304.44	449.801
1308.7	341.909
1312.96	322.776
1317.22	282.365
1321.48	126.437
1325.74	160.565
1329.99	145.806
1334.24	218.145
1338.48	214.926
1342.73	232.236
1346.97	120.011
1351.21	201.209
1355.45	69.1821
1359.68	96.2202
1363.91	14.669
1368.14	25.7637
1372.37	115.977
1376.6	119.762
1380.82	145.034
1385.04	34.6397
1389.26	121.701
1393.47	6.65381
1397.68	23.4058
1401.89	53.0381
1406.1	31.2095
1410.31	83.5322
1414.51	83.7158
1418.71	23.1138
1422.91	128.426
1427.1	167.73
1431.3	214.185
1435.49	98.395
1439.68	252.964
1443.86	173.569
1448.05	226.748
1452.23	132.602
1456.4	157.279
1460.58	173.464
1464.75	203.659
1468.92	163.606
1473.09	162.879
1477.26	171.488
1481.42	86.645
1485.59	122.426
1489.74	103.667
1493.9	15.0068
1498.06	102.504
1502.21	125.648
1506.36	156.125
1510.5	24.4751
1514.65	162.581
1518.79	104.801
1522.93	84.2075
1527.07	3.13769
1531.2	88.459
1535.33	108.505
1539.46	137.303
1543.59	4.71289
1547.72	142.673
1551.84	47.1841
1555.96	85.7266
1560.08	93.0996
1564.19	8.32568
1568.31	25.7852
1572.42	167.785
1576.53	85.0181
