Measurement: Raman, 514 nm, depolarized, Raman Data Processed
Mineral: Actinolite
Rruff sample: R050336
Ideal chemistry: Ca_2_(Mg_4.5-2.5_Fe^2+^_0.5-2.5_)Si_8_O_22_(OH)_2_
Locality: Kragerø, Norway
Source: California Institute of Technology
Description: Dark green prismatic fragment
Measured chemistry: ([box]_0.62_Na_0.34_K_0.04_)(Ca_1.60_Na_0.40_)_Σ=2_(Mg_3.90_Fe^2+^_0.70_Al_0.20_Ti_0.10_Fe^3+^_0.10_)_Σ=5_(Si_7.52_Al_0.48_)_Σ=8_O_22_((OH)_0.97_F_0.03_)_2_
Pin_id: M00198
Orientation: Laser parallel to c* (0 0 1). Fiducial mark perpendicular to laser is parallel to a [1 0 0]
Raman shift (cm-1)	intensity
144.817	0
149.732	535.15
154.644	2077.51
159.554	3520.82
164.461	3057.09
169.366	3144.74
174.269	4614.81
179.168	4707.17
184.066	2488.65
188.961	1059.29
193.853	878.59
198.743	1106.62
203.631	2137.85
208.516	4157.56
213.398	8134.56
218.278	11643.1
223.156	12431.7
228.031	8566.27
232.903	4841.34
237.773	2257.81
242.641	1227.12
247.506	665.385
252.368	580.841
257.228	468.694
262.086	54.8164
266.941	94.834
271.793	365.315
276.643	286.695
281.491	117.416
286.336	186.166
291.178	428.996
296.018	835.605
300.856	819.85
305.691	833.053
310.523	540.505
315.353	530.299
320.181	771.256
325.006	904.346
329.828	1008.9
334.648	959.697
339.465	1157.86
344.28	1340.33
349.093	1582.8
353.903	1701.89
358.71	2158.54
363.515	2853.63
368.317	3196.82
373.117	2880.05
377.914	2278.23
382.709	2236.28
387.501	2231.13
392.291	2164.72
397.078	1550.03
401.863	962.016
406.645	944.677
411.425	1131.14
416.202	1005.67
420.977	660.079
425.749	416.248
430.518	416.457
435.285	302.351
440.05	114.217
444.812	5.96387
449.571	55.0654
454.328	7.3313
459.083	72.2251
463.835	88.8362
468.584	45.8567
473.331	126.642
478.075	132.547
482.817	169.896
487.556	126.499
492.293	311.238
497.027	283.625
501.758	621.32
506.488	871.518
511.214	1277.21
515.938	1440.4
520.66	1462.08
525.379	1648.24
530.095	1687.88
534.809	1456
539.52	1303.61
544.229	1106.7
548.935	885.282
553.639	831.569
558.34	743.236
563.039	622.741
567.735	486.835
572.428	590.861
577.119	408.478
581.808	310.687
586.494	198.082
591.177	58.05
595.858	42.4812
600.536	104.181
605.212	32.0286
609.885	22.9993
614.556	125.385
619.224	233.65
623.889	402.926
628.552	747.071
633.213	1100.9
637.871	1595.51
642.526	2474.92
647.179	3663.01
651.829	5035.81
656.477	7298.33
661.122	12323.6
665.764	20988.5
670.404	27342.3
675.042	21682.7
679.677	11271
684.309	6070
688.939	3722.63
693.566	2453.25
698.191	1636.67
702.813	1191.98
707.432	937.717
712.049	848.454
716.664	818.855
721.276	788.719
725.885	951.658
730.492	972.599
735.096	974.778
739.697	1026.01
744.297	817.938
748.893	683.046
753.487	586.72
758.078	380.993
762.667	220.682
767.253	165.405
771.837	141.166
776.418	223.946
780.997	173.758
785.573	171.276
790.146	248.533
794.717	188.521
799.285	150.592
803.851	97.7578
808.414	33.0293
812.975	36.4165
817.533	38.9312
822.088	200.583
826.641	135.356
831.192	102.28
835.739	61.3716
840.284	75.6377
844.827	74.0249
849.367	15.5259
853.904	56.0537
858.439	74.6401
862.972	91.5972
867.501	47.8306
872.029	71.2002
876.553	133.019
881.075	139.698
885.595	359.021
890.111	506.813
894.626	688.042
899.137	809.564
903.647	939.391
908.153	1101.55
912.657	1404.1
917.158	1749.04
921.657	2315.39
926.154	2771.17
930.647	2603.29
935.138	2053.75
939.627	1818.59
944.113	1721.82
948.596	1783.36
953.077	1760.24
957.555	1581.4
962.031	1586.12
966.504	1580.02
970.974	1604.21
975.442	1517.57
979.907	1370.55
984.37	1269.36
988.83	1247.58
993.288	1263
997.742	1427.53
1002.2	1563.59
1006.64	1775.86
1011.09	2167.45
1015.54	2412.3
1019.98	2768.94
1024.42	3101.19
1028.86	3522.02
1033.29	3716.56
1037.72	3979.14
1042.15	4763.49
1046.58	6358.99
1051	8438.87
1055.42	9807.86
1059.84	8927.89
1064.26	6879.4
1068.67	4549.57
1073.08	2948.66
1077.49	2238.84
1081.89	1677.34
1086.3	1252.56
1090.7	986.356
1095.1	923.009
1099.49	749.762
1103.88	583.786
1108.28	587.034
1112.66	563.208
1117.05	448.399
1121.43	325.217
1125.81	243.4
1130.19	255.892
1134.56	157.611
1138.93	104.307
1143.3	62.748
1147.67	92.0049
1152.04	13.9155
1156.4	41.5071
1160.76	0.186768
1165.11	43.916
1169.47	23.3357
1173.82	32.0281
1178.17	20.9016
1182.51	13.5454
1186.86	7.71314
1191.2	62.6472
1195.54	29.6362
1199.87	91.2278
1204.2	49.4707
1208.54	13.1777
1212.86	40.6074
1217.19	68.6804
1221.51	34.5596
1225.83	54.748
1230.15	55.5645
1234.46	72.0908
1238.78	98.3682
1243.09	38.3818
1247.39	149.19
1251.7	65.6238
1256	76.8813
1260.3	72.7642
1264.6	78.667
1268.89	131.297
1273.18	90.3638
1277.47	157.145
1281.76	164.057
1286.04	148.867
1290.32	67.9592
1294.6	106.103
1298.88	123.303
1303.15	111.804
1307.42	139.422
1311.69	208.656
1315.96	81.1384
1320.22	149.408
1324.48	93.4424
1328.74	126.165
1332.99	101.456
1337.24	161.108
1341.49	64.3852
1345.74	134.571
1349.99	114.28
1354.23	118.085
1358.47	113.557
1362.71	110.176
1366.94	130.016
1371.17	73.2481
1375.4	138.093
1379.63	67.2817
1383.85	96.6856
1388.07	77.6738
1392.29	0.61084
1396.51	92.2786
1400.72	56.3562
1404.93	71.3489
1409.14	12.0801
1413.35	56.064
1417.55	68.4019
1421.75	54.3638
1425.95	7.32227
1430.14	53.894
1434.34	71.7563
1438.53	67.7671
1442.71	89.0381
1446.9	157.412
1451.08	126.18
1455.26	29.0801
1459.44	48.9028
1463.61	79.7837
1467.78	159.039
1471.95	56.1509
1476.12	99.7856
1480.28	62.998
1484.45	107.156
1488.61	154.753
1492.76	135.739
1496.91	52.1148
1501.07	112.173
1505.21	99.8257
1509.36	81.9185
1513.5	76.8154
1517.64	98.0063
1521.78	13.457
1525.92	107.149
1530.05	100.509
1534.18	70.0586
1538.31	38.4795
