Measurement: Raman, 514 nm, ccw, Raman Data Processed
Mineral: Actinolite
Rruff sample: R050336
Ideal chemistry: Ca_2_(Mg_4.5-2.5_Fe^2+^_0.5-2.5_)Si_8_O_22_(OH)_2_
Locality: Kragerø, Norway
Source: California Institute of Technology
Description: Dark green prismatic fragment
Measured chemistry: ([box]_0.62_Na_0.34_K_0.04_)(Ca_1.60_Na_0.40_)_Σ=2_(Mg_3.90_Fe^2+^_0.70_Al_0.20_Ti_0.10_Fe^3+^_0.10_)_Σ=5_(Si_7.52_Al_0.48_)_Σ=8_O_22_((OH)_0.97_F_0.03_)_2_
Pin_id: M00348
Orientation: Laser parallel to (1 0 1). Fiducial mark perpendicular to laser is parallel to b [0 1 0]
Raman shift (cm-1)	intensity
104.538	0
109.489	813.845
114.436	2882.98
119.381	2229.17
124.323	1113.88
129.263	237.965
134.199	7.24121
139.133	373.91
144.064	341.424
148.992	1159.56
153.918	3359.56
158.84	7375.65
163.76	8748.17
168.677	10210.6
173.592	14485
178.503	19398.8
183.412	17992
188.318	11861.6
193.221	8050.93
198.122	7105.48
203.019	8024.2
207.914	11260.4
212.806	17989.4
217.696	28210.9
222.582	36791.6
227.466	34283.6
232.347	21102.4
237.225	11383
242.101	6539.32
246.974	3517.12
251.844	2369.99
256.711	1661.97
261.575	906.091
266.437	373.951
271.296	249.111
276.152	656.446
281.006	654.689
285.857	1671.42
290.705	2342.98
295.55	2452.5
300.392	2555.04
305.232	2499.01
310.069	2069.42
314.903	2379.86
319.735	2743.85
324.563	3662.34
329.39	5206.58
334.213	6223.66
339.033	6704.37
343.851	7193.31
348.666	7489.32
353.479	7909.97
358.288	9335.98
363.095	13324.5
367.899	17180.3
372.701	17797.2
377.5	13653
382.296	9535.75
387.089	7870.29
391.879	7352.6
396.667	5840.7
401.452	3446.97
406.235	2004.31
411.014	1704.8
415.791	1647.01
420.566	1269.16
425.337	1112.07
430.106	970.672
434.872	1017.4
439.635	867.905
444.396	488.12
449.154	137.387
453.909	56.0352
458.662	43.543
463.412	5.75586
468.159	93.0332
472.903	156.124
477.645	154.963
482.384	263.569
487.121	219.279
491.854	71.0669
496.585	914.885
501.314	1390.68
506.039	2725.8
510.762	4152.33
515.482	5053.8
520.2	5101.2
524.915	5174.52
529.627	5393.75
534.336	5132.61
539.043	4200.83
543.747	3634.49
548.449	3151.1
553.148	2889.89
557.844	2789.18
562.537	2708.42
567.228	2720.02
571.916	2545.51
576.601	2027.25
581.284	1279.61
585.964	760.255
590.641	361.104
595.316	133.113
599.988	147.546
604.657	61.898
609.324	109.306
613.988	490.933
618.65	850.246
623.308	1409.46
627.964	2588.49
632.618	3499.25
637.269	5459.47
641.917	8139.68
646.562	12156.4
651.205	16871.7
655.845	22836.6
660.483	31757.2
665.117	51014.3
669.75	76339.2
674.379	91216.7
679.006	63337.1
683.63	32503.2
688.252	18526.1
692.871	11774.8
697.487	8468.46
702.101	6530.35
706.712	5511.74
711.321	5343.82
715.926	5562.35
720.529	5833.3
725.13	6188.28
729.728	6697.83
734.323	6726.17
738.916	6536.72
743.506	6105.96
748.093	5068.18
752.678	4012.68
757.26	3015.95
761.84	1907.56
766.417	1751.85
770.991	1418.51
775.562	1253.04
780.131	1353.54
784.698	1493.57
789.262	1254.04
793.823	1359.08
798.381	1252.46
802.937	1011.29
807.491	657.003
812.042	824.6
816.59	463.627
821.135	447.495
825.678	423.81
830.218	107.489
834.756	3.92871
839.291	295.102
843.824	384.468
848.354	427.236
852.881	65.3921
857.406	119.864
861.928	50.582
866.447	173.73
870.964	543.248
875.479	860.857
879.99	1315.69
884.5	1930.6
889.006	2183.03
893.51	2714.64
898.012	3128.04
902.51	3368.68
907.007	3714.65
911.5	3821.97
915.991	4223.84
920.48	5284.98
924.966	5768.47
929.449	6472.49
933.93	6172.99
938.408	5798.27
942.884	5938.71
947.357	5744.89
951.827	5401.41
956.295	4703.75
960.76	4212.01
965.223	4011.22
969.683	3850.25
974.141	3512.48
978.596	3360.89
983.049	3276.82
987.498	3311.05
991.946	3427.35
996.391	3717.1
1000.83	4584.48
1005.27	5596.93
1009.71	6538.57
1014.14	7293.07
1018.58	8215.38
1023.01	9067.51
1027.43	10445.4
1031.86	11546.6
1036.28	11605
1040.7	12281.9
1045.12	13828.1
1049.53	17025.4
1053.94	20912.2
1058.35	24049
1062.76	23184.1
1067.16	18334.5
1071.56	12693.1
1075.96	8580.15
1080.36	6544.32
1084.75	5163.56
1089.14	4067.27
1093.53	3262.08
1097.92	2569.18
1102.3	2354.21
1106.68	1911.78
1111.06	1733.98
1115.44	1489.92
1119.81	1234.33
1124.18	894.18
1128.55	669.159
1132.92	572.215
1137.28	271.706
1141.64	214.287
1146	272.386
1150.36	204.009
1154.71	165.924
1159.06	67.5342
1163.41	79.0669
1167.76	141.9
1172.1	108.276
1176.44	133.649
1180.78	0.657715
1185.11	63.6904
1189.45	57.3892
1193.78	0.197266
1198.11	62.9302
1202.43	80.0625
1206.76	35.2602
1211.08	124.217
1215.39	156.238
1219.71	217.932
1224.02	83.6094
1228.34	233.441
1232.64	159.297
1236.95	200.781
1241.25	294.334
1245.55	254.404
1249.85	292.207
1254.15	294.167
1258.44	367.386
1262.73	366.214
1267.02	429.93
1271.31	422.552
1275.59	422.142
1279.87	471.599
1284.15	464.089
1288.43	451.76
1292.7	428.285
1296.97	497.03
1301.24	347.842
1305.51	397.198
1309.77	255.13
1314.03	358.711
1318.29	316.831
1322.55	252.982
1326.8	314.729
1331.05	322.754
1335.3	325.274
1339.55	194.66
1343.79	197.402
1348.03	207.205
1352.27	198.295
1356.51	189.209
1360.74	110.574
1364.97	16.189
1369.2	50.625
1373.43	81.2734
1377.65	238.791
1381.87	108.669
1386.09	148.836
1390.31	134.47
1394.53	250.004
1398.74	167.031
1402.95	217.881
1407.15	17.4414
1411.36	144.276
1415.56	64.6313
1419.76	41.1582
1423.96	143.371
1428.15	51.1138
1432.35	140.527
1436.54	19.4448
1440.72	25.9536
1444.91	177.247
1449.09	196.614
1453.27	151
1457.45	157.949
1461.62	68.0327
1465.8	205.525
1469.97	127.449
1474.13	63.1143
1478.3	163.315
1482.46	112.137
1486.62	253.11
1490.78	24.6289
1494.94	28.2329
1499.09	55.4702
1503.24	32.9683
1507.39	244.995
1511.54	111.004
1515.68	147.489
1519.82	129.619
1523.96	242.201
1528.1	156.741
1532.23	205.965
1536.37	88.3291
1540.49	182.864
1544.62	89.4805
1548.75	186.796
1552.87	17.4482
1556.99	15.0371
1561.11	51.0171
1565.22	230.835
1569.33	61.8901
1573.44	29.1719
1577.55	91.1333
