Measurement: Raman, 514 nm, depolarized, Raman Data Processed
Mineral: Actinolite
Rruff sample: R060045
Ideal chemistry: Ca_2_(Mg_4.5-2.5_Fe^2+^_0.5-2.5_)Si_8_O_22_(OH)_2_
Locality: Colorado, USA
Source: University of Arizona Mineral Museum
Description: Green prismatic crystals in a radial arrangement
Measured chemistry: (Ca_1.99_Na_0.01_)_Σ=2_(Mg_4.20_Fe^2+^_0.59_Al_0.09_Fe^3+^_0.08_Mn_0.02_Ti_0.01_)_Σ=5_(Si_7.82_Al_0.18_)_Σ=8_O_22_(OH)_2_
Pin_id: M00340
Orientation: Laser parallel to -a* (-1 0 0). Fiducial mark perpendicular to laser is parallel to -b [0 -1 0]
Raman shift (cm-1)	intensity
134.127	0
139.043	28.2031
143.956	182.019
148.867	576.09
153.775	647.707
158.681	620.861
163.585	731.781
168.486	1805.1
173.385	1600.51
178.282	1036.73
183.176	427.373
188.067	175.519
192.956	240.775
197.843	368.758
202.727	803.264
207.609	1058.09
212.489	2151.74
217.366	2919.5
222.24	3266.84
227.112	2778.68
231.982	1626.29
236.849	1263.06
241.714	1047.19
246.577	907.727
251.437	661.76
256.294	390.279
261.149	232.394
266.002	116.668
270.852	159.08
275.7	62.3926
280.545	50.0117
285.388	4.19336
290.229	271.832
295.067	137.602
299.902	265.617
304.735	253.838
309.566	231.644
314.394	359.502
319.22	190.223
324.043	326.996
328.864	353.973
333.682	276.56
338.498	561.912
343.311	867.967
348.122	600.703
352.931	753.008
357.737	1332.39
362.54	1819.54
367.341	1679.42
372.14	1534.31
376.936	1247.2
381.73	1835.08
386.521	2389.94
391.31	2049.76
396.096	1411.53
400.88	1004.26
405.661	1390.93
410.44	1392.54
415.216	988.027
419.99	736.348
424.761	531.088
429.53	419.531
434.297	297.106
439.061	57.9668
443.822	16.4785
448.581	56.3965
453.337	130.553
458.091	275.004
462.843	275.065
467.592	0.716797
472.338	120.828
477.082	124.629
481.824	242.147
486.563	89.4668
491.3	287.607
496.034	227.973
500.765	168.943
505.494	378.719
510.221	855.387
514.945	562.84
519.666	681.195
524.385	806.59
529.102	610.904
533.816	443.982
538.527	437.404
543.236	418.441
547.943	421.283
552.647	238.898
557.348	247.244
562.047	270.318
566.744	262.008
571.438	594.227
576.129	147.402
580.818	330.703
585.504	370.148
590.188	149.844
594.87	102.064
599.549	229.447
604.225	50.4004
608.899	266.539
613.57	312.379
618.239	371.938
622.905	323.428
627.569	556.799
632.23	394.731
636.889	553.617
641.545	950.734
646.198	1214.49
650.849	1664.71
655.498	2392.1
660.144	4437.08
664.787	9130.89
669.428	10726.5
674.067	7278.24
678.703	3772.23
683.336	1953.05
687.967	1166.21
692.595	735.141
697.221	488.773
701.844	303.066
706.465	161.637
711.083	263.18
715.698	199.168
720.311	302.938
724.922	246.441
729.53	3.24219
734.135	510.141
738.738	447.84
743.338	635.082
747.936	497.957
752.531	241.625
757.124	209.879
761.714	335.394
766.302	262.644
770.887	288.551
775.469	84.625
780.049	94.5156
784.626	322.988
789.201	104.062
793.773	47.8672
798.343	26.957
802.91	71.5078
807.475	110.539
812.037	48.3086
816.596	72.4492
821.153	36.0938
825.707	431.981
830.259	216.852
834.808	373.269
839.355	437.84
843.899	362.992
848.441	311.711
852.98	583.746
857.516	573.324
862.05	341.191
866.581	344.582
871.11	256.488
875.636	86.4297
880.159	370.457
884.68	177.625
889.199	293.738
893.714	297.539
898.228	342.68
902.738	223.07
907.246	496.258
911.752	328.297
916.255	311.184
920.755	703.652
925.253	1052.18
929.748	1106.13
934.241	668.719
938.731	537.981
943.218	588.117
947.703	466.008
952.186	275.559
956.665	165.191
961.142	329.918
965.617	63.7461
970.089	127.422
974.558	61.4141
979.025	211.582
983.489	16.8711
987.951	206.223
992.41	322.691
996.866	569.777
1001.32	370.668
1005.77	617.746
1010.22	342.953
1014.67	1033.43
1019.11	1352.92
1023.55	1844.14
1027.99	2011.96
1032.42	1404.09
1036.86	681.926
1041.29	865.117
1045.72	1043.16
1050.14	1214.3
1054.56	1796.26
1058.98	1773.92
1063.4	1726.16
1067.82	1401.32
1072.23	880.285
1076.64	285.555
1081.05	585.273
1085.45	338.129
1089.85	338.152
1094.25	160.352
1098.65	88.6797
1103.04	144.359
1107.43	105.117
1111.82	210.262
1116.21	224.539
1120.59	320.41
1124.97	45.8828
1129.35	378.578
1133.73	213.699
1138.1	118.477
1142.47	397.285
1146.84	219.07
1151.21	506.688
1155.57	91.2812
1159.93	35.3242
1164.29	100.82
1168.64	242.832
1172.99	419.816
1177.34	153.82
1181.69	202.848
1186.04	133.883
1190.38	303.938
1194.72	304.012
1199.05	151.109
1203.39	331.207
1207.72	82.3086
1212.05	149.305
1216.37	214.191
1220.7	383.082
1225.02	449.906
1229.34	254.668
1233.65	698.652
1237.97	627.398
1242.28	560.106
1246.59	175.207
1250.89	323.617
1255.19	169.609
1259.49	16.9414
1263.79	559.766
1268.09	442.621
1272.38	313.516
1276.67	265.426
1280.95	512.281
1285.24	15.8711
1289.52	383.211
1293.8	431.383
1298.08	454.852
1302.35	536.242
1306.62	392.742
1310.89	640.359
1315.15	571.098
1319.42	721.004
1323.68	539.066
1327.94	611.184
1332.19	632.367
1336.44	417.625
1340.69	118.332
1344.94	515.316
1349.19	476.852
1353.43	135.527
1357.67	235.324
1361.9	473.32
1366.14	81.2227
1370.37	319.598
1374.6	331.18
1378.83	253.973
1383.05	225.668
1387.27	363.383
1391.49	293.277
1395.7	306.238
1399.92	126.535
1404.13	247.363
1408.34	136.559
1412.54	59.1289
1416.74	339.188
1420.94	266.879
1425.14	203.555
1429.34	245.988
1433.53	388.121
1437.72	539.504
1441.9	914.602
1446.09	928.672
1450.27	749.641
1454.45	762.801
1458.63	722.402
1462.8	643.391
1466.97	308.801
1471.14	890.664
1475.31	345.918
1479.47	367.301
1483.63	299.922
1487.79	131.113
1491.94	532.664
1496.09	289.031
1500.24	124.867
1504.39	353.309
1508.54	24.1562
1512.68	53.4297
1516.82	283.258
1520.95	96.3789
1525.09	490.144
1529.22	477.559
1533.35	149.68
1537.47	415.828
1541.6	240.59
1545.72	34.8203
1549.83	56.4102
1553.95	368.742
1558.06	316.621
1562.17	424.633
1566.28	192.613
1570.38	0
