Measurement: Raman, 514 nm, depolarized, Raman Data Processed
Mineral: Actinolite
Rruff sample: R050025
Ideal chemistry: Ca_2_(Mg_4.5-2.5_Fe^2+^_0.5-2.5_)Si_8_O_22_(OH)_2_
Locality: Tyrol, Austria
Source: Eugene Schlepp
Description: Green colored bladed single crystals
Measured chemistry: (Ca_.930_Na_.056_Mn_.010_K_.004_)_2_(Mg_.883_Fe_.117_)_5_(Si_.978_Al_.022_)_8_O_22_(OH)_2_
Pin_id: L00431
Orientation: Laser parallel to a* (1 0 0). Fiducial mark perpendicular to laser is parallel to b [0 1 0]
Raman shift (cm-1)	intensity
78.729	0
82.916	56.887
87.101	34.221
91.284	576.222
95.465	341.513
99.644	674.062
103.82	983.218
107.995	1749.98
112.168	3693.23
116.339	4623.13
120.508	5051.32
124.675	3684.55
128.84	1964.49
133.003	1200.55
137.164	852.583
141.323	558.757
145.48	217.302
149.635	57.756
153.788	757.812
157.939	1916.01
162.088	2340.84
166.235	740.553
170.38	1328.02
174.523	3522.51
178.664	5930.75
182.803	3344.89
186.94	1433.32
191.076	791.271
195.209	709.877
199.34	534.021
203.47	535.517
207.597	1239.46
211.722	2129.6
215.846	4139.06
219.967	7300.81
224.087	8691.79
228.204	8684.02
232.32	8114.54
236.434	4342.35
240.545	2502.47
244.655	2014.84
248.763	2348.86
252.869	2026.05
256.973	1057.87
261.075	495.884
265.175	58.768
269.273	11.198
273.369	236.33
277.463	449.288
281.556	73.552
285.646	233.316
289.734	464.841
293.821	314.429
297.905	610.956
301.988	979.283
306.069	744.52
310.147	345.417
314.224	277.618
318.299	371.115
322.372	131.256
326.443	426.786
330.512	860.195
334.579	957.196
338.645	771.116
342.708	817.437
346.769	1241.03
350.829	1834.7
354.887	1715.84
358.942	1643.5
362.996	3052.34
367.048	6634.9
371.098	6793.57
375.146	3905.82
379.192	2794.63
383.236	3233.01
387.279	4874.96
391.319	8237.49
395.358	7803.61
399.394	4057.31
403.429	2718.6
407.462	2864.47
411.493	4320.78
415.522	5481.5
419.549	4362.6
423.575	2449.5
427.598	1491.56
431.619	1590.93
435.639	1503.57
439.657	878.344
443.673	401.213
447.687	229.394
451.699	188.414
455.709	19.027
459.717	102.056
463.724	247.391
467.728	415.716
471.731	223.27
475.732	213.067
479.731	337.841
483.728	506.8
487.723	498.314
491.716	311.886
495.708	265.17
499.697	404.965
503.685	715.566
507.671	1020.86
511.655	1433.44
515.637	1831.3
519.617	1935.56
523.596	1735.53
527.572	1889.21
531.547	1638.63
535.52	1478.71
539.491	1267.46
543.46	1069.85
547.427	1022.86
551.393	824.471
555.356	956.692
559.318	720.526
563.278	571.968
567.236	672.02
571.192	841.685
575.147	966.967
579.099	680.87
583.05	509.401
586.999	166.608
590.946	243.685
594.891	193.065
598.834	128.101
602.776	173.14
606.715	6.274
610.653	38.65
614.589	80.66
618.523	152.849
622.456	9.061
626.386	207.805
630.315	448.92
634.242	563.675
638.167	555.534
642.09	987.019
646.012	1544.12
649.931	2012.8
653.849	3191.57
657.765	4596.44
661.679	7729.22
665.592	15557.3
669.502	32362.9
673.411	41533.8
677.318	23001.4
681.223	10455.7
685.126	5600.4
689.028	3740.81
692.927	2120.45
696.825	1755.94
700.721	1301.06
704.616	1052.16
708.508	1022.03
712.399	724.078
716.288	512.32
720.175	630.283
724.06	549.992
727.944	632.449
731.825	639.662
735.705	1015.63
739.584	1355.37
743.46	1748.8
747.334	2601.47
751.207	2430.95
755.078	1224.73
758.947	761.676
762.815	491.936
766.68	545.838
770.544	927.584
774.406	198.381
778.267	195.881
782.125	189.479
785.982	157.492
789.837	178.008
793.69	147.432
797.542	38.404
801.391	44.324
805.239	35.828
809.085	144.137
812.93	227.92
816.772	249.121
820.613	113.057
824.452	201.158
828.29	127.129
832.125	165.172
835.959	64.111
839.791	6.18
843.621	34.818
847.45	90.955
851.277	3.291
855.102	36.242
858.925	331.744
862.746	68.246
866.566	112.756
870.384	367.262
874.2	142.729
878.015	168.195
881.828	466.637
885.639	462.053
889.448	481.637
893.256	626.275
897.061	639.928
900.865	641.604
904.668	653.328
908.468	671.25
912.267	722.422
916.064	999.854
919.86	1441.47
923.653	2202.41
927.445	3167.31
931.236	3352.36
935.024	2493.46
938.811	1701.7
942.596	1405.68
946.379	1415.68
950.161	1175.57
953.94	1086.71
957.719	833.799
961.495	988.344
965.27	589.125
969.043	826.721
972.814	816.666
976.583	880.475
980.351	693.25
984.117	676.557
987.882	657.432
991.644	744.689
995.405	590.932
999.165	872.324
1002.92	1140.03
1006.68	1248.43
1010.43	1297.97
1014.18	1950.78
1017.93	2389.26
1021.68	3423.46
1025.43	5417.41
1029.18	6627.16
1032.92	4905.93
1036.66	2870.14
1040.4	2427.45
1044.14	2246.85
1047.88	2615.69
1051.62	3603.6
1055.35	4556.27
1059.08	4942.95
1062.81	3902.86
1066.54	3750.6
1070.27	3690.2
1073.99	2476.81
1077.72	1724.91
1081.44	1469.03
1085.16	1199.71
1088.88	736.881
1092.59	844.723
1096.31	684.479
1100.02	803.508
1103.73	729.588
1107.44	576.191
1111.15	475.201
1114.86	385.602
1118.57	290.924
1122.27	501.193
1125.97	232.059
1129.67	453.707
1133.37	192.102
1137.07	299.82
1140.76	170.324
1144.45	180.65
1148.15	18.562
1151.84	224.453
1155.53	266.635
1159.21	123.738
1162.9	184.029
1166.58	147.746
1170.26	119.6
1173.94	47.502
1177.62	157.037
1181.3	134.771
1184.97	104.945
1188.65	293.906
1192.32	292.201
1195.99	88.406
1199.66	62.42
1203.33	18.227
1206.99	39.559
1210.65	24.416
1214.32	77.459
1217.98	556.438
1221.64	481.912
1225.29	239.043
1228.95	300.479
1232.6	261.586
1236.26	125.805
1239.91	314.654
1243.56	434.723
1247.2	431.504
1250.85	334.453
1254.49	309.414
1258.13	367.119
1261.78	657.83
1265.41	223.355
1269.05	167.189
1272.69	411.998
1276.32	496.885
1279.95	505.951
1283.59	494.848
1287.21	262.467
1290.84	177.393
1294.47	40.064
1298.09	8.35
1301.72	19.057
1305.34	149.721
1308.96	140.789
1312.58	434.373
1316.19	388.111
1319.81	208.756
1323.42	181.828
1327.03	309.213
1330.64	159.289
1334.25	195.768
1337.86	415.203
1341.46	609.775
1345.07	541.596
1348.67	761.805
1352.27	735.787
1355.87	527.766
1359.46	558.322
1363.06	433.285
1366.65	459.225
1370.25	155.881
1373.84	46.121
1377.43	635.955
1381.02	709.184
1384.6	955.613
1388.18	940.029
1391.77	586.84
1395.35	612.785
1398.93	376.506
1402.51	123.746
1406.08	321.059
1409.66	318.359
1413.23	358.168
1416.8	462.377
1420.37	876.697
1423.94	720.266
1427.51	806.23
1431.08	653.789
1434.64	399.119
1438.2	282.705
1441.76	12.328
1445.32	138.377
