Measurement: Raman, 514 nm, depolarized, Raman Data Processed
Mineral: Actinolite
Rruff sample: R050025
Ideal chemistry: Ca_2_(Mg_4.5-2.5_Fe^2+^_0.5-2.5_)Si_8_O_22_(OH)_2_
Locality: Tyrol, Austria
Source: Eugene Schlepp
Description: Green colored bladed single crystals
Measured chemistry: (Ca_.930_Na_.056_Mn_.010_K_.004_)_2_(Mg_.883_Fe_.117_)_5_(Si_.978_Al_.022_)_8_O_22_(OH)_2_
Pin_id: L00067
Orientation: Laser parallel to (1 0 1). Fiducial mark perpendicular to laser is parallel to -b [0 -1 0]
Raman shift (cm-1)	intensity
103.82	0
107.995	293.095
112.168	1691.05
116.339	1866.66
120.508	788.917
124.675	203.772
128.84	86.032
133.003	110.652
137.164	19.374
141.323	21.899
145.48	74.443
149.635	258.773
153.788	1030.16
157.939	2763.04
162.088	2977.99
166.235	1720.23
170.38	2195.57
174.523	5138.89
178.664	8431.08
182.803	4615.04
186.94	2089.67
191.076	1206.91
195.209	1243.06
199.34	1210.13
203.47	1192.67
207.597	1742.35
211.722	2772.85
215.846	5417.67
219.967	10471.5
224.087	11883.9
228.204	8172.73
232.32	5548.87
236.434	3072.25
240.545	1547.87
244.655	1303.69
248.763	1365.7
252.869	1204.89
256.973	765.226
261.075	385.747
265.175	210.466
269.273	173.356
273.369	32.184
277.463	142.761
281.556	42.094
285.646	54.145
289.734	420.496
293.821	257.863
297.905	611.457
301.988	837.279
306.069	529.742
310.147	146.285
314.224	131.988
318.299	114.18
322.372	88.379
326.443	160.738
330.512	684.756
334.579	893.52
338.645	822.973
342.708	1227.95
346.769	1747.4
350.829	2955.67
354.887	2371.49
358.942	2018.06
362.996	2975.64
367.048	5759.24
371.098	6175.87
375.146	3487.47
379.192	2071.97
383.236	1841.42
387.279	2328.83
391.319	2996.19
395.358	2918.5
399.394	1451.2
403.429	904.373
407.462	792.871
411.493	1472.77
415.522	1928.26
419.549	1642.84
423.575	720.857
427.598	366.662
431.619	786.715
435.639	1081.48
439.657	527.246
443.673	120.672
447.687	238.037
451.699	163.76
455.709	129.689
459.717	67.682
463.724	159.727
467.728	249.625
471.731	134.941
475.732	62.023
479.731	29.156
483.728	122.99
487.723	158.289
491.716	142.986
495.708	94.381
499.697	184.395
503.685	502.494
507.671	799.535
511.655	1039.31
515.637	1517.8
519.617	1720.17
523.596	1465.29
527.572	1567.19
531.547	1478.88
535.52	1279.43
539.491	907.762
543.46	799.834
547.427	674.602
551.393	323.154
555.356	727.445
559.318	318.42
563.278	225.049
567.236	344.326
571.192	427.238
575.147	387.873
579.099	187.998
583.05	161.725
586.999	11.947
590.946	99.734
594.891	287.76
598.834	69.18
602.776	25.037
606.715	63.283
610.653	325.369
614.589	211.094
618.523	231.803
622.456	181.168
626.386	233.793
630.315	734.891
634.242	981.641
638.167	1086.56
642.09	1590.6
646.012	2567.66
649.931	3810.19
653.849	5398.19
657.765	5841.1
661.679	7539.96
665.592	13024.6
669.502	25072.9
673.411	32587.7
677.318	18611.2
681.223	9059.18
685.126	5497.49
689.028	4332.93
692.927	3015.21
696.825	2088.28
700.721	1342.1
704.616	1332.68
708.508	1296.99
712.399	1104.48
716.288	1153.41
720.175	720.391
724.06	571.5
727.944	738.064
731.825	604.361
735.705	664.441
739.584	661.008
743.46	964.188
747.334	1308.31
751.207	1432.73
755.078	508.305
758.947	198.035
762.815	126.414
766.68	321.789
770.544	535.965
774.406	167.502
778.267	92.672
782.125	224.285
785.982	91.049
789.837	150.488
793.69	911.453
797.542	168.945
801.391	179.873
805.239	114.346
809.085	329.568
812.93	463.365
816.772	390.117
820.613	317.395
824.452	57.416
828.29	105.076
832.125	286.262
835.959	69.844
839.791	364.602
843.621	164.191
847.45	23.676
851.277	169.432
855.102	119.943
858.925	28.697
862.746	29.236
866.566	190.041
870.384	411.764
874.2	348.328
878.015	224.748
881.828	430.076
885.639	468.254
889.448	390.549
893.256	651.785
897.061	675.029
900.865	657.33
904.668	808.703
908.468	817.227
912.267	859.025
916.064	1093.56
919.86	1334.01
923.653	2220.4
927.445	2980.63
931.236	2924.13
935.024	2133.02
938.811	1683.33
942.596	1728.06
946.379	2239.32
950.161	1716.99
953.94	1589.94
957.719	927.393
961.495	1226.25
965.27	880.916
969.043	1058.21
972.814	1141.35
976.583	1240.27
980.351	705.602
984.117	775.35
987.882	922.811
991.644	1047.84
995.405	916.621
999.165	1079.4
1002.92	1133.42
1006.68	1220.95
1010.43	1406.42
1014.18	1925.4
1017.93	2885.55
1021.68	3782.21
1025.43	4497.26
1029.18	4995.02
1032.92	4361.72
1036.66	2560.96
1040.4	2863.19
1044.14	3176.5
1047.88	4725.39
1051.62	6627.39
1055.35	8638.48
1059.08	9389.69
1062.81	6565.03
1066.54	4807.49
1070.27	4554.09
1073.99	2693.83
1077.72	2030.72
1081.44	1475.26
1085.16	978.359
1088.88	976.32
1092.59	1185.19
1096.31	1090.06
1100.02	1380.83
1103.73	623.473
1107.44	911.801
1111.15	694.137
1114.86	313.629
1118.57	526.477
1122.27	732.223
1125.97	290.898
1129.67	588.633
1133.37	289.422
1137.07	165.316
1140.76	231.617
1144.45	419.469
1148.15	129.293
1151.84	514.914
1155.53	706.785
1159.21	219.164
1162.9	312.887
1166.58	63.254
1170.26	104.789
1173.94	10.262
1177.62	52.41
1181.3	385.922
1184.97	476.477
1188.65	424.254
1192.32	330.258
1195.99	554.648
1199.66	215.996
1203.33	244.84
1206.99	508.059
1210.65	341.715
1214.32	569.852
1217.98	1083.5
1221.64	806.723
1225.29	498.051
1228.95	485.441
1232.6	427.723
1236.26	322.703
1239.91	691.047
1243.56	909.551
1247.2	1010.82
1250.85	385.777
1254.49	395.988
1258.13	462.562
1261.78	390.984
1265.41	590.508
1269.05	488.422
1272.69	688.199
1276.32	1364.71
1279.95	865.125
1283.59	558.492
1287.21	650.988
1290.84	343.32
1294.47	58.82
1298.09	81.23
1301.72	689.988
1305.34	0.449
