Measurement: Raman, 514 nm, depolarized, Raman Data Processed
Mineral: Actinolite
Rruff sample: R040064
Ideal chemistry: Ca_2_(Mg_4.5-2.5_Fe^2+^_0.5-2.5_)Si_8_O_22_(OH)_2_
Locality: Ehime Perfecture, Uma Gun, Japan
Source: University of Arizona Mineral Museum
Description: Aggregate of green acicular crystals associated with chlorite
Measured chemistry: (Ca_0.95_Na_0.04_Mn_0.01_)_2_(Mg_0.88_Fe_0.12_)_5_(Si_0.98_Al_0.02_)_8_O_22_(OH)_2_
Pin_id: M00297
Orientation: Laser parallel to c* (0 0 1). Fiducial mark perpendicular to laser is parallel to -b [0 -1 0]
Raman shift (cm-1)	intensity
54.966	0
59.164	89.226
63.36	83.917
67.554	84.309
71.747	4.36
75.937	26.625
80.125	5.94
84.311	96.261
88.496	172.599
92.678	377.425
96.858	460.271
101.036	551.611
105.212	788.76
109.387	1222.28
113.559	1808.94
117.729	2343.63
121.897	1390.36
126.063	964.077
130.228	912.673
134.39	872.031
138.55	1040
142.709	1085.75
146.865	1146.86
151.019	2399.22
155.171	5265.15
159.322	8669.84
163.47	6358.35
167.617	4339.69
171.761	6766.9
175.904	11016.4
180.044	12365.4
184.183	6265.62
188.319	3036.09
192.454	2238.45
196.586	2128.35
200.717	2324.75
204.846	3018.56
208.972	4347.97
213.097	7135.97
217.22	13026.5
221.341	19347.9
225.46	19272.6
229.577	13457.7
233.692	9278.08
237.805	4847.25
241.916	3207.35
246.025	3238.56
250.132	3488.59
254.237	2720.52
258.34	1965.31
262.442	1540.87
266.541	1127.14
270.639	608.12
274.734	411.793
278.828	302.199
282.919	379.289
287.009	644.783
291.097	929.24
295.183	1183.34
299.266	1713.39
303.348	1976.71
307.428	1384.07
311.507	818.597
315.583	441.87
319.657	384.394
323.729	470.012
327.8	689.008
331.868	983.174
335.935	995.081
339.999	1127.62
344.062	1739.99
348.123	2570.66
352.182	3023.6
356.239	2634.82
360.294	2721.28
364.347	3903.99
368.398	5609.93
372.448	5417.1
376.495	3771.48
380.54	2807.07
384.584	2833.87
388.626	4247.99
392.666	5928.43
396.704	4647.21
400.74	2347.29
404.774	1635.8
408.806	2116.2
412.836	3114.01
416.865	3336.62
420.891	2171.25
424.916	1278.84
428.939	936.064
432.959	1125.18
436.978	1200.79
440.996	551.815
445.011	142.163
449.024	73.841
453.036	66.996
457.045	82.875
461.053	92.679
465.059	6.727
469.063	0.116
473.065	46.535
477.065	111.262
481.063	50.867
485.06	114.066
489.054	60.349
493.047	41.283
497.038	45.737
501.027	84.344
505.014	222.645
508.999	607.03
512.982	1012.82
516.964	1373.14
520.944	1682.74
524.921	2129.45
528.897	2705.31
532.871	1974.24
536.844	1003.25
540.814	514.265
544.783	347.288
548.749	155.29
552.714	149.262
556.677	72.205
560.638	79.096
564.597	42.877
568.555	20.516
572.511	58.021
576.464	117.416
580.416	42.692
584.366	54.867
588.315	11.057
592.261	20.829
596.206	9.531
600.148	22.745
604.089	82.182
608.028	122.918
611.965	130.901
615.901	201.203
619.834	255.201
623.766	420.977
627.696	557.898
631.624	708.116
635.551	955.512
639.475	1426.12
643.398	1961.6
647.318	2854.46
651.237	3926.32
655.155	5155.66
659.07	7096.75
662.984	12213.6
666.895	24425.3
670.805	44317.4
674.713	48299.2
678.62	27439.3
682.524	13641.8
686.427	8575.6
690.328	6333.19
694.227	4537.88
698.124	2939.43
702.02	2038.57
705.913	1360.54
709.805	1107.29
713.695	768.004
717.584	679.446
721.47	635.318
725.355	489.994
729.238	530.233
733.119	520.931
736.998	667.916
740.876	783.073
744.752	832.107
748.626	1048.11
752.498	875.311
756.368	458.547
760.237	348.48
764.104	171.274
767.969	90.07
771.832	151.879
775.693	151.716
779.553	77.573
783.411	143.378
787.267	36.872
791.122	86.776
794.974	38.362
798.825	2.824
802.674	16.862
806.522	16.247
810.367	0.166
814.211	6.024
818.053	9.409
821.893	7.024
825.732	79.119
829.568	31.128
833.403	48.934
837.236	75.516
841.068	64.288
844.898	12.668
848.726	24.518
852.552	49.162
856.376	39.762
860.199	59.33
864.02	127.901
867.839	74.419
871.656	211.911
875.472	157.419
879.286	186.966
883.098	315.532
886.909	329.135
890.717	508.733
894.524	551.341
898.33	598.963
902.133	755.662
905.935	835.466
909.735	1007.51
913.533	1271.42
917.33	1859.48
921.124	2687.54
924.918	4124.65
928.709	6383.77
932.499	6450.84
936.286	4162.94
940.073	2745.65
943.857	2567.84
947.64	2649.55
951.421	2262.64
955.2	1657.37
958.978	1381.76
962.753	1232.17
966.527	1219.53
970.3	1072.97
974.071	965.76
977.84	985.916
981.607	924.03
985.372	948.926
989.136	858.174
992.898	880.798
996.659	987.16
1000.42	1123.79
1004.17	1192.27
1007.93	1542.48
1011.68	1970.86
1015.43	2711.65
1019.18	3813.86
1022.93	4704.5
1026.68	6237.34
1030.42	6935.77
1034.17	5230.46
1037.91	3924.6
1041.65	3854.44
1045.39	4738.33
1049.12	6927.95
1052.86	11695.1
1056.59	19564.1
1060.33	22182.7
1064.06	14661.6
1067.78	8953.15
1071.51	5666.85
1075.23	3570.75
1078.96	2362.52
1082.68	1728.52
1086.4	1434.47
1090.12	1190.09
1093.83	1018.36
1097.55	829.494
1101.26	608.804
1104.97	602.304
1108.68	393.705
1112.39	449.462
1116.1	407.403
1119.8	379.22
1123.5	517.068
1127.2	326.587
1130.9	155.823
1134.6	247.73
1138.3	197.049
1141.99	43.234
1145.69	74.541
1149.38	97.771
1153.07	110.481
1156.76	61.703
1160.44	90.145
1164.13	36.983
1167.81	32.052
1171.49	27.992
1175.17	8.91
1178.85	103.562
1182.52	10.271
1186.2	100.562
1189.87	52.019
1193.54	78.59
1197.21	79.32
1200.88	38.984
1204.55	3.785
1208.21	24.409
1211.88	56.149
1215.54	2.212
1219.2	50.11
1222.86	68.843
1226.51	13.219
1230.17	21.548
1233.82	72.415
1237.47	34.049
1241.12	10.844
1244.77	60.408
1248.42	41.172
1252.06	8.984
1255.71	26.555
1259.35	51.883
1262.99	66.699
1266.63	138.297
1270.26	112.107
1273.9	137.655
1277.53	57.049
1281.16	60.346
1284.8	111.328
1288.42	90.538
1292.05	71.575
1295.68	105.163
1299.3	96.825
1302.92	63.655
1306.55	71.637
1310.16	112.054
1313.78	25.352
1317.4	178.579
1321.01	51.793
1324.62	88.658
1328.24	104.238
1331.85	100.891
1335.45	40.259
1339.06	66.557
1342.66	95.528
1346.27	149.465
1349.87	143.423
1353.47	155.407
1357.07	179.168
1360.66	186.579
1364.26	28.862
1367.85	71.418
1371.44	76.688
1375.04	69.666
1378.62	56.415
1382.21	11.946
1385.8	112.256
1389.38	8.745
1392.96	48.824
1396.54	157.542
1400.12	80.185
1403.7	97.742
1407.28	64.688
1410.85	117.718
1414.42	130.554
1417.99	89.128
1421.56	61.394
1425.13	132.927
1428.7	123.985
1432.26	56.159
1435.83	178.332
1439.39	204.921
1442.95	280.047
1446.51	227.86
1450.06	205.043
1453.62	141.15
1457.17	300.43
1460.73	240
1464.28	45.415
1467.83	174.845
1471.37	180.394
1474.92	141.352
1478.46	78.007
1482.01	146.441
1485.55	178.32
1489.09	42.657
1492.63	170.633
1496.16	96.192
1499.7	152.403
1503.23	95.659
1506.76	175.389
1510.29	159.162
1513.82	141.732
1517.35	48.398
1520.88	106.412
1524.4	0.219
