Measurement: Raman, 514 nm, ccw, Raman Data Processed
Mineral: Actinolite
Rruff sample: R050336
Ideal chemistry: Ca_2_(Mg_4.5-2.5_Fe^2+^_0.5-2.5_)Si_8_O_22_(OH)_2_
Locality: Kragerø, Norway
Source: California Institute of Technology
Description: Dark green prismatic fragment
Measured chemistry: ([box]_0.62_Na_0.34_K_0.04_)(Ca_1.60_Na_0.40_)_Σ=2_(Mg_3.90_Fe^2+^_0.70_Al_0.20_Ti_0.10_Fe^3+^_0.10_)_Σ=5_(Si_7.52_Al_0.48_)_Σ=8_O_22_((OH)_0.97_F_0.03_)_2_
Pin_id: M00348
Orientation: Laser parallel to (1 0 1). Fiducial mark perpendicular to laser is parallel to b [0 1 0]
Raman shift (cm-1)	intensity
99.585	0
104.538	1106.61
109.489	2701.24
114.436	4962.44
119.381	4566
124.323	1963.23
129.263	687.253
134.199	81.1875
139.133	313.312
144.064	729.032
148.992	1644.2
153.918	3897.67
158.84	6338.77
163.76	7608.8
168.677	6528.68
173.592	6591.66
178.503	7821.27
183.412	6948.1
188.318	4509.47
193.221	3288.5
198.122	2828.45
203.019	3435.35
207.914	5053.32
212.806	8458.16
217.696	13945.6
222.582	18463
227.466	19024.7
232.347	15087.7
237.225	9748.68
242.101	5723.52
246.974	4189.94
251.844	3117.89
256.711	2194.64
261.575	1451.07
266.437	447.507
271.296	78.126
276.152	537.696
281.006	416.538
285.857	66.6611
290.705	274.777
295.55	438.528
300.392	1213.29
305.232	1114.95
310.069	918.849
314.903	917.894
319.735	1157.54
324.563	1438.7
329.39	2028.15
334.213	2582.88
339.033	3025.07
343.851	3579.01
348.666	4528.38
353.479	5048.08
358.288	5477.99
363.095	7079.03
367.899	9002.09
372.701	9722.11
377.5	8156.02
382.296	6628.75
387.089	6789.24
391.879	7282.51
396.667	6230.25
401.452	4593.35
406.235	3202.56
411.014	3766.72
415.791	4441.89
420.566	4026.08
425.337	2955.05
430.106	2238.4
434.872	1843.05
439.635	1149.23
444.396	582.901
449.154	55.627
453.909	116.179
458.662	9.73535
463.412	64.6758
468.159	33.2695
472.903	91.562
477.645	192.2
482.384	345.002
487.121	397.777
491.854	539.156
496.585	1160.27
501.314	2345.01
506.039	3560.36
510.762	5328.27
515.482	6181.71
520.2	6192.64
524.915	5672.04
529.627	5302.87
534.336	4629.11
539.043	3871.72
543.747	3068.65
548.449	2779.87
553.148	2505.35
557.844	2183.06
562.537	2127.41
567.228	2040
571.916	1924.26
576.601	1733.04
581.284	1222.59
585.964	807.861
590.641	345.046
595.316	168.598
599.988	256.869
604.657	317.742
609.324	22.8023
613.988	143.499
618.65	617.529
623.308	1006.89
627.964	1278.39
632.618	1888.35
637.269	2953.66
641.917	4426.98
646.562	6328.35
651.205	9178.76
655.845	12284.2
660.483	17315.8
665.117	28030.3
669.75	43886
674.379	51794.8
679.006	37099.7
683.63	20127.6
688.252	12518.7
692.871	8588.01
697.487	6023.47
702.101	4899.41
706.712	4573.58
711.321	4666.11
715.926	4941.27
720.529	5561.83
725.13	6244.02
729.728	6878.68
734.323	7364.16
738.916	7380.09
743.506	6858.21
748.093	5893.55
752.678	4716.18
757.26	3543.73
761.84	2764.2
766.417	2218.27
770.991	1837.12
775.562	1547.69
780.131	1494.82
784.698	1516.07
789.262	1582.37
793.823	1707.35
798.381	1505.49
802.937	1240.48
807.491	1084.03
812.042	814.011
816.59	769.051
821.135	599.207
825.678	386.51
830.218	257.992
834.756	74.6748
839.291	124.56
843.824	241.56
848.354	198.753
852.881	208.083
857.406	170.441
861.928	87.6274
866.447	18.9199
870.964	134.815
875.479	333.736
879.99	600.268
884.5	996.146
889.006	1436.58
893.51	1921.05
898.012	2391.27
902.51	2737.28
907.007	2943.12
911.5	3176.8
915.991	3623.4
920.48	4270.02
924.966	5013.42
929.449	5470.46
933.93	4939.4
938.408	4505.26
942.884	4365.47
947.357	4531.69
951.827	4367.78
956.295	4411.7
960.76	4282.45
965.223	4380.05
969.683	4525.17
974.141	4342.54
978.596	4198.32
983.049	3990.59
987.498	3889.09
991.946	3792.3
996.391	4289.45
1000.83	4833.94
1005.27	5718.97
1009.71	6544.87
1014.14	7144.24
1018.58	7664.66
1023.01	8259.85
1027.43	8950.39
1031.86	9548.05
1036.28	9142.08
1040.7	9053.46
1045.12	9310.99
1049.53	10371.5
1053.94	12481.7
1058.35	13741
1062.76	13143
1067.16	11256.5
1071.56	7920.97
1075.96	5815.94
1080.36	4549.25
1084.75	3619.72
1089.14	3065.47
1093.53	2518.58
1097.92	2100.35
1102.3	1808.97
1106.68	1689.2
1111.06	1471.8
1115.44	1326.17
1119.81	1134.17
1124.18	920.283
1128.55	650.081
1132.92	533.093
1137.28	361.353
1141.64	414.03
1146	213.449
1150.36	182.328
1154.71	147.542
1159.06	12.0591
1163.41	109.663
1167.76	55.1694
1172.1	34.4932
1176.44	59.0205
1180.78	45.2778
1185.11	67.9932
1189.45	70.0527
1193.78	52.0303
1198.11	7.4082
1202.43	97.4155
1206.76	33.5635
1211.08	144.197
1215.39	82.1069
1219.71	124.019
1224.02	120.066
1228.34	99.583
1232.64	206.777
1236.95	127.718
1241.25	210.202
1245.55	262.853
1249.85	191.361
1254.15	232.009
1258.44	232.593
1262.73	167.776
1267.02	274.657
1271.31	437.424
1275.59	352.236
1279.87	232.576
1284.15	205.456
1288.43	258.779
1292.7	245.921
1296.97	244.56
1301.24	259.707
1305.51	237.158
1309.77	255.165
1314.03	278.915
1318.29	333.765
1322.55	207.92
1326.8	126.907
1331.05	126.885
1335.3	210.086
1339.55	140.926
1343.79	129.151
1348.03	131.397
1352.27	75.5107
1356.51	18.3765
1360.74	24.9014
1364.97	32.3696
1369.2	62.0566
1373.43	97.7817
1377.65	32.2227
1381.87	81.0347
1386.09	15.5898
1390.31	117.464
1394.53	44.0762
1398.74	72.9697
1402.95	4.29102
1407.15	142.434
1411.36	23.398
1415.56	31.7832
1419.76	30.3662
1423.96	248.448
1428.15	145.114
1432.35	155.065
1436.54	116.582
1440.72	150.225
1444.91	168.358
1449.09	150.962
1453.27	173.649
1457.45	236.012
1461.62	225
1465.8	223.291
1469.97	285.971
1474.13	195.053
1478.3	213.366
1482.46	191.165
1486.62	72.5654
1490.78	21.8355
1494.94	157.69
1499.09	72.1621
1503.24	95.3989
1507.39	23.0503
1511.54	45.2393
1515.68	90.6401
1519.82	17.9043
1523.96	8.09668
1528.1	16.1172
1532.23	115.15
1536.37	133.148
1540.49	173.243
1544.62	55.6763
1548.75	211.706
1552.87	107.946
1556.99	116.329
1561.11	92.0186
1565.22	146.515
1569.33	84.7905
1573.44	118.907
1577.55	93.2656
