Measurement: Raman, 514 nm, depolarized, Raman Data Processed
Mineral: Actinolite
Rruff sample: R040064
Ideal chemistry: Ca_2_(Mg_4.5-2.5_Fe^2+^_0.5-2.5_)Si_8_O_22_(OH)_2_
Locality: Ehime Perfecture, Uma Gun, Japan
Source: University of Arizona Mineral Museum
Description: Aggregate of green acicular crystals associated with chlorite
Measured chemistry: (Ca_0.95_Na_0.04_Mn_0.01_)_2_(Mg_0.88_Fe_0.12_)_5_(Si_0.98_Al_0.02_)_8_O_22_(OH)_2_
Pin_id: M00214
Orientation: Laser parallel to [1 0 1]. Fiducial mark perpendicular to laser is parallel to b* (0 1 0)
Raman shift (cm-1)	intensity
111.905	0
116.097	412.934
120.287	856.776
124.475	791.293
128.66	323.856
132.843	92.855
137.024	61.65
141.203	21.489
145.38	17.389
149.554	170.247
153.726	735.448
157.896	1644.74
162.064	1538.76
166.23	727.836
170.393	954.495
174.555	2619.25
178.714	3933.89
182.871	2201.23
187.025	842.162
191.178	313.579
195.328	139.377
199.476	66.236
203.623	44.754
207.766	502.393
211.908	1333.95
216.048	3037.32
220.185	6069.58
224.32	7610.39
228.453	7481.35
232.584	6922.3
236.713	4043.19
240.839	1884.95
244.964	1592.63
249.086	2125.24
253.206	1754.78
257.324	916.237
261.439	467.69
265.553	220.108
269.665	180.433
273.774	213.638
277.881	602.858
281.986	970.219
286.089	987.837
290.19	751.292
294.288	314.11
298.385	274.322
302.479	428.303
306.571	421.41
310.661	370.856
314.749	77.591
318.835	11.346
322.919	43.539
327	142.347
331.08	352.355
335.157	570.804
339.232	502.18
343.305	728.74
347.376	1330.56
351.445	1832.34
355.512	1622.07
359.576	1571.73
363.639	2579.06
367.699	5428.53
371.757	5987.95
375.814	3327.26
379.868	1966.42
383.92	1785.37
387.969	2954.18
392.017	5212.85
396.063	5091.7
400.106	2912.17
404.148	1691.9
408.187	1521.78
412.224	2330.77
416.26	3109.37
420.293	2237.62
424.324	1235.48
428.353	660.863
432.379	674.44
436.404	965.942
440.427	548.31
444.448	165.784
448.466	22.205
452.482	72.808
456.497	38.17
460.509	52.936
464.519	75.303
468.527	24.866
472.534	49.675
476.538	47.988
480.54	51.096
484.539	100.601
488.537	52.921
492.533	28.102
496.527	5.918
500.518	30.858
504.508	321.501
508.495	561.023
512.481	964.342
516.464	1215.46
520.446	1336.35
524.425	1373.71
528.402	1327.56
532.377	1197.85
536.351	567.886
540.322	477.669
544.291	352.199
548.258	295.65
552.223	237.485
556.186	135.235
560.147	262.689
564.106	187.834
568.063	125.76
572.018	99.291
575.97	183.533
579.921	220.495
583.87	277.178
587.817	223.586
591.761	129.721
595.704	75.559
599.645	101.069
603.583	16.255
607.52	5.344
611.455	93.502
615.387	211.135
619.318	241.139
623.247	441.087
627.173	642.718
631.098	529.853
635.02	546.123
638.941	586.021
642.859	864.157
646.776	1405.06
650.691	2238.97
654.603	2921.66
658.514	3767.52
662.422	5190.8
666.329	9823.1
670.233	21267.8
674.136	30160.3
678.036	20613.2
681.935	9685.61
685.832	4789.38
689.726	2939.74
693.619	2059.12
697.51	1358.37
701.398	927.715
705.285	696.375
709.17	574.814
713.052	738.664
716.933	588.586
720.812	184.67
724.689	320.145
728.564	446.298
732.437	642.939
736.308	749.375
740.176	1215.75
744.043	1212.11
747.908	1387.57
751.771	1361.88
755.633	855.395
759.492	488.111
763.349	274.195
767.204	258.184
771.057	162.933
774.909	217.518
778.758	63.096
782.605	9.641
786.451	16.004
790.294	19.328
794.136	64.588
797.976	99.653
801.813	24.372
805.649	71.227
809.483	97.121
813.315	73.369
817.144	79.98
820.972	26.93
824.798	4.049
828.623	8.654
832.445	28.795
836.265	73.868
840.083	16.069
843.9	138.135
847.714	110.123
851.527	32.038
855.337	413.935
859.146	465.805
862.953	557.609
866.757	299.359
870.56	351.083
874.361	322.717
878.16	314.546
881.958	336.376
885.753	418.225
889.546	370.059
893.338	441.871
897.127	423.69
900.915	575.6
904.7	777.639
908.484	639.841
912.266	602.151
916.046	704.623
919.824	997.058
923.6	1313.22
927.375	2215.02
931.147	2764.63
934.918	2085.17
938.686	1142.9
942.453	1070.18
946.218	1230.98
949.981	1226.35
953.742	788.127
957.501	591.18
961.258	313.677
965.014	274.665
968.767	468.962
972.519	338.402
976.269	317.377
980.017	997.439
983.762	6.244
987.507	167.717
991.249	356.527
994.989	469.651
998.728	592.429
1002.46	1197.9
1006.2	825.834
1009.93	1029.07
1013.66	1331.32
1017.39	1835.55
1021.12	2738.97
1024.85	4714.78
1028.57	6740.6
1032.29	5077.21
1036.01	2951.78
1039.73	1845.64
1043.44	1669.37
1047.16	1746.32
1050.87	2562.28
1054.58	3694.48
1058.29	4365.75
1062	4163.78
1065.7	3960.01
1069.4	3743.39
1073.11	2605.3
1076.81	1866.81
1080.5	1847.91
1084.2	5307.67
1087.89	6357.22
1091.59	1626.13
1095.28	934.996
1098.96	674.223
1102.65	363.396
1106.34	523.008
1110.02	312.055
1113.7	220.991
1117.38	300.04
1121.06	458.827
1124.73	377.383
1128.41	315.58
1132.08	243.16
1135.75	70.762
1139.42	147.891
1143.08	224.484
1146.75	151.934
1150.41	24.186
1154.07	143.195
1157.73	207.719
1161.39	12.725
1165.05	132.066
1168.7	34.504
1172.35	118.48
1176	220.988
1179.65	133.061
1183.3	224.689
1186.94	246.07
1190.58	32.959
1194.22	132.621
1197.86	122.754
1201.5	176.893
1205.14	275.277
1208.77	173.156
1212.4	270.547
1216.03	240.314
1219.66	127.053
1223.29	62.273
1226.91	239.729
1230.54	235.803
1234.16	411.688
1237.78	427.371
1241.4	302.812
1245.01	457.521
1248.63	401.84
1252.24	314.525
1255.85	385.885
1259.46	444.469
1263.07	674.379
1266.67	672.211
1270.28	844.004
1273.88	732.387
1277.48	545.445
1281.08	349.52
1284.67	403.781
1288.27	19.42
1291.86	231.93
1295.45	405.262
1299.04	302.979
1302.63	281.41
1306.22	569.652
1309.8	504.373
1313.38	428.75
1316.96	371.117
1320.54	391.996
1324.12	292.77
1327.69	303.457
1331.27	332.793
1334.84	283.859
1338.41	438.596
1341.98	579.703
1345.55	280.199
1349.11	330.436
1352.67	206.715
1356.23	22.764
1359.8	88.818
1363.35	237.102
1366.91	36.34
