Measurement: Raman, 514 nm, depolarized, Raman Data Processed
Mineral: Actinolite
Rruff sample: R060045
Ideal chemistry: Ca_2_(Mg_4.5-2.5_Fe^2+^_0.5-2.5_)Si_8_O_22_(OH)_2_
Locality: Colorado, USA
Source: University of Arizona Mineral Museum
Description: Green prismatic crystals in a radial arrangement
Measured chemistry: (Ca_1.99_Na_0.01_)_Σ=2_(Mg_4.20_Fe^2+^_0.59_Al_0.09_Fe^3+^_0.08_Mn_0.02_Ti_0.01_)_Σ=5_(Si_7.82_Al_0.18_)_Σ=8_O_22_(OH)_2_
Pin_id: M00122
Orientation: Laser parallel to (1 0 1). Fiducial mark perpendicular to laser is parallel to b [0 1 0]
Raman shift (cm-1)	intensity
125.519	0
130.439	121.728
135.356	283.281
140.271	299.734
145.184	209.269
150.094	437.715
155.002	1097.18
159.908	1214.24
164.811	871.311
169.711	1329.95
174.61	3376.75
179.505	3015.68
184.399	813.516
189.29	427.09
194.178	315.17
199.064	467.531
203.948	697.43
208.829	904.836
213.708	2237.85
218.585	5251.13
223.459	5753.26
228.33	3555.78
233.199	2514.98
238.066	1148.81
242.93	815.836
247.792	740.34
252.651	734.231
257.508	452.478
262.363	381.389
267.215	89.9375
272.064	97.2617
276.912	156.027
281.756	71.3125
286.598	104.615
291.438	184.092
296.276	93.7344
301.111	250.74
305.943	56.584
310.773	101.688
315.601	93.2617
320.426	199.951
325.248	340.389
330.068	339.475
334.886	335.807
339.701	773.373
344.514	1207.1
349.324	1346.71
354.132	1263.59
358.938	1328.2
363.741	2178.95
368.541	2524.82
373.339	1752.79
378.135	982.842
382.928	965.965
387.718	1481.13
392.506	1873.33
397.292	919.553
402.075	660.781
406.856	648.037
411.634	926.662
416.41	669.402
421.183	193.607
425.954	289.25
430.722	642.268
435.488	482.873
440.251	258.318
445.012	189.775
449.77	133.381
454.526	75.0137
459.28	115.387
464.03	228.422
468.779	86.8223
473.525	152.928
478.268	62.9473
483.009	151.797
487.747	153.478
492.483	20.0039
497.217	381.912
501.948	245.586
506.676	669.375
511.402	650.277
516.125	689.252
520.846	924.144
525.565	987.963
530.281	815.67
534.994	419.217
539.705	471.518
544.413	164.584
549.119	119.383
553.822	256.889
558.523	233.09
563.222	351.066
567.917	40.9531
572.611	336.334
577.302	319.416
581.99	323.033
586.676	130.139
591.359	130.867
596.04	158.891
600.718	92.1738
605.394	60.791
610.067	363.383
614.737	330.264
619.406	392.068
624.071	397.098
628.734	519.428
633.395	614.33
638.053	743.086
642.708	1288.69
647.361	1951.65
652.012	2303.57
656.66	2891.48
661.305	4261.3
665.948	7936.1
670.588	13765.5
675.226	10348.9
679.861	4636.86
684.494	2402.5
689.124	1688.44
693.752	1380.7
698.377	570.898
702.999	484.639
707.619	361.666
712.237	385.682
716.852	567.096
721.464	94.9277
726.074	548.207
730.681	314.971
735.286	440.709
739.888	725.104
744.488	419.428
749.085	485.699
753.68	300.084
758.272	227.881
762.861	207.914
767.448	49.8418
772.033	318.863
776.614	74.2617
781.194	71.9219
785.77	162.07
790.345	179.781
794.916	157.769
799.485	16.293
804.052	151.004
808.616	24.2539
813.177	44.0781
817.736	66.5781
822.292	243.746
826.846	214.641
831.397	220.223
835.945	151.914
840.491	144.992
845.035	298.82
849.576	463.508
854.114	288.938
858.65	332.418
863.183	431.285
867.713	360.793
872.241	368.234
876.767	43.4961
881.29	140.035
885.81	143.836
890.328	112.156
894.843	36.0547
899.356	175.238
903.866	127.484
908.373	499.422
912.878	198.152
917.38	291.199
921.88	531.856
926.377	1018.84
930.872	1292.34
935.364	859.141
939.853	587.367
944.34	822.457
948.824	643.981
953.306	431.481
957.785	225.398
962.261	148.875
966.735	383.719
971.207	192.629
975.675	192.184
980.141	244.727
984.605	59.2695
989.066	287.023
993.524	76.9297
997.98	264.875
1002.43	552.676
1006.88	607.519
1011.33	740.66
1015.78	941.348
1020.22	1502.34
1024.66	2151.38
1029.1	2536.38
1033.53	1570.11
1037.97	1164.23
1042.4	932.848
1046.82	1522.34
1051.25	2527.96
1055.67	3727.12
1060.09	3497.64
1064.51	2685.29
1068.92	2265.24
1073.33	837.258
1077.74	860.023
1082.15	601.965
1086.55	454.422
1090.95	145.152
1095.35	349.938
1099.75	194.742
1104.14	58.1328
1108.53	208.988
1112.92	101.008
1117.31	72.4688
1121.69	226.801
1126.07	340.961
1130.45	230.906
1134.82	253.758
1139.19	411.461
1143.57	21.9492
1147.93	108.66
1152.3	38.7695
1156.66	111.664
1161.02	108.801
1165.38	56.3008
1169.73	245.684
1174.08	26.4453
1178.43	33.918
1182.78	79.6562
1187.12	22.1367
1191.46	103.57
1195.8	222.863
1200.14	204.023
1204.47	215.055
1208.8	188.469
1213.13	185.203
1217.46	317.727
1221.78	354.781
1226.1	100.328
1230.42	347.269
1234.73	87.9062
1239.04	329.301
1243.35	60.6328
1247.66	219.797
1251.97	467.008
1256.27	254.008
1260.57	123.004
1264.86	285.144
1269.16	407.406
1273.45	409.113
1277.74	64.3906
1282.03	247.434
1286.31	258.246
1290.59	331.602
1294.87	311.422
1299.14	273.934
1303.42	325.867
1307.69	357.277
1311.95	406.816
1316.22	613.832
1320.48	461.285
1324.74	432.887
1329	384.668
1333.26	402.848
1337.51	614.402
1341.76	206.844
1346	461.82
1350.25	185.09
1354.49	173.82
1358.73	352.715
1362.96	365.676
1367.2	301.59
1371.43	303.539
1375.66	483.148
1379.88	274.066
1384.11	655.856
1388.33	513.012
1392.54	195.965
1396.76	226.453
1400.97	60.8242
1405.18	210.273
1409.39	136.824
1413.59	128.383
1417.8	437.227
1421.99	62.8828
1426.19	67.8594
1430.38	114.938
1434.58	343.144
1438.77	519.039
1442.95	543.172
1447.13	694.879
1451.32	811.981
1455.49	894.824
1459.67	492.684
1463.84	726.352
1468.01	510.676
1472.18	379.488
1476.35	703.66
1480.51	200.832
1484.67	722.352
1488.83	589.434
1492.98	247.961
1497.13	347.465
1501.28	140.762
1505.43	123.84
1509.57	307.727
1513.71	479.496
1517.85	372.168
1521.99	468.68
1526.12	494.691
1530.25	266.953
1534.38	483.801
1538.5	582.781
1542.62	426.094
1546.74	113.879
1550.86	194.516
1554.98	466.664
1559.09	577.41
1563.2	255.027
1567.31	159.898
