Measurement: Raman, 514 nm, depolarized, Raman Data Processed
Mineral: Actinolite
Rruff sample: R050336
Ideal chemistry: Ca_2_(Mg_4.5-2.5_Fe^2+^_0.5-2.5_)Si_8_O_22_(OH)_2_
Locality: Kragerø, Norway
Source: California Institute of Technology
Description: Dark green prismatic fragment
Measured chemistry: ([box]_0.62_Na_0.34_K_0.04_)(Ca_1.60_Na_0.40_)_Σ=2_(Mg_3.90_Fe^2+^_0.70_Al_0.20_Ti_0.10_Fe^3+^_0.10_)_Σ=5_(Si_7.52_Al_0.48_)_Σ=8_O_22_((OH)_0.97_F_0.03_)_2_
Pin_id: M00375
Orientation: Laser parallel to b* (0 1 0). Fiducial mark perpendicular to laser is parallel to -c [0 0 -1]
Raman shift (cm-1)	intensity
142.359	0
147.275	92.4226
152.188	1299.66
157.099	3446.51
162.008	4422.25
166.914	2886.92
171.818	3253.96
176.719	4212.41
181.617	3724.9
186.514	2123.56
191.407	1340.18
196.298	1119.09
201.187	1453.83
206.073	2112.61
210.957	3705.58
215.838	5910.29
220.717	7758.38
225.593	6906.69
230.467	3970.1
235.338	1971.13
240.207	1056.94
245.073	723.967
249.937	464.498
254.798	294.199
259.657	309.264
264.513	107.338
269.367	178.654
274.219	167.732
279.067	94.814
283.914	137.501
288.757	402.705
293.599	701.025
298.437	974.996
303.274	965.286
308.107	902.849
312.939	695.424
317.767	840.774
322.593	973.956
327.417	1240.31
332.238	1410.3
337.057	1277.69
341.873	938.134
346.687	768.304
351.498	608.992
356.307	695.57
361.113	905.449
365.916	1217.5
370.717	1327.69
375.516	1092.95
380.312	1263.21
385.106	1664.42
389.897	2279.56
394.685	2135.59
399.471	1319.49
404.254	861.249
409.035	905.315
413.814	966.652
418.59	842.078
423.363	464.373
428.134	339.238
432.902	336.228
437.668	156.33
442.431	29.4197
447.192	33.3325
451.95	63.7063
456.706	13.135
461.459	68.9504
466.21	29.2058
470.958	135.388
475.703	77.5339
480.446	138.958
485.187	19.9273
489.925	152.446
494.66	159.618
499.393	285.5
504.123	419.125
508.851	544.488
513.576	644.585
518.299	768.41
523.019	914.962
527.737	1040.24
532.452	1103.24
537.165	1119.96
541.875	1064.41
546.582	967.591
551.287	891.608
555.99	880.893
560.69	714.711
565.387	698.001
570.082	573.296
574.774	437.488
579.464	342.563
584.151	245.275
588.836	101.222
593.518	5.10132
598.197	86.3364
602.874	16.5298
607.549	35.5371
612.221	47.6758
616.89	181.099
621.557	389.534
626.221	492.956
630.883	764.217
635.542	1031.3
640.199	1555.6
644.853	2172.76
649.504	3110.79
654.153	4508.71
658.799	7134.51
663.443	12278.2
668.085	20845.8
672.723	24626.3
677.359	16437.7
681.993	8078.08
686.624	4424.35
691.253	2778.55
695.879	2187.5
700.502	1843.15
705.123	1693.44
709.741	1718.99
714.357	1829.75
718.97	2006.05
723.581	2155.65
728.189	2109.84
732.794	2123.7
737.397	2086.33
741.997	1920.41
746.595	1597.29
751.19	1368.1
755.783	1156.63
760.373	906.265
764.961	661.992
769.546	615.792
774.128	424.641
778.708	421.535
783.285	353.482
787.86	403.488
792.432	388.562
797.002	451.086
801.569	246.935
806.133	194.247
810.695	135.65
815.254	104.15
819.811	83.7524
824.365	66.4604
828.917	6.27734
833.466	72.8242
838.012	23.0998
842.556	16.4888
847.097	59.9675
851.636	44.6506
856.172	36.5166
860.706	24.4622
865.237	3.57349
869.765	88.7881
874.291	101.443
878.814	202.657
883.335	252.278
887.853	387.201
892.369	437.341
896.882	549.697
901.392	641.3
905.9	724.166
910.405	923.258
914.908	1255.6
919.408	1716.19
923.906	2203.07
928.401	2440.18
932.893	1954.51
937.383	1454.06
941.87	1033.81
946.355	1034.82
950.837	870.352
955.316	756.383
959.793	667.901
964.267	656.567
968.739	675.627
973.208	537.81
977.675	531.963
982.139	499.305
986.6	490.69
991.059	525.204
995.515	556.654
999.969	779.529
1004.42	919.687
1008.87	961.322
1013.31	1100.49
1017.76	1190.22
1022.2	1407.63
1026.64	1612.27
1031.07	1905.8
1035.51	2196.73
1039.93	2758.53
1044.36	3565.13
1048.79	4788.94
1053.21	6248.29
1057.63	7266.41
1062.05	6563.71
1066.46	4782.31
1070.88	3001.02
1075.29	1908.94
1079.69	1386.31
1084.1	1009.76
1088.5	752.774
1092.9	617.752
1097.3	523.657
1101.69	465.426
1106.08	368.779
1110.47	296.937
1114.86	306.234
1119.24	229.067
1123.62	158.633
1128	158.267
1132.38	146.566
1136.75	92.7563
1141.12	86.0335
1145.49	21.9504
1149.85	21.9197
1154.22	5.26074
1158.58	5.63208
1162.93	56.2643
1167.29	15.235
1171.64	12.5107
1175.99	7.94397
1180.34	23.0486
1184.68	38.1995
1189.03	11.8358
1193.37	8.23254
1197.7	17.0182
1202.04	36.5443
1206.37	19.209
1210.7	4.67944
1215.03	63.3562
1219.35	24.8455
1223.67	68.1562
1227.99	77.4335
1232.31	52.4037
1236.62	58.1968
1240.93	46.0558
1245.24	39.5599
1249.55	111.401
1253.85	127.582
1258.15	74.4674
1262.45	153.17
1266.74	93.7153
1271.04	103.132
1275.33	137.377
1279.62	104.222
1283.9	165.637
1288.18	161.285
1292.46	97.8643
1296.74	156.677
1301.02	153.156
1305.29	92.7202
1309.56	141.084
1313.82	83.7251
1318.09	103.099
1322.35	147.7
1326.61	86.9875
1330.87	48.0696
1335.12	87.6355
1339.37	50.1682
1343.62	59.7977
1347.87	72.7931
1352.11	39.1941
1356.35	69.3242
1360.59	49.3556
1364.82	100.535
1369.06	28.2715
1373.29	73.8453
1377.52	19.1822
1381.74	23.7738
1385.96	91.0807
1390.18	66.7896
1394.4	61.4288
1398.62	5.17761
1402.83	5.8562
1407.04	40.77
1411.24	13.6475
1415.45	10.8297
1419.65	83.9059
1423.85	30.5117
1428.05	42.13
1432.24	67.6818
1436.43	123.794
1440.62	80.9462
1444.81	170.847
1448.99	121.892
1453.17	134.631
1457.35	85.4332
1461.53	46.7378
1465.7	60.0725
1469.87	120.685
1474.04	88.2581
1478.2	95.5332
1482.37	76.1794
1486.53	13.8905
1490.68	42.2345
1494.84	26.6202
1498.99	29.0739
1503.14	34.5968
1507.29	33.1876
1511.43	45.7908
1515.57	66.4148
1519.71	4.83911
1523.85	44.2046
1527.98	11.4781
1532.12	54.9582
1536.24	68.0039
1540.37	70.7604
1544.49	95.4729
1548.62	75.9155
1552.73	88.7452
1556.85	44.2511
1560.96	47.7419
