Measurement: Raman, 514 nm, depolarized, Raman Data Processed
Mineral: Actinolite
Rruff sample: R040063
Ideal chemistry: Ca_2_(Mg_4.5-2.5_Fe^2+^_0.5-2.5_)Si_8_O_22_(OH)_2_
Locality: Harford County, Maryland, USA
Source: University of Arizona Mineral Museum
Description: Mass of green acicular to bladed crystals associated with chlorite
Measured chemistry: (Ca_1.90_Na_0.06_Mn_0.04_)_Σ=2_(Mg_4.35_Fe_0.65_)_Σ=5_(Si_7.92_Al_0.08_)_Σ=8_O_22_(OH)_2_
Pin_id: S00102
Orientation: Laser parallel to c* (0 0 1). Fiducial mark perpendicular to laser is parallel to b [0 1 0]
Raman shift (cm-1)	intensity
62.887	0
67.86	21.3344
72.831	97.2795
77.8	1128.48
82.765	917.113
87.727	992.159
92.687	1351.5
97.644	1248.83
102.598	1436.95
107.549	1874.79
112.498	2597.91
117.443	5236.47
122.386	3153.44
127.326	1535.64
132.263	1114.84
137.197	1140.54
142.129	1438.27
147.057	1763.17
151.983	4178.6
156.906	10369.1
161.827	13199.9
166.744	7304.96
171.659	9435.3
176.57	18722.6
181.479	19166
186.386	7592.64
191.289	3164.46
196.19	2276.33
201.088	2327.42
205.983	3294.98
210.875	6002.84
215.764	13059.5
220.651	25292.3
225.535	28127.2
230.416	16192.4
235.294	8036.02
240.17	3647.27
245.043	2464.59
249.912	2821.55
254.78	2193.82
259.644	1481.13
264.506	1026.29
269.365	368.544
274.221	41.373
279.074	25.0435
283.925	80.6743
288.772	585.459
293.617	1087.29
298.46	1757.13
303.299	2495.47
308.136	1606.22
312.97	582.565
317.801	348.908
322.629	312.577
327.455	586.984
332.278	1080.5
337.098	1166.81
341.916	1202.57
346.73	1642.88
351.542	2502.76
356.351	2349.09
361.158	2329.14
365.961	3516.13
370.762	4814.64
375.561	3859.51
380.356	2642.99
385.149	2561.94
389.939	4428.31
394.726	5961.69
399.511	3411.01
404.292	1598.21
409.071	1731.23
413.848	2432.02
418.621	2289.52
423.392	1203.22
428.16	621.361
432.926	520.738
437.688	667.73
442.448	332.665
447.206	77.666
451.96	242.477
456.712	245.025
461.461	88.9277
466.207	23.3726
470.951	33.1128
475.692	0.143066
480.43	78.9619
485.166	18.3779
489.899	33.9722
494.629	26.895
499.356	28.2544
504.081	207.869
508.803	505.88
513.522	819.895
518.239	1179.84
522.953	1549.69
527.664	1997.4
532.373	2067.1
537.079	1287.76
541.782	735.324
546.482	613.838
551.18	403.224
555.875	322.441
560.568	402.712
565.257	336.834
569.944	335.714
574.629	355.297
579.31	269.539
583.989	274.333
588.666	239.459
593.339	119.04
598.01	146.422
602.679	130.44
607.344	223.155
612.007	278.574
616.668	384.875
621.325	411.396
625.98	602.881
630.633	861.923
635.282	1271.61
639.929	1673.68
644.573	2573.01
649.215	4044.04
653.854	5869.41
658.491	9037.6
663.124	17031.3
667.755	36989.7
672.384	68220.2
677.009	58555.8
681.633	25996.3
686.253	11575.3
690.871	7122.28
695.486	4640.58
700.098	2780.26
704.708	1847.75
709.316	1248.87
713.92	1018.86
718.522	769.862
723.122	631.644
727.718	549.98
732.312	507.18
736.904	589.592
741.493	970.299
746.079	697.574
750.662	869.329
755.243	642.195
759.822	350.106
764.397	215.238
768.97	170.27
773.541	61.2241
778.108	93.1919
782.674	77.1079
787.236	34.2437
791.796	45.9922
796.354	64.9453
800.908	43.6318
805.461	69.9717
810.01	3.23779
814.557	65.0098
819.101	75.1689
823.643	14.0146
828.182	1.73535
832.719	93.7905
837.252	7.70117
841.784	63.7124
846.312	17.9311
850.839	60.3174
855.362	30.5439
859.883	48.7153
864.401	111.852
868.917	119.059
873.43	55.436
877.941	139.077
882.449	147.7
886.954	303.372
891.457	540.546
895.957	632.661
900.455	894.339
904.95	1013.08
909.442	1268.1
913.932	1589.67
918.42	2524.63
922.904	3928.97
927.387	6954.09
931.866	8749.93
936.343	5739.79
940.818	3319.51
945.29	2862.57
949.759	2778.47
954.226	2131.49
958.69	1585.49
963.152	1213.41
967.611	1098.03
972.067	1051.38
976.521	937.904
980.973	916.142
985.421	957.384
989.868	813.257
994.311	725.797
998.753	916.219
1003.19	1167.87
1007.63	1427.56
1012.06	1819.67
1016.49	2857.55
1020.92	3651.06
1025.35	4690.77
1029.77	5698.01
1034.19	4800.6
1038.61	3958.73
1043.03	5463.22
1047.44	8528.62
1051.85	16146.8
1056.26	28052.7
1060.66	30140.9
1065.07	17553.6
1069.47	9627.68
1073.86	5286.54
1078.26	2939.28
1082.65	1922.69
1087.04	1417.49
1091.43	1181.92
1095.82	1002.36
1100.2	648.556
1104.58	578.472
1108.96	549.355
1113.33	494.224
1117.7	430.022
1122.08	389.819
1126.44	259.987
1130.81	130.032
1135.17	119.182
1139.53	203.178
1143.89	113.861
1148.24	113.365
1152.6	56.376
1156.95	28.4385
1161.3	38.6074
1165.64	26.8545
1169.98	28.1582
1174.32	176.661
1178.66	39.5986
1183	105.241
1187.33	72.6231
1191.66	158.126
1195.99	88.1982
1200.31	45.2041
1204.63	79.0068
1208.96	147.718
1213.27	57.8535
1217.59	156.182
1221.9	43.043
1226.21	49.919
1230.52	138.63
1234.83	90.2441
1239.13	51.3262
1243.43	80.1494
1247.73	157.982
1252.02	133.422
1256.32	195.636
1260.61	37.6397
1264.89	142.845
1269.18	142.918
1273.46	262.682
1277.74	326.245
1282.02	155.441
1286.3	120.955
1290.57	138.224
1294.84	269.652
1299.11	236.507
1303.38	178.608
1307.64	60.8594
1311.9	188.374
1316.16	212.385
1320.41	145.277
1324.67	199.595
1328.92	250.818
1333.17	77.6797
1337.41	159.461
1341.66	136.037
1345.9	38.6953
1350.14	153.361
1354.38	123.064
1358.61	81.1016
1362.84	165.337
1367.07	152.398
1371.3	44.831
1375.52	56.9375
1379.74	75.5088
1383.96	198.606
1388.18	146.688
1392.39	247.016
1396.61	93.2939
1400.82	92.6084
1405.02	143.02
1409.23	97.9287
1413.43	22.9785
1417.63	203.9
1421.83	75.8975
1426.02	85.376
1430.21	279.256
1434.41	0.422852
1438.59	1.59375
1442.78	164.399
1446.96	156.644
1451.14	177.473
1455.32	100.337
1459.5	92.4736
1463.67	138.949
1467.84	213.652
1472.01	191.485
1476.18	181.024
1480.34	117.488
1484.5	157.019
1488.66	90.6465
1492.82	17.4668
1496.97	79.5566
1501.12	126.34
1505.27	59.8193
1509.42	121.647
1513.56	14.6943
1517.71	135.005
1521.85	191.607
1525.98	193.314
1530.12	414.969
1534.25	87.7637
1538.38	145.254
1542.51	174.066
1546.63	132.495
1550.76	169.894
1554.88	108.655
1559	54.1387
1563.11	31.8018
1567.22	9.56738
1571.34	49.2109
1575.44	185.086
