Measurement: Raman, 514 nm, ccw, Raman Data Processed
Mineral: Actinolite
Rruff sample: R050336
Ideal chemistry: Ca_2_(Mg_4.5-2.5_Fe^2+^_0.5-2.5_)Si_8_O_22_(OH)_2_
Locality: Kragerø, Norway
Source: California Institute of Technology
Description: Dark green prismatic fragment
Measured chemistry: ([box]_0.62_Na_0.34_K_0.04_)(Ca_1.60_Na_0.40_)_Σ=2_(Mg_3.90_Fe^2+^_0.70_Al_0.20_Ti_0.10_Fe^3+^_0.10_)_Σ=5_(Si_7.52_Al_0.48_)_Σ=8_O_22_((OH)_0.97_F_0.03_)_2_
Pin_id: M00348
Orientation: Laser parallel to (1 0 1). Fiducial mark perpendicular to laser is parallel to b [0 1 0]
Raman shift (cm-1)	intensity
105.776	0
110.726	1390.4
115.673	3086.13
120.617	1834.16
125.559	426.019
130.497	57.4434
135.433	0.745117
140.366	379.919
145.296	245.584
150.224	1203.88
155.149	3487.69
160.071	5320.77
164.99	5046.82
169.906	3868.49
174.82	4123.22
179.731	4698.17
184.639	3339.44
189.544	1940.44
194.447	1707.03
199.346	1880.4
204.243	2566.56
209.137	4372.94
214.029	7666.4
218.918	12626.2
223.803	17879.5
228.687	19640.1
233.567	17797.9
238.444	11765.7
243.319	7976.13
248.191	5927.48
253.061	4386.73
257.927	2763.77
262.791	1364.78
267.652	678.236
272.51	33.499
277.366	311.541
282.219	352.831
287.069	123.009
291.916	199.4
296.761	604.957
301.602	886.722
306.441	947.497
311.278	891.754
316.111	686.324
320.942	755.023
325.77	987.311
330.596	1229.84
335.418	1570.31
340.238	1852.22
345.055	2208.63
349.87	2693.75
354.681	2921.7
359.49	3754.66
364.296	5289.1
369.1	7148.95
373.901	7118.15
378.699	6549.12
383.494	6582.38
388.287	8274.28
393.077	9567.07
397.864	7715.41
402.648	5495.9
407.43	5587.32
412.209	7037.86
416.985	7988.06
421.759	6586.59
426.53	5146.94
431.298	4068.73
436.063	3667.28
440.826	2423.19
445.586	1284.1
450.343	584.154
455.098	382.806
459.85	213.502
464.599	185.71
469.345	297.795
474.089	267.979
478.83	1075.79
483.569	801.119
488.304	490.029
493.037	1029.25
497.768	1492.39
502.495	2522.17
507.22	3701.61
511.942	5190.06
516.662	6056.34
521.379	6616.09
526.093	6097.23
530.805	5540.76
535.513	4588.96
540.22	4061.79
544.923	3468.2
549.624	3158.17
554.322	2800.63
559.017	2770.56
563.71	2598.8
568.4	2523.04
573.087	2401.49
577.772	2035.08
582.454	1514.1
587.134	919.339
591.81	205.428
596.484	4.97314
601.156	262.899
605.824	377.197
610.49	254.952
615.154	173.202
619.815	260.625
624.473	589.72
629.128	1012.37
633.781	1403.31
638.431	2209.64
643.078	3152.89
647.723	4793.82
652.365	7013.24
657.005	9845.6
661.642	15799.9
666.276	27733.2
670.907	40984.4
675.536	41223.5
680.162	25600.7
684.786	14021.7
689.407	8770.78
694.025	6106.95
698.641	4942.97
703.254	4639.85
707.864	4930.47
712.472	5335.75
717.077	6105.97
721.68	6946.19
726.28	7553.56
730.877	8235.72
735.472	8553.72
740.064	8365.29
744.653	7867.82
749.24	6566.72
753.824	5358.35
758.405	4204.19
762.984	3420.09
767.56	2648.19
772.134	2361.89
776.705	2176.65
781.273	2085.76
785.839	2089.45
790.402	2031.38
794.963	1991.61
799.521	1988.37
804.076	1614.57
808.629	1385.26
813.179	1017.13
817.726	831.864
822.271	700.623
826.813	550.543
831.353	185.548
835.89	84.2881
840.425	208.115
844.956	236.386
849.486	315.433
854.012	85.6543
858.536	53.5518
863.058	73.3594
867.577	154.273
872.093	346.225
876.607	455.927
881.118	665.523
885.626	764.135
890.132	1275.73
894.636	1481.24
899.136	2003.77
903.635	2241.78
908.13	2360.67
912.623	2676.46
917.114	3352.17
921.602	4226.14
926.087	4793.53
930.57	4939.46
935.05	4175.61
939.527	3577.78
944.002	3418.35
948.475	3496.1
952.944	3434.69
957.412	3469.2
961.876	3474.06
966.338	3554.71
970.798	3358.89
975.255	3294.57
979.709	3228.3
984.161	3124.64
988.611	3253.94
993.057	3691.81
997.501	4297.19
1001.94	5120.81
1006.38	5944.42
1010.82	6660.02
1015.25	7471.56
1019.68	8109.97
1024.11	8579.64
1028.54	9595.2
1032.96	9671
1037.38	9164.63
1041.8	8271.43
1046.22	8325.26
1050.63	8848.49
1055.04	9537.39
1059.45	10418.4
1063.86	9871.33
1068.26	8153.03
1072.66	5986.66
1077.06	4793.95
1081.46	4002.46
1085.85	3314.13
1090.24	2716.85
1094.63	2178.53
1099.01	1936.19
1103.4	1761.99
1107.78	1552.78
1112.16	1436.82
1116.53	1256.15
1120.9	1115.1
1125.28	1087.98
1129.64	701.812
1134.01	602.413
1138.37	465.335
1142.73	382.687
1147.09	227.383
1151.44	166.864
1155.8	75.4902
1160.15	56.8481
1164.5	73.0102
1168.84	72.2602
1173.18	6.35059
1177.52	12.2119
1181.86	2.22559
1186.2	102.802
1190.53	44.8667
1194.86	24.4243
1199.19	10.2329
1203.51	29.1758
1207.84	83.5571
1212.16	25.6641
1216.47	79.3657
1220.79	101.166
1225.1	114.236
1229.41	146.567
1233.72	186.144
1238.03	124.453
1242.33	162.597
1246.63	164.907
1250.93	238.12
1255.22	199.09
1259.52	236.694
1263.81	346.373
1268.09	194.352
1272.38	385.823
1276.66	325.202
1280.94	358.66
1285.22	360.779
1289.49	326.141
1293.77	305.913
1298.04	233.83
1302.31	232.12
1306.57	197.761
1310.84	301.861
1315.1	273.088
1319.35	196.983
1323.61	243.728
1327.86	256.188
1332.11	247.547
1336.36	108.758
1340.61	137.817
1344.85	119.821
1349.09	172.219
1353.33	152.569
1357.57	155.065
1361.8	46.9683
1366.03	6.19287
1370.26	5.71436
1374.48	33.333
1378.71	132.684
1382.93	52.0967
1387.15	66.4502
1391.37	51.2949
1395.58	178.184
1399.79	87.8106
1404	145.544
1408.2	225.135
1412.41	179.135
1416.61	226.907
1420.81	243.54
1425.01	332.373
1429.2	309.59
1433.39	275.369
1437.58	279.956
1441.77	235.903
1445.95	326.391
1450.14	365.536
1454.32	407.39
1458.49	412.338
1462.67	283.625
1466.84	303.099
1471.01	318.434
1475.18	198.553
1479.34	258.207
1483.51	189.003
1487.66	114.918
1491.82	128.147
1495.98	138.483
1500.13	100.028
1504.28	17.9541
1508.43	164.667
1512.58	75.7729
1516.72	126.956
1520.86	51.4619
1525	182.358
1529.13	40.311
1533.27	103.453
1537.4	109.316
1541.53	171.343
1545.65	84.9673
1549.78	94.0269
1553.9	75.0303
1558.02	124.964
1562.13	70.8882
1566.25	43.1089
1570.36	90.7583
1574.47	0
