Measurement: Raman, 514 nm, ccw, Raman Data Processed
Mineral: Actinolite
Rruff sample: R040063
Ideal chemistry: Ca_2_(Mg_4.5-2.5_Fe^2+^_0.5-2.5_)Si_8_O_22_(OH)_2_
Locality: Harford County, Maryland, USA
Source: University of Arizona Mineral Museum
Description: Mass of green acicular to bladed crystals associated with chlorite
Measured chemistry: (Ca_1.90_Na_0.06_Mn_0.04_)_Σ=2_(Mg_4.35_Fe_0.65_)_Σ=5_(Si_7.92_Al_0.08_)_Σ=8_O_22_(OH)_2_
Pin_id: S00102
Orientation: Laser parallel to c* (0 0 1). Fiducial mark perpendicular to laser is parallel to b [0 1 0]
Raman shift (cm-1)	intensity
62.887	0
67.86	100.852
72.831	303.568
77.8	2306.98
82.765	1849.19
87.727	2086.29
92.687	2491.18
97.644	2686.34
102.598	2712.46
107.549	3273.5
112.498	4722.68
117.443	7299.38
122.386	3919.22
127.326	2383.5
132.263	2050.34
137.197	2038.59
142.129	2324.81
147.057	3859.33
151.983	11119.9
156.906	30261.4
161.827	33404.4
166.744	18183.9
171.659	26698.7
176.57	55181.7
181.479	50368
186.386	19260.2
191.289	8180.07
196.19	5978.65
201.088	6278.08
205.983	8725.33
210.875	15838.2
215.764	35262.2
220.651	68050.8
225.535	67377.3
230.416	29993.4
235.294	10498
240.17	4278.76
245.043	2876.45
249.912	3237.24
254.78	2513.5
259.644	1662.69
264.506	956.414
269.365	328.286
274.221	28.0273
279.074	14.1504
283.925	810.534
288.772	2163.06
293.617	3417.65
298.46	5526.82
303.299	6877.79
308.136	4100.31
312.97	1737.71
317.801	840.864
322.629	1162.71
327.455	2293.81
332.278	3606.17
337.098	2948.95
341.916	2475.03
346.73	2768.62
351.542	3528.73
356.351	3038.47
361.158	2609.58
365.961	4025.73
370.762	5376.03
375.561	3884.95
380.356	2938.29
385.149	4185.86
389.939	7815.51
394.726	10041.1
399.511	5413.47
404.292	2061.53
409.071	1888.16
413.848	2395.26
418.621	2172.47
423.392	819.382
428.16	206.266
432.926	177.082
437.688	57.9111
442.448	846.733
447.206	860.328
451.96	294.12
456.712	172.574
461.461	156.182
466.207	10.624
470.951	25.2734
475.692	27.3867
480.43	48.4609
485.166	207.719
489.899	33.5293
494.629	177.811
499.356	3.22949
504.081	249.195
508.803	346.369
513.522	502.508
518.239	816.768
522.953	964.105
527.664	1387.67
532.373	1607.12
537.079	1321.64
541.782	1149.92
546.482	899.894
551.18	777.692
555.875	731.08
560.568	610.045
565.257	619.426
569.944	714.307
574.629	783.01
579.31	658.287
583.989	518.859
588.666	537.965
593.339	468.127
598.01	410.227
602.679	482.483
607.344	633.144
612.007	878.504
616.668	1159.19
621.325	1499.27
625.98	1633.21
630.633	2440.63
635.282	3289.82
639.929	4449.54
644.573	6424.76
649.215	9620.26
653.854	14796.1
658.491	23329.1
663.124	44633.9
667.755	98149.1
672.384	166902
677.009	134997
681.633	55867.4
686.253	24026.3
690.871	12972.5
695.486	7988.95
700.098	4970.14
704.708	3569.59
709.316	2528.37
713.92	1907.14
718.522	1505.03
723.122	1328.33
727.718	1053.78
732.312	1001.68
736.904	834.385
741.493	705.997
746.079	921.434
750.662	960.818
755.243	841.171
759.822	660.841
764.397	236.868
768.97	246.358
773.541	229.44
778.108	154.227
782.674	211.555
787.236	81.3867
791.796	68.8262
796.354	90.9014
800.908	141.935
805.461	11.9033
810.01	48.0225
814.557	61.0664
819.101	105.244
823.643	135.174
828.182	15.8477
832.719	73.8535
837.252	4.76562
841.784	95.7129
846.312	13.668
850.839	140.223
855.362	15.8945
859.883	123.945
864.401	83.8281
868.917	293.934
873.43	187.293
877.941	421.795
882.449	531.379
886.954	589.041
891.457	829.785
895.957	1155.61
900.455	1517.48
904.95	1926.13
909.442	2482.07
913.932	3605.73
918.42	5586.24
922.904	9784.05
927.387	17237.3
931.866	20382.4
936.343	12501.7
940.818	7187.41
945.29	5956.28
949.759	5366.85
954.226	3683.73
958.69	2990.87
963.152	2230.9
967.611	1848.51
972.067	1617.51
976.521	1521.66
980.973	1299.29
985.421	1338.37
989.868	1209.99
994.311	1144.53
998.753	1260.01
1003.19	1589.96
1007.63	1906.3
1012.06	2416.03
1016.49	3346.15
1020.92	4229.85
1025.35	5380.75
1029.77	6627.06
1034.19	6941.48
1038.61	8543.43
1043.03	12705.9
1047.44	22935.2
1051.85	44610.3
1056.26	76404.3
1060.66	75500.9
1065.07	41058.9
1069.47	21554.1
1073.86	11258.5
1078.26	6421.01
1082.65	4236.12
1087.04	2998.09
1091.43	2368.1
1095.82	1734.03
1100.2	1448.93
1104.58	1369.48
1108.96	909.361
1113.33	894.809
1117.7	793.621
1122.08	435.928
1126.44	434.281
1130.81	359.008
1135.17	425.002
1139.53	476.248
1143.89	133.69
1148.24	11.4805
1152.6	56.0332
1156.95	72.084
1161.3	11.0703
1165.64	54.2734
1169.98	27.2148
1174.32	57.7695
1178.66	82.375
1183	199.264
1187.33	129.225
1191.66	44.3945
1195.99	58.1797
1200.31	20.6191
1204.63	18.0059
1208.96	103.018
1213.27	17.5723
1217.59	74.4102
1221.9	82.9375
1226.21	161.894
1230.52	154.435
1234.83	52.4883
1239.13	205.027
1243.43	141.947
1247.73	172.262
1252.02	74.2266
1256.32	108.635
1260.61	116.143
1264.89	365.147
1269.18	293.953
1273.46	253.103
1277.74	145.269
1282.02	370.273
1286.3	151.641
1290.57	344.414
1294.84	287.432
1299.11	538.793
1303.38	125.404
1307.64	284.365
1311.9	434.387
1316.16	297.84
1320.41	386.67
1324.67	512.633
1328.92	357.398
1333.17	291.195
1337.41	292.844
1341.66	362.869
1345.9	148.336
1350.14	181.334
1354.38	189.514
1358.61	371.691
1362.84	209.803
1367.07	259.137
1371.3	204.887
1375.52	174.367
1379.74	288.057
1383.96	76.6426
1388.18	194.256
1392.39	195.754
1396.61	173.32
1400.82	84.3769
1405.02	51.1484
1409.23	50.5391
1413.43	83.3164
1417.63	54.8965
1421.83	146.713
1426.02	82.1856
1430.21	122.144
1434.41	110.656
1438.59	86.0469
1442.78	64.2363
1446.96	236.371
1451.14	176.334
1455.32	123.67
1459.5	94.0977
1463.67	197.639
1467.84	228.93
1472.01	233.275
1476.18	121.769
1480.34	362.629
1484.5	116.272
1488.66	294.666
1492.82	52.7422
1496.97	209.113
1501.12	77.75
1505.27	317.129
1509.42	303.209
1513.56	62.9219
1517.71	105.961
1521.85	15.7363
1525.98	315.088
1530.12	135.025
1534.25	249.531
1538.38	29.7539
1542.51	245.504
1546.63	38.5098
1550.76	135.537
1554.88	249.475
1559	322.449
1563.11	281.818
1567.22	28.2891
1571.34	215.076
1575.44	369.693
