Measurement: Raman, 514 nm, ccw, Raman Data Processed
Mineral: Actinolite
Rruff sample: R040063
Ideal chemistry: Ca_2_(Mg_4.5-2.5_Fe^2+^_0.5-2.5_)Si_8_O_22_(OH)_2_
Locality: Harford County, Maryland, USA
Source: University of Arizona Mineral Museum
Description: Mass of green acicular to bladed crystals associated with chlorite
Measured chemistry: (Ca_1.90_Na_0.06_Mn_0.04_)_Σ=2_(Mg_4.35_Fe_0.65_)_Σ=5_(Si_7.92_Al_0.08_)_Σ=8_O_22_(OH)_2_
Pin_id: S00102
Orientation: Laser parallel to c* (0 0 1). Fiducial mark perpendicular to laser is parallel to b [0 1 0]
Raman shift (cm-1)	intensity
62.887	0
67.86	25.932
72.831	224.283
77.8	1552.65
82.765	1098.96
87.727	470.988
92.687	610.35
97.644	544.459
102.598	590.268
107.549	1004.52
112.498	1529.72
117.443	3497.06
122.386	2016.48
127.326	475.091
132.263	384.938
137.197	380.965
142.129	472.517
147.057	501.522
151.983	782.537
156.906	1776.79
161.827	2063.38
166.744	1075.32
171.659	1230.62
176.57	2189.04
181.479	2096.69
186.386	804.594
191.289	374.871
196.19	372.145
201.088	481.163
205.983	837.723
210.875	1714.54
215.764	3580.64
220.651	6989.46
225.535	9606.68
230.416	10799.3
235.294	8903.89
240.17	4502.13
245.043	3061.8
249.912	3368.74
254.78	2466.81
259.644	1271.91
264.506	768.978
269.365	340.933
274.221	64.7153
279.074	23.2649
283.925	68.4983
288.772	76.3447
293.617	111.851
298.46	266.021
303.299	414.837
308.136	429.279
312.97	181.213
317.801	25.4565
322.629	45.3975
327.455	87.8403
332.278	63.5027
337.098	139.738
341.916	416.365
346.73	859.071
351.542	1442.23
356.351	1391.48
361.158	1620.67
365.961	2935.53
370.762	4095.99
375.561	2881.99
380.356	1767.49
385.149	2360.46
389.939	4107.88
394.726	5252.71
399.511	3117.94
404.292	1991.55
409.071	2497.52
413.848	3700.82
418.621	3627.45
423.392	2076.39
428.16	1175.33
432.926	1264.66
437.688	1593.44
442.448	738.472
447.206	177.746
451.96	29.2764
456.712	48.1335
461.461	30.8618
466.207	18.8491
470.951	44.7063
475.692	11.373
480.43	88.6631
485.166	188.297
489.899	55.3005
494.629	29.9651
499.356	120.665
504.081	273.401
508.803	407.171
513.522	839.957
518.239	1449.75
522.953	1779.57
527.664	1889.4
532.373	1669.32
537.079	899.3
541.782	576.319
546.482	417.324
551.18	277.232
555.875	318.15
560.568	193.009
565.257	252.821
569.944	239.553
574.629	244.241
579.31	254.796
583.989	188.289
588.666	162.638
593.339	26.7916
598.01	26.5272
602.679	59.0114
607.344	23.8009
612.007	16.5751
616.668	72.6414
621.325	23.6906
625.98	72.2659
630.633	231.941
635.282	372.368
639.929	449.346
644.573	659.154
649.215	1153.06
653.854	1744.69
658.491	2540.27
663.124	4954.66
667.755	11233.3
672.384	20381.2
677.009	17012.7
681.633	7678.64
686.253	3582.52
690.871	2301.67
695.486	1453.58
700.098	969.749
704.708	714.337
709.316	461.241
713.92	423.087
718.522	342.926
723.122	342.49
727.718	369.234
732.312	308.827
736.904	383.078
741.493	613.889
746.079	841.15
750.662	1065
755.243	658.399
759.822	326.749
764.397	176.956
768.97	208.075
773.541	60.0435
778.108	112.858
782.674	48.5115
787.236	105.678
791.796	41.3438
796.354	76.5041
800.908	15.4673
805.461	29.1682
810.01	32.5002
814.557	19.4983
819.101	0.188721
823.643	2.31543
828.182	7.03003
832.719	45.7585
837.252	41.8208
841.784	53.9106
846.312	26.4443
850.839	12.0869
855.362	34.4719
859.883	12.7468
864.401	22.9221
868.917	28.1035
873.43	30.3882
877.941	97.9126
882.449	65.6941
886.954	177.767
891.457	167.993
895.957	265.305
900.455	269.751
904.95	280.291
909.442	434.848
913.932	622.53
918.42	832.067
922.904	1375.94
927.387	2347.86
931.866	2857.83
936.343	1819.45
940.818	1214.35
945.29	1212.18
949.759	1198.82
954.226	859.211
958.69	573.201
963.152	506.577
967.611	448.266
972.067	429.06
976.521	474.519
980.973	466.618
985.421	550.57
989.868	489.484
994.311	521.564
998.753	642.876
1003.19	868.51
1007.63	1049.3
1012.06	1434.24
1016.49	2054.36
1020.92	2942.61
1025.35	4892.01
1029.77	6411.52
1034.19	4290.08
1038.61	2220.78
1043.03	1832.93
1047.44	1761.62
1051.85	2552.91
1056.26	3842.69
1060.66	4221.38
1065.07	3233.14
1069.47	2723.44
1073.86	1784.13
1078.26	1012.02
1082.65	722.036
1087.04	537.99
1091.43	462.059
1095.82	430.675
1100.2	356.113
1104.58	265.457
1108.96	223.732
1113.33	264.004
1117.7	221.156
1122.08	260.003
1126.44	220.311
1130.81	110.095
1135.17	75.0127
1139.53	150.498
1143.89	98.5164
1148.24	42.4983
1152.6	119.376
1156.95	26.4497
1161.3	43.7195
1165.64	40.2046
1169.98	74.3652
1174.32	20.3867
1178.66	8.96265
1183	7.07129
1187.33	23.6841
1191.66	13.3293
1195.99	53.4973
1200.31	26.3628
1204.63	37.6494
1208.96	59.8298
1213.27	57.9934
1217.59	34.9038
1221.9	1.83008
1226.21	6.58057
1230.52	5.15161
1234.83	70.0286
1239.13	105.709
1243.43	9.14819
1247.73	144.455
1252.02	41.5129
1256.32	0.575439
1260.61	74.8762
1264.89	42.2886
1269.18	67.3035
1273.46	143.472
1277.74	201.182
1282.02	24.4397
1286.3	119.481
1290.57	146.104
1294.84	81.0151
1299.11	85.4878
1303.38	103.724
1307.64	63.1343
1311.9	125.347
1316.16	77.1157
1320.41	99.2263
1324.67	78.2393
1328.92	59.5618
1333.17	56.4514
1337.41	99.7588
1341.66	109.918
1345.9	68.384
1350.14	176.166
1354.38	121.144
1358.61	35.3418
1362.84	119.854
1367.07	159.613
1371.3	37.646
1375.52	141.747
1379.74	77.4502
1383.96	133.435
1388.18	25.1587
1392.39	83.0915
1396.61	20.5732
1400.82	101.236
1405.02	4.36914
1409.23	85.3882
1413.43	111.603
1417.63	31.5637
1421.83	83.9595
1426.02	8.04956
1430.21	28.4153
1434.41	3.69775
1438.59	85.4482
1442.78	52.6521
1446.96	68.6501
1451.14	73.8369
1455.32	44.5281
1459.5	50.9746
1463.67	49.323
1467.84	118.27
1472.01	62.2905
1476.18	68.4924
1480.34	45.7439
1484.5	5.31299
1488.66	33.2117
1492.82	8.62549
1496.97	154.139
1501.12	100.55
1505.27	142.354
1509.42	30.9373
1513.56	40.4009
1517.71	62.9424
1521.85	31.3799
1525.98	119.001
1530.12	83.9932
1534.25	76.4192
1538.38	14.4648
1542.51	6.13525
1546.63	25.8547
1550.76	144.891
1554.88	215.11
1559	23.1079
1563.11	90.9509
1567.22	59.581
1571.34	23.9705
1575.44	87.8406
