Measurement: Raman, 514 nm, depolarized, Raman Data Processed
Mineral: Actinolite
Rruff sample: R060045
Ideal chemistry: Ca_2_(Mg_4.5-2.5_Fe^2+^_0.5-2.5_)Si_8_O_22_(OH)_2_
Locality: Colorado, USA
Source: University of Arizona Mineral Museum
Description: Green prismatic crystals in a radial arrangement
Measured chemistry: (Ca_1.99_Na_0.01_)_Σ=2_(Mg_4.20_Fe^2+^_0.59_Al_0.09_Fe^3+^_0.08_Mn_0.02_Ti_0.01_)_Σ=5_(Si_7.82_Al_0.18_)_Σ=8_O_22_(OH)_2_
Pin_id: M00311
Orientation: Laser parallel to c* (0 0 1). Fiducial mark perpendicular to laser is parallel to a [1 0 0]
Raman shift (cm-1)	intensity
134.127	0
139.043	94.9805
143.956	240.255
148.867	2879.16
153.775	3691.39
158.681	3660.06
163.585	2783.95
168.486	6530.1
173.385	7826.39
178.282	6027.18
183.176	1898.05
188.067	583.383
192.956	472.969
197.843	669.326
202.727	1867.44
207.609	3910.18
212.489	9550.13
217.366	13248.6
222.24	12872.2
227.112	8311.32
231.982	4539.7
236.849	2585.58
241.714	1692.97
246.577	1459.08
251.437	1142.64
256.294	614.555
261.149	255.754
266.002	48.6914
270.852	144.418
275.7	212.022
280.545	86.9356
285.388	213.287
290.229	416.42
295.067	641.264
299.902	587.195
304.735	331.246
309.566	184.199
314.394	86.457
319.22	491.435
324.043	247.277
328.864	645.844
333.682	749.016
338.498	1278.37
343.311	1595
348.122	2224.13
352.931	1976.71
357.737	2675.62
362.54	3436.7
367.341	3737.93
372.14	2880.24
376.936	2158.56
381.73	2665.85
386.521	3300.73
391.31	2853.15
396.096	1983.1
400.88	1421.91
405.661	1490.56
410.44	1846.01
415.216	1559.06
419.99	864.356
424.761	549.107
429.53	835.234
434.297	693.375
439.061	360.477
443.822	53.2715
448.581	137.719
453.337	39.6035
458.091	41.4648
462.843	44.1875
467.592	86.3535
472.338	105.047
477.082	276.254
481.824	219.99
486.563	118.205
491.3	117.834
496.034	221.49
500.765	415.742
505.494	732.83
510.221	1174.93
514.945	1128.89
519.666	1568.74
524.385	1936.24
529.102	1418.56
533.816	941.826
538.527	665.768
543.236	481.394
547.943	298.656
552.647	409.519
557.348	289.318
562.047	114.641
566.744	207.154
571.438	432.248
576.129	314.572
580.818	362.111
585.504	255.279
590.188	148.127
594.87	298.889
599.549	27.5
604.225	79.3242
608.899	163.973
613.57	238.215
618.239	314.201
622.905	419.801
627.569	564.988
632.23	792.293
636.889	1341.46
641.545	2207.27
646.198	3255.66
650.849	4670.2
655.498	6696.76
660.144	12735
664.787	25050.7
669.428	31236.3
674.067	22899
678.703	11374.5
683.336	5837.25
687.967	3861.6
692.595	2382.04
697.221	1615.49
701.844	1231.42
706.465	976.041
711.083	782.756
715.698	548.098
720.311	444.574
724.922	472.475
729.53	419.551
734.135	533.184
738.738	798.644
743.338	568.826
747.936	429.691
752.531	333.481
757.124	353.336
761.714	231.984
766.302	103.34
770.887	147.504
775.469	121.654
780.049	41.4199
784.626	166.484
789.201	81.3574
793.773	10.0293
798.343	27.875
802.91	62.5703
807.475	15.168
812.037	254.272
816.596	98.0644
821.153	163.529
825.707	225.805
830.259	180.941
834.808	83.0938
839.355	123.533
843.899	103.09
848.441	246.562
852.98	198.969
857.516	105.307
862.05	22.457
866.581	378.541
871.11	72.6641
875.636	96.7285
880.159	221.848
884.68	292.051
889.199	452.432
893.714	380.103
898.228	499.857
902.738	609.018
907.246	677.551
911.752	856.93
916.255	1480.73
920.755	2294.78
925.253	3800.35
929.748	3624.02
934.241	2374.38
938.731	1568.41
943.218	1666.41
947.703	1812.94
952.186	1202.26
956.665	744.68
961.142	788.094
965.617	693.404
970.089	737.758
974.558	901.824
979.025	645.111
983.489	474.623
987.951	648.492
992.41	616.332
996.866	945.521
1001.32	989.969
1005.77	1351.66
1010.22	1948.14
1014.67	2550.33
1019.11	3525.57
1023.55	4244.03
1027.99	4696.96
1032.42	3788.12
1036.86	3080.59
1041.29	4021.1
1045.72	6098.99
1050.14	9971.53
1054.56	12806.2
1058.98	11498.9
1063.4	7701.59
1067.82	4965.52
1072.23	2666.49
1076.64	1618.15
1081.05	951.451
1085.45	902.775
1089.85	695.359
1094.25	861.123
1098.65	736.941
1103.04	384.861
1107.43	544.924
1111.82	359.141
1116.21	226.266
1120.59	568.535
1124.97	345.91
1129.35	259.445
1133.73	475.025
1138.1	104.783
1142.47	26.2266
1146.84	85.8516
1151.21	32.2227
1155.57	195.84
1159.93	144.531
1164.29	91.2148
1168.64	168.117
1172.99	290.148
1177.34	41.8086
1181.69	116.648
1186.04	85.8281
1190.38	54.0625
1194.72	0.710938
1199.05	31.0938
1203.39	13.3359
1207.72	8.26562
1212.05	71.0469
1216.37	35.2891
1220.7	392.121
1225.02	275.406
1229.34	311.5
1233.65	196.254
1237.97	241.879
1242.28	184.859
1246.59	201.738
1250.89	266.07
1255.19	285.906
1259.49	324.887
1263.79	195.344
1268.09	247.969
1272.38	2.19141
1276.67	543.324
1280.95	368.848
1285.24	239.754
1289.52	338.664
1293.8	297.465
1298.08	361.367
1302.35	460.004
1306.62	409.086
1310.89	248.875
1315.15	458.336
1319.42	542.992
1323.68	400.57
1327.94	107.34
1332.19	495.785
1336.44	206.324
1340.69	394.004
1344.94	411.606
1349.19	449.242
1353.43	300.672
1357.67	356.074
1361.9	80.3555
1366.14	291.051
1370.37	117.328
1374.6	560.617
1378.83	57.9062
1383.05	264.086
1387.27	227.352
1391.49	162.172
1395.7	172.023
1399.92	17.4258
1404.13	265.035
1408.34	154.598
1412.54	401.66
1416.74	227.148
1420.94	183.449
1425.14	199.086
1429.34	121.488
1433.53	284.711
1437.72	360.391
1441.9	449.238
1446.09	546.613
1450.27	253.68
1454.45	326.894
1458.63	222.34
1462.8	318.043
1466.97	352.078
1471.14	128.398
1475.31	234.785
1479.47	162.402
1483.63	28.5508
1487.79	59.0039
1491.94	211.57
1496.09	271.336
1500.24	280.203
1504.39	216.965
1508.54	249.731
1512.68	24.1836
1516.82	197.352
1520.95	305.676
1525.09	210.519
1529.22	354.719
1533.35	254.832
1537.47	247.066
1541.6	379.481
1545.72	81.2578
1549.83	280.812
1553.95	264.242
1558.06	417.629
1562.17	397.648
1566.28	46.6836
1570.38	0
