Measurement: Raman, 514 nm, depolarized, Raman Data Processed
Mineral: Actinolite
Rruff sample: R050025
Ideal chemistry: Ca_2_(Mg_4.5-2.5_Fe^2+^_0.5-2.5_)Si_8_O_22_(OH)_2_
Locality: Tyrol, Austria
Source: Eugene Schlepp
Description: Green colored bladed single crystals
Measured chemistry: (Ca_.930_Na_.056_Mn_.010_K_.004_)_2_(Mg_.883_Fe_.117_)_5_(Si_.978_Al_.022_)_8_O_22_(OH)_2_
Pin_id: L00525
Orientation: Laser parallel to b* (0 1 0). Fiducial mark perpendicular to laser is parallel to c [0 0 1]
Raman shift (cm-1)	intensity
84.311	0
88.496	40.354
92.678	483.57
96.858	185.572
101.036	226.44
105.212	743.758
109.387	1112.52
113.559	3023
117.729	4424.03
121.897	4620.21
126.063	2384.63
130.228	1044.06
134.39	272.231
138.55	437.758
142.709	20.056
146.865	98.743
151.019	101.778
155.171	2205.31
159.322	11390.4
163.47	3690.91
167.617	1430.63
171.761	2927.92
175.904	12707.4
180.044	12269.2
184.183	4470.28
188.319	2021.65
192.454	1243.73
196.586	1001.38
200.717	1096.85
204.846	1373.9
208.972	1701.05
213.097	3021.83
217.22	7068.31
221.341	14001.2
225.46	10879.3
229.577	4860.83
233.692	2286.65
237.805	859.835
241.916	408.39
246.025	586.308
250.132	850.431
254.237	487.059
258.34	197.61
262.442	166.266
266.541	38.102
270.639	128.539
274.734	118.966
278.828	98.549
282.919	130.515
287.009	490.071
291.097	955.679
295.183	955.778
299.266	1380.29
303.348	1873.05
307.428	1150.98
311.507	561.811
315.583	305.801
319.657	238.808
323.729	334.003
327.8	910.294
331.868	1653.55
335.935	1566.56
339.999	1690.48
344.062	1914.78
348.123	1555.66
352.182	1397.19
356.239	1304
360.294	1307.38
364.347	1979.17
368.398	4198.43
372.448	3585.38
376.495	1937.99
380.54	1358.28
384.584	1542.24
388.626	3127.87
392.666	5796.2
396.704	3946.21
400.74	1675.72
404.774	1345.35
408.806	1324.72
412.836	1742.75
416.865	1928.38
420.891	1312.38
424.916	719.709
428.939	458.424
432.959	506.254
436.978	590.569
440.996	317.793
445.011	55.53
449.024	66.56
453.036	41.432
457.045	85
461.053	84.827
465.059	4.365
469.063	71.622
473.065	93.229
477.065	133.101
481.063	76.712
485.06	128.444
489.054	243.663
493.047	126.012
497.038	12.081
501.027	46.135
505.014	62.373
508.999	207.597
512.982	315.592
516.964	356.438
520.944	409.202
524.921	459.868
528.897	642.445
532.871	519.863
536.844	383.125
540.814	316.231
544.783	393.175
548.749	318.997
552.714	302.646
556.677	234.122
560.638	284.43
564.597	200.596
568.555	200.64
572.511	134.552
576.464	164.325
580.416	299.031
584.366	250.768
588.315	54.195
592.261	40.089
596.206	4.339
600.148	28.155
604.089	0.25
608.028	9.132
611.965	17.6
615.901	123.807
619.834	327.103
623.766	296.115
627.696	313.004
631.624	510.387
635.551	873.479
639.475	1255.7
643.398	1643.42
647.318	2431.33
651.237	3885.93
655.155	5554.54
659.07	6919.94
662.984	9767.26
666.895	18579.8
670.805	41687.2
674.713	46005.5
678.62	21377.9
682.524	9036.35
686.427	4636.21
690.328	3070.38
694.227	2263.73
698.124	1497.68
702.02	1111.66
705.913	727.73
709.805	574.718
713.695	562.629
717.584	510.465
721.47	388.877
725.355	303.554
729.238	315.939
733.119	411.495
736.998	423.889
740.876	419.227
744.752	598.466
748.626	879.538
752.498	811.596
756.368	431.809
760.237	284.478
764.104	96.155
767.969	91.357
771.832	128.335
775.693	65.457
779.553	158.451
783.411	110.582
787.267	36.404
791.122	44.462
794.974	14.238
798.825	10.855
802.674	44.799
806.522	9.766
810.367	24.89
814.211	69.787
818.053	458.14
821.893	234.877
825.732	59.685
829.568	66.488
833.403	11.605
837.236	38.029
841.068	105.462
844.898	55.768
848.726	13.029
852.552	1.932
856.376	82.051
860.199	145.916
864.02	200.737
867.839	165.536
871.656	169.323
875.472	256.127
879.286	300.911
883.098	316.713
886.909	383.529
890.717	395.32
894.524	391.112
898.33	404.959
902.133	643.85
905.935	707.752
909.735	791.713
913.533	889.714
917.33	1196.82
921.124	1919.92
924.918	3299.85
928.709	5112.59
932.499	4717.95
936.286	2758
940.073	1748.54
943.857	1706.1
947.64	1775.81
951.421	1500.56
955.2	1154.6
958.978	879.281
962.753	720.568
966.527	587.192
970.3	699.207
974.071	714.241
977.84	669.109
981.607	572.152
985.372	415.767
989.136	418.402
992.898	486.328
996.659	573.724
1000.42	638.571
1004.17	623.798
1007.93	724.362
1011.68	845.785
1015.43	999.61
1019.18	1392.83
1022.93	1991.41
1026.68	2774.93
1030.42	2952.82
1034.17	2211.88
1037.91	2099.14
1041.65	2637.82
1045.39	3890.7
1049.12	6175.19
1052.86	10416.7
1056.59	15178.8
1060.33	13922.8
1064.06	8403.11
1067.78	5766.43
1071.51	4114.47
1075.23	2681.88
1078.96	1805.27
1082.68	1289.51
1086.4	1002.59
1090.12	754.308
1093.83	743.102
1097.55	699.342
1101.26	546.358
1104.97	500.663
1108.68	419.356
1112.39	308.562
1116.1	302.263
1119.8	342.393
1123.5	366.356
1127.2	374.168
1130.9	234.971
1134.6	92.122
1138.3	45.666
1141.99	24.368
1145.69	168.411
1149.38	118.852
1153.07	128.96
1156.76	74.731
1160.44	39.006
1164.13	28.331
1167.81	16.608
1171.49	45.522
1175.17	16.635
1178.85	99.438
1182.52	53.154
1186.2	163.039
1189.87	15.853
1193.54	62.406
1197.21	11.75
1200.88	0.303
1204.55	21.45
1208.21	114.097
1211.88	82.215
1215.54	235.472
1219.2	51.853
1222.86	38.829
1226.51	20.826
1230.17	252.413
1233.82	79.021
1237.47	174.3
1241.12	285.122
1244.77	123.136
1248.42	152.861
1252.06	101.342
1255.71	110.03
1259.35	73.355
1262.99	39.557
1266.63	119.202
1270.26	210.013
1273.9	140.512
1277.53	112.681
1281.16	146.356
1284.8	98.574
1288.42	35.346
1292.05	21.111
1295.68	94.8
1299.3	231
1302.92	227.555
1306.55	216.806
1310.16	192.345
1313.78	130.105
1317.4	30.063
1321.01	117.128
1324.62	27.645
1328.24	31.662
1331.85	169.893
1335.45	193.009
1339.06	206.9
1342.66	220.18
1346.27	244.614
1349.87	154.691
1353.47	186.601
1357.07	60.045
1360.66	33.465
1364.26	68.66
1367.85	80.422
1371.44	197.738
1375.04	203.612
1378.62	254.718
1382.21	231.235
1385.8	166.222
1389.38	105.549
1392.96	100.495
1396.54	31.624
1400.12	120.616
1403.7	204.437
1407.28	215.303
1410.85	252.19
1414.42	406.272
1417.99	216.136
1421.56	178.351
1425.13	146.352
1428.7	157.223
1432.26	102.786
1435.83	30.698
1439.39	83.734
1442.95	242.048
1446.51	302.498
1450.06	318.581
1453.62	363.335
1457.17	227.075
1460.73	380.48
1464.28	203.465
1467.83	95.845
1471.37	74.642
1474.92	67.83
1478.46	131.402
1482.01	187.788
1485.55	205.657
1489.09	359.182
1492.63	376.873
1496.16	402.983
1499.7	375.454
1503.23	364.065
1506.76	320.422
1510.29	110.274
1513.82	0.276
