Measurement: Raman, 514 nm, ccw, Raman Data RAW
Mineral: Actinolite
Rruff sample: R040063
Ideal chemistry: Ca_2_(Mg_4.5-2.5_Fe^2+^_0.5-2.5_)Si_8_O_22_(OH)_2_
Locality: Harford County, Maryland, USA
Source: University of Arizona Mineral Museum
Description: Mass of green acicular to bladed crystals associated with chlorite
Measured chemistry: (Ca_1.90_Na_0.06_Mn_0.04_)_Σ=2_(Mg_4.35_Fe_0.65_)_Σ=5_(Si_7.92_Al_0.08_)_Σ=8_O_22_(OH)_2_
Pin_id: S00298
Orientation: Laser parallel to -a* (-1 0 0). Fiducial mark perpendicular to laser is parallel to b [0 1 0]
Raman shift (cm-1)	intensity
62.903	194
67.906	245
72.906	255
77.902	387
82.896	698
87.886	1169
92.873	2085
97.857	3491
102.837	5690
107.814	9817
112.789	17421
117.759	28300
122.727	25233
127.692	15539
132.653	9304
137.611	8047
142.566	8012.64
147.518	7855
152.466	8750
157.412	10765
162.354	10674
167.293	10461
172.229	14987
177.162	20197
182.091	16617
187.018	10745
191.941	8856
196.861	8012
201.778	7979
206.692	9314
211.603	11832
216.511	15674
221.415	19749
226.317	20293
231.215	18429
236.11	14991
241.002	11135
245.891	10654
250.777	10846
255.66	9866
260.54	8570
265.417	7873
270.29	7159
275.161	6843
280.028	7056
284.893	7943.93
289.754	8408.32
294.612	8595.62
299.468	8973
304.32	8945
309.169	8437
314.015	7840
318.858	7882
323.698	8484
328.535	9123
333.369	9791
338.2	9594.17
343.028	9359
347.853	9504
352.675	9572
357.494	9795
362.31	11907
367.122	16124
371.932	17146
376.739	13889
381.543	13740
386.344	18086
391.142	24647
395.937	23635
400.729	16086
405.518	13132
410.304	14120
415.087	15461
419.868	13522
424.645	10220
429.419	8793
434.19	8533
438.959	8196
443.724	7218
448.487	6709.73
453.246	6633
458.003	6667
462.757	6756
467.508	6740
472.256	6732
477.001	6817
481.743	7387
486.482	7659.82
491.218	7552
495.952	7174
500.682	7074
505.41	7534
510.134	8416
514.856	9179
519.575	8977
524.291	8849
529.005	9324
533.715	9203
538.422	8740
543.127	8498.02
547.829	8194.86
552.528	7970.59
557.224	7700.81
561.917	7657
566.608	7656
571.295	7584
575.98	7562
580.662	7538
585.341	7185
590.017	6891
594.691	6523
599.361	6375
604.029	6329
608.694	6392
613.356	6535
618.016	6722
622.672	6885
627.326	7181
631.977	7424
636.625	7737
641.271	8476
645.914	9650
650.553	11471
655.191	14226
659.825	20572
664.457	37111
669.085	72481
673.711	95292
678.335	63188
682.955	30269
687.573	17423
692.188	12809
696.801	10601.3
701.41	9467
706.017	8773
710.621	8433
715.223	8124
719.821	8122
724.417	8080
729.011	8418
733.601	9145
738.189	10529
742.774	11643
747.357	12445
751.936	12123
756.513	10210
761.088	8616
765.659	8185
770.228	7881
774.795	7743
779.358	7615.1
783.919	7524
788.478	7454
793.033	7363
797.586	7371
802.136	7186
806.684	7281.06
811.229	7304
815.771	7351
820.311	7385
824.848	7360
829.382	7481.25
833.914	7585
838.443	7628
842.97	7754
847.494	7935
852.015	7878
856.534	7769.23
861.05	7877.5
865.563	8088.03
870.074	8187.41
874.582	8313.95
879.088	8268.58
883.591	8474.75
888.091	8406.83
892.589	8605
897.084	8814
901.577	8918
906.067	9389
910.554	9365
915.039	9762
919.521	10780
924.001	12482
928.478	14796
932.953	14873
937.425	12409
941.894	11026
946.361	10551
950.825	10146
955.287	9674
959.747	9504
964.203	9360
968.657	9270.3
973.109	9216
977.558	9153
982.005	9176
986.449	9131
990.89	9334
995.33	9429
999.766	9731
1004.2	10158
1008.63	10265
1013.06	10908
1017.49	11882
1021.91	13954
1026.33	17737
1030.75	18312
1035.17	14754
1039.58	12047
1043.99	11590
1048.4	12356
1052.81	14800
1057.21	17700
1061.62	17886.8
1066.01	16564
1070.41	15923
1074.81	12983
1079.2	11329
1083.59	10578
1087.97	9964
1092.36	9649
1096.74	9469
1101.12	9455
1105.5	9464
1109.87	9401
1114.24	9386
1118.61	9353
1122.98	9324
1127.35	9120
1131.71	8937
1136.07	8987
1140.42	8825
1144.78	8715
1149.13	8698
1153.48	8643
1157.83	8663
1162.18	8705
1166.52	8688
1170.86	8591
1175.2	8575
1179.54	8690
1183.87	8538
1188.2	8543
1192.53	8648
1196.86	8751
1201.18	8699
1205.5	8747.42
1209.82	8708
1214.14	8851
1218.45	8785
1222.77	8883
1227.08	8805
1231.38	8886
1235.69	8891
1239.99	8978
1244.29	9180
1248.59	9194
1252.89	9106
1257.18	9253
1261.47	9244
1265.76	9442
1270.05	9419
1274.33	9513
1278.61	9473
1282.89	9461
1287.17	9466
1291.45	9482
1295.72	9569
1299.99	9622
1304.26	9682
1308.52	9720
1312.79	9840
1317.05	9918
1321.31	9844
1325.56	9889
1329.82	9800
1334.07	9823
1338.32	9874
1342.57	9941
1346.81	10080
1351.06	9948
1355.3	9985
1359.54	9968
1363.77	9869
1368.01	10011
1372.24	10040
1376.47	10142
1380.69	10003
1384.92	10132
1389.14	10208
1393.36	10260
1397.58	10301
1401.8	10193
1406.01	10319
1410.22	10363
1414.43	10409
1418.64	10484
1422.84	10394
1427.04	10408
1431.24	10619
1435.44	10721
1439.64	10876.1
1443.83	10942
1448.02	11123
1452.21	11102
1456.4	11144
1460.59	11313
1464.77	11066
1468.95	10920
1473.13	11084
1477.3	11063
1481.48	11097
1485.65	11061
1489.82	11169
1493.99	11023
1498.15	11227
1502.31	11313
1506.47	11208
1510.63	11311
1514.79	11408
1518.94	11457
1523.1	11471
1527.25	11465
1531.39	11558
1535.54	11676
1539.68	11749
1543.83	11636
1547.97	11761
1552.1	11879
1556.24	11903
1560.37	11990
1564.5	11863
1568.63	11996
1572.76	12068
1576.88	12176
