Measurement: Raman, 514 nm, depolarized, Raman Data Processed
Mineral: Actinolite
Rruff sample: R060045
Ideal chemistry: Ca_2_(Mg_4.5-2.5_Fe^2+^_0.5-2.5_)Si_8_O_22_(OH)_2_
Locality: Colorado, USA
Source: University of Arizona Mineral Museum
Description: Green prismatic crystals in a radial arrangement
Measured chemistry: (Ca_1.99_Na_0.01_)_Σ=2_(Mg_4.20_Fe^2+^_0.59_Al_0.09_Fe^3+^_0.08_Mn_0.02_Ti_0.01_)_Σ=5_(Si_7.82_Al_0.18_)_Σ=8_O_22_(OH)_2_
Pin_id: M00155
Orientation: Laser parallel to b* (0 1 0). Fiducial mark perpendicular to laser is parallel to c [0 0 1]
Raman shift (cm-1)	intensity
137.814	0
142.728	14.543
147.639	229.475
152.549	1905.38
157.455	5857.3
162.359	1005.55
167.261	1093.42
172.161	3958.31
177.058	9545.18
181.952	2273.25
186.845	356.057
191.734	322.783
196.622	16.2344
201.507	296.238
206.389	560.951
211.269	1930.04
216.147	5224.78
221.022	9654.89
225.895	4669.27
230.765	2008.27
235.633	752.381
240.498	365.188
245.361	403.697
250.222	322.623
255.08	381.805
259.936	122.291
264.789	86.4902
269.64	53.0781
274.488	57.6191
279.334	130.67
284.178	277.111
289.019	490.978
293.857	618.291
298.693	728.311
303.527	571.824
308.358	107.527
313.187	216.482
318.013	304.357
322.837	325.281
327.659	751.807
332.478	810.91
337.294	1394.38
342.108	1448.84
346.92	1101.41
351.729	1173.64
356.535	1113.65
361.34	1616.44
366.141	2679.92
370.94	2163.02
375.737	1336.89
380.531	1086.72
385.323	2046.48
390.113	3436.16
394.9	2315.75
399.684	1096.23
404.466	738.613
409.245	1182.87
414.022	1138.71
418.797	704.516
423.569	387.596
428.338	300.373
433.105	381.209
437.87	273.832
442.632	1.07617
447.391	33.4375
452.149	135.096
456.903	79.3789
461.655	150.596
466.405	28.7148
471.152	52.4316
475.897	133.66
480.639	213.402
485.378	297.008
490.116	1.32812
494.85	4.41992
499.582	207.92
504.312	119.934
509.039	108.424
513.764	460.775
518.486	448.031
523.206	338.135
527.923	479.029
532.638	794.787
537.35	184.475
542.059	352.232
546.766	288.748
551.471	277.998
556.173	246.977
560.873	231.81
565.57	282.57
570.264	258.754
574.957	282.969
579.646	185.412
584.333	340.418
589.018	108.471
593.7	71.9277
598.379	201.309
603.056	217.082
607.73	243.492
612.402	329.111
617.072	289.918
621.739	385.584
626.403	764.346
631.065	621.416
635.724	900.846
640.381	1291.52
645.035	1997.37
649.687	3235.05
654.336	4173.76
658.983	5861.9
663.627	10922.7
668.268	22373
672.907	26706.7
677.544	11844.2
682.178	4940.28
686.809	2750.17
691.438	1641.66
696.065	1161.43
700.688	636.316
705.31	575.436
709.929	331.443
714.545	354.795
719.158	441.883
723.77	141.106
728.378	449.185
732.984	257.391
737.588	214.742
742.189	409.5
746.787	423.379
751.383	675.203
755.976	207.815
760.567	296.168
765.155	192.857
769.741	250.356
774.324	188.107
778.904	40.4512
783.482	95.2676
788.058	11.6113
792.631	71.2969
797.201	31.5469
801.769	137.119
806.334	126.394
810.897	196.109
815.457	47.0605
820.014	88.2402
824.569	269.123
829.122	186.756
833.671	162.154
838.219	37.6719
842.763	204.184
847.306	237.094
851.845	175.565
856.382	590.301
860.917	231.684
865.448	136.664
869.978	385.385
874.505	150.488
879.029	94.5859
883.55	179.59
888.069	267.553
892.586	218.49
897.1	311.822
901.611	149.516
906.12	331.998
910.626	468.768
915.129	345.615
919.63	820.342
924.129	1704.15
928.625	2813.79
933.118	2343.83
937.609	1258.63
942.097	968.049
946.582	953.019
951.065	885.016
955.546	372.981
960.023	717.055
964.499	258.871
968.971	134.109
973.441	142.793
977.909	24.3438
982.374	156.777
986.836	67.0625
991.295	407.422
995.753	73.957
1000.21	489.867
1004.66	687.074
1009.11	929.711
1013.55	1016.42
1018	1114.46
1022.44	1331.37
1026.88	1930.27
1031.32	1898.21
1035.75	1212.2
1040.18	1496.14
1044.61	2233.13
1049.04	3949.48
1053.46	6772.4
1057.88	9087.48
1062.3	6003.94
1066.71	3975.76
1071.13	2414.31
1075.54	1094.06
1079.94	845.445
1084.35	855.758
1088.75	614.152
1093.15	421.242
1097.55	208.914
1101.94	180.688
1106.34	110.449
1110.73	266.992
1115.11	92.8281
1119.5	45.6602
1123.88	313.496
1128.26	309.277
1132.63	254.992
1137.01	35.3047
1141.38	131.176
1145.75	94.6016
1150.12	57.9883
1154.48	27.1094
1158.84	213.906
1163.2	56.6172
1167.55	39.7695
1171.91	177.641
1176.26	25.0234
1180.61	25.5391
1184.95	109.188
1189.29	79.1953
1193.63	56.8828
1197.97	62.1914
1202.31	125.289
1206.64	43.7148
1210.97	67.0312
1215.29	4.82031
1219.62	2.14453
1223.94	257.625
1228.26	27.9414
1232.57	291.492
1236.89	115.977
1241.2	150.832
1245.51	172.195
1249.81	252.496
1254.12	241.738
1258.42	415.859
1262.72	362.984
1267.01	450.93
1271.3	438.043
1275.59	601.215
1279.88	428.773
1284.17	602.555
1288.45	464.477
1292.73	312.555
1297.01	373.805
1301.28	251.356
1305.55	632.875
1309.82	589.477
1314.09	440.562
1318.35	408.672
1322.61	500.359
1326.87	360.797
1331.13	137.723
1335.38	461.848
1339.63	390.504
1343.88	362.867
1348.12	328.688
1352.37	298.449
1356.61	195.519
1360.85	208.719
1365.08	314.965
1369.31	283.277
1373.54	333.633
1377.77	317.074
1381.99	382.617
1386.22	60.3672
1390.43	208.16
1394.65	355.219
1398.87	79.6133
1403.08	207.949
1407.29	388.481
1411.49	52.3438
1415.69	382.551
1419.89	21.9844
1424.09	30.0898
1428.29	255.172
1432.48	182.375
1436.67	497.691
1440.86	643.469
1445.04	836.328
1449.23	1009.08
1453.4	699.652
1457.58	689.676
1461.76	719.539
1465.93	925.945
1470.1	694.648
1474.26	303.805
1478.43	595
1482.59	310.465
1486.75	326.832
1490.9	247.359
1495.06	93.8125
1499.21	219.734
1503.35	350.949
1507.5	363.41
1511.64	74.1328
1515.78	458.379
1519.92	267.531
1524.05	352.449
1528.18	367.019
1532.31	407.406
1536.44	319.957
1540.56	346.445
1544.69	435.789
1548.8	255.598
1552.92	486.211
1557.03	351.41
1561.14	48.9141
1565.25	75.9609
1569.36	210.559
