Measurement: Raman, 514 nm, depolarized, Raman Data Processed
Mineral: Actinolite
Rruff sample: R040063
Ideal chemistry: Ca_2_(Mg_4.5-2.5_Fe^2+^_0.5-2.5_)Si_8_O_22_(OH)_2_
Locality: Harford County, Maryland, USA
Source: University of Arizona Mineral Museum
Description: Mass of green acicular to bladed crystals associated with chlorite
Measured chemistry: (Ca_1.90_Na_0.06_Mn_0.04_)_Σ=2_(Mg_4.35_Fe_0.65_)_Σ=5_(Si_7.92_Al_0.08_)_Σ=8_O_22_(OH)_2_
Pin_id: S00044
Orientation: Laser parallel to b* (0 1 0). Fiducial mark perpendicular to laser is parallel to c [0 0 1]
Raman shift (cm-1)	intensity
134.39	0
138.55	16.943
142.709	1.737
146.865	86.317
151.019	1402.48
155.171	5182.26
159.322	5490.12
163.47	2477.99
167.617	2158.16
171.761	5547.48
175.904	9855.98
180.044	7225.55
184.183	2896.2
188.319	1136.78
192.454	764.184
196.586	564.291
200.717	695.99
204.846	1063.66
208.972	1866.04
213.097	3867.5
217.22	8341.92
221.341	10807.7
225.46	7504.13
229.577	3740.86
233.692	1719.68
237.805	819.026
241.916	588.622
246.025	681.304
250.132	749.078
254.237	501.927
258.34	328.812
262.442	181.732
266.541	42.685
270.639	97.338
274.734	203.337
278.828	47.686
282.919	183.712
287.009	502.809
291.097	648.757
295.183	892.913
299.266	1312.94
303.348	1065.76
307.428	629.515
311.507	377.844
315.583	309.575
319.657	364.549
323.729	490.812
327.8	990.448
331.868	1319
335.935	1409.54
339.999	1676.53
344.062	1488.32
348.123	1499.75
352.182	1338.25
356.239	1269.8
360.294	1819.39
364.347	3018.01
368.398	3816.42
372.448	2714.39
376.495	1812.38
380.54	1580.4
384.584	2188.41
388.626	3696.39
392.666	4204.34
396.704	2532.26
400.74	1230.14
404.774	964.972
408.806	1175.75
412.836	1493.97
416.865	1281.64
420.891	712.237
424.916	333.772
428.939	225.241
432.959	362.594
436.978	453.948
440.996	146.101
445.011	15.819
449.024	128.769
453.036	47.965
457.045	43.413
461.053	109.194
465.059	80.267
469.063	41.007
473.065	108.933
477.065	70.841
481.063	153.536
485.06	158.244
489.054	100.001
493.047	9.376
497.038	39.447
501.027	31.029
505.014	191.589
508.999	325.088
512.982	339.486
516.964	473.778
520.944	607.963
524.921	582.062
528.897	676.08
532.871	569.992
536.844	393.8
540.814	447.5
544.783	401.092
548.749	314.574
552.714	207.946
556.677	121.208
560.638	164.358
564.597	157.396
568.555	240.323
572.511	193.128
576.464	165.813
580.416	228.389
584.366	160.851
588.315	46.8
592.261	45.273
596.206	93.465
600.148	50.886
604.089	119.08
608.028	249.396
611.965	154.367
615.901	334.454
619.834	439.38
623.766	413.876
627.696	709.133
631.624	742.013
635.551	1002.5
639.475	1444.13
643.398	2046.98
647.318	3090.95
651.237	4266.68
655.155	5111.62
659.07	6866.96
662.984	11577
666.895	23077.7
670.805	36498.2
674.713	28848.6
678.62	14829
682.524	7233.02
686.427	4123.21
690.328	2723.32
694.227	1853.35
698.124	1233.31
702.02	891.861
705.913	673.02
709.805	652.771
713.695	462.459
717.584	412.086
721.47	201.654
725.355	191.166
729.238	270.118
733.119	449.526
736.998	338.887
740.876	518.201
744.752	682.607
748.626	752.229
752.498	567.209
756.368	465.513
760.237	204.034
764.104	153.261
767.969	112.608
771.832	12.127
775.693	31.82
779.553	45.171
783.411	1.381
787.267	121.198
791.122	1.071
794.974	149.081
798.825	99.509
802.674	29.797
806.522	101.101
810.367	82.236
814.211	153.556
818.053	174.891
821.893	103.345
825.732	121.812
829.568	60.298
833.403	51.194
837.236	107.255
841.068	35.705
844.898	264.186
848.726	182.726
852.552	191.304
856.376	139.924
860.199	418.589
864.02	507.37
867.839	326.239
871.656	485.171
875.472	364.181
879.286	423.279
883.098	272.475
886.909	381.735
890.717	521.067
894.524	410.545
898.33	400.183
902.133	440.114
905.935	580.178
909.735	762.988
913.533	1030.6
917.33	1140.98
921.124	1851.44
924.918	2961.98
928.709	4002.6
932.499	3433.3
936.286	2268.43
940.073	1747.72
943.857	1567.94
947.64	1449.14
951.421	1111.65
955.2	826.16
958.978	803.7
962.753	513.636
966.527	444.244
970.3	655.842
974.071	367.476
977.84	299.281
981.607	491.191
985.372	360.688
989.136	401.581
992.898	453.828
996.659	498.153
1000.42	910.647
1004.17	703.705
1007.93	796.488
1011.68	864.898
1015.43	1200.77
1019.18	1514.38
1022.93	2009.91
1026.68	2703.95
1030.42	2741.37
1034.17	2155.63
1037.91	2060.19
1041.65	2420.3
1045.39	3368.13
1049.12	5502.6
1052.86	9032.43
1056.59	12537
1060.33	10241.5
1064.06	6660.85
1067.78	4705.73
1071.51	3071.52
1075.23	1906.47
1078.96	1541.82
1082.68	1286.65
1086.4	983.349
1090.12	780.006
1093.83	664.864
1097.55	520.382
1101.26	485.476
1104.97	462.066
1108.68	467.694
1112.39	383.235
1116.1	338.639
1119.8	374.231
1123.5	380.238
1127.2	135.81
1130.9	1.814
1134.6	188.443
1138.3	85.245
1141.99	1.413
1145.69	128.848
1149.38	6.499
1153.07	32.901
1156.76	3.293
1160.44	263.141
1164.13	35.395
1167.81	122.783
1171.49	2.438
1175.17	37.223
1178.85	3.068
1182.52	13.182
1186.2	78.09
1189.87	103.662
1193.54	77.963
1197.21	191.674
1200.88	65.91
1204.55	88.982
1208.21	57.271
1211.88	16.486
1215.54	103.748
1219.2	105.902
1222.86	264.242
1226.51	375.174
1230.17	110.889
1233.82	12.619
1237.47	320.514
1241.12	80.312
1244.77	200.42
1248.42	269.932
1252.06	259.609
1255.71	309.176
1259.35	237.568
1262.99	236.965
1266.63	137.924
1270.26	236.025
1273.9	123.85
1277.53	51.205
1281.16	211.529
1284.8	328.834
1288.42	204.846
1292.05	258.402
1295.68	153.25
1299.3	177.395
1302.92	111.031
1306.55	49.082
1310.16	328.785
1313.78	310.717
1317.4	419.867
1321.01	448.902
1324.62	357.543
1328.24	107.502
1331.85	166.85
1335.45	69.984
1339.06	164.816
1342.66	42.945
1346.27	204.918
1349.87	312.26
1353.47	264.887
1357.07	400.504
1360.66	106.689
1364.26	261.432
1367.85	12.812
1371.44	38.164
1375.04	28.449
1378.62	60.16
1382.21	198.32
1385.8	399.789
1389.38	389.58
1392.96	400.799
1396.54	380.994
1400.12	310.543
1403.7	177.18
1407.28	7.322
1410.85	116.439
1414.42	110.713
1417.99	273.576
1421.56	247.789
1425.13	499.76
1428.7	439.836
1432.26	481.459
1435.83	421.748
1439.39	619.432
1442.95	501.074
1446.51	470.953
1450.06	548.633
1453.62	561.699
1457.17	517.766
1460.73	701.189
1464.28	724.133
1467.83	669.346
1471.37	829.611
1474.92	706.924
1478.46	766.004
1482.01	375.473
1485.55	185.9
1489.09	67.77
1492.63	129.031
1496.16	160.811
1499.7	94.416
1503.23	230.471
1506.76	377.562
1510.29	319.115
1513.82	454.693
1517.35	120.488
1520.88	0
