Measurement: Raman, 514 nm, depolarized, Raman Data RAW
Mineral: Actinolite
Rruff sample: R040063
Ideal chemistry: Ca_2_(Mg_4.5-2.5_Fe^2+^_0.5-2.5_)Si_8_O_22_(OH)_2_
Locality: Harford County, Maryland, USA
Source: University of Arizona Mineral Museum
Description: Mass of green acicular to bladed crystals associated with chlorite
Measured chemistry: (Ca_1.90_Na_0.06_Mn_0.04_)_Σ=2_(Mg_4.35_Fe_0.65_)_Σ=5_(Si_7.92_Al_0.08_)_Σ=8_O_22_(OH)_2_
Pin_id: S00298
Orientation: Laser parallel to -a* (-1 0 0). Fiducial mark perpendicular to laser is parallel to b [0 1 0]
Raman shift (cm-1)	intensity
62.903	236
67.906	280
72.906	299
77.902	420
82.896	684
87.886	1066
92.873	1931
97.857	3261
102.837	5030
107.814	7915
112.789	12363
117.759	18607
122.727	19060
127.692	12835
132.653	8364
137.611	7383
142.566	7294
147.518	7319
152.466	8768
157.412	11517
162.354	10975
167.293	9845
172.229	13757
177.162	18660
182.091	15832
187.018	10150
191.941	8344
196.861	7911
201.778	8254
206.692	9695
211.603	12945
216.511	19809
221.415	26699
226.317	29990
231.215	29346
236.11	22424
241.002	15203
245.891	13984
250.777	13781
255.66	11755
260.54	9779
265.417	8363
270.29	7540
275.161	7176
280.028	7250
284.893	7615
289.754	8272
294.612	8579
299.468	8955
304.32	9254
309.169	8810
314.015	8229
318.858	7873
323.698	8079
328.535	8463
333.369	9072.66
338.2	9264
343.028	9622
347.853	10216
352.675	10550
357.494	10754
362.31	12890
367.122	17908
371.932	19037
376.739	15033
381.543	14267
386.344	18822
391.142	25804
395.937	25586
400.729	17636
405.518	14299
410.304	16255
415.087	18626
419.868	16486
424.645	12237
429.419	10202
434.19	10422
438.959	10136
443.724	8260
448.487	7296
453.246	6882
458.003	6915.45
462.757	6932.97
467.508	6921.73
472.256	6989.14
477.001	7177
481.743	7402
486.482	7863
491.218	7457
495.952	7197
500.682	7285
505.41	7737.94
510.134	8708
514.856	9619
519.575	10344
524.291	10759
529.005	10882
533.715	10167
538.422	9175
543.127	8760
547.829	8458
552.528	8113
557.224	7792
561.917	7681
566.608	7694
571.295	7742
575.98	7637
580.662	7660
585.341	7438
590.017	7004
594.691	6599
599.361	6500
604.029	6409
608.694	6543
613.356	6618
618.016	6798
622.672	7015
627.326	7153
631.977	7525
636.625	7926
641.271	8551
645.914	9950
650.553	11834.6
655.191	14680
659.825	20446
664.457	36391
669.085	71337
673.711	95577
678.335	66546
682.955	31853
687.573	18170
692.188	13120
696.801	10813
701.41	9587
706.017	8903
710.621	8356
715.223	8147
719.821	8039
724.417	8063
729.011	8178.07
733.601	8703.99
738.189	9738
742.774	10732
747.357	11728
751.936	11558
756.513	9796
761.088	8685
765.659	8059
770.228	7820
774.795	7728
779.358	7599
783.919	7507
788.478	7306
793.033	7370
797.586	7178
802.136	7296.36
806.684	7323
811.229	7173.52
815.771	7277
820.311	7400
824.848	7389
829.382	7521
833.914	7499
838.443	7532.76
842.97	7731
847.494	7862.81
852.015	7870.61
856.534	7943.94
861.05	7996.14
865.563	8098.62
870.074	8124.29
874.582	8201.74
879.088	8214.38
883.591	8308.77
888.091	8291
892.589	8606
897.084	8875
901.577	8901
906.067	9296
910.554	9451
915.039	9928
919.521	11034
924.001	13242
928.478	17418
932.953	17380
937.425	13221
941.894	11598
946.361	11410
950.825	10813
955.287	10277
959.747	9731
964.203	9517
968.657	9378
973.109	9316.7
977.558	9365
982.005	9391
986.449	9408
990.89	9527
995.33	9641
999.766	10100
1004.2	10685
1008.63	11107
1013.06	11942
1017.49	13224
1021.91	16239
1026.33	22000
1030.75	22822
1035.17	16936
1039.58	13490
1043.99	12657.8
1048.4	13677.5
1052.81	16466
1057.21	19848
1061.62	18968
1066.01	17882
1070.41	16636
1074.81	13484
1079.2	11725
1083.59	10705
1087.97	10069
1092.36	9705
1096.74	9448
1101.12	9478
1105.5	9412
1109.87	9350
1114.24	9299
1118.61	9171
1122.98	9255
1127.35	8831
1131.71	8965
1136.07	8979.46
1140.42	8738
1144.78	8695
1149.13	8680
1153.48	8622
1157.83	8667.04
1162.18	8457
1166.52	8487
1170.86	8669
1175.2	8641
1179.54	8578
1183.87	8478
1188.2	8546
1192.53	8524
1196.86	8450
1201.18	8625
1205.5	8499
1209.82	8514
1214.14	8644
1218.45	8689.19
1222.77	8789
1227.08	8780
1231.38	8788
1235.69	8899
1239.99	8949
1244.29	8954.65
1248.59	9025.81
1252.89	9075.86
1257.18	9176.2
1261.47	9237
1265.76	9121
1270.05	9241
1274.33	9258
1278.61	9348
1282.89	9397
1287.17	9381
1291.45	9354
1295.72	9457
1299.99	9551
1304.26	9492
1308.52	9555.56
1312.79	9491
1317.05	9614
1321.31	9777
1325.56	9711
1329.82	9793
1334.07	9559
1338.32	9650
1342.57	9734
1346.81	9752
1351.06	9842
1355.3	9735
1359.54	9911
1363.77	9832
1368.01	9811
1372.24	9981
1376.47	9926
1380.69	9917
1384.92	9941
1389.14	9953
1393.36	10106
1397.58	10098
1401.8	10008
1406.01	10114
1410.22	10411.1
1414.43	10165.8
1418.64	10329.9
1422.84	10484
1427.04	10288.9
1431.24	10566.9
1435.44	10605.4
1439.64	10402.6
1443.83	10591.1
1448.02	10595.6
1452.21	10585.1
1456.4	10514
1460.59	10707.4
1464.77	10672.6
1468.95	10764.1
1473.13	10751.9
1477.3	10782.5
1481.48	10873.5
1485.65	11011.1
1489.82	11097.5
1493.99	10999.3
1498.15	11038
1502.31	11181.2
1506.47	11017.3
1510.63	11024.1
1514.79	11117
1518.94	11219
1523.1	11271
1527.25	11192
1531.39	11447
1535.54	11498
1539.68	11581.1
1543.83	11571
1547.97	11612
1552.1	11614
1556.24	11731
1560.37	11654
1564.5	11619
1568.63	11604
1572.76	11909.3
1576.88	11944
