Measurement: Raman, 514 nm, depolarized, Raman Data Processed
Mineral: Actinolite
Rruff sample: R050025
Ideal chemistry: Ca_2_(Mg_4.5-2.5_Fe^2+^_0.5-2.5_)Si_8_O_22_(OH)_2_
Locality: Tyrol, Austria
Source: Eugene Schlepp
Description: Green colored bladed single crystals
Measured chemistry: (Ca_.930_Na_.056_Mn_.010_K_.004_)_2_(Mg_.883_Fe_.117_)_5_(Si_.978_Al_.022_)_8_O_22_(OH)_2_
Pin_id: L00400
Orientation: Laser parallel to c* (0 0 1). Fiducial mark perpendicular to laser is parallel to a [1 0 0]
Raman shift (cm-1)	intensity
98.251	0
102.428	76.746
106.604	311.989
110.777	355.879
114.949	2040.82
119.119	1764.03
123.286	1020.46
127.452	325.541
131.615	134.991
135.777	79.272
139.937	166.986
144.094	18.518
148.25	22.956
152.403	715.441
156.555	4651.41
160.705	8740.77
164.853	3876.58
168.998	2876.89
173.142	7145.73
177.284	17433.1
181.424	13390.2
185.562	4834.9
189.698	2413.01
193.831	1797.42
197.963	1638.31
202.093	1817.52
206.221	2469.52
210.347	4093.53
214.472	7741.1
218.594	17266.8
222.714	27622.4
226.832	19927.9
230.948	12373.1
235.063	7158.1
239.175	3220.82
243.286	2037.29
247.394	2265.51
251.501	2606.5
255.605	1687.26
259.708	1150.78
263.808	775.107
267.907	311.226
272.004	4.11
276.099	47.727
280.192	68.737
284.283	260.965
288.372	985.829
292.459	868.766
296.544	1197.76
300.627	2020.38
304.709	1979.11
308.788	1075.67
312.865	472.067
316.941	200.741
321.015	359.679
325.086	1204.67
329.156	913.31
333.224	1440.54
337.29	1083.09
341.354	1179.78
345.416	1957.99
349.476	3155.7
353.534	3377.64
357.591	2727.08
361.645	2981.38
365.698	5182.52
369.748	8163.5
373.797	5802.3
377.844	3283.92
381.889	2337.39
385.932	2599.7
389.973	4315.85
394.012	5831.84
398.049	3539.68
402.084	1679.36
406.118	1297.92
410.15	1981.29
414.179	3009.55
418.207	2839.61
422.233	1705.51
426.257	940.227
430.279	844.658
434.299	1234.66
438.318	1050.18
442.334	339.64
446.349	111.89
450.361	35.774
454.372	65.796
458.381	26.882
462.388	42.373
466.394	47.173
470.397	9.707
474.398	2.594
478.398	24.619
482.396	80.169
486.391	117.24
490.385	20.155
494.377	26.109
498.368	59.414
502.356	161.822
506.342	443.119
510.327	936.319
514.31	1434.44
518.291	1842.5
522.27	1787.5
526.247	2258.37
530.222	2547.1
534.196	1677.8
538.167	1017.35
542.137	643.745
546.105	447.97
550.071	376.027
554.035	332.916
557.998	296.637
561.958	288.724
565.917	228.577
569.874	170.795
573.829	229.845
577.782	256.729
581.733	201.446
585.683	187.997
589.63	47.381
593.576	50.609
597.52	5.793
601.462	24.986
605.402	42.488
609.341	87.755
613.277	200.012
617.212	173.661
621.145	365.787
625.076	508.352
629.006	681.003
632.933	948.597
636.859	1280.9
640.783	1838.34
644.705	2872.45
648.625	4363.21
652.543	6409.68
656.46	7889.52
660.375	9985.82
664.288	16168.7
668.199	32952.7
672.108	60429
676.016	49104.8
679.921	23146.7
683.825	11664.9
687.727	7750.82
691.628	5668.65
695.526	3923.14
699.423	2550.14
703.318	1837.01
707.211	1335.74
711.102	1053.34
714.992	814.817
718.879	666.166
722.765	632.345
726.649	539.391
730.532	566.373
734.412	645.238
738.291	885.989
742.168	877.627
746.043	963.328
749.916	1140.28
753.788	728.685
757.658	403.458
761.526	268.585
765.392	230.58
769.257	165.562
773.119	150.882
776.98	52.262
780.839	141.661
784.697	53.075
788.552	67.492
792.406	31.863
796.258	39.881
800.108	36.847
803.957	32.036
807.804	52.418
811.649	52.068
815.492	2
819.333	12.132
823.173	36.499
827.011	37.134
830.847	15.047
834.681	19.826
838.514	16.403
842.345	48.814
846.174	16.515
850.001	86.784
853.827	86.016
857.651	101.216
861.473	87.386
865.293	84.531
869.112	177.654
872.928	195.758
876.744	213.851
880.557	345.947
884.369	409.07
888.178	565.196
891.987	723.331
895.793	843.493
899.598	979.729
903.401	1077.05
907.202	1131.46
911.001	1664.92
914.799	1963.5
918.595	2213.16
922.389	3180.87
926.182	4895.64
929.972	6767.08
933.761	5890.97
937.549	3667.54
941.334	3008.16
945.118	3752.26
948.9	3569.07
952.681	2832.96
956.459	2164.91
960.236	1881.54
964.012	1713.12
967.785	1577.52
971.557	1455.85
975.327	1358.04
979.095	1255.33
982.862	1212.35
986.627	1197.94
990.39	1207.02
994.152	1169.54
997.912	1294.9
1001.67	1469.71
1005.43	1712.83
1009.18	2008.03
1012.93	2395.32
1016.68	3170.69
1020.43	4072.21
1024.18	5360.89
1027.93	7184.13
1031.67	7041.34
1035.42	5119.53
1039.16	4463.72
1042.9	4937.19
1046.63	6650.14
1050.37	10399
1054.11	17548.5
1057.84	25765.3
1061.57	22403.8
1065.3	13384.3
1069.03	9220.14
1072.75	6089.09
1076.47	3813.83
1080.2	2782.09
1083.92	2145.71
1087.64	1743.17
1091.36	1552.24
1095.07	1333.17
1098.79	1051.81
1102.5	937.199
1106.21	830.466
1109.92	715.409
1113.62	706.014
1117.33	664.706
1121.04	608.977
1124.74	495.36
1128.44	380.957
1132.14	332.104
1135.83	253.564
1139.53	277.428
1143.22	217.45
1146.92	186.153
1150.61	157.147
1154.3	140.183
1157.98	75.722
1161.67	50.346
1165.35	41.079
1169.04	46.208
1172.72	5.242
1176.4	32.156
1180.07	23.078
1183.75	12.625
1187.42	14.696
1191.1	29.937
1194.77	4.33
1198.44	25.32
1202.1	15.482
1205.77	24.177
1209.43	11.112
1213.1	37.463
1216.76	12.846
1220.42	46.326
1224.07	42.382
1227.73	53.631
1231.38	25.279
1235.04	3.623
1238.69	47.673
1242.34	7.221
1245.99	14.708
1249.63	48.178
1253.28	25.223
1256.92	64.194
1260.56	50.428
1264.2	97.949
1267.84	100.8
1271.48	62.446
1275.11	23.7
1278.74	77.809
1282.38	50.415
1286.01	48.864
1289.63	79.707
1293.26	94.783
1296.89	65.375
1300.51	62.512
1304.13	19.226
1307.75	77.654
1311.37	14.998
1314.99	60.802
1318.6	87.024
1322.22	103.673
1325.83	88.962
1329.44	157.94
1333.05	141.279
1336.66	169.523
1340.26	91.568
1343.87	108.464
1347.47	99.386
1351.07	89.438
1354.67	61.552
1358.27	167.227
1361.86	160.043
1365.46	103.557
1369.05	84.506
1372.64	111.621
1376.23	93.595
1379.82	104.289
1383.41	104.639
1386.99	28.597
1390.57	15.792
1394.16	13.924
1397.74	97.062
1401.32	139.446
1404.89	4.997
1408.47	60.399
1412.04	64.265
1415.61	28.938
1419.18	26.205
1422.75	94.429
1426.32	107.173
1429.89	19.028
1433.45	29.883
1437.01	53.943
1440.58	54.746
1444.13	90.226
1447.69	116.389
1451.25	68.42
1454.81	69.351
1458.36	55.814
1461.91	65.403
1465.46	91.733
1469.01	122.794
1472.56	96.823
1476.1	123.711
1479.64	82.292
1483.19	133.749
1486.73	126.919
1490.27	32.667
1493.81	61.488
1497.34	59.747
1500.88	64.193
1504.41	26.13
1507.94	56.597
1511.47	51.771
1515	25.04
1518.53	111.851
1522.05	64.125
