Measurement: Raman, 514 nm, depolarized, Raman Data Processed
Mineral: Actinolite
Rruff sample: R040063
Ideal chemistry: Ca_2_(Mg_4.5-2.5_Fe^2+^_0.5-2.5_)Si_8_O_22_(OH)_2_
Locality: Harford County, Maryland, USA
Source: University of Arizona Mineral Museum
Description: Mass of green acicular to bladed crystals associated with chlorite
Measured chemistry: (Ca_1.90_Na_0.06_Mn_0.04_)_Σ=2_(Mg_4.35_Fe_0.65_)_Σ=5_(Si_7.92_Al_0.08_)_Σ=8_O_22_(OH)_2_
Pin_id: S00132
Orientation: Laser parallel to [1 0 1]. Fiducial mark perpendicular to laser is parallel to b* (0 1 0)
Raman shift (cm-1)	intensity
146.865	0
151.019	108.319
155.171	875.295
159.322	1149.49
163.47	553.274
167.617	357.951
171.761	1540.08
175.904	3155.14
180.044	2309.46
184.183	821.217
188.319	213.326
192.454	69.758
196.586	7.95
200.717	31.545
204.846	276.459
208.972	738.46
213.097	1910.09
217.22	3757.71
221.341	5058.92
225.46	4905.79
229.577	4624.42
233.692	3275.62
237.805	1679.09
241.916	1090.84
246.025	1260.84
250.132	1247.04
254.237	899.405
258.34	508.86
262.442	292.422
266.541	114.002
270.639	30.415
274.734	91.831
278.828	97.247
282.919	16.334
287.009	187.906
291.097	247.474
295.183	222.577
299.266	382.247
303.348	359.011
307.428	276.922
311.507	203.451
315.583	115.807
319.657	133.779
323.729	168.855
327.8	347.211
331.868	414.738
335.935	417.291
339.999	601.912
344.062	797.388
348.123	1134.73
352.182	1202.94
356.239	1205.05
360.294	1648.47
364.347	3126.81
368.398	4086.68
372.448	2919.44
376.495	1914.24
380.54	1585.6
384.584	2061.98
388.626	3442.37
392.666	4113.75
396.704	2586.11
400.74	1447.46
404.774	1266.77
408.806	1773.05
412.836	2253.3
416.865	1908.5
420.891	1187.66
424.916	677.771
428.939	569.836
432.959	725.366
436.978	639.877
440.996	330.95
445.011	81.587
449.024	66.494
453.036	16.577
457.045	9.198
461.053	42.853
465.059	48.748
469.063	7.137
473.065	36.157
477.065	24.605
481.063	119.269
485.06	181.907
489.054	113.553
493.047	157.138
497.038	63.654
501.027	168.073
505.014	326.397
508.999	594.622
512.982	798.76
516.964	893.874
520.944	966.897
524.921	1098.83
528.897	1076.7
532.871	790.487
536.844	510.171
540.814	479.768
544.783	392.274
548.749	320.691
552.714	281.017
556.677	206.25
560.638	184.389
564.597	193.435
568.555	235.385
572.511	239.24
576.464	246
580.416	218.663
584.366	149.23
588.315	29.699
592.261	28.024
596.206	26.289
600.148	12.606
604.089	41.21
608.028	6.672
611.965	12.499
615.901	2.156
619.834	31.138
623.766	93.846
627.696	174.816
631.624	224.143
635.551	305.146
639.475	549.825
643.398	799.66
647.318	1206.14
651.237	1754.66
655.155	2320.15
659.07	3332.98
662.984	5859.89
666.895	12346.3
670.805	20552.3
674.713	17052.1
678.62	8771.4
682.524	4402.01
686.427	2677.19
690.328	1873.96
694.227	1305.65
698.124	861.25
702.02	687.771
705.913	488.212
709.805	354.574
713.695	324.858
717.584	345.067
721.47	282.202
725.355	279.264
729.238	363.256
733.119	540.179
736.998	713.036
740.876	823.827
744.752	965.15
748.626	1026.52
752.498	688.482
756.368	428.366
760.237	249.88
764.104	143.551
767.969	123.365
771.832	74.812
775.693	114.697
779.553	5.19
783.411	41.275
787.267	38.763
791.122	8.713
794.974	78.264
798.825	75.013
802.674	16.958
806.522	16.983
810.367	4.071
814.211	7.185
818.053	113.671
821.893	23.513
825.732	12.255
829.568	37.754
833.403	15.803
837.236	61.889
841.068	7.614
844.898	58.121
848.726	25.632
852.552	70.15
856.376	28.677
860.199	126.215
864.02	220.771
867.839	143.351
871.656	22.98
875.472	170.63
879.286	225.305
883.098	140.013
886.909	196.761
890.717	266.57
894.524	242.438
898.33	221.365
902.133	244.504
905.935	338.794
909.735	429.183
913.533	532.728
917.33	570.459
921.124	896.291
924.918	1470.22
928.709	2022.25
932.499	1701.76
936.286	1069.17
940.073	828.348
943.857	773.539
947.64	733.624
951.421	663.144
955.2	482.438
958.978	465.004
962.753	1102.11
966.527	988.15
970.3	438.613
974.071	327.1
977.84	342.061
981.607	378.053
985.372	382.624
989.136	308.486
992.898	375.412
996.659	389.426
1000.42	570.503
1004.17	654.64
1007.93	800.843
1011.68	935.143
1015.43	1248.25
1019.18	1752.09
1022.93	2563.69
1026.68	3807.53
1030.42	3709.32
1034.17	2208.59
1037.91	1466.62
1041.65	1217.27
1045.39	1366.73
1049.12	1669.98
1052.86	2512.14
1056.59	3233.3
1060.33	3158.28
1064.06	2607.58
1067.78	2646.32
1071.51	1842.35
1075.23	1251.19
1078.96	833.364
1082.68	664.851
1086.4	546.29
1090.12	513.842
1093.83	438.418
1097.55	361.133
1101.26	289.769
1104.97	279.722
1108.68	292.315
1112.39	409.196
1116.1	276.527
1119.8	199.354
1123.5	227.864
1127.2	196.271
1130.9	68.679
1134.6	141.021
1138.3	133.025
1141.99	33.671
1145.69	101.709
1149.38	71.251
1153.07	100.511
1156.76	30.547
1160.44	90.731
1164.13	18.62
1167.81	73.975
1171.49	36.358
1175.17	48.14
1178.85	3.815
1182.52	16.542
1186.2	56.382
1189.87	14.689
1193.54	42.131
1197.21	38.31
1200.88	17.852
1204.55	21.529
1208.21	47.067
1211.88	74.88
1215.54	20.502
1219.2	5.271
1222.86	130.221
1226.51	83.661
1230.17	52.738
1233.82	60.128
1237.47	62.693
1241.12	54.918
1244.77	86.197
1248.42	36.169
1252.06	141.095
1255.71	165.099
1259.35	184.312
1262.99	61.553
1266.63	96.853
1270.26	110.233
1273.9	108.706
1277.53	120.026
1281.16	79.019
1284.8	112.159
1288.42	64.21
1292.05	126.791
1295.68	109.333
1299.3	22.542
1302.92	88.53
1306.55	29.17
1310.16	169.704
1313.78	102.589
1317.4	160.401
1321.01	151.921
1324.62	131.099
1328.24	166.851
1331.85	125.021
1335.45	91.513
1339.06	115.559
1342.66	70.55
1346.27	128.033
1349.87	69.638
1353.47	120.669
1357.07	132.293
1360.66	58.098
1364.26	118.697
1367.85	64.312
1371.44	23.864
1375.04	3.159
1378.62	3.23
1382.21	33.933
1385.8	152.693
1389.38	92.64
1392.96	121.071
1396.54	223.458
1400.12	154.041
1403.7	85.541
1407.28	45.822
1410.85	9.529
1414.42	158.461
1417.99	21.027
1421.56	57.872
1425.13	186.901
1428.7	108.193
1432.26	255.041
1435.83	181.953
1439.39	175.609
1442.95	115.112
1446.51	135.69
1450.06	95.95
1453.62	99.509
1457.17	119.272
1460.73	247.866
1464.28	205.48
1467.83	180.475
1471.37	220.421
1474.92	311.212
1478.46	248.083
1482.01	79.839
1485.55	60.411
1489.09	225.317
1492.63	49.069
1496.16	83.012
1499.7	69.883
1503.23	5.45
1506.76	173.804
1510.29	154.986
1513.82	153.458
1517.35	65.397
