Measurement: Raman, 514 nm, depolarized, Raman Data Processed
Mineral: Adamite
Rruff sample: R050020
Ideal chemistry: Zn^2+^_2_As^5+^O_4_(OH)
Locality: Mina Ojuela, Mapimi, Durango, Mexico
Source: Eugene Schlepp
Description: Light green prismatic crystal
Measured chemistry: (Zn_1.97_Cu_0.03_)_Σ=2_((As_0.98_P_0.02_)_Σ=1_O_4_)(OH)
Pin_id: L00404
Orientation: Laser parallel to -b* (0 -1 0). Fiducial mark perpendicular to laser is parallel to c [0 0 1]
Raman shift (cm-1)	intensity
114.859	0
119.05	186.067
123.24	1318.52
127.427	1980.75
131.612	2942.75
135.794	4955.36
139.975	4407.59
144.153	1775.59
148.329	594.478
152.503	531.92
156.674	316.022
160.843	84.044
165.011	453.24
169.175	1061.87
173.338	1402.27
177.499	906.146
181.657	650.715
185.813	215.309
189.967	290.062
194.119	164.64
198.268	625.528
202.415	302.987
206.561	660.47
210.703	1430.8
214.844	1127.1
218.983	313.521
223.119	499.805
227.253	1626.22
231.385	2102.91
235.515	1020.13
239.643	712.221
243.768	1107.31
247.891	1332.47
252.012	1607.69
256.131	1982.94
260.248	1618.24
264.363	683.717
268.475	519.52
272.585	675.598
276.693	613.002
280.799	15.408
284.903	10.165
289.005	524.807
293.104	367.805
297.201	133.651
301.296	258.682
305.389	741.795
309.48	811.174
313.569	1062.1
317.655	2081.19
321.74	3032.39
325.822	2546.12
329.902	894.282
333.98	732.604
338.056	693.36
342.129	154.497
346.201	117.341
350.27	236.646
354.337	806.983
358.402	314.064
362.465	136.833
366.526	1262.18
370.585	2729.06
374.642	3705.57
378.696	2701.95
382.748	1648.22
386.799	1474.43
390.847	490.528
394.893	226.907
398.936	652.404
402.978	1730.72
407.018	1997.92
411.055	1838.88
415.091	2458.71
419.124	2703.97
423.155	1687.05
427.184	672.087
431.211	727.162
435.236	1071.26
439.259	809.887
443.28	59.816
447.298	194.162
451.315	719.69
455.329	631.872
459.341	96.002
463.352	85.297
467.36	718.101
471.366	1131.21
475.37	845.478
479.372	580.572
483.371	880.21
487.369	1291.95
491.365	758.674
495.358	97.611
499.35	123.623
503.339	742.929
507.326	757.299
511.311	79.351
515.295	95.49
519.276	704.838
523.255	1111.25
527.232	828.41
531.207	417.551
535.179	1193.53
539.15	1863.81
543.119	1599.38
547.086	504.789
551.05	176.506
555.013	811.491
558.973	915.975
562.932	480.541
566.888	4.793
570.842	249.187
574.795	752.879
578.745	556.149
582.693	109.111
586.639	88.162
590.583	424.17
594.525	1075.27
598.465	677.258
602.403	136.994
606.339	125.971
610.273	650.205
614.205	1078.33
618.135	508.736
622.063	13.107
625.989	126.482
629.912	757.135
633.834	1016.25
637.754	356.695
641.671	22.861
645.587	247.572
649.501	758.01
653.412	915.898
657.322	334.305
661.23	166.119
665.135	364.389
669.039	986.465
672.94	865.311
676.84	176.105
680.738	22.652
684.633	399.059
688.527	1121
692.418	763.219
696.308	255.764
700.195	241.453
704.081	271.377
707.964	783.992
711.846	596.977
715.726	190.217
719.603	19.391
723.479	386.266
727.352	1150.51
731.224	1070.07
735.094	664.461
738.961	310.48
742.827	646.414
746.691	1311.86
750.552	1508.56
754.412	931.027
758.27	177.387
762.125	365.256
765.979	1262.09
769.831	1661.89
773.681	1432.87
777.529	801.434
781.375	1173.57
785.219	2083.6
789.06	3752.84
792.901	4801.63
796.739	6494.05
800.575	8809.48
804.409	11058.1
808.241	13154.9
812.071	17665.2
815.899	25615.4
819.726	28135.3
823.55	19995.8
827.372	14657.5
831.193	13168.9
835.011	13762.6
838.828	16858.5
842.642	22660.6
846.455	25593.7
850.266	19255.9
854.075	12713.3
857.881	8453.77
861.686	5159.07
865.489	3359.1
869.29	3760.24
873.089	4521.59
876.886	6234.22
880.682	8278.09
884.475	13182.6
888.266	19168.2
892.056	16464.8
895.843	10692.4
899.629	7051.26
903.413	4261
907.194	2311.7
910.974	1633.25
914.752	1775.78
918.528	2239.36
922.302	2123.82
926.074	1299.21
929.844	715.455
933.613	82.52
937.379	610.408
941.144	1189.12
944.906	1798.7
948.667	1509.08
952.426	800.277
956.183	152.285
959.938	575.094
963.691	984.391
967.442	1259.38
971.191	1164.52
974.939	380.311
978.684	168.477
982.428	179.213
986.169	501.785
989.909	997.668
993.647	750.969
997.383	402.582
1001.12	52.48
1004.85	105.674
1008.58	375.951
1012.31	997.719
1016.03	1431.88
1019.76	1254.81
1023.48	563.281
1027.2	21.854
1030.92	112.684
1034.64	520.291
1038.36	1543.44
1042.07	1522.17
1045.78	960.633
1049.49	415.152
1053.2	37.279
1056.9	74.613
1060.61	892.344
1064.31	1313.98
1068.01	1634.36
1071.71	1153.08
1075.41	443.234
1079.1	26.988
1082.79	297.658
1086.48	1077.89
1090.17	1577.43
1093.86	1408.92
1097.55	954.707
1101.23	384.422
1104.91	65.445
1108.59	280.41
1112.27	29.676
1115.95	829.438
1119.62	1478.86
1123.3	1037.45
1126.97	393.631
1130.63	53.951
1134.3	97.609
1137.97	255.836
1141.63	805.227
1145.29	1068.84
1148.95	1159.16
1152.61	746.004
1156.27	153.211
1159.92	21.848
1163.57	167.619
1167.22	643.232
1170.87	1008.35
1174.52	1454.04
1178.16	1284.45
1181.81	787.156
1185.45	64.391
1189.09	252.494
1192.73	156.355
1196.36	585.398
1200	1124.82
1203.63	1494.71
1207.26	1301.42
1210.89	846.09
1214.52	341.105
1218.14	210.094
1221.77	87.027
1225.39	722.934
1229.01	1449.13
1232.62	1615.94
1236.24	1240.33
1239.86	954.652
1243.47	508.752
1247.08	282.748
1250.69	135.17
1254.3	370.908
1257.9	972.461
1261.5	1162.33
1265.11	1422.25
1268.71	1151.59
1272.3	925.559
1275.9	607.611
1279.49	8.115
1283.09	54.246
1286.68	406.965
1290.27	739.869
1293.86	1274.13
1297.44	1495.89
1301.03	1177.23
1304.61	616.336
1308.19	347.189
1311.77	42.924
1315.34	59.094
1318.92	278.115
1322.49	876.041
1326.06	1190.05
1329.63	1285.45
1333.2	1241.45
1336.77	1049.64
1340.33	601.736
1343.89	269.646
1347.46	197.205
1351.02	145.07
1354.57	572.393
1358.13	960.699
1361.68	1459.6
1365.23	1656.25
1368.79	1165.75
1372.33	1184.01
1375.88	625.867
1379.43	296.51
1382.97	242.988
1386.51	194.316
1390.05	528.828
1393.59	950.902
1397.13	1261.21
1400.66	1691.07
1404.19	1574.55
1407.72	1321.73
1411.25	1004.97
1414.78	729.969
1418.31	152.598
1421.83	64.42
1425.36	262.014
1428.88	657.391
1432.39	942.166
1435.91	1624.35
1439.43	1552.7
1442.94	1683.23
1446.45	1068.86
1449.96	914.055
1453.47	506.918
1456.98	269.953
1460.48	103.205
1463.99	214.031
1467.49	503.213
1470.99	659.422
1474.49	1198.25
1477.99	1612.19
1481.48	1657.53
1484.97	1534.3
1488.46	1269.9
1491.95	810.303
1495.44	258.41
1498.93	111.725
1502.41	26.723
1505.9	72.637
1509.38	233.012
1512.86	0
