Measurement: Raman, 514 nm, depolarized, Raman Data Processed
Mineral: Adamite
Rruff sample: R050020
Ideal chemistry: Zn^2+^_2_As^5+^O_4_(OH)
Locality: Mina Ojuela, Mapimi, Durango, Mexico
Source: Eugene Schlepp
Description: Light green prismatic crystal
Measured chemistry: (Zn_1.97_Cu_0.03_)_Σ=2_((As_0.98_P_0.02_)_Σ=1_O_4_)(OH)
Pin_id: L00236
Orientation: Laser parallel to -c* (0 0 -1). Fiducial mark perpendicular to laser is parallel to a [1 0 0]
Raman shift (cm-1)	intensity
46.637	0
50.856	67.886
55.072	208.027
59.287	384.478
63.499	451.689
67.709	454.309
71.917	270.031
76.123	119.164
80.327	13.69
84.529	39.848
88.728	7.506
92.926	75.167
97.121	295.895
101.314	532.278
105.505	743.08
109.694	963.248
113.881	1089.76
118.066	1453.6
122.249	2478.78
126.43	3766.31
130.608	5053.12
134.785	5930.15
138.959	5475.08
143.131	3631.54
147.301	1959.3
151.469	1169.71
155.635	978.446
159.799	936.908
163.961	1023.14
168.121	1473.17
172.278	1919.02
176.434	1421.72
180.587	809.271
184.739	655.67
188.888	584.915
193.035	750.998
197.18	1073.62
201.324	1682.45
205.465	2634.95
209.603	3312.22
213.74	2770.68
217.875	2094.89
222.008	2201.93
226.139	3447.69
230.267	5308.16
234.394	4408.32
238.518	3079.47
242.641	3427.14
246.761	5118.98
250.879	6451.26
254.996	5675.82
259.11	3992.94
263.222	2888.54
267.332	2259.82
271.44	1929.83
275.546	1794.56
279.65	1369.04
283.752	741.239
287.852	495.168
291.95	373.823
296.046	218.155
300.14	152.108
304.231	158.653
308.321	353.816
312.409	579.558
316.495	933.879
320.578	1416.7
324.66	1497.04
328.739	904.876
332.817	336.209
336.892	68.031
340.966	23.328
345.037	6.961
349.107	31.15
353.174	104.645
357.24	265.514
361.303	589.736
365.365	1243.3
369.424	2783.2
373.481	4912.43
377.537	4367.98
381.59	2206.83
385.642	914
389.691	569.5
393.738	446.346
397.784	669.564
401.827	1176.16
405.868	2013.14
409.908	2823.55
413.945	3198.47
417.98	3001.85
422.014	2564.67
426.045	1496.75
430.075	778.454
434.102	451.671
438.127	325.852
442.151	224.391
446.172	153.286
450.192	241.769
454.209	323.251
458.225	395.162
462.238	401.86
466.25	480.271
470.259	726.247
474.267	920.746
478.273	1056.74
482.276	1010.01
486.278	1115.52
490.278	1638.43
494.276	2376.98
498.271	1891.26
502.265	1040.15
506.257	453.561
510.247	265.769
514.235	298.272
518.221	324.647
522.205	433.042
526.187	717.451
530.167	1282.87
534.145	2041.29
538.122	2578.7
542.096	2306.11
546.068	1570.5
550.039	926.868
554.007	539.214
557.973	292.529
561.938	202.807
565.901	94.042
569.861	76.229
573.82	49.358
577.777	58.598
581.732	3.779
585.685	32.139
589.636	62.752
593.585	86.725
597.532	70.096
601.477	18.926
605.42	63.184
609.361	40.965
613.301	51.237
617.238	49.047
621.174	33.974
625.108	75.374
629.039	31.17
632.969	1.311
636.897	15.296
640.823	4.724
644.747	42.04
648.669	21.039
652.589	6.759
656.508	83.332
660.424	69.739
664.339	99.032
668.251	29.228
672.162	147.33
676.071	163.346
679.978	161.281
683.883	107.136
687.786	151.917
691.687	138.626
695.586	175.28
699.484	88.874
703.379	95.42
707.273	87.93
711.165	131.402
715.055	159.831
718.943	188.224
722.829	109.581
726.713	167.908
730.595	174.215
734.476	284.648
738.354	331.857
742.231	373.363
746.106	295.365
749.978	295.546
753.849	334.444
757.719	348.305
761.586	345.517
765.451	263.334
769.315	373.539
773.177	361.708
777.036	589.36
780.894	700.646
784.75	832.655
788.605	1192.58
792.457	1751.38
796.307	2804.78
800.156	4172.98
804.003	4869
807.848	5085.02
811.691	6819.04
815.532	11406.6
819.371	15304.2
823.209	12602.7
827.045	9691.63
830.878	9480.74
834.71	12730.1
838.54	21319.7
842.369	37459.6
846.195	46410.7
850.02	31241.2
853.842	17782.3
857.663	11834.7
861.482	8166.7
865.299	6419.03
869.115	5771.28
872.928	6073.38
876.74	7825.89
880.55	12569.2
884.358	23662.2
888.164	39605.5
891.969	36899
895.771	21303
899.572	11707.2
903.371	7171.93
907.168	4945.06
910.963	3634.64
914.757	2778.82
918.548	2186.78
922.338	1885.73
926.126	1678.09
929.912	1493.8
933.697	1206.19
937.479	978.677
941.26	862.356
945.039	846.636
948.816	954.976
952.591	885.756
956.365	622.812
960.136	484.138
963.906	331.076
967.674	215.998
971.441	359.619
975.205	283.404
978.968	213.685
982.729	200.713
986.488	50.614
990.245	74.673
994	30.204
997.754	20.333
1001.51	103.613
1005.26	0.002
1009	31.781
1012.75	42.79
1016.5	70.284
1020.24	116.184
1023.98	91.379
1027.72	83.333
1031.46	80.374
1035.19	49.953
1038.93	68.212
1042.66	61.957
1046.39	101.416
1050.12	138.454
1053.85	76.71
1057.57	45.208
1061.29	7.772
1065.02	18.108
1068.74	67.011
1072.45	99.831
1076.17	131.791
1079.88	118.834
1083.6	77.838
1087.31	21.312
1091.02	50.854
1094.72	18.281
1098.43	97.34
1102.13	148.905
1105.84	74.11
1109.54	74.347
1113.24	15.535
1116.93	44.026
1120.63	85.384
1124.32	87.553
1128.01	99.09
1131.7	47.221
1135.39	56.481
1139.08	94.56
1142.76	100.949
1146.45	51.327
1150.13	66.736
1153.81	145.281
1157.48	37.593
1161.16	115.747
1164.84	69.376
1168.51	38.105
1172.18	20.071
1175.85	24.068
1179.52	108.16
1183.18	100.073
1186.85	154.837
1190.51	100.574
1194.17	42.471
1197.83	0.882
1201.48	17.117
1205.14	32.073
1208.79	116.541
1212.44	144.46
1216.09	119.568
1219.74	134.829
1223.39	100.596
1227.03	106.325
1230.68	137.653
1234.32	120.177
1237.96	183.241
1241.6	217.122
1245.23	165.878
1248.87	180.337
1252.5	131.63
1256.13	68.73
1259.76	160.527
1263.39	86.299
1267.02	92.408
1270.64	115.16
1274.26	264.439
1277.88	212.043
1281.5	140.747
1285.12	85.425
1288.74	7.013
1292.35	11.444
1295.96	33.729
1299.57	86.483
1303.18	86.797
1306.79	84.429
1310.4	108.895
1314	175.276
1317.6	158.58
1321.2	30.489
1324.8	58.82
1328.4	65.653
1331.99	70.779
1335.59	134.391
1339.18	143.657
1342.77	183.889
1346.36	184.811
1349.95	76.148
1353.53	65.521
1357.12	116.016
1360.7	26.031
1364.28	119.902
1367.86	45.908
1371.44	70.875
1375.01	144.996
1378.59	162.955
1382.16	231.94
1385.73	204.889
1389.3	175.871
1392.87	126.662
1396.43	90.355
1399.99	25.77
1403.56	119.255
1407.12	85.168
1410.68	138.169
1414.23	267.231
1417.79	225.86
1421.34	121.39
1424.9	149.57
1428.45	67.581
1431.99	56.856
1435.54	36.127
1439.09	29.108
1442.63	92.479
1446.17	159.958
1449.71	196.052
1453.26	202.329
1456.79	189.663
1460.33	211.582
1463.86	171.076
1467.39	86.141
1470.92	52.019
1474.45	20.787
1477.98	45.171
1481.51	61.619
1485.03	63.28
1488.56	96.204
1492.08	134.164
1495.6	141.947
1499.11	217.272
1502.63	253.248
1506.14	139.598
1509.66	94.668
1513.17	6.915
1516.68	2.39
