Measurement: Raman, 514 nm, depolarized, Raman Data Processed
Mineral: Adamite
Rruff sample: R040130
Ideal chemistry: Zn^2+^_2_As^5+^O_4_(OH)
Locality: Mina Ojuela, Mapimi, Durango, Mexico
Source: Bob Downs
Description: Pale yellow spherical aggregate of bladed crystals
Measured chemistry: Zn_1.97_(As_1.01_O_4_)(OH)
Pin_id: S00334
Orientation: Laser parallel to -b* (0 -1 0). Fiducial mark perpendicular to laser is parallel to c [0 0 1]
Raman shift (cm-1)	intensity
121.203	0
125.369	153.721
129.534	421.092
133.696	102.834
137.857	233.172
142.016	0.379
146.172	207.326
150.327	360.85
154.48	166.682
158.63	199.332
162.779	293.422
166.926	290.334
171.07	556.922
175.213	515.592
179.354	617.66
183.493	523.965
187.63	248.15
191.765	276.85
195.898	386.895
200.029	459.543
204.158	432.832
208.285	772.68
212.41	949.779
216.533	891.719
220.654	911.883
224.773	1144.37
228.891	1410.76
233.006	1233.11
237.119	853.971
241.231	1143.87
245.34	1267.64
249.448	1275.64
253.553	1165.69
257.657	1043.69
261.758	552.605
265.858	471.422
269.956	415.266
274.052	179.236
278.146	208.244
282.237	280.141
286.327	86.166
290.416	251.842
294.502	130.418
298.586	74.262
302.668	195.912
306.749	46.621
310.827	107.715
314.903	224.105
318.978	193.465
323.051	275.963
327.121	33.482
331.19	109.875
335.257	40.461
339.322	115.029
343.385	164.441
347.446	52.48
351.505	315.812
355.563	27.594
359.618	285.414
363.672	326.445
367.723	570.117
371.773	432.516
375.821	492.66
379.866	597.961
383.91	559.379
387.952	619.336
391.992	708.492
396.031	810.27
400.067	739.359
404.101	1110.84
408.134	1117.41
412.165	1412.64
416.193	1222.07
420.22	1483.19
424.245	1603.55
428.268	1484.06
432.289	1765.39
436.309	1600.09
440.326	1511.48
444.342	1821.7
448.355	1694.49
452.367	2044.56
456.377	1824.74
460.385	1779.89
464.391	1824.67
468.395	1951.76
472.398	2500.03
476.398	2293.36
480.397	2324.23
484.394	2279.8
488.389	2459.87
492.382	2701.66
496.373	2301.93
500.362	2348.53
504.349	2183.57
508.335	1842.05
512.319	1932.39
516.3	2321.36
520.28	2063.72
524.259	1828.05
528.235	1719.32
532.209	1806.58
536.182	1926.62
540.152	1693
544.121	1872.79
548.088	1980.91
552.053	1781.66
556.017	1776.95
559.978	1258.34
563.938	1364.16
567.895	1765.92
571.851	1398.26
575.805	1403.21
579.758	1741.6
583.708	1676.44
587.657	1574.81
591.603	1101.94
595.548	1465.53
599.491	1375.75
603.432	1408.36
607.372	874.414
611.309	1158.6
615.245	1075.5
619.179	1101.79
623.111	737.594
627.041	1496.7
630.97	1473.9
634.896	722.961
638.821	732.5
642.744	612.027
646.665	1133.66
650.584	657.508
654.502	1001.73
658.418	1034.09
662.331	586.688
666.244	1130.55
670.154	537.641
674.062	190.766
677.969	901.945
681.874	713.336
685.777	425.758
689.678	403.199
693.577	868.57
697.475	21.215
701.371	337.039
705.265	879.266
709.157	675.512
713.047	24.227
716.936	146.988
720.823	95.113
724.708	86.293
728.591	455.48
732.472	49.699
736.352	474.996
740.23	287.379
744.106	526.828
747.98	343.328
751.853	104.152
755.723	170.637
759.592	256.805
763.459	217.258
767.325	163.387
771.188	45.191
775.05	341.961
778.91	154.082
782.768	96.137
786.625	87.891
790.479	202.969
794.332	422.895
798.183	279.906
802.033	728.945
805.88	1448.18
809.726	1935.69
813.57	3453.51
817.413	4623.41
821.253	4188.57
825.092	2468.78
828.929	2309.45
832.764	2077.14
836.598	3326.27
840.429	5954.73
844.259	8617.25
848.088	5756.79
851.914	3283.5
855.739	1726.07
859.562	1249.1
863.383	1300.33
867.203	1028.57
871.02	1001.41
874.836	775.355
878.65	1436.25
882.463	1908.43
886.274	2736.72
890.083	3558.3
893.89	2162.12
897.695	1130.68
901.499	1033.99
905.301	773.129
909.102	507.512
912.9	422.539
916.697	68.379
920.492	557.602
924.285	625.406
928.077	386.738
931.867	295.773
935.655	228.48
939.442	190.176
943.226	631.559
947.009	462.496
950.791	340.445
954.57	603.801
958.348	334.672
962.124	35.629
965.899	324.418
969.671	261.172
973.442	177.895
977.211	54.512
980.979	9.379
984.745	477.176
988.509	761.254
992.271	512.547
996.032	747.699
999.791	1228.88
1003.55	636.219
1007.3	502.301
1011.06	684.902
1014.81	211.07
1018.56	184.957
1022.31	423.168
1026.06	840.238
1029.8	996.824
1033.55	600.871
1037.29	849.738
1041.03	1055.9
1044.77	887.828
1048.5	1345.33
1052.24	1071.15
1055.97	1390.81
1059.7	895.934
1063.43	666.25
1067.16	1165.9
1070.89	953.574
1074.61	1088.04
1078.34	1216.72
1082.06	591.418
1085.78	683.684
1089.5	403.477
1093.21	212.16
1096.93	356.84
1100.64	182.734
1104.35	480.59
1108.06	227.766
1111.77	47.242
1115.48	54.758
1119.18	255.52
1122.89	64.211
1126.59	535.945
1130.29	589.965
1133.99	5.488
1137.68	813.625
1141.38	19.484
1145.07	680.617
1148.76	281.371
1152.45	723.473
1156.14	113.738
1159.83	225.637
1163.51	470.992
1167.19	714.473
1170.88	385.48
1174.56	834.359
1178.23	617.055
1181.91	673.68
1185.59	393.371
1189.26	872.273
1192.93	698.422
1196.6	1057.71
1200.27	933.172
1203.94	1198.87
1207.6	1060.66
1211.27	943.098
1214.93	1089.58
1218.59	816.266
1222.25	621.23
1225.9	1140.46
1229.56	1235.06
1233.21	1399.06
1236.86	1437.45
1240.51	1380.19
1244.16	994.629
1247.81	756.23
1251.45	1170.75
1255.1	1057.34
1258.74	723.629
1262.38	859.684
1266.02	961.137
1269.66	583.297
1273.29	767.777
1276.93	484.195
1280.56	949.219
1284.19	904.535
1287.82	806.66
1291.45	804.629
1295.07	889.324
1298.7	857.375
1302.32	641.074
1305.94	609.969
1309.56	769.582
1313.18	204.191
1316.8	769.969
1320.41	545.824
1324.02	906.477
1327.63	924.383
1331.24	671.113
1334.85	1064.56
1338.46	455.344
1342.06	712.059
1345.67	550.461
1349.27	459.293
1352.87	1000.26
1356.47	1338.15
1360.07	1319.79
1363.66	1284.05
1367.25	1062.07
1370.85	1027.76
1374.44	1023.23
1378.03	537.094
1381.61	869.895
1385.2	953.703
1388.78	405.461
1392.37	424.266
1395.95	741.383
1399.53	676.23
1403.1	435.688
1406.68	197.078
1410.26	54.961
1413.83	425.844
1417.4	15.465
1420.97	516.07
1424.54	401.41
1428.1	99.422
1431.67	658.945
1435.23	840.203
1438.8	378.23
1442.36	391.465
1445.91	460.84
1449.47	12.125
1453.03	347.305
1456.58	0
