Measurement: Raman, 514 nm, depolarized, Raman Data Processed
Mineral: Adamite
Rruff sample: R040130
Ideal chemistry: Zn^2+^_2_As^5+^O_4_(OH)
Locality: Mina Ojuela, Mapimi, Durango, Mexico
Source: Bob Downs
Description: Pale yellow spherical aggregate of bladed crystals
Measured chemistry: Zn_1.97_(As_1.01_O_4_)(OH)
Pin_id: S00040
Orientation: Laser parallel to c* (0 0 1). Fiducial mark perpendicular to laser is parallel to a [1 0 0]
Raman shift (cm-1)	intensity
117.034	0
121.203	250.609
125.369	707.883
129.534	1470.08
133.696	1523.41
137.857	2018.49
142.016	1255.97
146.172	701.619
150.327	312.701
154.48	199.746
158.63	329.107
162.779	409.145
166.926	413.58
171.07	783.465
175.213	739.494
179.354	464.285
183.493	546.52
187.63	167.736
191.765	199.84
195.898	549.412
200.029	573.066
204.158	1157.29
208.285	1581.42
212.41	1677.84
216.533	1332.94
220.654	1144.51
224.773	1557.69
228.891	2141.67
233.006	2493.57
237.119	1680.52
241.231	1777.56
245.34	2604.18
249.448	2844.29
253.553	2715.1
257.657	2131.85
261.758	1463.61
265.858	955.523
269.956	909.637
274.052	545.002
278.146	385.646
282.237	512.707
286.327	498.07
290.416	169.963
294.502	68.686
298.586	51.811
302.668	63.109
306.749	138.83
310.827	31.65
314.903	207.391
318.978	142.363
323.051	710.643
327.121	184.064
331.19	195.459
335.257	30.23
339.322	63.309
343.385	150.031
347.446	69.486
351.505	31.527
355.563	75.672
359.618	124.889
363.672	430.812
367.723	1025.98
371.773	1625.95
375.821	2010.92
379.866	1307.6
383.91	485.549
387.952	96.918
391.992	203.031
396.031	547.096
400.067	613.527
404.101	895.055
408.134	1383.34
412.165	1437.44
416.193	1421.37
420.22	1659.37
424.245	1367.92
428.268	706.34
432.289	1050.67
436.309	289.908
440.326	335.795
444.342	468.617
448.355	245.084
452.367	855.525
456.377	289.92
460.385	605.605
464.391	561.061
468.395	531.959
472.398	926.625
476.398	830.502
480.397	779.502
484.394	875.281
488.389	1165.5
492.382	1646.46
496.373	1428.68
500.362	969.465
504.349	816.998
508.335	497.617
512.319	446.215
516.3	818.877
520.28	674.268
524.259	393.787
528.235	1065.98
532.209	997.629
536.182	1246.1
540.152	1495.14
544.121	1010.54
548.088	944.699
552.053	578.838
556.017	553.447
559.978	164.607
563.938	233.322
567.895	246.477
571.851	441.723
575.805	357.777
579.758	340.369
583.708	230.873
587.657	274.014
591.603	101.811
595.548	223.289
599.491	366.434
603.432	258.139
607.372	23.68
611.309	220.99
615.245	70.65
619.179	232.188
623.111	57.842
627.041	527.746
630.97	641.459
634.896	211.895
638.821	63.402
642.744	355.078
646.665	270.66
650.584	45.762
654.502	401.988
658.418	531.668
662.331	238.957
666.244	365.953
670.154	165.441
674.062	137.387
677.969	333.781
681.874	481.359
685.777	188.059
689.678	209.895
693.577	495.789
697.475	179.668
701.371	182.777
705.265	736.145
709.157	583.824
713.047	346.777
716.936	6.98
720.823	414.551
724.708	152.395
728.591	527.547
732.472	42.996
736.352	279.469
740.23	223.602
744.106	515.098
747.98	231.961
751.853	154.199
755.723	82.109
759.592	409.969
763.459	358.219
767.325	347.926
771.188	234.105
775.05	607.691
778.91	528.164
782.768	358.969
786.625	325.086
790.479	805.98
794.332	1024.28
798.183	1094.42
802.033	1400.01
805.88	1780.23
809.726	1893.81
813.57	3308.84
817.413	4929.28
821.253	5204.49
825.092	3949.06
828.929	3862.87
832.764	4454.34
836.598	7314.82
840.429	12898.6
844.259	20321.9
848.088	15984.2
851.914	9025.75
855.739	6318.93
859.562	3951.77
863.383	3431.45
867.203	2758.18
871.02	2682.25
874.836	3031.86
878.65	4515.85
882.463	7885.79
886.274	14214.9
890.083	18338
893.89	12371.2
897.695	6706.36
901.499	4114.35
905.301	2858.22
909.102	1982.36
912.9	1757.69
916.697	1013.11
920.492	1417.86
924.285	1305.48
928.077	1018.17
931.867	879.934
935.655	747.758
939.442	664.762
943.226	514.73
947.009	607.93
950.791	728.883
954.57	636.207
958.348	438.527
962.124	493.98
965.899	831.895
969.671	632.051
973.442	306.285
977.211	275.676
980.979	278.863
984.745	511.113
988.509	686.066
992.271	370.48
996.032	575.031
999.791	794.73
1003.55	613.621
1007.3	331.574
1011.06	460.902
1014.81	387.613
1018.56	363.418
1022.31	494.555
1026.06	687.5
1029.8	720.598
1033.55	450.707
1037.29	658.121
1041.03	627.203
1044.77	385.965
1048.5	730.012
1052.24	694.23
1055.97	679.355
1059.7	664.586
1063.43	428.156
1067.16	694.371
1070.89	529.453
1074.61	597.109
1078.34	558.301
1082.06	295.156
1085.78	345.559
1089.5	195.254
1093.21	64.188
1096.93	84.852
1100.64	13.246
1104.35	207.594
1108.06	41.969
1111.77	12.879
1115.48	160.504
1119.18	186.344
1122.89	116.355
1126.59	34.633
1130.29	89.27
1133.99	238.543
1137.68	142.578
1141.38	100.988
1145.07	232.098
1148.76	19.062
1152.45	132.676
1156.14	73.281
1159.83	302.18
1163.51	6.082
1167.19	249.402
1170.88	204.539
1174.56	336.332
1178.23	323.293
1181.91	344.555
1185.59	229.695
1189.26	477.594
1192.93	178.988
1196.6	589.887
1200.27	329.891
1203.94	600.109
1207.6	571.723
1211.27	613.699
1214.93	558.949
1218.59	544.641
1222.25	306.746
1225.9	482.988
1229.56	841.914
1233.21	580.625
1236.86	758.148
1240.51	737.934
1244.16	795.34
1247.81	246.758
1251.45	687.727
1255.1	521.887
1258.74	630.027
1262.38	799.969
1266.02	489.156
1269.66	468.234
1273.29	661.855
1276.93	269.324
1280.56	425.469
1284.19	640.875
1287.82	715.496
1291.45	611.727
1295.07	447.781
1298.7	643.918
1302.32	351.66
1305.94	276.977
1309.56	482.629
1313.18	150.605
1316.8	168.184
1320.41	42.031
1324.02	101.816
1327.63	102.645
1331.24	267.359
1334.85	204.922
1338.46	181.375
1342.06	443.934
1345.67	513.691
1349.27	403.762
1352.87	569.023
1356.47	705.859
1360.07	814.633
1363.66	1029.35
1367.25	778.336
1370.85	823.895
1374.44	760.609
1378.03	544.137
1381.61	618.609
1385.2	628.719
1388.78	402.941
1392.37	588.848
1395.95	687.555
1399.53	313.785
1403.1	470.539
1406.68	297.656
1410.26	146.82
1413.83	310.188
1417.4	268.465
1420.97	360.797
1424.54	309.43
1428.1	530.742
1431.67	420.77
1435.23	634.039
1438.8	312.176
1442.36	280.965
1445.91	229.32
1449.47	140.75
1453.03	133.02
1456.58	326.844
1460.13	464.594
1463.68	527.504
1467.23	0.82
