Measurement: Raman, 514 nm, depolarized, Raman Data Processed
Mineral: Adamite
Rruff sample: R050020
Ideal chemistry: Zn^2+^_2_As^5+^O_4_(OH)
Locality: Mina Ojuela, Mapimi, Durango, Mexico
Source: Eugene Schlepp
Description: Light green prismatic crystal
Measured chemistry: (Zn_1.97_Cu_0.03_)_Σ=2_((As_0.98_P_0.02_)_Σ=1_O_4_)(OH)
Pin_id: L00511
Orientation: Laser parallel to a* (1 0 0). Fiducial mark perpendicular to laser is parallel to b [0 1 0]
Raman shift (cm-1)	intensity
121.843	0
126.031	888.176
130.217	2060.52
134.4	2129.57
138.581	2191.41
142.76	1881.18
146.937	772.586
151.112	141.9
155.284	280.211
159.454	536.658
163.622	102.197
167.787	447.793
171.951	1056.82
176.112	1041.07
180.271	270.723
184.428	542.416
188.583	798.686
192.735	101.268
196.885	5.553
201.033	432.543
205.179	899.33
209.323	983.258
213.464	1034.4
217.603	1210.91
221.741	865.094
225.875	738.197
230.008	1479.56
234.139	1755.73
238.267	857.102
242.393	527.979
246.517	1327.76
250.639	2067.23
254.759	1404.35
258.876	1180.73
262.991	1364.12
267.104	1099.82
271.215	284.914
275.324	759.457
279.431	1050.12
283.535	526.09
287.638	35.697
291.738	182.438
295.836	480.512
299.932	65.66
304.025	80.152
308.117	762.588
312.206	1034.76
316.293	1051.94
320.378	958.555
324.461	1707.6
328.542	1325.62
332.621	313.209
336.697	90.141
340.772	225.342
344.844	649.559
348.914	13.904
352.982	149.199
357.048	388.557
361.111	597.201
365.173	315.309
369.232	622.574
373.29	2078.41
377.345	2652.26
381.398	875.143
385.449	77.623
389.497	699.656
393.544	803.209
397.589	353.02
401.631	251.271
405.672	1308.53
409.71	1975.14
413.746	1291.56
417.78	919.955
421.812	1268.3
425.842	1523.54
429.869	815.406
433.895	37.664
437.918	462.674
441.94	1115.6
445.959	700.084
449.976	62.623
453.991	133.115
458.004	1103.99
462.015	930.652
466.024	302.502
470.031	553.846
474.035	1390.54
478.038	1704.1
482.038	866.439
486.037	511.77
490.033	903.838
494.027	1003.46
498.019	795.914
502.009	146.789
505.997	347.338
509.983	1145.41
513.967	1066.98
517.949	255.195
521.929	191.883
525.906	953.414
529.882	1745.9
533.855	1040.25
537.827	873.16
541.796	1316.34
545.764	1450.72
549.729	1358.87
553.692	479.326
557.653	592.477
561.612	785.678
565.569	1111.22
569.524	896.922
573.477	26.895
577.428	179.723
581.377	746.83
585.324	834.432
589.269	182.475
593.212	14.756
597.152	463.949
601.091	1011.13
605.028	1071.6
608.962	58.492
612.895	68.688
616.825	691.08
620.754	1315.23
624.68	739.996
628.605	144.227
632.527	72.201
636.447	1129.44
640.366	1227.48
644.282	466.32
648.196	73.994
652.109	16.562
656.019	1058.15
659.927	1121.06
663.834	435.25
667.738	69.455
671.64	326.457
675.54	1134.8
679.439	1144.29
683.335	515.109
687.229	72.922
691.121	310.164
695.012	1194.51
698.9	1500.02
702.786	626.562
706.67	445.676
710.552	110.863
714.433	1120.92
718.311	1232.01
722.187	814.312
726.061	237.828
729.934	550.367
733.804	1226.35
737.672	1721.06
741.539	1329.58
745.403	402.613
749.265	213.566
753.126	966.09
756.984	1489.94
760.84	1202.25
764.695	569.508
768.547	437.414
772.398	966.105
776.246	1575.62
780.093	1714.96
783.937	1358.9
787.78	793.527
791.621	1838.14
795.459	4055.46
799.296	6081.02
803.131	6398.77
806.964	5740.18
810.795	6821.6
814.623	11676.3
818.45	16537.3
822.275	13706.9
826.098	8416.33
829.92	5987
833.739	7079.34
837.556	9691.97
841.371	14723.6
845.184	17304.6
848.996	12445.3
852.805	7544.4
856.613	5639.53
860.418	4725.64
864.222	4050.78
868.023	3205.82
871.823	2321.91
875.621	2598.98
879.417	4797.73
883.211	9237.75
887.003	13769.1
890.793	12682.8
894.581	7316.86
898.367	4255.34
902.152	3732.36
905.934	3350.56
909.714	2399.91
913.493	1470.4
917.27	752.172
921.044	615.078
924.817	1659.04
928.588	2104.17
932.357	2310.48
936.124	1047.87
939.889	306.289
943.652	255.695
947.414	1636.05
951.173	2117.66
954.931	1979.92
958.686	873.57
962.44	223.281
966.192	53.777
969.942	684.609
973.69	1198.84
977.436	1502.53
981.18	692.98
984.922	289.32
988.663	250.719
992.401	160.738
996.138	459.703
999.873	1447.14
1003.61	1358.61
1007.34	657.633
1011.07	69.773
1014.79	8.148
1018.52	848.664
1022.24	1763.54
1025.96	2013.73
1029.68	1673.54
1033.4	526.68
1037.12	26.066
1040.83	312.598
1044.54	1212.79
1048.25	2007.37
1051.96	1916.07
1055.67	1057.24
1059.37	266.07
1063.08	369.188
1066.78	542.184
1070.48	1278.75
1074.17	1847.44
1077.87	1823.21
1081.56	1300.7
1085.26	807.785
1088.94	256.676
1092.63	346.02
1096.32	1105.39
1100	1492.16
1103.69	2008.18
1107.37	1092.43
1111.05	279.391
1114.72	287.715
1118.4	33.18
1122.07	923
1125.74	1389.18
1129.41	1361.98
1133.08	1321.82
1136.75	932.496
1140.41	446.914
1144.07	16.25
1147.73	412.418
1151.39	922.945
1155.05	1784.82
1158.7	1613.63
1162.36	1288.17
1166.01	300.25
1169.66	101.09
1173.3	66.934
1176.95	642.684
1180.59	863.535
1184.24	1607.61
1187.88	1106.34
1191.52	713.59
1195.15	357.578
1198.79	198.297
1202.42	328.984
1206.05	643.215
1209.68	1398.5
1213.31	1985.46
1216.93	1981.99
1220.56	1529.64
1224.18	1135.69
1227.8	581.211
1231.42	406.352
1235.04	466.879
1238.65	1086.01
1242.26	1984.68
1245.88	2475.39
1249.48	1981.93
1253.09	1276.34
1256.7	753.242
1260.3	326.996
1263.9	170.504
1267.51	770.402
1271.11	1213.56
1274.7	1878.79
1278.3	2027.81
1281.89	1602.73
1285.48	726.73
1289.07	273.07
1292.66	144.273
1296.25	145.531
1299.83	397.168
1303.41	1294.83
1306.99	1696.72
1310.57	1667.37
1314.15	1816.06
1317.73	774.441
1321.3	167.195
1324.87	19.176
1328.44	100.641
1332.01	435.754
1335.58	1020.18
1339.14	1738.86
1342.71	1979.94
1346.27	1843.53
1349.83	1278.98
1353.39	566.965
1356.94	294.59
1360.5	88.336
1364.05	120.18
1367.6	498.316
1371.15	951.426
1374.7	1860.43
1378.24	2437.66
1381.79	2164.97
1385.33	1849.67
1388.87	1458.52
1392.41	688.637
1395.95	371.824
1399.48	398.262
1403.02	830.043
1406.55	1193.32
1410.08	1759.05
1413.61	2240.97
1417.13	2371.43
1420.66	2073.5
1424.18	1475.07
1427.7	991.238
1431.22	340.914
1434.74	160.461
1438.26	10.371
1441.77	414.359
1445.28	1113.57
1448.79	1680.37
1452.3	2044.06
1455.81	2096.72
1459.32	2091.62
1462.82	1764.43
1466.32	1298
1469.82	593.473
1473.32	3.125
1476.82	57.801
1480.32	337.141
1483.81	331.168
1487.3	1037.89
1490.79	1592.73
1494.28	2060.56
1497.77	1988.73
1501.25	1821.05
1504.74	1611.95
1508.22	921.234
