Measurement: Raman, 514 nm, depolarized, Raman Data Processed
Mineral: Adamite
Rruff sample: R040130
Ideal chemistry: Zn^2+^_2_As^5+^O_4_(OH)
Locality: Mina Ojuela, Mapimi, Durango, Mexico
Source: Bob Downs
Description: Pale yellow spherical aggregate of bladed crystals
Measured chemistry: Zn_1.97_(As_1.01_O_4_)(OH)
Pin_id: S00233
Orientation: Laser parallel to -a* (-1 0 0). Fiducial mark perpendicular to laser is parallel to b [0 1 0]
Raman shift (cm-1)	intensity
110.082	0
114.254	289.727
118.424	305.305
122.592	873.756
126.758	1803
130.922	2400.21
135.083	2765.07
139.243	2420.02
143.401	1508.41
147.557	772.039
151.711	513.885
155.863	265.199
160.013	393.928
164.161	520.102
168.308	813.178
172.452	1265
176.594	670.656
180.734	313.322
184.872	250.613
189.008	358.785
193.143	443.645
197.275	156.816
201.405	575.688
205.534	1036.21
209.66	1176.71
213.784	788.062
217.907	546.57
222.027	618.24
226.146	1092.02
230.263	2004.3
234.377	1532.07
238.49	1137.09
242.601	1149.46
246.709	1506.74
250.816	1972.08
254.921	1780.67
259.024	1374.77
263.125	959.117
267.224	855.76
271.321	882.756
275.416	1035.12
279.51	618.938
283.601	62.578
287.69	165.602
291.778	32.146
295.863	109.662
299.947	53.744
304.029	142.203
308.108	345
312.186	387.188
316.262	914.746
320.336	1425.65
324.408	1144.77
328.478	579.027
332.546	222.049
336.612	8.887
340.677	185.195
344.739	224.012
348.799	249.568
352.858	148.777
356.915	135.459
360.969	86.342
365.022	525.654
369.073	1350.2
373.122	2213.24
377.169	2115.77
381.215	904.016
385.258	336.877
389.299	526.67
393.339	267.074
397.376	358.092
401.412	731.873
405.446	1035.6
409.478	1664.27
413.508	1793.87
417.536	1611.35
421.562	1283.2
425.586	707.357
429.609	560.934
433.629	540.588
437.648	654.32
441.665	472.996
445.68	550.787
449.693	559.775
453.704	288.207
457.713	520.242
461.721	1007.23
465.726	1202.04
469.73	1241.76
473.731	1136.89
477.731	1488.89
481.729	1459.93
485.725	1135.04
489.72	982.242
493.712	1163.77
497.703	992.736
501.691	1047.33
505.678	786.525
509.663	794.102
513.646	776.344
517.627	910.283
521.607	660.822
525.584	786.408
529.56	1239.79
533.534	1282.73
537.506	1601.98
541.476	1461.21
545.444	1022.02
549.41	1140.6
553.375	920.926
557.337	863.416
561.298	823.672
565.257	919.268
569.214	882.717
573.17	746.609
577.123	555.305
581.075	528.443
585.024	412.518
588.972	1142.56
592.918	526.568
596.863	591.582
600.805	562.621
604.746	776.73
608.685	469.996
612.621	514.861
616.557	692.076
620.49	230.797
624.421	782.07
628.351	326.682
632.279	211.539
636.205	861.621
640.129	513.945
644.051	417.529
647.972	274.398
651.89	687.572
655.807	34.23
659.722	162.836
663.636	393.516
667.547	18.496
671.457	84.391
675.365	195.926
679.271	159.258
683.175	597.113
687.077	13.379
690.978	295.117
694.877	73.816
698.774	244.719
702.669	409.227
706.562	366.957
710.454	110.465
714.344	173.5
718.232	457.883
722.118	153.781
726.002	241.262
729.885	338.324
733.766	180.98
737.645	403.227
741.522	292.078
745.397	414.527
749.271	326.586
753.143	405.25
757.013	592.523
760.881	224.41
764.748	20.906
768.613	502.023
772.476	700.734
776.337	643.031
780.196	1238.91
784.054	1205.35
787.91	1846.36
791.764	2435.94
795.616	3821.08
799.467	5859.78
803.316	7108.01
807.163	7392.19
811.008	9588.52
814.851	16294.4
818.693	20592.2
822.533	16450.5
826.371	10142
830.208	7819.3
834.042	8070.12
837.875	11708.1
841.706	19688.5
845.536	23642.6
849.363	14530.1
853.189	8022.19
857.013	4900.91
860.836	3816.63
864.656	2823.98
868.475	2704.45
872.292	2759.21
876.108	2883.96
879.922	4790.3
883.733	8672.06
887.544	15013.1
891.352	14851.4
895.159	8505.89
898.964	4984.53
902.767	3343.28
906.568	2408.09
910.368	1563.99
914.166	1607.86
917.962	1458.46
921.757	989.266
925.55	1049.98
929.341	851.617
933.13	793.07
936.918	981.289
940.703	773.648
944.488	604.27
948.27	582.965
952.051	504.141
955.83	350.832
959.607	419.664
963.383	313.723
967.156	275.598
970.928	16.895
974.699	388.996
978.468	239.551
982.234	691.09
986	325.504
989.763	150.277
993.525	216.711
997.285	620.852
1001.04	139.996
1004.8	219.242
1008.55	424.656
1012.31	447.441
1016.06	505.324
1019.81	530.23
1023.56	667.562
1027.31	267.91
1031.05	282.848
1034.79	321.738
1038.53	504.809
1042.27	456.73
1046.01	427.602
1049.75	280.25
1053.48	390.484
1057.22	495.453
1060.95	361.375
1064.68	335.617
1068.4	81.223
1072.13	360.176
1075.86	193.004
1079.58	274.512
1083.3	292.348
1087.02	128.359
1090.74	196.363
1094.45	336.008
1098.17	131.922
1101.88	258.133
1105.59	52.445
1109.3	60.332
1113.01	133.238
1116.71	65.266
1120.42	74.43
1124.12	132.754
1127.82	128.656
1131.52	180.613
1135.22	303.465
1138.91	8.246
1142.61	266.188
1146.3	99.879
1149.99	36.914
1153.68	154.074
1157.37	102.238
1161.06	149.461
1164.74	8.457
1168.42	230.668
1172.1	97.719
1175.78	314.559
1179.46	69.875
1183.14	287.551
1186.81	234.418
1190.48	463.43
1194.15	179.363
1197.83	216.422
1201.49	649.996
1205.16	500.059
1208.82	275.594
1212.49	226.617
1216.15	385.375
1219.81	385.426
1223.46	443.969
1227.12	279.977
1230.78	512.449
1234.43	642.453
1238.08	370.559
1241.73	631.625
1245.38	640.789
1249.03	613.852
1252.67	383.367
1256.31	234.895
1259.95	449.027
1263.6	600.664
1267.23	593.176
1270.87	629.531
1274.51	490.414
1278.14	602.523
1281.77	636.855
1285.4	416.062
1289.03	193.82
1292.66	481.262
1296.28	298.012
1299.91	451.82
1303.53	459.188
1307.15	480.922
1310.77	425.379
1314.38	554.707
1318	349.016
1321.61	72.227
1325.23	524.523
1328.84	285.164
1332.45	389.484
1336.06	257.32
1339.66	598.801
1343.27	515.199
1346.87	848.215
1350.47	880.352
1354.07	656.219
1357.67	977.059
1361.26	527.199
1364.86	549.359
1368.45	849.043
1372.04	698.398
1375.63	771.094
1379.22	826.875
1382.81	714.922
1386.39	512.977
1389.98	928.41
1393.56	776.531
1397.14	646.602
1400.72	668.34
1404.3	545.18
1407.87	575.828
1411.45	589.695
1415.02	866.621
1418.59	707.297
1422.16	280.047
1425.73	624.684
1429.29	328.848
1432.86	631.062
1436.42	780.887
1439.98	508.559
1443.54	739.121
1447.1	484.727
1450.66	791.266
1454.21	586.203
1457.77	660.422
1461.32	367.871
1464.87	29.508
1468.42	224.871
1471.96	206.719
1475.51	16.562
1479.06	119.492
1482.6	332.578
