Measurement: Raman, 514 nm, depolarized, Raman Data Processed
Mineral: Aegirine
Rruff sample: R050074
Ideal chemistry: NaFe^3+^Si_2_O_6_
Locality: Mt. Malosa, Zomba, Chilwa, Alkaline Area, Malawi
Source: Rock Currier
Description: Black prismatic single crystal
Measured chemistry: (Na_0.98_Ca_0.02_)_Σ=1_(Fe^3+^_0.96_Ti_0.01_Mn_0.03_)_Σ=1_Si_2.00_O_6_
Pin_id: L00435
Orientation: Laser parallel to a* (1 0 0). Fiducial mark perpendicular to laser is parallel to -b [0 -1 0]
Raman shift (cm-1)	intensity
141.617	0
145.779	60.074
149.938	40.566
154.096	101.551
158.251	346.758
162.405	661.171
166.556	313.195
170.705	69.06
174.853	446.504
178.998	758.981
183.141	967.848
187.282	1326.53
191.421	3283.81
195.558	3738.67
199.693	2179.75
203.826	1488.88
207.957	1731.7
212.086	2597.72
216.213	2671.35
220.337	1230.04
224.46	429.472
228.581	176.663
232.699	58.483
236.816	37.659
240.931	55.178
245.043	19.156
249.154	10.38
253.262	0.04
257.369	76.291
261.473	78.842
265.576	266.379
269.676	303.602
273.775	299.854
277.871	354.584
281.965	454.253
286.058	536.744
290.148	718.841
294.236	877.711
298.323	812.037
302.407	753.084
306.489	932.975
310.57	1406.74
314.648	1422.62
318.724	1117.38
322.799	1017.33
326.871	1353.67
330.941	2110.87
335.01	3267.61
339.076	4368.48
343.14	4346.23
347.203	3476.05
351.263	2406.8
355.321	1754.02
359.378	1721.23
363.432	2024.58
367.484	2378.33
371.535	2260.6
375.583	2002.51
379.63	2370.14
383.674	3089.5
387.717	3270.18
391.757	2549.46
395.796	1503.75
399.832	812.572
403.867	462.085
407.899	354.027
411.93	245.914
415.959	198.83
419.986	64.912
424.01	11.249
428.033	4.331
432.054	52.26
436.073	15.415
440.09	15.473
444.105	43.276
448.118	27.663
452.129	85.302
456.138	91.13
460.145	142.429
464.15	151.234
468.153	150.551
472.155	181.271
476.154	129.855
480.151	165.197
484.147	277.65
488.14	483.456
492.132	984.42
496.122	1794.16
500.109	1899.57
504.095	1077.22
508.079	738.32
512.061	565.092
516.041	588.551
520.019	682.715
523.995	943.604
527.969	1306.23
531.941	1865.61
535.911	2775.73
539.88	4753.85
543.846	6652.78
547.811	5907.46
551.773	4509.29
555.734	3764.89
559.693	3805.13
563.65	3613.65
567.605	2906.66
571.558	2250.51
575.509	1726.02
579.458	1359.01
583.405	1129.23
587.351	875.446
591.294	636.289
595.236	411.622
599.175	306.221
603.113	145.997
607.049	61.286
610.983	0.858
614.915	10.941
618.845	61.689
622.774	49.432
626.7	2.605
630.625	23.643
634.547	0.031
638.468	37.515
642.387	70.903
646.304	139.46
650.219	78.115
654.132	109.663
658.043	121.86
661.952	202.018
665.86	336.145
669.766	514.103
673.669	768.896
677.571	939.528
681.471	704.003
685.369	425.323
689.266	191.491
693.16	155.511
697.053	102.386
700.943	83.109
704.832	74.685
708.719	53.114
712.604	92.384
716.487	40.494
720.368	34.459
724.248	70.282
728.125	3.975
732.001	49.532
735.875	47.988
739.747	27.361
743.617	58.708
747.486	58.814
751.352	131.358
755.217	223.664
759.079	288.878
762.94	146.286
766.799	83.301
770.657	6.057
774.512	9.17
778.365	35.518
782.217	38.941
786.067	59.486
789.915	67.186
793.761	12.077
797.606	29.758
801.448	8.185
805.289	8.799
809.128	35.205
812.965	19.21
816.8	28.149
820.633	108.082
824.465	90.991
828.294	137.881
832.122	216.755
835.948	304.329
839.772	455.469
843.595	664.317
847.415	990.879
851.234	1305.66
855.051	1663.39
858.866	2089.69
862.679	2763.83
866.491	3355.32
870.301	3087.67
874.109	2283.92
877.915	1701.4
881.719	1276.11
885.521	1068.52
889.322	906.224
893.121	777.26
896.918	770.529
900.713	684.807
904.506	718.35
908.298	644.157
912.088	651.067
915.876	719.077
919.662	619.19
923.447	765.183
927.229	835.147
931.01	902.998
934.789	1343.66
938.566	1886.88
942.342	2278.98
946.116	2946.87
949.888	4455.05
953.658	4461.94
957.426	3651.47
961.193	3589.63
964.957	3470.49
968.72	3522.94
972.482	3835.8
976.241	3228.63
979.999	1939.57
983.755	1468.61
987.509	1212.76
991.261	967.02
995.012	855.392
998.761	783.878
1002.51	748.479
1006.25	773.198
1010	803.232
1013.74	852.189
1017.48	871.714
1021.22	975.292
1024.95	1111.73
1028.69	1156.49
1032.42	1403.94
1036.15	1981.41
1039.88	3092.92
1043.61	4368.63
1047.34	2666.55
1051.06	1573.67
1054.78	1118.97
1058.5	970.112
1062.22	869.299
1065.94	738.688
1069.65	649.233
1073.37	686.107
1077.08	623.453
1080.79	620.306
1084.5	605.126
1088.2	591.357
1091.91	501.113
1095.61	545.408
1099.31	506.185
1103.01	471.578
1106.71	483.815
1110.41	493.057
1114.1	509.115
1117.8	477.493
1121.49	484.464
1125.18	560.649
1128.86	549.637
1132.55	564.657
1136.23	512.656
1139.92	406.804
1143.6	254.226
1147.28	95.58
1150.95	12.866
1154.63	57.129
1158.3	22.339
1161.97	11.41
1165.64	10.109
1169.31	17.701
1172.98	32.99
1176.65	4.237
1180.31	29.428
1183.97	37.784
1187.63	19.43
1191.29	20.262
1194.95	11.764
1198.6	6.066
1202.26	14.996
1205.91	17.544
1209.56	28.026
1213.2	10.608
1216.85	28.47
1220.5	33.452
1224.14	10.547
1227.78	0.82
1231.42	24.978
1235.06	38.138
1238.69	27.64
1242.33	19.979
1245.96	36.211
1249.59	18.384
1253.22	41.438
1256.85	36.449
1260.48	40.308
1264.1	83.061
1267.72	41.729
1271.35	62.667
1274.97	107.65
1278.58	71.888
1282.2	59.984
1285.81	40.964
1289.43	45.808
1293.04	50.613
1296.65	42.215
1300.26	81.703
1303.86	48.883
1307.47	40.877
1311.07	11.595
1314.67	64.829
1318.27	39.622
1321.87	49.633
1325.46	63.968
1329.06	54.086
1332.65	51.903
1336.24	48.304
1339.83	35.995
1343.42	25.316
1347	35.059
1350.59	27.421
1354.17	76.683
1357.75	42.339
1361.33	56.947
1364.91	81.733
1368.49	75.131
1372.06	53.265
1375.63	18.31
1379.2	58.061
1382.78	51.035
1386.34	50.235
1389.91	76.614
1393.47	40.892
1397.04	150.224
1400.6	52.623
1404.16	54.455
1407.72	49.557
1411.27	45.714
1414.83	47.851
1418.38	94.706
1421.93	73.463
1425.48	43.888
1429.03	69.18
1432.58	9.11
1436.12	87.903
1439.66	65.831
1443.21	54.209
1446.75	71.186
1450.29	50.305
1453.82	45.452
1457.36	55.499
1460.89	70.314
1464.42	59.184
1467.95	44.795
1471.48	46.834
1475.01	72.154
1478.54	51.395
1482.06	16.995
1485.58	69.631
1489.1	63.483
1492.62	5.514
1496.14	20.851
1499.65	97.502
1503.17	20.515
1506.68	67.213
1510.19	81.172
1513.7	50.7
1517.21	22.372
