Measurement: Raman, 514 nm, depolarized, Raman Data Processed
Mineral: Aegirine
Rruff sample: R050074
Ideal chemistry: NaFe^3+^Si_2_O_6_
Locality: Mt. Malosa, Zomba, Chilwa, Alkaline Area, Malawi
Source: Rock Currier
Description: Black prismatic single crystal
Measured chemistry: (Na_0.98_Ca_0.02_)_Σ=1_(Fe^3+^_0.96_Ti_0.01_Mn_0.03_)_Σ=1_Si_2.00_O_6_
Pin_id: L00155
Orientation: Laser parallel to -c* (0 0 -1). Fiducial mark perpendicular to laser is parallel to a [1 0 0]
Raman shift (cm-1)	intensity
87.327	0
91.515	61.754
95.702	102.971
99.886	151.787
104.069	98.565
108.249	189.999
112.427	332.708
116.603	565.092
120.778	564.006
124.95	522.701
129.119	686.405
133.287	1554.82
137.453	1582.49
141.617	583.977
145.779	54.554
149.938	10.292
154.096	55.102
158.251	303.668
162.405	802.86
166.556	422.83
170.705	276.036
174.853	693.718
178.998	2142.86
183.141	2052.92
187.282	1043.52
191.421	1885.4
195.558	2168.06
199.693	1288.12
203.826	1192.33
207.957	2339.79
212.086	5813.3
216.213	6599.52
220.337	2815.05
224.46	827.963
228.581	208.273
232.699	9.993
236.816	79.811
240.931	58.239
245.043	24.034
249.154	31.041
253.262	31.906
257.369	239.324
261.473	474.188
265.576	800.09
269.676	693.421
273.775	782.432
277.871	920.366
281.965	1039.52
286.058	1271.08
290.148	2165.47
294.236	3092.29
298.323	2640.22
302.407	1838.33
306.489	1613.17
310.57	1778.56
314.648	1679.4
318.724	1340.99
322.799	1420.49
326.871	1814.78
330.941	2915.67
335.01	5320.13
339.076	8979.36
343.14	11062.9
347.203	11996.4
351.263	8819.41
355.321	4786.27
359.378	3270.85
363.432	3236.13
367.484	4036.14
371.535	4189.89
375.583	4537.41
379.63	6395.7
383.674	10134.8
387.717	11775
391.757	8207.03
395.796	4317.56
399.832	2330.51
403.867	1397.65
407.899	925.937
411.93	657.43
415.959	465.287
419.986	272.107
424.01	157
428.033	72.412
432.054	33.798
436.073	2.518
440.09	16.668
444.105	65.624
448.118	18.09
452.129	60.054
456.138	129.916
460.145	330.935
464.15	423.182
468.153	381.438
472.155	216.916
476.154	168.682
480.151	199.401
484.147	302.121
488.14	398.37
492.132	919.507
496.122	2066.7
500.109	2439.93
504.095	1450.07
508.079	994.09
512.061	892.995
516.041	838.788
520.019	1034.47
523.995	1384.04
527.969	2101.49
531.941	3538.84
535.911	6774.09
539.88	14112.2
543.846	21486.4
547.811	17390.8
551.773	11105.5
555.734	8441.69
559.693	8928.38
563.65	8425.71
567.605	6188.2
571.558	4070.65
575.509	2945.36
579.458	2187.54
583.405	1724.25
587.351	1295.48
591.294	1047.28
595.236	745.063
599.175	485.297
603.113	332.301
607.049	185.664
610.983	119.724
614.915	109.963
618.845	46.89
622.774	78.305
626.7	44.577
630.625	32.076
634.547	89.826
638.468	82.208
642.387	133.519
646.304	218.228
650.219	258.764
654.132	349.711
658.043	379.334
661.952	489.821
665.86	676.169
669.766	912.383
673.669	1766.46
677.571	2624.4
681.471	2220.21
685.369	1135.89
689.266	587.435
693.16	336.849
697.053	171.133
700.943	89.288
704.832	82.305
708.719	59.178
712.604	46.889
716.487	1.603
720.368	2.177
724.248	1.253
728.125	7.446
732.001	8.229
735.875	22.393
739.747	44.275
743.617	19.417
747.486	55.755
751.352	15.666
755.217	123.002
759.079	187.284
762.94	54.524
766.799	6.317
770.657	53.379
774.512	41.403
778.365	57.774
782.217	50.905
786.067	40.57
789.915	76.396
793.761	33.615
797.606	46.709
801.448	10.77
805.289	19.025
809.128	19.566
812.965	20.095
816.8	95.566
820.633	79.986
824.465	140.357
828.294	172.686
832.122	293.978
835.948	434.236
839.772	602.467
843.595	903.674
847.415	1273.86
851.234	1694.04
855.051	2365.97
858.866	3165.6
862.679	4487.82
866.491	5721.8
870.301	5231.77
874.109	3862.56
877.915	2623.2
881.719	1886.95
885.521	1555.42
889.322	1390.65
893.121	1197.4
896.918	1172.77
900.713	1176.26
904.506	1219.07
908.298	1284.37
912.088	1390.11
915.876	1566.95
919.662	1740.08
923.447	2077.71
927.229	2440.82
931.01	2977.72
934.789	3701.35
938.566	4899.52
942.342	7001.89
946.116	11208.8
949.888	16998
953.658	17760.9
957.426	14085.6
961.193	13714.5
964.957	15173.5
968.72	21322.7
972.482	32322.2
976.241	23271.8
979.999	12151.6
983.755	7811.58
987.509	5529.77
991.261	3945.15
995.012	2956.73
998.761	2261.5
1002.51	1857.47
1006.25	1498.63
1010	1327
1013.74	1236.99
1017.48	1278.81
1021.22	1471.31
1024.95	1710.09
1028.69	1959.96
1032.42	2948.69
1036.15	4982.39
1039.88	9979.88
1043.61	15703
1047.34	8982.41
1051.06	4228.83
1054.78	2509.62
1058.5	1718.9
1062.22	1288.56
1065.94	1011.36
1069.65	809.149
1073.37	771.189
1077.08	743.637
1080.79	671.169
1084.5	667.45
1088.2	608.23
1091.91	626.728
1095.61	683.199
1099.31	665.332
1103.01	692.457
1106.71	714.415
1110.41	777.753
1114.1	862.158
1117.8	904.813
1121.49	1019.39
1125.18	1116.5
1128.86	1142.16
1132.55	1149.91
1136.23	1129.76
1139.92	947.634
1143.6	623.373
1147.28	370.158
1150.95	146.961
1154.63	79.863
1158.3	7.622
1161.97	2.615
1165.64	16.896
1169.31	55.73
1172.98	43.172
1176.65	21.369
1180.31	58.788
1183.97	19.541
1187.63	30.557
1191.29	18.506
1194.95	16.332
1198.6	31.719
1202.26	11.706
1205.91	0.039
1209.56	13.436
1213.2	39.041
1216.85	7.173
1220.5	48.052
1224.14	51.59
1227.78	4.199
1231.42	21.61
1235.06	35.149
1238.69	24.469
1242.33	34.522
1245.96	68.325
1249.59	23.256
1253.22	58.038
1256.85	109.544
1260.48	59.009
1264.1	87.577
1267.72	51.52
1271.35	96.199
1274.97	69.64
1278.58	104.021
1282.2	80.027
1285.81	88.974
1289.43	106.554
1293.04	92.933
1296.65	77.131
1300.26	105.266
1303.86	85.391
1307.47	133.726
1311.07	87.899
1314.67	104.615
1318.27	79.984
1321.87	69.687
1325.46	52
1329.06	74.991
1332.65	43.265
1336.24	62.528
1339.83	75.215
1343.42	47.598
1347	44.819
1350.59	30.96
1354.17	76.14
1357.75	16.343
1361.33	30.007
1364.91	56.507
1368.49	43.542
1372.06	41.715
1375.63	42.984
1379.2	20.917
1382.78	31.685
1386.34	60.978
1389.91	41.529
1393.47	21.598
1397.04	67.894
1400.6	7.892
1404.16	9.733
1407.72	44.42
1411.27	39.533
1414.83	63.524
1418.38	42.916
1421.93	35.497
1425.48	45.485
1429.03	51.791
1432.58	66.537
1436.12	62.009
1439.66	23.174
1443.21	3.109
1446.75	38.853
1450.29	55.337
1453.82	31.744
1457.36	108.987
1460.89	72.941
1464.42	24.739
1467.95	11.702
1471.48	46.755
1475.01	93.76
1478.54	18.146
1482.06	7.905
1485.58	18.445
1489.1	60.958
1492.62	78.922
1496.14	67.227
1499.65	70.487
1503.17	20.565
1506.68	60.039
1510.19	42.69
1513.7	35.083
1517.21	7.516
1520.72	7.914
