Measurement: Raman, 514 nm, depolarized, Raman Data Processed
Mineral: Aegirine
Rruff sample: R040054
Ideal chemistry: NaFe^3+^Si_2_O_6_
Locality: Mont Saint-Hilaire, Rouville County, Quebec, Canada
Source: Bob Downs
Description: Black cleavage fragments
Measured chemistry: (Na_0.96_Ca_0.04_)(Fe_0.86_Ti_0.07_Mn_0.06_Mg_0.02_)(Si_0.97_Al_0.03_)_2_O_6_
Pin_id: M00355
Orientation: Laser parallel to [1 0 1]. Fiducial mark perpendicular to laser is parallel to b* (0 1 0)
Raman shift (cm-1)	intensity
127.452	0
131.615	364.591
135.777	963.499
139.937	451.195
144.094	65.552
148.25	34.327
152.403	308.631
156.555	738.485
160.705	1536.47
164.853	1681.2
168.998	870.318
173.142	594.477
177.284	1052.37
181.424	1868.38
185.562	2298.3
189.698	5213.11
193.831	8109.1
197.963	5877.35
202.093	4100.67
206.221	3906.32
210.347	4958.46
214.472	5924.29
218.594	4594.14
222.714	2576.71
226.832	1435.98
230.948	721.023
235.063	339.023
239.175	45.56
243.286	33.03
247.394	103.251
251.501	152.45
255.605	186.489
259.708	139.651
263.808	31.331
267.907	177.001
272.004	352.343
276.099	657.275
280.192	937.084
284.283	1169.36
288.372	1507.12
292.459	1688.13
296.544	2048.56
300.627	1843.1
304.709	1950.33
308.788	2261.04
312.865	2472.8
316.941	2154.39
321.015	2095
325.086	2343.89
329.156	2820.47
333.224	4470.14
337.29	7163.51
341.354	9414.19
345.416	8524.24
349.476	6449.4
353.534	4560.02
357.591	3751.11
361.645	3886.36
365.698	4544.2
369.748	5155.73
373.797	4654.47
377.844	4469.62
381.889	5152.14
385.932	6392.99
389.973	6600.86
394.012	5047.98
398.049	3247.1
402.084	2095.27
406.118	1437.26
410.15	1170.93
414.179	854.79
418.207	679.187
422.233	426.039
426.257	278.143
430.279	221.2
434.299	77.624
438.318	139.032
442.334	195.454
446.349	227.613
450.361	229.839
454.372	389.797
458.381	433.452
462.388	398.029
466.394	455.167
470.397	440.976
474.398	537.034
478.398	530.616
482.396	716.438
486.391	817.874
490.385	1616.24
494.377	3173.49
498.368	5062.87
502.356	4471.4
506.342	2728.06
510.327	2083.07
514.31	1618.52
518.291	1471.48
522.27	1651.01
526.247	2115.16
530.222	2901.95
534.196	4233.38
538.167	6952.44
542.137	11558.2
546.105	13123.9
550.071	11309.3
554.035	9564.89
557.998	8980.49
561.958	8496.43
565.917	7702.92
569.874	6688.84
573.829	5593.34
577.782	4846.01
581.733	4118.99
585.683	3463.36
589.63	2863.77
593.576	2261
597.52	1660.86
601.462	1093.17
605.402	552.017
609.341	360.123
613.277	201.147
617.212	112.225
621.145	1.395
625.076	85.822
629.006	63.361
632.933	25.133
636.859	29.637
640.783	54.522
644.705	60.836
648.625	84.982
652.543	231.033
656.46	270.163
660.375	322.408
664.288	451.791
668.199	590.969
672.108	946.95
676.016	1649.74
679.921	1845.34
683.825	1239.75
687.727	757.991
691.628	448.052
695.526	356.94
699.423	258.661
703.318	207.214
707.211	160.596
711.102	140.807
714.992	185.841
718.879	91.699
722.765	129.364
726.649	113.844
730.532	122.158
734.412	105.33
738.291	74.374
742.168	138.296
746.043	76.119
749.916	78.843
753.788	224.466
757.658	416.006
761.526	284.465
765.392	81.842
769.257	33.091
773.119	11.444
776.98	43.559
780.839	68.173
784.697	163.397
788.552	40.097
792.406	83.998
796.258	105.016
800.108	58.074
803.957	174.097
807.804	54.754
811.649	14.107
815.492	210.031
819.333	235.91
823.173	320.719
827.011	512.464
830.847	748.151
834.681	1092.79
838.514	1526.38
842.345	2139.93
846.174	2801.45
850.001	3568.94
853.827	4144.36
857.651	4570.47
861.473	4827.6
865.293	5113.96
869.112	5328.78
872.928	4872.84
876.744	3910.27
880.557	3106.98
884.369	2385.74
888.178	2318.84
891.987	1702.6
895.793	1535.05
899.598	1318.63
903.401	1193.16
907.202	1182.37
911.001	1107.2
914.799	1227.37
918.595	1368.3
922.389	1428.37
926.182	1485.8
929.972	1627.3
933.761	1838.54
937.549	2184.97
941.334	2626.73
945.118	3467.54
948.9	4844.47
952.681	5996.93
956.459	6164.75
960.236	6166.79
964.012	6350.08
967.785	6327.87
971.557	6556.27
975.327	5804.9
979.095	4386.74
982.862	3487.81
986.627	3005.11
990.39	2599.64
994.152	2270.41
997.912	2091.4
1001.67	2047.62
1005.43	1894.07
1009.18	1966.76
1012.93	1990.68
1016.68	2047.87
1020.43	2060.43
1024.18	2133.15
1027.93	2428.85
1031.67	3062.59
1035.42	4010.43
1039.16	6002.67
1042.9	8731.53
1046.63	8641.62
1050.37	5558.86
1054.11	3905.7
1057.84	3136.35
1061.57	2975.2
1065.3	2596.07
1069.03	2395.98
1072.75	2363.92
1076.47	2190.91
1080.2	2227.85
1083.92	2049.23
1087.64	1912.25
1091.36	1914.96
1095.07	1746.68
1098.79	1728.15
1102.5	1558.49
1106.21	1538.8
1109.92	1532.66
1113.62	1538.7
1117.33	1514.98
1121.04	1531.19
1124.74	1818.29
1128.44	1560.85
1132.14	1468.37
1135.83	1424.2
1139.53	1360.5
1143.22	1145.7
1146.92	769.206
1150.61	458.869
1154.3	229.556
1157.98	92.967
1161.67	25.948
1165.35	17.412
1169.04	5.414
1172.72	54.172
1176.4	1.417
1180.07	14.618
1183.75	14.542
1187.42	0.259
1191.1	14.565
1194.77	107.799
1198.44	55.737
1202.1	24.691
1205.77	47.607
1209.43	18.883
1213.1	20.412
1216.76	55.421
1220.42	49.694
1224.07	44.504
1227.73	27.685
1231.38	49.453
1235.04	57.049
1238.69	34.667
1242.34	64.8
1245.99	76.857
1249.63	90.053
1253.28	81.386
1256.92	88.872
1260.56	75.186
1264.2	78.275
1267.84	133.146
1271.48	73.787
1275.11	87.198
1278.74	99.252
1282.38	93.297
1286.01	131.956
1289.63	106.323
1293.26	89.422
1296.89	110.236
1300.51	105.798
1304.13	184.934
1307.75	150.188
1311.37	125.014
1314.99	54.376
1318.6	87.386
1322.22	90.182
1325.83	103.575
1329.44	100.163
1333.05	111.646
1336.66	109.989
1340.26	106.772
1343.87	77.057
1347.47	46.072
1351.07	107.102
1354.67	92.109
1358.27	59.38
1361.86	61.029
1365.46	117.375
1369.05	93.457
1372.64	174.853
1376.23	88.523
1379.82	143.646
1383.41	67.758
1386.99	97.232
1390.57	127.692
1394.16	100.838
1397.74	86.103
1401.32	77.298
1404.89	68.292
1408.47	148.148
1412.04	102.434
1415.61	97.853
1419.18	131.995
1422.75	128.688
1426.32	83.408
1429.89	55.238
1433.45	108.4
1437.01	156.275
1440.58	123.554
1444.13	121.01
1447.69	152.21
1451.25	90.513
1454.81	169.336
1458.36	150.529
1461.91	82.428
1465.46	61.331
1469.01	39.094
1472.56	137.598
1476.1	126.094
1479.64	133.647
1483.19	131.853
1486.73	131.706
1490.27	129.664
1493.81	90.095
1497.34	62.776
1500.88	24.175
1504.41	49.977
1507.94	75.817
1511.47	105.421
1515	78.854
1518.53	41.2
1522.05	56.917
1525.57	44.762
1529.1	76.341
1532.62	83.696
1536.14	0
