Measurement: Raman, 514 nm, depolarized, Raman Data Processed
Mineral: Aegirine
Rruff sample: R040054
Ideal chemistry: NaFe^3+^Si_2_O_6_
Locality: Mont Saint-Hilaire, Rouville County, Quebec, Canada
Source: Bob Downs
Description: Black cleavage fragments
Measured chemistry: (Na_0.96_Ca_0.04_)(Fe_0.86_Ti_0.07_Mn_0.06_Mg_0.02_)(Si_0.97_Al_0.03_)_2_O_6_
Pin_id: L00298
Orientation: Laser parallel to a [1 0 0]. Fiducial mark perpendicular to laser is parallel to b* (0 1 0)
Raman shift (cm-1)	intensity
141.323	0
145.48	19.396
149.635	116.093
153.788	25.566
157.939	321.307
162.088	325.344
166.235	143.921
170.38	67.983
174.523	339.331
178.664	965.713
182.803	757.72
186.94	1010.25
191.076	2054.75
195.209	2271.68
199.34	1930.88
203.47	1908.89
207.597	2449.29
211.722	3013.97
215.846	2663.82
219.967	1824.85
224.087	1262.63
228.204	506.498
232.32	334.357
236.434	187.779
240.545	102.233
244.655	6.628
248.763	45.13
252.869	84.25
256.973	25.975
261.075	132.643
265.175	152.622
269.273	143.94
273.369	341.34
277.463	307.391
281.556	428.547
285.646	534.68
289.734	610.453
293.821	725.632
297.905	984.133
301.988	1291.05
306.069	1709.51
310.147	2049.76
314.224	2121.73
318.299	1646.06
322.372	1276.93
326.443	1310.94
330.512	1694.77
334.579	2569.94
338.645	3664.8
342.708	3655.43
346.769	3026.97
350.829	2491.49
354.887	2145.7
358.942	2450.86
362.996	3327.48
367.048	4134.74
371.098	3688.2
375.146	3083.13
379.192	3043.7
383.236	3333.98
387.279	3553.99
391.319	3066.09
395.358	2161.22
399.394	1353.3
403.429	801.397
407.462	533.389
411.493	314.051
415.522	245.066
419.549	130.778
423.575	1.706
427.598	76.118
431.619	0.755
435.639	3
439.657	22.775
443.673	8.141
447.687	35.448
451.699	88.535
455.709	129.67
459.717	198.241
463.724	218.293
467.728	176.586
471.731	203.432
475.732	149.145
479.731	210.024
483.728	364.644
487.723	475.017
491.716	832.429
495.708	1595.27
499.697	1803.33
503.685	1434.05
507.671	922.558
511.655	817.568
515.637	771.184
519.617	888.425
523.596	1152.32
527.572	1645.89
531.547	2058.13
535.52	2925.06
539.491	4584.68
543.46	5747.22
547.427	5536.52
551.393	4898.18
555.356	4496.29
559.318	4146.41
563.278	3733.28
567.236	3414.88
571.192	3148.06
575.147	2767.12
579.099	2555.14
583.05	2149.35
586.999	1954.43
590.946	1600.23
594.891	1244.2
598.834	875.555
602.776	535.844
606.715	330.021
610.653	181.961
614.589	76.64
618.523	7.83
622.456	61.574
626.386	4.83
630.315	6.144
634.242	22.625
638.167	24.865
642.09	43.035
646.012	134.022
649.931	188.037
653.849	192.444
657.765	232.658
661.679	218.875
665.592	338.812
669.502	473.482
673.411	710.893
677.318	929.052
681.223	743.961
685.126	505.625
689.028	363.049
692.927	276.238
696.825	197.194
700.721	182.92
704.616	142.417
708.508	146.675
712.399	131.699
716.288	84.494
720.175	81.056
724.06	138.396
727.944	152.529
731.825	74.481
735.705	120.261
739.584	156.897
743.46	210.415
747.334	187.849
751.207	247.191
755.078	399.439
758.947	605.61
762.815	228.693
766.68	58.208
770.544	8.355
774.406	22.317
778.267	16.481
782.125	17.127
785.982	69.031
789.837	57.379
793.69	76.96
797.542	127.013
801.391	103.872
805.239	62.211
809.085	29.531
812.93	34.023
816.772	101.619
820.613	198.463
824.452	278.547
828.29	409.608
832.125	529.653
835.959	744.688
839.791	1002.04
843.621	1221.76
847.45	1511.8
851.277	1828.78
855.102	1996.6
858.925	2022.26
862.746	1944.48
866.566	1987.93
870.384	1863.06
874.2	1761.47
878.015	1458.38
881.828	1294.73
885.639	1231.9
889.448	1059.61
893.256	1022.52
897.061	1052.57
900.865	996.665
904.668	1013.18
908.468	1022.88
912.267	1054.74
916.064	1101.76
919.86	1156.74
923.653	1169.58
927.445	1339.81
931.236	1540.96
935.024	1760.66
938.811	2173.72
942.596	2607.35
946.379	3566.89
950.161	4400.94
953.94	4635.29
957.719	4439.71
961.495	4323.91
965.27	3894.67
969.043	3463.93
972.814	3190.43
976.583	2618.14
980.351	2345.06
984.117	2149.19
987.882	1989.56
991.644	1823.14
995.405	1691.96
999.165	1517.99
1002.92	1448.24
1006.68	1415.71
1010.43	1455.42
1014.18	1405.36
1017.93	1366.66
1021.68	1359.07
1025.43	1301.95
1029.18	1430.43
1032.92	1655.03
1036.66	1878.45
1040.4	2138.62
1044.14	2206.41
1047.88	2051.34
1051.62	1846.28
1055.35	1834.34
1059.08	1924.62
1062.81	1784.05
1066.54	1885.44
1070.27	1714.12
1073.99	1613.84
1077.72	1644.16
1081.44	1589.19
1085.16	1572.2
1088.88	1500.94
1092.59	1430.28
1096.31	1223.94
1100.02	1159.7
1103.73	1160.63
1107.44	1113.75
1111.15	1099.37
1114.86	1124.76
1118.57	1103.05
1122.27	1203.9
1125.97	1133.5
1129.67	1009.48
1133.37	922.108
1137.07	906.809
1140.76	780.068
1144.45	585.317
1148.15	408.256
1151.84	276.479
1155.53	125.062
1159.21	69.173
1162.9	24.518
1166.58	11.724
1170.26	8.469
1173.94	15.644
1177.62	46.838
1181.3	41.001
1184.97	11.578
1188.65	4.878
1192.32	13.98
1195.99	56.249
1199.66	13.089
1203.33	21.773
1206.99	21.797
1210.65	36.218
1214.32	31.746
1217.98	21.538
1221.64	33.499
1225.29	57.399
1228.95	0.873
1232.6	25.617
1236.26	9.107
1239.91	18.009
1243.56	32.014
1247.2	53.894
1250.85	84.638
1254.49	39.226
1258.13	71.635
1261.78	121.852
1265.41	3.106
1269.05	129.844
1272.69	85.432
1276.32	38.802
1279.95	35.968
1283.59	44.411
1287.21	56.682
1290.84	109.239
1294.47	78.616
1298.09	76.807
1301.72	60.807
1305.34	74.615
1308.96	54.698
1312.58	42.551
1316.19	86.797
1319.81	86.234
1323.42	102.495
1327.03	104.221
1330.64	124.044
1334.25	79.912
1337.86	82.503
1341.46	104.757
1345.07	84.179
1348.67	62.945
1352.27	98.549
1355.87	63.144
1359.46	100.02
1363.06	60.032
1366.65	137.497
1370.25	79.248
1373.84	97.28
1377.43	96.3
1381.02	102.142
1384.6	116.26
1388.18	67.031
1391.77	115.666
1395.35	132.448
1398.93	128.282
1402.51	145.315
1406.08	142.343
1409.66	36.349
1413.23	102.704
1416.8	58.3
1420.37	106.737
1423.94	154.843
1427.51	94.512
1431.08	126.338
1434.64	129.371
1438.2	120.752
1441.76	179.303
1445.32	141.976
1448.88	113.74
1452.43	109.562
1455.99	99.051
1459.54	72.369
1463.09	79.727
1466.64	110.844
1470.19	110.814
1473.74	77.055
1477.28	114.523
1480.83	94.173
1484.37	69.976
1487.91	87.953
1491.45	31.26
1494.98	81.063
1498.52	68.925
1502.05	26.167
1505.59	0.398
1509.12	28.965
1512.65	27.388
1516.17	42.23
