Measurement: Raman, 514 nm, depolarized, Raman Data Processed
Mineral: Aegirine
Rruff sample: R040054
Ideal chemistry: NaFe^3+^Si_2_O_6_
Locality: Mont Saint-Hilaire, Rouville County, Quebec, Canada
Source: Bob Downs
Description: Black cleavage fragments
Measured chemistry: (Na_0.96_Ca_0.04_)(Fe_0.86_Ti_0.07_Mn_0.06_Mg_0.02_)(Si_0.97_Al_0.03_)_2_O_6_
Pin_id: M00470
Orientation: Laser parallel to -c [0 0 -1]. Fiducial mark perpendicular to laser is parallel to -b* (0 -1 0)
Raman shift (cm-1)	intensity
124.675	0
128.84	129.031
133.003	995.053
137.164	1429.7
141.323	685.836
145.48	1.53
149.635	354.916
153.788	164.326
157.939	535.233
162.088	920.618
166.235	864.051
170.38	597.299
174.523	910.917
178.664	3143.21
182.803	4074.27
186.94	1950.8
191.076	1778.4
195.209	2044.12
199.34	2271.01
203.47	2871.72
207.597	4743.43
211.722	8233.86
215.846	9707.97
219.967	5714.27
224.087	2501.81
228.204	1108.95
232.32	368.995
236.434	27.534
240.545	114.074
244.655	179.752
248.763	218.591
252.869	117.315
256.973	46.432
261.075	520.362
265.175	1043.35
269.273	1025.29
273.369	1148.48
277.463	1471.62
281.556	1512.97
285.646	1500.03
289.734	2103.61
293.821	3128.36
297.905	3476.27
301.988	3086.27
306.069	3150.87
310.147	3738.81
314.224	3724.59
318.299	3065.97
322.372	2448.27
326.443	2555.41
330.512	3701.8
334.579	5967.77
338.645	9950.16
342.708	13873.8
346.769	15822
350.829	13862.8
354.887	9053.51
358.942	6284.83
362.996	5685.5
367.048	6415.43
371.098	6394.78
375.146	6473.63
379.192	8091.93
383.236	11539.6
387.279	14946.7
391.319	13807
395.358	9148.84
399.394	5020.24
403.429	2909.15
407.462	1820.51
411.493	1153.32
415.522	742.6
419.549	445.706
423.575	320.557
427.598	98.501
431.619	66.604
435.639	0.77
439.657	60.364
443.673	25.043
447.687	48.975
451.699	252.81
455.709	459.909
459.717	624.246
463.724	933.323
467.728	1032.42
471.731	709.438
475.732	649.721
479.731	521.488
483.728	588.38
487.723	765.195
491.716	990.497
495.708	1978.21
499.697	2782.55
503.685	2107.37
507.671	1721.67
511.655	1492.46
515.637	1563.84
519.617	1815.85
523.596	2361.48
527.572	3483.74
531.547	5220.63
535.52	8277.15
539.491	14703.3
543.46	20909.1
547.427	19924.8
551.393	15440.8
555.356	12917.2
559.318	12353.9
563.278	11361.3
567.236	9189.45
571.192	7268.51
575.147	5786.86
579.099	4622.16
583.05	3875.01
586.999	3229.86
590.946	2602.38
594.891	1859.18
598.834	1218.91
602.776	805.483
606.715	433.59
610.653	213.386
614.589	28.113
618.523	42.844
622.456	51.056
626.386	15.259
630.315	47.438
634.242	53.057
638.167	96.485
642.09	113.147
646.012	317.005
649.931	495.465
653.849	521.945
657.765	632.057
661.679	780.516
665.592	869.08
669.502	1411.3
673.411	2597.2
677.318	3815.76
681.223	3453
685.126	1975.91
689.028	1043.51
692.927	785.803
696.825	409.785
700.721	296.464
704.616	261.84
708.508	198.934
712.399	173.652
716.288	158.07
720.175	106.152
724.06	156.891
727.944	121.282
731.825	68.313
735.705	120.028
739.584	65.472
743.46	60.684
747.334	164.694
751.207	255.546
755.078	408.278
758.947	819.887
762.815	412.372
766.68	67.324
770.544	15.992
774.406	143.425
778.267	97.736
782.125	114.062
785.982	181.527
789.837	60.92
793.69	208.589
797.542	177.247
801.391	117.731
805.239	127.46
809.085	48.991
812.93	58.002
816.772	272.583
820.613	114.999
824.452	251.322
828.29	414.565
832.125	659.737
835.959	893.851
839.791	1240.92
843.621	1710.94
847.45	2124.95
851.277	2711.94
855.102	3157.81
858.925	3595.47
862.746	4358.29
866.566	4970.9
870.384	5143.41
874.2	4355.82
878.015	3568.81
881.828	3249.61
885.639	2543.34
889.448	2169.91
893.256	2085.43
897.061	2113.76
900.865	2047.68
904.668	2081.98
908.468	2316.84
912.267	2385.2
916.064	2692.51
919.86	2892.63
923.653	3216.39
927.445	3675.29
931.236	4202.09
935.024	4762.93
938.811	5740.4
942.596	7148.88
946.379	9654.65
950.161	13258.5
953.94	16330
957.719	17145.4
961.495	19930.9
965.27	23795.8
969.043	31281.5
972.814	39384.4
976.583	33477.7
980.351	22081.4
984.117	15425.5
987.882	12190.1
991.644	9395.16
995.405	7180.64
999.165	5696.56
1002.92	4602.91
1006.68	3759.7
1010.43	3276.94
1014.18	3004.62
1017.93	2773.87
1021.68	2807.18
1025.43	3004.26
1029.18	3678.5
1032.92	4742.22
1036.66	7114.17
1040.4	11271.2
1044.14	16156.6
1047.88	12973.7
1051.62	7664.19
1055.35	5346.83
1059.08	4085.87
1062.81	3526.87
1066.54	2927.37
1070.27	2581.9
1073.99	2479.47
1077.72	2418.05
1081.44	2358.4
1085.16	2324.37
1088.88	2301.4
1092.59	2189.96
1096.31	2172.13
1100.02	2260.74
1103.73	2399.33
1107.44	2388
1111.15	2474.39
1114.86	2575.95
1118.57	2718.2
1122.27	3138.16
1125.97	3321.22
1129.67	3244.48
1133.37	3246.7
1137.07	3329.79
1140.76	2935.7
1144.45	2167.84
1148.15	1415.85
1151.84	775.011
1155.53	355.076
1159.21	123.918
1162.9	53.281
1166.58	48.66
1170.26	35.673
1173.94	22.953
1177.62	86.899
1181.3	152.21
1184.97	141.587
1188.65	112.478
1192.32	69.095
1195.99	23.017
1199.66	36.978
1203.33	49.3
1206.99	50.271
1210.65	26.499
1214.32	14.611
1217.98	30.975
1221.64	42.978
1225.29	92.196
1228.95	17.88
1232.6	63.887
1236.26	124.998
1239.91	49.709
1243.56	138.393
1247.2	71.745
1250.85	122.685
1254.49	99.334
1258.13	120.653
1261.78	172.662
1265.41	182.392
1269.05	98.946
1272.69	135.043
1276.32	144.647
1279.95	105.918
1283.59	135.885
1287.21	110.371
1290.84	210.302
1294.47	171.758
1298.09	108.714
1301.72	227.264
1305.34	187.374
1308.96	130.146
1312.58	160.097
1316.19	147.715
1319.81	110.553
1323.42	90.816
1327.03	183.459
1330.64	103.623
1334.25	11.891
1337.86	13.82
1341.46	4.957
1345.07	78.354
1348.67	3.624
1352.27	124.167
1355.87	140.871
1359.46	47.05
1363.06	47.688
1366.65	75.346
1370.25	135.251
1373.84	40.324
1377.43	85.904
1381.02	112.526
1384.6	94.259
1388.18	78.031
1391.77	118.429
1395.35	151.107
1398.93	124.16
1402.51	147.408
1406.08	119.218
1409.66	82.121
1413.23	82.339
1416.8	119.447
1420.37	96.437
1423.94	176.674
1427.51	130.028
1431.08	202.571
1434.64	169.312
1438.2	135.646
1441.76	45.615
1445.32	80.357
1448.88	40.837
1452.43	91.825
1455.99	34.538
1459.54	86.022
1463.09	52.689
1466.64	153.285
1470.19	166.504
1473.74	164.362
1477.28	167.628
1480.83	113.414
1484.37	118.639
1487.91	71.998
1491.45	1.091
1494.98	53.948
1498.52	39.315
1502.05	53.708
1505.59	37.425
1509.12	95.478
1512.65	145.814
1516.17	60.241
1519.7	97.841
1523.23	93.963
1526.75	58.158
1530.27	0.078
