Measurement: Raman, 514 nm, depolarized, Raman Data Processed
Mineral: Aegirine
Rruff sample: R050074
Ideal chemistry: NaFe^3+^Si_2_O_6_
Locality: Mt. Malosa, Zomba, Chilwa, Alkaline Area, Malawi
Source: Rock Currier
Description: Black prismatic single crystal
Measured chemistry: (Na_0.98_Ca_0.02_)_Σ=1_(Fe^3+^_0.96_Ti_0.01_Mn_0.03_)_Σ=1_Si_2.00_O_6_
Pin_id: L00512
Orientation: Laser parallel to -b* (0 -1 0). Fiducial mark perpendicular to laser is parallel to c [0 0 1]
Raman shift (cm-1)	intensity
102.712	0
106.902	149.029
111.09	217.936
115.277	440.248
119.461	338.331
123.643	276.016
127.823	354.312
132.001	727.058
136.176	595.571
140.35	482.25
144.521	277.548
148.691	178.013
152.858	43.389
157.024	67.425
161.187	17.722
165.348	119.751
169.507	472.875
173.664	1326.03
177.819	1905.71
181.971	1410.07
186.122	1477.5
190.271	1945.38
194.417	1902.96
198.562	1322.47
202.704	872.567
206.844	719.997
210.983	581.984
215.119	384.711
219.253	228.829
223.385	111.994
227.515	45.675
231.643	54.209
235.769	59.594
239.893	38.93
244.014	53.377
248.134	24.271
252.252	0.805
256.367	35.722
260.481	115.04
264.592	149.981
268.702	336.874
272.809	513.295
276.915	602.029
281.018	626.538
285.119	539.976
289.218	490.69
293.316	543.306
297.411	608.512
301.504	715.842
305.595	720.473
309.684	814.692
313.771	938.476
317.856	1073.52
321.939	1365.69
326.02	1878.5
330.099	2860.28
334.176	3665.29
338.251	3617.96
342.323	2775.95
346.394	2170.64
350.463	1952.48
354.53	2080.74
358.594	2485.5
362.657	2944.72
366.718	2877.96
370.777	2677.21
374.833	2850.14
378.888	3683.8
382.941	4421.98
386.992	4453.01
391.04	3506.16
395.087	2175.07
399.132	1391.03
403.174	904.25
407.215	705.35
411.254	473.232
415.29	401.779
419.325	263.579
423.358	196.301
427.389	154.792
431.417	129.954
435.444	129.51
439.469	109.832
443.492	87.957
447.512	120.255
451.531	136.741
455.548	139.898
459.563	111.719
463.576	158.623
467.587	125.993
471.596	123.912
475.603	127.214
479.608	152.514
483.611	232.144
487.612	345.857
491.611	613.756
495.608	878.706
499.603	758.515
503.596	521.127
507.587	387.643
511.577	416.927
515.564	430.021
519.549	535.931
523.533	720.662
527.514	1025.22
531.493	1693.64
535.471	2937.93
539.447	4552.17
543.42	5295.42
547.392	4706.03
551.362	3693.64
555.329	2701.45
559.295	2096.83
563.259	1769.32
567.221	1456.92
571.181	1221.28
575.139	985.035
579.095	829.315
583.049	626.097
587.002	583.12
590.952	391.768
594.9	187.747
598.847	99.927
602.792	45.916
606.734	5.354
610.675	19.991
614.614	3.715
618.55	13.415
622.485	5.92
626.418	26.309
630.349	21.402
634.279	31.287
638.206	51.568
642.131	57.83
646.055	104.727
649.976	129.045
653.896	153.397
657.814	221.49
661.729	342.633
665.643	566.89
669.555	960.369
673.465	1392.75
677.373	1413.04
681.28	912.246
685.184	465.37
689.087	235.411
692.987	146.371
696.886	104.25
700.783	120.047
704.677	75.754
708.57	31.366
712.462	16.881
716.351	26.292
720.238	23.594
724.124	59.785
728.007	27.873
731.889	11.85
735.769	21.708
739.647	15.439
743.523	31.09
747.397	0.351
751.269	22.113
755.139	3.484
759.008	4.678
762.875	19.466
766.739	5.669
770.602	20.056
774.463	17.599
778.323	24.052
782.18	11.838
786.035	4.88
789.889	68.577
793.741	42.761
797.591	10.693
801.439	11.47
805.285	8.66
809.129	51.287
812.971	7.511
816.812	14.839
820.651	66.698
824.488	45.167
828.323	106.575
832.156	96.924
835.987	134.217
839.817	196.456
843.644	189.642
847.47	266.778
851.294	270.828
855.116	363.76
858.936	413.211
862.755	479.572
866.571	548.981
870.386	532.132
874.199	532.332
878.01	527.768
881.82	561.316
885.627	571.475
889.433	576.734
893.236	593.947
897.038	600.391
900.838	645.288
904.637	683.562
908.433	738.707
912.228	816.461
916.021	782.542
919.812	875.873
923.601	932.001
927.388	1126.66
931.174	1260.54
934.958	1506.49
938.739	1878.84
942.52	2383.31
946.298	3159.33
950.074	3984.47
953.849	4092.96
957.622	3735.04
961.393	3306.84
965.162	2958.38
968.93	2348.47
972.696	1865.84
976.459	1604.62
980.222	1327.48
983.982	1114.41
987.74	981.394
991.497	764.439
995.252	674.543
999.005	664.717
1002.76	614.967
1006.51	565.282
1010.25	631.668
1014	543.124
1017.74	521.881
1021.49	568.178
1025.23	626.123
1028.96	607.306
1032.7	658.253
1036.44	687.328
1040.17	729.976
1043.9	662.543
1047.63	626.698
1051.36	584.216
1055.09	598.829
1058.81	559.258
1062.54	489.299
1066.26	463.919
1069.97	501.01
1073.69	516.052
1077.41	503.047
1081.12	473.29
1084.84	466.277
1088.55	492.609
1092.25	451.123
1095.96	462.642
1099.67	529.257
1103.37	536.978
1107.07	566.791
1110.77	566.663
1114.47	625.767
1118.16	643.735
1121.86	673.762
1125.55	734.663
1129.24	794.391
1132.93	816.565
1136.62	721.951
1140.31	605.067
1143.99	411.33
1147.67	223.24
1151.35	82.551
1155.03	96.033
1158.71	62.178
1162.39	1.054
1166.06	0.474
1169.73	1.772
1173.4	19.065
1177.07	7.921
1180.74	20.241
1184.4	17.903
1188.07	40.274
1191.73	44.788
1195.39	14.893
1199.05	23.611
1202.7	11.127
1206.36	43.791
1210.01	3.145
1213.66	0.59
1217.31	10.468
1220.96	57.541
1224.6	0.422
1228.25	11.663
1231.89	18.246
1235.53	31.86
1239.17	45.504
1242.81	48.017
1246.44	60.631
1250.08	25.117
1253.71	42.517
1257.34	25.823
1260.97	60.081
1264.6	51.246
1268.22	4.327
1271.85	59.326
1275.47	68.203
1279.09	69.98
1282.71	104.653
1286.33	87.219
1289.94	46.867
1293.56	38.239
1297.17	39.46
1300.78	61.599
1304.39	45.631
1307.99	4.645
1311.6	3.203
1315.2	67.298
1318.8	115.915
1322.4	28.918
1326	3.689
1329.6	52.604
1333.19	29.85
1336.79	87.239
1340.38	60.201
1343.97	62.576
1347.56	57.248
1351.14	30.926
1354.73	86.175
1358.31	57.724
1361.89	83.415
1365.47	11.15
1369.05	45.71
1372.63	37.621
1376.2	43.939
1379.78	34.235
1383.35	108.648
1386.92	75.952
1390.49	89.13
1394.05	55.257
1397.62	61.775
1401.18	43.356
1404.74	73.727
1408.3	73.758
1411.86	66.554
1415.42	76.552
1418.97	72.979
1422.53	121.344
1426.08	118.844
1429.63	55.758
1433.18	71.278
1436.72	47.522
1440.27	84.008
1443.81	77.65
1447.36	37.191
1450.89	96.245
1454.43	61.583
1457.97	102.292
1461.51	60.122
1465.04	97.951
1468.57	103.711
1472.1	56.657
1475.63	43.844
1479.16	31.564
1482.68	44.247
1486.21	17.856
1489.73	26.157
1493.25	35.393
1496.77	28.005
1500.29	73.108
1503.8	49.405
1507.32	26.88
1510.83	47.012
1514.34	21.423
1517.85	40.354
