Measurement: Raman, 514 nm, depolarized, Raman Data Processed
Mineral: Aegirine
Rruff sample: R040054
Ideal chemistry: NaFe^3+^Si_2_O_6_
Locality: Mont Saint-Hilaire, Rouville County, Quebec, Canada
Source: Bob Downs
Description: Black cleavage fragments
Measured chemistry: (Na_0.96_Ca_0.04_)(Fe_0.86_Ti_0.07_Mn_0.06_Mg_0.02_)(Si_0.97_Al_0.03_)_2_O_6_
Pin_id: L00062
Orientation: Laser parallel to -b* (0 -1 0). Fiducial mark perpendicular to laser is parallel to c [0 0 1]
Raman shift (cm-1)	intensity
120.508	0
124.675	3.818
128.84	246.812
133.003	870.755
137.164	803.536
141.323	400.572
145.48	241.251
149.635	92.382
153.788	74.308
157.939	3.321
162.088	32.956
166.235	131.29
170.38	443.907
174.523	1824.02
178.664	4137.33
182.803	3921.48
186.94	4278.19
191.076	6490.39
195.209	5224.73
199.34	2615.79
203.47	1586.02
207.597	1499.88
211.722	1653.57
215.846	1374.41
219.967	796.611
224.087	277.464
228.204	138.646
232.32	26.474
236.434	1.016
240.545	40.207
244.655	36.062
248.763	26.541
252.869	7.39
256.973	66.506
261.075	275.03
265.175	359.299
269.273	710.607
273.369	1142.67
277.463	1356.15
281.556	1177.27
285.646	863.292
289.734	729.902
293.821	733.899
297.905	836.459
301.988	1092.92
306.069	1260.85
310.147	1223.39
314.224	1334.21
318.299	1519.18
322.372	1883
326.443	2593.58
330.512	3975.47
334.579	6569.5
338.645	9428.16
342.708	9064.66
346.769	6658.37
350.829	4810.91
354.887	4093.09
358.942	4455.74
362.996	5671.17
367.048	6798.45
371.098	6387.54
375.146	6036.42
379.192	7235.06
383.236	9763.15
387.279	11135.3
391.319	9142.52
395.358	5823.22
399.394	3250.3
403.429	1991.36
407.462	1266.29
411.493	850.153
415.522	496.165
419.549	279.833
423.575	177.465
427.598	32.375
431.619	37.625
435.639	30.538
439.657	5.24
443.673	22.267
447.687	40.988
451.699	110.702
455.709	137.474
459.717	190.377
463.724	200.984
467.728	168.078
471.731	117.302
475.732	130.933
479.731	274.229
483.728	466.125
487.723	775.306
491.716	1450.77
495.708	2635.15
499.697	2816.32
503.685	1759.27
507.671	1339.02
511.655	1130.57
515.637	1044.97
519.617	1086.2
523.596	1402.27
527.572	2092.17
531.547	3532.92
535.52	6334.5
539.491	11274.9
543.46	14035.2
547.427	11965.6
551.393	8755.98
555.356	6626.95
559.318	5315.85
563.278	4532.78
567.236	3888.75
571.192	3367.16
575.147	2919.81
579.099	2598.52
583.05	2264.18
586.999	2058.77
590.946	1733.75
594.891	1240.16
598.834	837.259
602.776	482.254
606.715	293.576
610.653	92.914
614.589	57.239
618.523	17.207
622.456	21.094
626.386	13.034
630.315	51.446
634.242	38.66
638.167	93.987
642.09	124.453
646.012	272.354
649.931	675.643
653.849	1285.84
657.765	1021.35
661.679	663.509
665.592	926.427
669.502	1461.14
673.411	2528.64
677.318	3221.93
681.223	2393.02
685.126	1282.91
689.028	711.587
692.927	429.066
696.825	278.343
700.721	178.42
704.616	166.296
708.508	142.965
712.399	117.419
716.288	36.654
720.175	59.654
724.06	143.418
727.944	172.958
731.825	94.276
735.705	117.362
739.584	85.239
743.46	90.921
747.334	61.417
751.207	59.741
755.078	9.882
758.947	21.217
762.815	9.36
766.68	19.604
770.544	32.441
774.406	37.674
778.267	52.186
782.125	38.478
785.982	59.752
789.837	53.705
793.69	66.957
797.542	59.466
801.391	76.517
805.239	26.634
809.085	19.948
812.93	26.356
816.772	46.617
820.613	111.761
824.452	207.804
828.29	496.751
832.125	382.609
835.959	529.382
839.791	556.076
843.621	698.697
847.45	807
851.277	937.743
855.102	1265.14
858.925	1228.27
862.746	1298.19
866.566	1336.57
870.384	1360.96
874.2	1237.98
878.015	1122.45
881.828	1149.43
885.639	1164.97
889.448	1172.5
893.256	1181.05
897.061	1312.35
900.865	1376.96
904.668	1425.72
908.468	1658.04
912.267	1690.81
916.064	1893.5
919.86	2111.78
923.653	2400.06
927.445	2785.06
931.236	3280.69
935.024	3970.02
938.811	4947.28
942.596	6548.44
946.379	9060.45
950.161	12166.2
953.94	12171
957.719	10030.5
961.495	8905.6
965.27	7092.65
969.043	5462.06
972.814	4346.56
976.583	3525.24
980.351	2998.1
984.117	2567.14
987.882	2293.36
991.644	2065.75
995.405	1790.31
999.165	1645.08
1002.92	1531.03
1006.68	1536.17
1010.43	1460.48
1014.18	1356.99
1017.93	1258.37
1021.68	1158.59
1025.43	1039.94
1029.18	1161.12
1032.92	1210.07
1036.66	1287.38
1040.4	1482.31
1044.14	1424.62
1047.88	1440.41
1051.62	1376.48
1055.35	1445.65
1059.08	1455.62
1062.81	1397.19
1066.54	1373.31
1070.27	1329.8
1073.99	1379.95
1077.72	1377.49
1081.44	1477.16
1085.16	1419.01
1088.88	1362.88
1092.59	1294.87
1096.31	1308.11
1100.02	1313.26
1103.73	1294.29
1107.44	1418.56
1111.15	1391.75
1114.86	1466.38
1118.57	1579.87
1122.27	1854.72
1125.97	1796.03
1129.67	1778.24
1133.37	1844.49
1137.07	1760.53
1140.76	1550.19
1144.45	1231.24
1148.15	763.544
1151.84	422.49
1155.53	260.539
1159.21	142.42
1162.9	98.644
1166.58	22.431
1170.26	12.736
1173.94	0.981
1177.62	47.12
1181.3	42.82
1184.97	43.961
1188.65	41.324
1192.32	1.752
1195.99	26.781
1199.66	11.322
1203.33	78.835
1206.99	68.837
1210.65	61.523
1214.32	6.036
1217.98	3.763
1221.64	7.384
1225.29	16.395
1228.95	0.292
1232.6	30.111
1236.26	4.893
1239.91	9.281
1243.56	15.896
1247.2	49.204
1250.85	43.619
1254.49	66
1258.13	43.737
1261.78	83.263
1265.41	61.616
1269.05	5.798
1272.69	36.908
1276.32	52.739
1279.95	50.393
1283.59	101.837
1287.21	75.082
1290.84	37.12
1294.47	74.646
1298.09	84.268
1301.72	94.726
1305.34	71.023
1308.96	125.151
1312.58	155.11
1316.19	149.636
1319.81	90.173
1323.42	111.738
1327.03	62.696
1330.64	77.898
1334.25	61.722
1337.86	73.219
1341.46	55.742
1345.07	71.241
1348.67	119.55
1352.27	37.933
1355.87	72.645
1359.46	65.961
1363.06	69.716
1366.65	88.394
1370.25	69.438
1373.84	77.393
1377.43	50.192
1381.02	53.649
1384.6	43.248
1388.18	21.182
1391.77	81.616
1395.35	79.351
1398.93	43.205
1402.51	64.978
1406.08	98.466
1409.66	49.208
1413.23	78.672
1416.8	48.663
1420.37	63.781
1423.94	44.174
1427.51	65.258
1431.08	159.103
1434.64	152.316
1438.2	104.874
1441.76	73.652
1445.32	78.142
1448.88	61.479
1452.43	77.29
1455.99	72.474
1459.54	57.32
1463.09	52.049
1466.64	51.826
1470.19	57.248
1473.74	77.965
1477.28	24.035
1480.83	41.083
1484.37	36.484
1487.91	18.849
1491.45	24.341
1494.98	2.948
1498.52	13.778
1502.05	3.004
1505.59	11.712
1509.12	9.935
1512.65	35.085
1516.17	1.623
1519.7	41.249
