Measurement: Raman, 514 nm, depolarized, Raman Data Processed
Mineral: Aegirine
Rruff sample: R050074
Ideal chemistry: NaFe^3+^Si_2_O_6_
Locality: Mt. Malosa, Zomba, Chilwa, Alkaline Area, Malawi
Source: Rock Currier
Description: Black prismatic single crystal
Measured chemistry: (Na_0.98_Ca_0.02_)_Σ=1_(Fe^3+^_0.96_Ti_0.01_Mn_0.03_)_Σ=1_Si_2.00_O_6_
Pin_id: L00202
Orientation: Laser parallel to (1 0 1). Fiducial mark perpendicular to laser is parallel to -b [0 -1 0]
Raman shift (cm-1)	intensity
99.917	0
104.109	30.571
108.298	224.113
112.486	233.333
116.672	508.515
120.855	203.341
125.036	500.279
129.216	692.69
133.393	1217.23
137.568	1149.71
141.741	512.936
145.911	213.771
150.08	47.014
154.247	85.839
158.411	316.665
162.574	432.929
166.734	203.758
170.893	315.737
175.049	874.763
179.203	1257.14
183.355	1104.66
187.505	1634.6
191.653	2496.32
195.799	2336.29
199.943	1816.12
204.084	1842.12
208.224	2779.43
212.362	3543.12
216.497	2317.7
220.631	1024.7
224.762	260.503
228.891	30.283
233.018	70.932
237.144	139.107
241.267	49.211
245.388	10.289
249.507	55.844
253.624	56.094
257.739	2.118
261.852	88.798
265.962	99.096
270.071	196.235
274.178	273.999
278.283	604.555
282.385	1045.68
286.486	1480.22
290.584	2007.32
294.681	2008.17
298.775	1655.55
302.868	1301.64
306.958	1361.19
311.047	1341.55
315.133	1361.43
319.217	1524.53
323.299	1917.42
327.38	2773.29
331.458	4343.31
335.534	6251.87
339.608	7285.62
343.681	7443.87
347.751	6830.81
351.819	5270.2
355.885	3893
359.949	3318.4
364.011	3621.3
368.071	3754.72
372.129	3832.68
376.185	4326.17
380.239	5608.23
384.291	7130.45
388.341	6964
392.389	5348.11
396.435	3304.3
400.479	1914.79
404.521	1217.17
408.561	891.493
412.599	645.976
416.636	459.39
420.67	313.317
424.702	157.514
428.732	90.632
432.76	30.177
436.786	0.243
440.81	3.998
444.832	47.357
448.852	101.965
452.87	137.447
456.887	223.043
460.901	292.788
464.913	284.149
468.923	234.646
472.931	243.442
476.938	285.839
480.942	288.833
484.944	449.519
488.945	777.152
492.943	1549.32
496.94	2325.15
500.934	2047.84
504.927	1318.25
508.917	1003.38
512.906	930.256
516.892	963.862
520.877	1231.21
524.86	1688.3
528.841	2602.13
532.82	4077.71
536.796	7120.04
540.771	11438.3
544.744	13536.4
548.715	11454.8
552.684	9083.21
556.652	8172.19
560.617	8031.34
564.58	6932.59
568.541	5236.63
572.501	3924.61
576.458	3022
580.414	2260
584.367	1749.65
588.319	1337.85
592.268	956.922
596.216	628.21
600.162	393.951
604.106	199.047
608.048	137.039
611.988	87.547
615.926	62.844
619.862	6.682
623.797	23.587
627.729	34.86
631.659	12.698
635.588	54.16
639.515	78.812
643.439	136.117
647.362	218.452
651.283	233.581
655.202	303.967
659.119	396.058
663.034	484.944
666.947	789.627
670.859	1270.11
674.768	1896.4
678.676	1849.49
682.581	1244.39
686.485	647.096
690.387	332.618
694.287	209.956
698.185	147.11
702.081	81.078
705.975	102.843
709.868	48.437
713.758	42.815
717.647	37.988
721.533	38.917
725.418	10.392
729.301	29.029
733.182	29.224
737.061	15.226
740.939	23.023
744.814	5.474
748.688	13.206
752.559	23.939
756.429	6.938
760.297	2.778
764.163	69.744
768.027	58.261
771.89	18.658
775.75	74.184
779.609	52.444
783.465	0.497
787.32	70.076
791.173	59.611
795.024	42.267
798.873	29.978
802.721	35.141
806.566	26.404
810.41	25.987
814.252	53.438
818.092	89.812
821.93	176.113
825.766	249.349
829.601	368.524
833.433	538.644
837.264	694.715
841.093	1020.74
844.92	1397.73
848.745	1867.69
852.568	2337.4
856.39	3112.75
860.209	3913.05
864.027	4857.97
867.843	5134.67
871.657	4616.54
875.47	3758.72
879.28	2958.14
883.089	2390.39
886.896	2074.94
890.701	1793.63
894.504	1701.03
898.305	1501.53
902.105	1465.24
905.902	1409.34
909.698	1497.04
913.492	1502.38
917.285	1539.02
921.075	1706.45
924.864	1935.49
928.65	2109.52
932.435	2506.95
936.218	2845.57
940	3575.75
943.779	4828.24
947.557	6603.36
951.333	8158.57
955.107	8556.95
958.879	8670.87
962.65	9576.33
966.418	11455
970.185	14044
973.95	12793.1
977.714	8962.37
981.475	6503.85
985.235	4974.52
988.993	3928.38
992.749	3046.44
996.503	2499.69
1000.26	2007.13
1004.01	1760.77
1007.75	1539.59
1011.5	1496.62
1015.25	1557.09
1018.99	1688.73
1022.73	1963.55
1026.47	2285.58
1030.21	3032.11
1033.95	4293.35
1037.68	6393.8
1041.41	8574.52
1045.15	7251.85
1048.88	4445.76
1052.6	2957.57
1056.33	2060.76
1060.05	1582.26
1063.78	1287.15
1067.5	1033.34
1071.21	986.896
1074.93	922.742
1078.65	809.272
1082.36	820.168
1086.07	737.013
1089.78	707.969
1093.49	694.821
1097.2	759.296
1100.9	786.992
1104.6	797.092
1108.3	830.024
1112	901.854
1115.7	925.529
1119.4	1022.28
1123.09	1090.88
1126.78	1235.85
1130.47	1262.94
1134.16	1232.38
1137.85	1086.48
1141.54	773.872
1145.22	487.18
1148.9	332.311
1152.58	152.445
1156.26	58.639
1159.94	4.235
1163.61	41.984
1167.28	40.037
1170.95	44.758
1174.62	47.043
1178.29	90.249
1181.96	9.403
1185.62	37.073
1189.29	35.472
1192.95	35.528
1196.61	46.903
1200.26	9.404
1203.92	37.389
1207.57	30.824
1211.23	33.363
1214.88	6.528
1218.53	62.039
1222.17	31.869
1225.82	13.826
1229.46	28.716
1233.11	39.239
1236.74	57.492
1240.38	51.667
1244.02	91.661
1247.66	66.391
1251.29	92.878
1254.92	89.23
1258.55	34.407
1262.18	32.591
1265.81	42.492
1269.43	106.137
1273.06	128.658
1276.68	95.014
1280.3	73.057
1283.91	120.859
1287.53	87.471
1291.15	132.867
1294.76	124.07
1298.37	135.85
1301.98	106.936
1305.59	110.419
1309.19	91.05
1312.8	74.965
1316.4	116.344
1320	89.686
1323.6	23.963
1327.2	15.677
1330.8	25.714
1334.39	66.676
1337.98	40.507
1341.58	51.103
1345.16	86.411
1348.75	60.254
1352.34	26.615
1355.92	95.688
1359.51	27.001
1363.09	18.246
1366.67	52.478
1370.24	84.191
1373.82	30.273
1377.39	83.192
1380.97	54.049
1384.54	36.026
1388.11	46.605
1391.68	59.901
1395.24	51.739
1398.81	57.94
1402.37	37.314
1405.93	33.291
1409.49	74.473
1413.05	60.765
1416.6	27.465
1420.16	56.946
1423.71	118.615
1427.26	77.393
1430.81	39.83
1434.36	101.178
1437.91	68.827
1441.45	0.504
1444.99	50.031
1448.54	43.264
1452.08	92.726
1455.61	52.427
1459.15	43.205
1462.68	76.13
1466.22	50.457
1469.75	66.295
1473.28	55.636
1476.81	25.409
1480.33	36.873
1483.86	9.005
1487.38	21.344
1490.9	40.777
1494.42	77.504
1497.94	72.614
1501.46	23.185
1504.97	12.286
1508.49	71.13
1512	46.598
1515.51	0.031
