Measurement: Raman, 514 nm, depolarized, Raman Data Processed
Mineral: Aenigmatite
Rruff sample: R061088
Ideal chemistry: Na_4_(Fe^2+^_10_Ti^4+^_2_)O_4_[Si_12_O_36_]
Locality: Naujakasik, Greenland
Source: Michael Scott
Description: Black prismatic crystals
Measured chemistry: (Na_1.72_Ca_0.28_)_Σ=2_(Fe^2+^_4.90_Mn_0.08_Mg_0.02_)_Σ=5_(Ti_0.85_Al_0.14_Fe^3+^_0.01_)_Σ=1_(Si_5.87_Al_0.13_)_Σ=6_O_20_
Pin_id: L01545
Orientation: Laser parallel to (1 1 0). Fiducial mark perpendicular to laser is parallel to c [0 0 1]
Raman shift (cm-1)	intensity
140.295	0
145.232	96.6152
150.165	341.547
155.096	621.131
160.024	697.433
164.949	1135.82
169.872	1000.73
174.791	343.394
179.708	117.711
184.622	19.1475
189.533	61.625
194.441	415.257
199.347	444.856
204.249	251.41
209.149	21.8506
214.046	94.8945
218.94	191.222
223.832	166.625
228.72	45.752
233.606	13.5234
238.489	79.3584
243.369	85.1728
248.247	208.866
253.121	203.161
257.993	419.071
262.862	318.132
267.728	108.826
272.592	150.588
277.452	98.0156
282.31	263.261
287.165	177.1
292.017	471.386
296.867	444.696
301.714	870.858
306.558	964.946
311.399	1123.2
316.237	896.622
321.073	585.352
325.906	332.448
330.736	162.023
335.563	111.776
340.387	1.58398
345.209	159.489
350.028	89.9912
354.844	164.676
359.658	505.373
364.469	648.35
369.277	367.735
374.082	342.103
378.884	210.939
383.684	120.602
388.481	3.19922
393.275	7.59863
398.066	106.262
402.855	123.459
407.641	58.2266
412.424	42.6445
417.205	72.6885
421.983	252.458
426.758	553.692
431.53	560.582
436.299	678.726
441.066	769.769
445.83	596.633
450.591	393.43
455.35	273.163
460.106	209.856
464.859	24.5244
469.609	48.123
474.357	12.8125
479.102	153.467
483.844	255.099
488.584	162.909
493.321	387.522
498.055	258.364
502.786	330.975
507.515	486.896
512.241	392.147
516.964	694.724
521.685	785.606
526.402	993.718
531.118	1145.88
535.83	1339.87
540.54	1304.59
545.247	1232.77
549.951	1054.55
554.653	1220.57
559.352	1166.7
564.048	1017.38
568.742	1043.29
573.432	750.417
578.121	484.764
582.806	164.327
587.489	173.328
592.169	184.114
596.847	347.344
601.521	539.581
606.193	770.484
610.863	1113.03
615.53	1402.48
620.194	1628.06
624.855	2101.68
629.514	2668.14
634.17	3679.97
638.823	5393.88
643.474	7431.91
648.122	9238.13
652.767	10315.7
657.41	10158.9
662.05	9687.42
666.688	8883
671.322	7940.87
675.954	7108.7
680.584	6355.69
685.211	6167.99
689.835	5982.61
694.456	5271.11
699.075	4376.47
703.691	3203.56
708.305	2396.73
712.916	1582.97
717.524	1116.29
722.13	844.672
726.733	690.12
731.333	505.627
735.931	356.192
740.526	302.812
745.118	226.487
749.708	14.7598
754.295	1.18164
758.88	27.7188
763.462	137.55
768.041	11.2441
772.618	31.2363
777.192	26.5234
781.763	5.72754
786.332	72.2988
790.898	30.2188
795.462	36.5283
800.023	27.8594
804.581	128.224
809.137	108.611
813.69	331.026
818.24	295.512
822.788	435.031
827.334	374.579
831.876	434.175
836.416	505.854
840.954	824.785
845.489	842.435
850.021	1055.03
854.551	963.203
859.078	1226.41
863.602	1330.65
868.124	1635.97
872.644	1905.38
877.16	2167.93
881.675	2491.57
886.186	2667
890.695	2915.53
895.202	2794.95
899.705	2399.62
904.207	1976.37
908.705	1510.27
913.201	1251.18
917.695	1165.76
922.186	935.143
926.674	782.685
931.16	704.079
935.643	688.861
940.124	535.039
944.602	705.589
949.077	639.575
953.55	763.6
958.021	622.779
962.489	693.345
966.954	751.392
971.417	677.05
975.877	686.426
980.334	728.351
984.789	672.409
989.242	539.736
993.692	609.062
998.139	585.784
1002.58	360.981
1007.03	375.523
1011.47	503.363
1015.9	354.611
1020.34	474.948
1024.77	516.412
1029.2	694.85
1033.63	805.005
1038.05	705.817
1042.47	528.769
1046.89	544.591
1051.31	477.735
1055.72	243.109
1060.14	313.794
1064.55	216.624
1068.95	356.522
1073.36	78.8769
1077.76	93.5234
1082.16	32.6065
1086.55	95.6728
1090.95	162.837
1095.34	17.96
1099.73	53.2227
1104.12	94.6943
1108.5	186.901
1112.88	31.3779
1117.26	1.10547
1121.64	151.438
1126.01	157.013
1130.38	50.5918
1134.75	32.9023
1139.12	44.4541
1143.48	20.6836
1147.84	31.7432
1152.2	56.4316
1156.56	33.9853
1160.91	30.8203
1165.27	54.2402
1169.61	55.2812
1173.96	62.3535
1178.31	69.4199
1182.65	144.941
1186.98	247.666
1191.32	247.812
1195.66	193.986
1199.99	202.224
1204.32	373.534
1208.64	146.984
1212.97	225.427
1217.29	410.961
1221.61	382.496
1225.93	354.168
1230.24	343.558
1234.55	268.839
1238.86	235.826
1243.17	333.057
1247.47	240.149
1251.78	239.359
1256.07	403.487
1260.37	308.266
1264.67	332.406
1268.96	423.607
1273.25	299.319
1277.54	566.618
1281.82	520.339
1286.1	689.679
1290.38	711.444
1294.66	891.081
1298.93	920.503
1303.21	1086.62
1307.48	1202.42
1311.74	1031.83
1316.01	1022.44
1320.27	1099.19
1324.53	1155.28
1328.79	1082.27
1333.05	1130.85
1337.3	1090.38
1341.55	1063.15
1345.8	988.215
1350.04	992.3
1354.29	951.611
1358.53	903.308
1362.76	698.421
1367	718.759
1371.23	567.392
1375.46	550.949
1379.69	561.886
1383.92	460.84
1388.14	357.635
1392.36	491.739
1396.58	320.113
1400.8	232.131
1405.01	187.716
1409.22	197.29
1413.43	111.194
1417.64	143.158
1421.85	134.478
1426.05	19.2861
1430.25	116.766
1434.44	49.3682
1438.64	18.0762
1442.83	100.731
1447.02	29.1689
1451.21	94.4736
1455.39	58.6738
1459.58	6.19141
1463.76	41.9648
1467.94	225.533
1472.11	231.529
1476.28	218.818
1480.45	291.075
1484.62	186.5
1488.79	158.511
1492.95	364.087
1497.11	238.21
1501.27	119.018
1505.43	263.981
1509.58	90.3848
1513.73	75.9746
1517.88	247.64
1522.03	52.8525
1526.18	80.4814
1530.32	67.0147
1534.46	107.797
1538.6	149.435
