Measurement: Raman, 514 nm, ccw, Raman Data Processed
Mineral: Aenigmatite
Rruff sample: R061088
Ideal chemistry: Na_4_(Fe^2+^_10_Ti^4+^_2_)O_4_[Si_12_O_36_]
Locality: Naujakasik, Greenland
Source: Michael Scott
Description: Black prismatic crystals
Measured chemistry: (Na_1.72_Ca_0.28_)_Σ=2_(Fe^2+^_4.90_Mn_0.08_Mg_0.02_)_Σ=5_(Ti_0.85_Al_0.14_Fe^3+^_0.01_)_Σ=1_(Si_5.87_Al_0.13_)_Σ=6_O_20_
Pin_id: L01708
Orientation: Laser parallel to -a* (-1 0 0). Fiducial mark perpendicular to laser is parallel to b [0 1 0]
Raman shift (cm-1)	intensity
143.854	0
148.773	297.289
153.69	265.223
158.604	1083.38
163.515	2215.48
168.424	3317.59
173.33	2895.72
178.234	2040.85
183.135	1274.26
188.034	1217.77
192.93	1645.06
197.823	1819.7
202.714	1617.28
207.602	225.559
212.488	262.516
217.371	12.2148
222.252	178.672
227.13	483.859
232.005	1010.73
236.878	865.203
241.749	661.164
246.616	955.965
251.482	929.125
256.344	286.883
261.204	271.41
266.062	66.1094
270.917	402.383
275.769	146.926
280.619	307.07
285.466	534.266
290.311	877.195
295.153	1246.89
299.992	2506.1
304.829	3817.53
309.663	5411.88
314.495	5932.76
319.324	5096.04
324.151	3572.03
328.975	1733.91
333.796	844.492
338.615	171.606
343.432	122.07
348.245	124.289
353.056	173.312
357.865	1185.98
362.671	2012.86
367.474	2273.55
372.275	1998.54
377.073	1689.7
381.869	1579.27
386.662	1279.96
391.452	890.902
396.24	743.211
401.025	324.988
405.808	38.6797
410.588	43.1445
415.366	187.137
420.141	1050.65
424.913	2087.97
429.683	2791.87
434.45	2886.85
439.214	2986.78
443.976	2737.6
448.736	1880.34
453.493	859.16
458.247	426.238
462.998	101.731
467.747	16.3555
472.494	52.1055
477.238	152.902
481.979	519.269
486.718	173.785
491.454	437.359
496.187	748.152
500.918	536.824
505.646	1060.35
510.372	1280.13
515.095	1716
519.816	2427.34
524.534	2988.09
529.249	3552.05
533.962	3654.69
538.672	4041.22
543.379	3710.64
548.084	3809.2
552.786	3624.05
557.486	3636.8
562.183	4122.9
566.878	3883.43
571.57	3710.28
576.259	3050.28
580.946	1953.99
585.63	595.383
590.311	39.3906
594.99	115.234
599.667	780.695
604.34	1634.88
609.012	2583.57
613.68	3007.79
618.346	3740.18
623.009	4963.21
627.67	7151.21
632.328	11042.7
636.984	16760.2
641.636	25391.8
646.287	33972
650.934	36796
655.579	35294.9
660.222	30980.8
664.862	26323.6
669.499	22792.1
674.134	20961.3
678.766	20619
683.395	20011.5
688.022	19747
692.646	18762.4
697.268	16120.9
701.887	12608.3
706.503	8336.53
711.117	5804.65
715.728	4105.59
720.337	2883.35
724.943	1935.12
729.546	1666.57
734.147	1466.07
738.745	1191.38
743.341	934.941
747.933	562.375
752.524	330.473
757.111	30.5391
761.697	43.7617
766.279	152.211
770.859	166.727
775.436	161.856
780.011	268.547
784.583	170.188
789.152	71.0273
793.719	137.769
798.283	21.3555
802.845	307.195
807.404	203.539
811.96	586.41
816.514	328.832
821.065	813.828
825.613	1136.44
830.159	1330.64
834.703	1731.44
839.243	1896.96
843.781	2334.11
848.317	2441.5
852.849	2678.25
857.38	3753.26
861.907	4212.91
866.432	4581.23
870.954	5615.38
875.474	6493.38
879.991	8038.66
884.506	9501.41
889.018	10637.7
893.527	11095.9
898.034	9980.47
902.538	7918.3
907.039	6491.44
911.538	5219.15
916.034	4365.72
920.528	3626.91
925.018	3141.38
929.507	2789.41
933.992	2667.93
938.476	2800.29
942.956	2447.05
947.434	2311.05
951.909	2771.38
956.382	2839.82
960.852	2501.23
965.319	2811.03
969.784	2568.27
974.246	2304.81
978.705	2167.51
983.162	2223.52
987.616	2099.49
992.068	1942.16
996.517	1894.48
1000.96	1315.84
1005.41	1511.6
1009.85	876.676
1014.29	1094.82
1018.72	1151.64
1023.16	1096.56
1027.59	1412.91
1032.02	1538.61
1036.44	1676.51
1040.86	2044.54
1045.28	1618.68
1049.7	1774.48
1054.12	1471.14
1058.53	1108.09
1062.94	942.977
1067.35	689.516
1071.75	1006.4
1076.15	707.586
1080.55	213.07
1084.95	216.828
1089.34	203.828
1093.73	90.0469
1098.12	297.504
1102.51	375.094
1106.89	85.3242
1111.27	196.562
1115.65	419.606
1120.03	25.8477
1124.4	55.2617
1128.77	77.8516
1133.14	26.3984
1137.5	254.215
1141.86	30.3594
1146.22	162.918
1150.58	44.2148
1154.93	52.875
1159.29	44.2539
1163.64	55.0781
1167.98	194.231
1172.33	256.449
1176.67	260.719
1181.01	519.125
1185.34	385.699
1189.68	768.938
1194.01	654.078
1198.34	882.707
1202.66	1333.74
1206.99	819.035
1211.31	1270.34
1215.62	1029.62
1219.94	1305.39
1224.25	1226.88
1228.56	1009.01
1232.87	1165.04
1237.17	1047.98
1241.48	1006.71
1245.78	1274.21
1250.07	1244.81
1254.37	1169.98
1258.66	1129.12
1262.95	1231.96
1267.23	1331.5
1271.52	1745.52
1275.8	2271.32
1280.08	2631.9
1284.35	2818.15
1288.63	3181.58
1292.9	3596.93
1297.16	3706.31
1301.43	3818.03
1305.69	4133.25
1309.95	3976.32
1314.21	3904.93
1318.46	4339.64
1322.72	4120.19
1326.97	4220.78
1331.21	4269.93
1335.46	4170.81
1339.7	3904.24
1343.94	3763.74
1348.18	3393.3
1352.41	3129.53
1356.64	2930.79
1360.87	2876.2
1365.1	2520.88
1369.32	2303.47
1373.54	2083.01
1377.76	2025.14
1381.97	1891.39
1386.19	1588.65
1390.4	1178.08
1394.6	1373.16
1398.81	958.066
1403.01	804.402
1407.21	488.625
1411.41	693.66
1415.6	421.051
1419.79	370.34
1423.98	428.266
1428.17	392.844
1432.35	194.172
1436.54	89.2188
1440.71	200.414
1444.89	188.582
1449.06	32.1055
1453.23	62.6211
1457.4	6.44922
1461.57	41.8281
1465.73	153.492
1469.89	145.285
1474.05	149.051
1478.2	138.727
1482.36	43.8633
1486.51	39.0625
1490.65	455.672
1494.8	706.398
1498.94	526.664
1503.08	787.352
1507.22	522.379
1511.35	525.34
1515.48	669.953
1519.61	750.609
1523.74	705.699
1527.86	696.547
1531.98	744.816
1536.1	707.871
1540.22	803.961
1544.33	755.113
1548.44	590.109
1552.55	227.309
1556.65	452.152
1560.76	476.059
1564.86	245.781
