Measurement: Raman, 514 nm, depolarized, Raman Data Processed
Mineral: Aenigmatite
Rruff sample: R061088
Ideal chemistry: Na_4_(Fe^2+^_10_Ti^4+^_2_)O_4_[Si_12_O_36_]
Locality: Naujakasik, Greenland
Source: Michael Scott
Description: Black prismatic crystals
Measured chemistry: (Na_1.72_Ca_0.28_)_Σ=2_(Fe^2+^_4.90_Mn_0.08_Mg_0.02_)_Σ=5_(Ti_0.85_Al_0.14_Fe^3+^_0.01_)_Σ=1_(Si_5.87_Al_0.13_)_Σ=6_O_20_
Pin_id: L01708
Orientation: Laser parallel to -a* (-1 0 0). Fiducial mark perpendicular to laser is parallel to b [0 1 0]
Raman shift (cm-1)	intensity
145.084	0
150.002	272.824
154.918	1011.9
159.832	1595.36
164.742	3230.3
169.651	3519.84
174.556	2242.89
179.459	730.887
184.36	126.094
189.258	500.023
194.153	1674.64
199.046	1961.36
203.936	1308.24
208.824	300.168
213.709	5.73438
218.592	92.9102
223.472	150.012
228.349	116.135
233.224	319.652
238.096	26.166
242.966	135.24
247.833	779.66
252.698	1289.11
257.56	1934.32
262.419	442.346
267.276	441.773
272.13	441.258
276.982	491.838
281.831	987.445
286.677	1616.69
291.521	2133.78
296.363	2434.85
301.202	3321.05
306.038	4034.42
310.872	4677.79
315.703	5584.73
320.531	4360.34
325.357	2870.57
330.181	1701.65
335.001	1100.36
339.82	462.408
344.635	237.195
349.448	73.3047
354.259	1081.02
359.067	1951.41
363.872	2654.32
368.675	2333.37
373.475	1959.47
378.272	1306.41
383.067	979.656
387.86	230.203
392.649	196.973
397.437	149.859
402.221	0.660156
407.003	176.109
411.783	293.398
416.56	311.074
421.334	198.609
426.106	989.789
430.875	1474.75
435.641	2161.36
440.405	2220.2
445.167	2156.26
449.925	1838.98
454.681	970.516
459.435	185.269
464.186	116.809
468.934	109.336
473.68	126.731
478.423	66.25
483.164	497.543
487.902	909.59
492.637	1044.72
497.37	748.461
502.1	970.156
506.828	867.644
511.553	1159.49
516.276	1721.61
520.995	2414.97
525.713	3284.39
530.427	3637.62
535.139	4016.25
539.849	4138.61
544.556	3838.29
549.26	3832.65
553.962	3587.76
558.661	3464.95
563.357	3451.02
568.051	2997.33
572.742	2759.2
577.431	2135.59
582.117	1287.54
586.801	620.062
591.481	901.191
596.16	1810.4
600.835	2856.48
605.508	3797.75
610.179	5151.94
614.847	5633.89
619.512	6110.07
624.175	7357.31
628.835	9639.19
633.492	14374
638.147	21613.2
642.799	31342.1
647.449	38621.9
652.096	39599
656.74	35482.7
661.382	30935
666.021	25357.2
670.658	21820.7
675.292	20316.6
679.923	19766.2
684.552	18829.5
689.178	18934
693.802	17217
698.423	13621.9
703.041	9736.13
707.657	6791.51
712.27	4909.28
716.881	3450.12
721.489	2212.13
726.094	1864.29
730.697	1414.58
735.297	1827
739.894	1488.53
744.489	723.172
749.081	548.047
753.671	129.156
758.258	41.9141
762.842	147.068
767.424	147.981
772.003	102.918
776.58	178.961
781.154	74.4961
785.725	240.383
790.294	326.473
794.86	4.08594
799.424	134.246
803.985	99.2891
808.543	76.7695
813.099	246.457
817.652	533.106
822.202	554.812
826.75	895.602
831.295	1079.27
835.838	1407
840.378	1632.71
844.915	2128.39
849.45	2559.95
853.982	2875.47
858.512	3668.97
863.039	4499.43
867.563	4907.7
872.085	5776.31
876.604	6966.55
881.12	8184.82
885.634	9954.4
890.145	11371.6
894.654	11824.7
899.16	10058.3
903.663	8054.64
908.164	6219.2
912.662	5217.3
917.158	4254.86
921.651	3876.05
926.141	3400.46
930.628	2971.36
935.113	2540.51
939.596	2371.62
944.076	2293.36
948.553	2308.88
953.027	2303.93
957.499	3141.03
961.969	3039.8
966.435	2526.32
970.899	2652.03
975.361	2973.88
979.82	3068.94
984.276	2760.82
988.73	3241.2
993.181	2665.38
997.629	2531.71
1002.08	1716.53
1006.52	1420.93
1010.96	1599.56
1015.4	1820.16
1019.83	1936.34
1024.26	1840.3
1028.69	1849.9
1033.12	2285.44
1037.55	2538.94
1041.97	2590.34
1046.39	2164.38
1050.81	1835.19
1055.22	1280.74
1059.63	1164.94
1064.04	834.773
1068.45	484.523
1072.85	304.394
1077.25	327.016
1081.65	130.359
1086.05	86.8555
1090.44	51.1133
1094.83	72.3711
1099.22	213.168
1103.6	282.789
1107.99	246.508
1112.37	56.293
1116.74	78.1445
1121.12	77.9219
1125.49	98.5897
1129.86	59.6484
1134.23	74.4922
1138.59	197.25
1142.95	65.9961
1147.31	47.7422
1151.67	50.0469
1156.02	197.508
1160.38	296.637
1164.72	-19.9613
1169.07	161.637
1173.41	563.543
1177.75	474.672
1182.09	687.184
1186.43	756.824
1190.76	823.867
1195.09	1217.06
1199.42	1202.44
1203.74	1293.91
1208.07	1201.35
1212.39	1572.82
1216.7	1300.5
1221.02	1403.24
1225.33	1118.57
1229.64	1469.43
1233.95	1331.72
1238.25	1142.85
1242.55	1048.21
1246.85	1354.01
1251.15	1136.02
1255.44	885.484
1259.73	1524.29
1264.02	1333.9
1268.31	1884.34
1272.59	1874.37
1276.87	2319.14
1281.15	2781.5
1285.42	3015.77
1289.69	2925.77
1293.96	3496.45
1298.23	3735.66
1302.5	3645.99
1306.76	3879.66
1311.02	3862.11
1315.27	3844.46
1319.53	3857.42
1323.78	3897.92
1328.03	3576.52
1332.28	3544.34
1336.52	3408.69
1340.76	3348.52
1345	3041.08
1349.23	3107.92
1353.47	2900.12
1357.7	2579.99
1361.93	2310.41
1366.15	2283.45
1370.37	2190.99
1374.59	1692.43
1378.81	1543.25
1383.03	1364.71
1387.24	1135.42
1391.45	1151.25
1395.65	1010.3
1399.86	783.262
1404.06	780.727
1408.26	686.613
1412.46	600.574
1416.65	289.871
1420.84	346.82
1425.03	215.809
1429.22	189.336
1433.4	137.609
1437.58	113.129
1441.76	54.582
1445.93	123.731
1450.11	41.7266
1454.28	58.3945
1458.44	151.289
1462.61	167.884
1466.77	158.254
1470.93	35.9961
1475.09	94.6953
1479.24	144.816
1483.39	368.711
1487.54	253.731
1491.69	369.012
1495.84	592.285
1499.98	683.617
1504.12	733.996
1508.25	590.629
1512.38	559.676
1516.52	806.164
1520.64	293.184
1524.77	301.555
1528.89	612.793
1533.01	704.141
1537.13	784.898
1541.25	918.066
1545.36	539.758
1549.47	606.809
1553.58	650.414
1557.68	281.883
1561.78	438.504
1565.88	328.695
1569.98	3.17969
