Measurement: Raman, 514 nm, depolarized, Raman Data Processed
Mineral: Aenigmatite
Rruff sample: R061088
Ideal chemistry: Na_4_(Fe^2+^_10_Ti^4+^_2_)O_4_[Si_12_O_36_]
Locality: Naujakasik, Greenland
Source: Michael Scott
Description: Black prismatic crystals
Measured chemistry: (Na_1.72_Ca_0.28_)_Σ=2_(Fe^2+^_4.90_Mn_0.08_Mg_0.02_)_Σ=5_(Ti_0.85_Al_0.14_Fe^3+^_0.01_)_Σ=1_(Si_5.87_Al_0.13_)_Σ=6_O_20_
Pin_id: L01498
Orientation: Laser parallel to -c* (0 0 -1). Fiducial mark perpendicular to laser is parallel to a [1 0 0]
Raman shift (cm-1)	intensity
152.188	0
157.099	175.83
162.008	557.193
166.914	894.752
171.818	429.019
176.719	5.55957
181.617	1.7334
186.514	108.733
191.407	474.121
196.298	629.417
201.187	950.229
206.073	457.056
210.957	468.691
215.838	579.331
220.717	401.062
225.593	299.883
230.467	135.308
235.338	68.7734
240.207	88.0869
245.073	38.5723
249.937	109.564
254.798	195.169
259.657	177.553
264.513	143.764
269.367	205.069
274.219	218.722
279.067	351.031
283.914	471.975
288.757	523.035
293.599	678.975
298.437	719.934
303.274	817.358
308.107	814.999
312.939	621.701
317.767	545.74
322.593	407.12
327.417	263.746
332.238	107.582
337.057	29.6133
341.873	32.0654
346.687	71.6387
351.498	82.2266
356.307	337.937
361.113	432.886
365.916	499.16
370.717	364.695
375.516	205.199
380.312	228.393
385.106	214.833
389.897	259.65
394.685	138.762
399.471	213.749
404.254	202.602
409.035	196.974
413.814	105.016
418.59	302.867
423.363	324.431
428.134	389.387
432.902	468.318
437.668	472.665
442.431	363.772
447.192	231.085
451.95	108.553
456.706	222.272
461.459	90.2588
466.21	27.9873
470.958	53.794
475.703	45.167
480.446	184.454
485.187	60.4853
489.925	342.781
494.66	261.489
499.393	288.06
504.123	249.355
508.851	345.966
513.576	462.627
518.299	556.449
523.019	563.83
527.737	862.99
532.452	785.297
537.165	913.915
541.875	868.297
546.582	804.186
551.287	761.153
555.99	665.019
560.69	598.448
565.387	376.608
570.082	332.807
574.774	103.478
579.464	104.4
584.151	111.337
588.836	197.205
593.518	423.763
598.197	634.314
602.874	746.337
607.549	930.894
612.221	1154.76
616.89	1343.61
621.557	1779.89
626.221	2217.69
630.883	3124.5
635.542	4318.42
640.199	6096.99
644.853	7266.93
649.504	8069.47
654.153	8527.57
658.799	7629.16
663.443	7240.98
668.085	6506.19
672.723	6022.47
677.359	5683.81
681.993	5484.23
686.624	5151.73
691.253	4647.28
695.879	3807.89
700.502	2857.58
705.123	2138.31
709.741	1647.08
714.357	1437.83
718.97	1112.72
723.581	832.592
728.189	637.505
732.794	601.464
737.397	384.487
741.997	169.644
746.595	60.9424
751.19	2.1416
755.783	18.8018
760.373	15.3662
764.961	34.1123
769.546	54.6738
774.128	34.2109
778.708	61.1172
783.285	68.5889
787.86	2.79297
792.432	51.2647
797.002	59.8916
801.569	171.03
806.133	56.166
810.695	277.308
815.254	410.464
819.811	375.651
824.365	418.847
828.917	693.055
833.466	762.059
838.012	834.076
842.556	1019.56
847.097	1138.73
851.636	1304.03
856.172	1427.63
860.706	1648.7
865.237	1580.93
869.765	1910.29
874.291	2246.8
878.814	2390.44
883.335	2448.13
887.853	2933.3
892.369	2821.75
896.882	2430.86
901.392	1875.38
905.9	1679.92
910.405	1536.7
914.908	1214.17
919.408	1022.66
923.906	917.148
928.401	826.405
932.893	891.745
937.383	834.477
941.87	817.653
946.355	819.269
950.837	788.132
955.316	849.437
959.793	873.702
964.267	904.23
968.739	1003.12
973.208	995.749
977.675	1047.08
982.139	1150.49
986.6	1153.82
991.059	1212.1
995.515	1155.48
999.969	1118.13
1004.42	1039.86
1008.87	919.139
1013.31	919.593
1017.76	920.932
1022.2	944.616
1026.64	1035.59
1031.07	1031.09
1035.51	933.503
1039.93	792.426
1044.36	617.273
1048.79	463.525
1053.21	492.203
1057.63	379.166
1062.05	379.24
1066.46	206.983
1070.88	161.566
1075.29	75.6777
1079.69	70.7441
1084.1	90.7344
1088.5	66.6426
1092.9	88.4922
1097.3	60.7188
1101.69	2.68164
1106.08	67.9522
1110.47	80.1006
1114.86	46.9629
1119.24	17.3008
1123.62	71.8525
1128	25.207
1132.38	111.824
1136.75	36.8262
1141.12	17.8223
1145.49	131.258
1149.85	207.483
1154.22	55.5078
1158.58	121.606
1162.93	96.6094
1167.29	86.0967
1171.64	75.2129
1175.99	9.38281
1180.34	93.5098
1184.68	176.34
1189.03	322.196
1193.37	272.441
1197.7	221.583
1202.04	225.618
1206.37	197.552
1210.7	405.388
1215.03	243.708
1219.35	235.445
1223.67	401.852
1227.99	416.37
1232.31	259.062
1236.62	168.535
1240.93	260.988
1245.24	347.082
1249.55	288.96
1253.85	121.705
1258.15	199.507
1262.45	309.606
1266.74	319.254
1271.04	358.995
1275.33	402.641
1279.62	429.431
1283.9	610.292
1288.18	784.947
1292.46	795.752
1296.74	819.566
1301.02	989.708
1305.29	923.559
1309.56	1005.74
1313.82	878.953
1318.09	982.576
1322.35	877.527
1326.61	898.895
1330.87	1024.32
1335.12	927.809
1339.37	825.312
1343.62	917.967
1347.87	736.688
1352.11	780.165
1356.35	639.994
1360.59	704.394
1364.82	620.207
1369.06	489.147
1373.29	482.898
1377.52	439.296
1381.74	247.533
1385.96	183.273
1390.18	81.4912
1394.4	53.6963
1398.62	243.723
1402.83	44.3057
1407.04	211.605
1411.24	104.083
1415.45	85.6269
1419.65	38.1318
1423.85	55.416
1428.05	99.2754
1432.24	120.115
1436.43	146.81
1440.62	351.19
1444.81	201.975
1448.99	358.961
1453.17	246.012
1457.35	274.967
1461.53	284.765
1465.7	120.692
1469.87	160.768
1474.04	214.942
1478.2	41.1807
1482.37	264.416
1486.53	52.9531
1490.68	192.832
1494.84	301.035
1498.99	143.19
1503.14	132.221
1507.29	268.11
1511.43	265.347
1515.57	24.3223
1519.71	222.582
1523.85	187.856
1527.98	114.442
1532.12	195.77
1536.24	125.824
1540.37	95.7061
1544.49	29.6201
