Measurement: Raman, 514 nm, depolarized, Raman Data Processed
Mineral: Aenigmatite
Rruff sample: R061088
Ideal chemistry: Na_4_(Fe^2+^_10_Ti^4+^_2_)O_4_[Si_12_O_36_]
Locality: Naujakasik, Greenland
Source: Michael Scott
Description: Black prismatic crystals
Measured chemistry: (Na_1.72_Ca_0.28_)_Σ=2_(Fe^2+^_4.90_Mn_0.08_Mg_0.02_)_Σ=5_(Ti_0.85_Al_0.14_Fe^3+^_0.01_)_Σ=1_(Si_5.87_Al_0.13_)_Σ=6_O_20_
Pin_id: L00777
Orientation: Laser parallel to b* (0 1 0). Fiducial mark perpendicular to laser is parallel to c [0 0 1]
Raman shift (cm-1)	intensity
160.781	0
165.688	336.172
170.592	384.607
175.494	46.5352
180.393	39.1191
185.29	296.754
190.184	344.274
195.076	535.216
199.965	779.348
204.852	473.759
209.736	362.312
214.618	563.473
219.498	451.103
224.375	484.84
229.249	364.078
234.121	150.059
238.99	187.973
243.857	90.5444
248.721	30.8076
253.583	12.9756
258.443	1.29736
263.3	47.3462
268.154	39.8242
273.006	106.338
277.855	79.7251
282.702	123.726
287.547	258.762
292.388	248.127
297.228	492.562
302.065	558.651
306.899	663.388
311.731	592.841
316.56	500.033
321.387	284.911
326.211	165.026
331.033	37.7852
335.853	3.34961
340.669	21.6211
345.484	32.3838
350.295	314.893
355.105	408.543
359.911	490.628
364.716	620.498
369.517	484.565
374.317	329.126
379.113	323.392
383.907	262.932
388.699	338.583
393.488	150.006
398.275	88.6025
403.059	64.666
407.84	10.9609
412.619	8.86035
417.396	181.188
422.17	221.856
426.941	408.521
431.71	469.941
436.477	516.645
441.241	436.483
446.002	248.426
450.761	82.3291
455.517	3.16992
460.271	98.8691
465.022	40.499
469.771	7.16016
474.517	4.95898
479.261	44.002
484.002	172.059
488.74	159.891
493.476	265.593
498.21	141.528
502.941	126.13
507.669	203.856
512.395	296.756
517.119	427.678
521.84	468.845
526.558	680.027
531.274	904.384
535.987	815.635
540.698	730.896
545.406	705.113
550.111	657.14
554.814	503.344
559.515	559.588
564.213	643.072
568.908	443.663
573.601	461.323
578.292	291.019
582.979	121.727
587.665	53.4346
592.347	136.116
597.028	217.12
601.705	387.509
606.38	448.678
611.053	585.1
615.723	682.972
620.39	964.997
625.055	1405.16
629.718	2060.16
634.377	3348.72
639.035	5106.9
643.689	6318.67
648.341	6552.43
652.991	5708.77
657.638	4801.07
662.283	4311.27
666.924	3817.61
671.564	3800.05
676.201	3712.17
680.835	3580.73
685.467	3521.16
690.096	3165.51
694.722	2549.97
699.346	1605.86
703.968	1124.82
708.587	1046.6
713.203	706.206
717.817	595.396
722.428	418.257
727.037	391.951
731.643	353.832
736.246	381.536
740.847	168.091
745.446	157.487
750.042	9.42676
754.635	56.7256
759.226	60.5596
763.814	29.0332
768.4	32.1885
772.983	31.208
777.563	0.729492
782.141	65.8555
786.716	60.3916
791.289	84.2363
795.859	82.874
800.427	35.1435
804.992	13.8965
809.555	10.4453
814.115	248.765
818.672	285.91
823.227	206.882
827.779	372.155
832.329	324.372
836.876	479.913
841.42	538.293
845.962	610.531
850.502	617.621
855.038	805.588
859.573	935.134
864.104	1025.74
868.633	1222.02
873.16	1239.17
877.684	1542.7
882.205	1762.99
886.724	2253.47
891.24	2284.35
895.754	1859.69
900.265	1541.96
904.773	1087.81
909.279	1045.49
913.783	722.667
918.283	759.288
922.782	513.708
927.277	645.608
931.77	388.098
936.261	480.938
940.749	489.363
945.234	438.656
949.716	424.728
954.197	488.853
958.674	547.826
963.149	667.365
967.621	755.313
972.091	637.814
976.558	607.314
981.023	640.633
985.485	680.725
989.945	680.009
994.401	550.893
998.856	511.318
1003.31	542.581
1007.76	421.225
1012.2	427.624
1016.65	394.994
1021.09	447.412
1025.53	348.059
1029.96	584.481
1034.4	645.439
1038.83	571.741
1043.26	602.911
1047.68	478.897
1052.11	419.607
1056.53	300.927
1060.94	281.045
1065.36	255.199
1069.77	144.528
1074.18	31.1279
1078.59	94.1924
1083	83.5147
1087.4	120.989
1091.8	221.676
1096.2	71.8691
1100.59	101.22
1104.98	153.27
1109.37	17.7178
1113.76	130.353
1118.14	16.2422
1122.53	73.0723
1126.9	56.8057
1131.28	34.3818
1135.66	24.9668
1140.03	50.3301
1144.4	55.6162
1148.76	2.18848
1153.13	4.2793
1157.49	2.31934
1161.85	13.5918
1166.2	12.0137
1170.56	35.3916
1174.9	36.7041
1179.25	197.842
1183.6	66.3106
1187.94	154.777
1192.28	176.353
1196.62	135.019
1200.95	168.353
1205.29	176.494
1209.62	242.919
1213.94	73.8408
1218.27	87.3691
1222.59	34.751
1226.91	220.118
1231.23	247.182
1235.54	241.098
1239.86	253.959
1244.16	231.555
1248.47	232.827
1252.77	282.037
1257.08	504.96
1261.37	380.228
1265.67	263.823
1269.96	343.278
1274.26	219.883
1278.54	508.865
1282.83	529.213
1287.11	638.586
1291.39	584.027
1295.67	699.233
1299.95	909.802
1304.22	624.739
1308.49	825.569
1312.76	724.058
1317.02	802.812
1321.28	676.422
1325.54	726.456
1329.8	615.39
1334.06	750.395
1338.31	751.769
1342.56	718.365
1346.8	540.096
1351.05	393.935
1355.29	444.569
1359.53	510.934
1363.77	313.285
1368	331.761
1372.23	167.127
1376.46	404.196
1380.68	347.833
1384.91	93.4287
1389.13	251.044
1393.35	148.12
1397.56	239.515
1401.78	154.6
1405.98	196.394
1410.19	22.1689
1414.4	7.5166
1418.6	18.5469
1422.8	71.7852
1427	47.9092
1431.19	97.2109
1435.38	50.0156
1439.57	9.5293
1443.76	84.9932
1447.94	78.3057
1452.13	94.5127
1456.31	94.6562
1460.48	51.7305
1464.66	149.818
1468.83	227.878
1473	180.215
1477.16	127.674
1481.33	181.391
1485.49	247.452
1489.64	122.72
1493.8	239.573
1497.95	127.936
1502.1	21.4766
1506.25	58.541
1510.4	223.413
1514.54	169.351
1518.68	46.3272
1522.82	259.072
1526.95	344.462
1531.08	267.095
1535.21	290.849
1539.34	132.853
1543.46	213.569
1547.59	238.719
1551.7	0
