Measurement: Raman, 514 nm, ccw, Raman Data Processed
Mineral: Aenigmatite
Rruff sample: R061088
Ideal chemistry: Na_4_(Fe^2+^_10_Ti^4+^_2_)O_4_[Si_12_O_36_]
Locality: Naujakasik, Greenland
Source: Michael Scott
Description: Black prismatic crystals
Measured chemistry: (Na_1.72_Ca_0.28_)_Σ=2_(Fe^2+^_4.90_Mn_0.08_Mg_0.02_)_Σ=5_(Ti_0.85_Al_0.14_Fe^3+^_0.01_)_Σ=1_(Si_5.87_Al_0.13_)_Σ=6_O_20_
Pin_id: L01708
Orientation: Laser parallel to -a* (-1 0 0). Fiducial mark perpendicular to laser is parallel to b [0 1 0]
Raman shift (cm-1)	intensity
135.239	0
140.163	1349.34
145.084	1937.32
150.002	3534.12
154.918	5344.32
159.832	8076.16
164.742	10408.1
169.651	11182.2
174.556	7477.85
179.459	3956.56
184.36	2367.86
189.258	1878.24
194.153	2642.2
199.046	2782.46
203.936	2219.14
208.824	847.5
213.709	86.3867
218.592	319.289
223.472	243.992
228.349	177.465
233.224	972.16
238.096	1723.92
242.966	1722.1
247.833	2385.72
252.698	3322.8
257.56	3747.54
262.419	1745.17
267.276	680.168
272.13	500.266
276.982	381.805
281.831	1076.37
286.677	1207.32
291.521	1717.61
296.363	2821.23
301.202	4250.99
306.038	5828.46
310.872	7287.95
315.703	7656.2
320.531	6639.04
325.357	4638.5
330.181	3236.82
335.001	1479.19
339.82	817.195
344.635	588.652
349.448	1889.37
354.259	3580.41
359.067	6590.44
363.872	8303.55
368.675	7003.91
373.475	4708.69
378.272	3565.59
383.067	2467.53
387.86	1865
392.649	1044.16
397.437	300.242
402.221	67.5586
407.003	454.738
411.783	475.453
416.56	195.387
421.334	111.164
426.106	737.703
430.875	2058.87
435.641	3314.02
440.405	4959.93
445.167	5103.79
449.925	3479.09
454.681	2476.05
459.435	1147.83
464.186	70.4062
468.934	205.519
473.68	57.5938
478.423	161.906
483.164	785.754
487.902	1487.07
492.637	1543.7
497.37	1559.04
502.1	1112.99
506.828	1582.42
511.553	2008.33
516.276	2838.07
520.995	4611.1
525.713	5986.15
530.427	7031.16
535.139	7851.56
539.849	8149.9
544.556	8838.15
549.26	9306.1
553.962	8686.27
558.661	7937.47
563.357	6748.45
568.051	5373.3
572.742	4343.41
577.431	3400.61
582.117	2022.89
586.801	1429.33
591.481	1986.92
596.16	3876.7
600.835	6130.72
605.508	9126.44
610.179	11790.4
614.847	13538.8
619.512	15168.1
624.175	18449.6
628.835	24384.8
633.492	36184.9
638.147	55102.8
642.799	79879
647.449	97105.4
652.096	95483.6
656.74	81065.8
661.382	65945.1
666.021	52251.7
670.658	42199
675.292	36374.4
679.923	34635.4
684.552	33913.2
689.178	34810.5
693.802	32198.6
698.423	26382.3
703.041	17548.7
707.657	12236.4
712.27	8517.65
716.881	6369.66
721.489	4750.02
726.094	3511.67
730.697	2743.53
735.297	2217.03
739.894	1669.29
744.489	1317.48
749.081	939.383
753.671	604.723
758.258	150.824
762.842	123.394
767.424	67.6328
772.003	234.613
776.58	113.504
781.154	286.965
785.725	447.637
790.294	81.4648
794.86	371.402
799.424	33.2422
803.985	438.606
808.543	247.918
813.099	393.762
817.652	645.527
822.202	815.098
826.75	1587.51
831.295	1710.34
835.838	2284.61
840.378	3064.46
844.915	3892.8
849.45	4491.02
853.982	5477.04
858.512	7000.54
863.039	8219.44
867.563	9613.84
872.085	11767.3
876.604	14003.7
881.12	17850.6
885.634	22019.7
890.145	26225.8
894.654	27381.9
899.16	22077.9
903.663	16425.4
908.164	11771.2
912.662	8869.4
917.158	6596.39
921.651	5199.5
926.141	4230.51
930.628	3071.92
935.113	2515.07
939.596	2330.01
944.076	1797.41
948.553	1436.38
953.027	1287.34
957.499	1023.93
961.969	1154.01
966.435	1337.41
970.899	988.188
975.361	755.754
979.82	1213.51
984.276	1583.58
988.73	1380.33
993.181	1833.11
997.629	1074.03
1002.08	746.316
1006.52	482.203
1010.96	435.035
1015.4	579.398
1019.83	522.137
1024.26	772.809
1028.69	1099.93
1033.12	1342.39
1037.55	1692.75
1041.97	1909.89
1046.39	1871.44
1050.81	1486.47
1055.22	938.617
1059.63	735.582
1064.04	324.07
1068.45	300.488
1072.85	301.789
1077.25	227.992
1081.65	293.32
1086.05	10.3828
1090.44	90.1484
1094.83	59.5781
1099.22	339.773
1103.6	174.441
1107.99	124.606
1112.37	92.543
1116.74	60.9961
1121.12	37.0391
1125.49	190.062
1129.86	117.121
1134.23	103.328
1138.59	27.6914
1142.95	26.9219
1147.31	23.1367
1151.67	136.062
1156.02	296.93
1160.38	521.906
1164.72	561.676
1169.07	1306.91
1173.41	1134.92
1177.75	1595.38
1182.09	1530.25
1186.43	1789.68
1190.76	2159.53
1195.09	2686.6
1199.42	2397.58
1203.74	2843.46
1208.07	3033.95
1212.39	3104.8
1216.7	2834.96
1221.02	3262.48
1225.33	3332.93
1229.64	2802.48
1233.95	2882.78
1238.25	2870.33
1242.55	2591.44
1246.85	2885.43
1251.15	2688.62
1255.44	2982.43
1259.73	3517.79
1264.02	3259.24
1268.31	3931.62
1272.59	4655.9
1276.87	5121.93
1281.15	5855.32
1285.42	6492.15
1289.69	7127.57
1293.96	7486.69
1298.23	8000.06
1302.5	8024
1306.76	8143
1311.02	7908.27
1315.27	7719.93
1319.53	7433.81
1323.78	7171.17
1328.03	6787.53
1332.28	6736.45
1336.52	6595.27
1340.76	6064.27
1345	5536.19
1349.23	5309.85
1353.47	4983.38
1357.7	4292.79
1361.93	3746.99
1366.15	3899.27
1370.37	3343.67
1374.59	2855.51
1378.81	2568.92
1383.03	2436.17
1387.24	2134.71
1391.45	1872.77
1395.65	1350.22
1399.86	1202.03
1404.06	636.856
1408.26	517
1412.46	786.277
1416.65	562.637
1420.84	529.231
1425.03	522.754
1429.22	522.156
1433.4	81.0938
1437.58	258.922
1441.76	132.375
1445.93	129.328
1450.11	26.6953
1454.28	120.789
1458.44	153.473
1462.61	444.504
1466.77	11.8398
1470.93	172.652
1475.09	222.32
1479.24	190.945
1483.39	609.723
1487.54	747.402
1491.69	674.762
1495.84	1169.06
1499.98	1435.44
1504.12	1715.57
1508.25	1715.67
1512.38	1698.76
1516.52	1887.73
1520.64	1811.74
1524.77	1619.72
1528.89	1891.3
1533.01	2297.4
1537.13	2492.86
1541.25	2236.84
1545.36	2315.41
1549.47	1950.44
1553.58	1352.62
1557.68	1304.68
1561.78	984.152
1565.88	474.461
1569.98	400.898
1574.07	326.269
1578.16	0
