Measurement: Raman, 514 nm, depolarized, Raman Data Processed
Mineral: Aenigmatite
Rruff sample: R061088
Ideal chemistry: Na_4_(Fe^2+^_10_Ti^4+^_2_)O_4_[Si_12_O_36_]
Locality: Naujakasik, Greenland
Source: Michael Scott
Description: Black prismatic crystals
Measured chemistry: (Na_1.72_Ca_0.28_)_Σ=2_(Fe^2+^_4.90_Mn_0.08_Mg_0.02_)_Σ=5_(Ti_0.85_Al_0.14_Fe^3+^_0.01_)_Σ=1_(Si_5.87_Al_0.13_)_Σ=6_O_20_
Pin_id: L01392
Orientation: Laser parallel to (1 0 1). Fiducial mark perpendicular to laser is parallel to b [0 1 0]
Raman shift (cm-1)	intensity
132.653	0
137.612	692.46
142.568	869.769
147.52	1726.05
152.469	2459.9
157.415	1693.02
162.357	1697.4
167.297	1731.12
172.233	1394.52
177.166	858.143
182.096	1127.68
187.022	2001.51
191.946	2537.03
196.866	2894.98
201.783	4017.07
206.697	2439.01
211.608	2466.52
216.515	1813.53
221.419	859.959
226.321	172.796
231.219	78.7519
236.114	126.602
241.005	135.191
245.894	59.4248
250.779	69.6816
255.662	186.879
260.541	112.091
265.417	230.316
270.29	33.0508
275.16	248.593
280.027	600.933
284.891	863.59
289.751	1162
294.609	1686
299.463	2117.23
304.315	2414.4
309.163	2179.78
314.008	2241.75
318.851	1982.82
323.69	1317.26
328.526	1138.15
333.359	427.319
338.189	31.9404
343.016	134.522
347.84	76.1465
352.661	126.466
357.479	536.797
362.294	790.173
367.106	754.63
371.915	537.11
376.721	372.077
381.524	181.153
386.324	140.588
391.121	88.501
395.915	229.527
400.706	443.759
405.494	538.37
410.279	221.39
415.061	254.909
419.841	489.15
424.617	710.514
429.39	1145.04
434.161	1169.19
438.928	1072.01
443.693	762.767
448.454	577.282
453.213	343.93
457.969	290.958
462.722	287.21
467.472	116.74
472.219	146.717
476.963	324.416
481.704	411.1
486.443	744.202
491.178	669.693
495.911	838.771
500.641	980.45
505.368	477.938
510.092	194.058
514.813	359.41
519.532	498.698
524.247	714.69
528.96	924.34
533.67	1091.58
538.377	862.117
543.081	837.99
547.783	746.142
552.481	619.051
557.177	617.168
561.87	517.582
566.56	459.877
571.248	127.353
575.932	19.8984
580.614	13.4541
585.293	1.76367
589.97	65.8926
594.643	588.673
599.314	1530.6
603.982	2242.68
608.647	2734.33
613.31	2845.68
617.969	2530.09
622.626	2738.4
627.281	4060.89
631.932	6533.74
636.581	10757.2
641.227	15902.6
645.87	17349.1
650.511	15386.5
655.149	12049.8
659.784	8918.19
664.417	7283.32
669.046	6975.9
673.674	7791.24
678.298	7928.43
682.92	7522.14
687.539	7062.64
692.155	5677.91
696.769	3638.95
701.38	2257.76
705.988	1606.31
710.594	1279.25
715.197	1022.67
719.798	823.097
724.396	600.16
728.991	632.408
733.583	804.608
738.173	675.812
742.761	364.068
747.345	37.0195
751.927	176.79
756.507	30
761.084	84.9062
765.658	138.185
770.229	263.128
774.799	34.502
779.365	25.2139
783.929	144.029
788.49	73.25
793.049	110.633
797.605	33.3535
802.159	63.0625
806.71	54.3467
811.258	229.317
815.804	106.955
820.347	392.272
824.888	551.28
829.427	642.986
833.962	773.402
838.495	868.536
843.026	801.398
847.554	1160
852.08	1619.37
856.603	2070.5
861.124	2151.33
865.642	1860.28
870.157	1870.01
874.671	2270.74
879.181	2808.57
883.689	3840.34
888.195	4750.15
892.698	5061.77
897.199	4403.3
901.697	3310.04
906.193	2694.34
910.686	2203.42
915.177	2060.73
919.665	1997.09
924.151	1730.72
928.635	1740.77
933.116	1375.98
937.594	1504.01
942.071	1329.29
946.544	1755.33
951.016	1820.51
955.485	1994.95
959.951	2126.14
964.415	1838.59
968.877	1952.67
973.336	2231.32
977.793	2783.62
982.247	3864.82
986.699	4553.73
991.149	3954.95
995.596	2626.49
1000.04	1758.99
1004.48	1491.05
1008.92	1343.4
1013.36	1721.35
1017.8	1865.43
1022.23	1843.1
1026.66	2271.05
1031.09	2544.99
1035.52	2749.72
1039.94	2673.33
1044.36	2244.45
1048.78	1907.33
1053.2	1604.37
1057.61	1064.79
1062.02	920.889
1066.43	839.497
1070.84	693.156
1075.24	490.069
1079.65	431.276
1084.05	421.746
1088.45	272.474
1092.84	220.454
1097.23	180.678
1101.63	266.144
1106.02	116.839
1110.4	63.7578
1114.79	91.8769
1119.17	519.187
1123.55	509.693
1127.93	102.389
1132.3	68.7471
1136.67	10.0664
1141.05	79.5879
1145.41	75.5498
1149.78	67.9922
1154.14	96.9688
1158.51	15.6279
1162.87	36.7861
1167.22	18.1357
1171.58	15.5664
1175.93	108.073
1180.28	105.745
1184.63	150.985
1188.98	166.664
1193.32	141.16
1197.66	277.752
1202	259.083
1206.34	290.104
1210.68	306.875
1215.01	302.515
1219.34	324.15
1223.67	276.738
1228	99.2773
1232.32	210.731
1236.64	158.084
1240.96	108.321
1245.28	148.81
1249.6	266.769
1253.91	302.563
1258.22	436.144
1262.53	373.966
1266.84	658.949
1271.14	786.277
1275.45	929.606
1279.75	1038.71
1284.05	1154.88
1288.34	1393.63
1292.64	1463.83
1296.93	1491.29
1301.22	1573.34
1305.51	1535.02
1309.8	1531.34
1314.08	1560.71
1318.36	1432.62
1322.64	1424.62
1326.92	1366.54
1331.19	1409.18
1335.47	1403.64
1339.74	1249.31
1344.01	1221.77
1348.28	1062.91
1352.54	974.498
1356.8	908.227
1361.07	846.945
1365.32	614.996
1369.58	705.832
1373.84	447.948
1378.09	408.121
1382.34	300.593
1386.59	374.679
1390.84	207.14
1395.08	249.524
1399.32	164.405
1403.56	69.2891
1407.8	110.281
1412.04	163.331
1416.27	8.74219
1420.51	50.1367
1424.74	67.4219
1428.96	4.94238
1433.19	0.381836
1437.42	154.459
1441.64	29.3916
1445.86	71.6455
1450.08	148.457
1454.3	23.9561
1458.51	83.2715
1462.72	61.4834
1466.93	5.97754
1471.14	236.189
1475.35	84.8867
1479.55	179.972
1483.76	349.196
1487.96	355.616
1492.16	237.356
1496.35	300.289
1500.55	173.438
1504.74	159.833
1508.93	222.59
1513.12	274.518
1517.31	105.43
1521.49	107.088
1525.68	244.718
1529.86	143.924
1534.04	44.4746
1538.22	104.417
