Measurement: Raman, 514 nm, ccw, Raman Data Processed
Mineral: Aenigmatite
Rruff sample: R061088
Ideal chemistry: Na_4_(Fe^2+^_10_Ti^4+^_2_)O_4_[Si_12_O_36_]
Locality: Naujakasik, Greenland
Source: Michael Scott
Description: Black prismatic crystals
Measured chemistry: (Na_1.72_Ca_0.28_)_Σ=2_(Fe^2+^_4.90_Mn_0.08_Mg_0.02_)_Σ=5_(Ti_0.85_Al_0.14_Fe^3+^_0.01_)_Σ=1_(Si_5.87_Al_0.13_)_Σ=6_O_20_
Pin_id: L01708
Orientation: Laser parallel to -a* (-1 0 0). Fiducial mark perpendicular to laser is parallel to b [0 1 0]
Raman shift (cm-1)	intensity
136.471	0
141.393	455.693
146.314	1211.18
151.232	878.486
156.147	1747.92
161.06	2315.09
165.97	3252.03
170.877	3456.25
175.782	1565.04
180.685	882.066
185.585	367.748
190.482	836.801
195.377	2010.53
200.269	1741.59
205.158	1001.06
210.045	37.2227
214.93	91.5293
219.812	234.654
224.691	47.2148
229.568	103.982
234.442	67.9824
239.314	174.152
244.183	331.397
249.049	646.453
253.913	1614.9
258.775	1332.38
263.633	960.662
268.49	779.754
273.343	1277.04
278.194	1995.62
283.043	2532.03
287.889	2763.41
292.732	2456.4
297.573	2966.61
302.411	3423.36
307.247	3819.44
312.08	3924.99
316.91	3813.03
321.738	3193.85
326.563	2590.01
331.386	2148.22
336.206	1150.5
341.024	581.014
345.839	503.188
350.651	415.463
355.461	1709.63
360.268	2388.33
365.073	2214.06
369.875	1744.33
374.674	1096.97
379.471	585.896
384.266	200.998
389.057	129.443
393.846	301.688
398.633	258.473
403.417	99.7891
408.198	15.6113
412.977	290.154
417.753	327.969
422.527	687.801
427.298	1554.69
432.067	1863.23
436.832	1878.6
441.596	1952.53
446.356	1763.33
451.115	1215.39
455.87	682.244
460.623	651.5
465.373	374.764
470.121	308.002
474.866	516.484
479.609	928.662
484.349	1280.38
489.086	1650.93
493.821	1372.91
498.553	1050.51
503.283	852.131
508.01	396.289
512.734	921.898
517.456	1029.04
522.175	1933.11
526.892	2596.87
531.606	3216.98
536.317	3631.25
541.026	2974.84
545.732	2525.73
550.436	2368.77
555.137	2127.12
559.835	2185.47
564.531	1934.42
569.224	1569.3
573.915	1411.76
578.603	944.891
583.288	567.518
587.971	875.871
592.651	1098.9
597.329	2437.62
602.004	4519.05
606.676	5949.19
611.346	7008.34
616.013	7023.79
620.678	6962.79
625.34	7165.17
629.999	8680.16
634.656	12029.2
639.31	17498.2
643.962	24150.2
648.611	27719.3
653.257	26815.7
657.901	23486.5
662.542	19654.9
667.181	16917.3
671.817	15370.6
676.45	14651.4
681.081	14545.8
685.709	14389
690.334	13889.8
694.957	12024.6
699.578	8531.32
704.195	6101.15
708.811	4134.87
713.423	2991.86
718.033	2227.2
722.64	1505.86
727.245	1248.76
731.847	908.426
736.446	881.264
741.043	389.281
745.637	225.287
750.229	57.5801
754.818	83.6484
759.404	53.5449
763.988	126.299
768.569	156.738
773.148	52.4121
777.724	44.2852
782.297	17.2012
786.868	82.5508
791.436	27.7148
796.001	101.606
800.564	44.0508
805.125	48.1758
809.682	91.5469
814.237	28.6191
818.79	119.678
823.339	257.002
827.887	451.894
832.431	775.191
836.973	958.113
841.513	1169.15
846.049	1558.45
850.583	1643.43
855.115	2150.13
859.644	2569.8
864.17	2967.42
868.694	3604.23
873.215	4383.12
877.733	5141.97
882.249	6298.94
886.762	7972.59
891.273	9186.8
895.781	8599.51
900.286	7468.76
904.789	5761.63
909.289	4694.68
913.786	3660.58
918.281	3527.7
922.773	3191.74
927.263	2694.64
931.75	2379.49
936.234	2157.75
940.716	2285.65
945.195	2145.86
949.672	2434.66
954.146	2871.43
958.617	3409.17
963.086	2995.91
967.552	3420.87
972.015	2980.7
976.476	2894.58
980.934	3132.53
985.39	3691.72
989.843	3673.82
994.293	3297.04
998.741	2306.94
1003.19	1888.62
1007.63	1912.44
1012.07	1739
1016.5	1933.51
1020.94	2299.8
1025.37	2531.46
1029.8	2606.34
1034.23	2485.33
1038.65	2826.45
1043.07	2318.04
1047.49	2192.26
1051.91	1358.91
1056.32	1018.87
1060.73	912.918
1065.14	570.621
1069.55	664.025
1073.95	268.051
1078.35	149.272
1082.75	229.84
1087.14	7.66406
1091.54	176.988
1095.93	70.5254
1100.31	303.559
1104.7	214.654
1109.08	63.8281
1113.46	30.0723
1117.84	168.381
1122.21	161.072
1126.58	147.959
1130.95	38.8809
1135.32	35.709
1139.68	7.5625
1144.04	82.8613
1148.4	23.6836
1152.76	148.906
1157.11	73.75
1161.46	195.014
1165.81	193.904
1170.16	310.84
1174.5	504.658
1178.84	455.812
1183.18	633.01
1187.51	737.594
1191.84	1015.54
1196.17	827.285
1200.5	1240.65
1204.83	1237.27
1209.15	1017.04
1213.47	1192
1217.78	1134.31
1222.1	1191.43
1226.41	1041.63
1230.72	1112.28
1235.02	984.609
1239.33	1107.81
1243.63	963.678
1247.92	1241.99
1252.22	1199.78
1256.51	1247.93
1260.8	1519.89
1265.09	1482.44
1269.38	1718.01
1273.66	1833.5
1277.94	1951.47
1282.21	2407.65
1286.49	2704.12
1290.76	2818.12
1295.03	3026.64
1299.3	3351.78
1303.56	3384.64
1307.82	3575.3
1312.08	3514.42
1316.34	3527.17
1320.59	3556.59
1324.84	3434.8
1329.09	3277.03
1333.34	3299.19
1337.58	3127.43
1341.82	3068.64
1346.06	3045.85
1350.29	2474.73
1354.53	2404
1358.76	2251.43
1362.98	2170.28
1367.21	1992.04
1371.43	1832.5
1375.65	1715.7
1379.87	1505.53
1384.08	1259.71
1388.29	1196.46
1392.5	1022.14
1396.71	991.594
1400.91	863.863
1405.11	674.606
1409.31	642.152
1413.51	543.973
1417.7	466.152
1421.89	346.16
1426.08	165.277
1430.26	22.7461
1434.44	285.254
1438.62	45.332
1442.8	186.348
1446.98	44.8516
1451.15	160.519
1455.32	160.793
1459.49	159.477
1463.65	42.9258
1467.81	133.32
1471.97	52.9883
1476.13	134.641
1480.28	34.0898
1484.43	523.113
1488.58	169.309
1492.73	374.703
1496.87	282.539
1501.01	703.5
1505.15	718.332
1509.29	632.543
1513.42	653.785
1517.55	555.574
1521.67	431.898
1525.8	525.457
1529.92	493.992
1534.04	647
1538.16	580.941
1542.27	489.352
1546.39	190.637
1550.49	417.125
1554.6	436.871
1558.71	492.168
1562.81	30.418
1566.91	445.359
1571	129.391
1575.1	286.914
