Measurement: Raman, 514 nm, depolarized, Raman Data Processed
Mineral: Aenigmatite
Rruff sample: R061088
Ideal chemistry: Na_4_(Fe^2+^_10_Ti^4+^_2_)O_4_[Si_12_O_36_]
Locality: Naujakasik, Greenland
Source: Michael Scott
Description: Black prismatic crystals
Measured chemistry: (Na_1.72_Ca_0.28_)_Σ=2_(Fe^2+^_4.90_Mn_0.08_Mg_0.02_)_Σ=5_(Ti_0.85_Al_0.14_Fe^3+^_0.01_)_Σ=1_(Si_5.87_Al_0.13_)_Σ=6_O_20_
Pin_id: L00919
Orientation: Laser parallel to (0 -1 -1). Fiducial mark perpendicular to laser is parallel to a [1 0 0]
Raman shift (cm-1)	intensity
142.359	0
147.275	720.24
152.188	504.59
157.099	475.984
162.008	767.413
166.914	678.892
171.818	366.617
176.719	289.626
181.617	25.2402
186.514	219.976
191.407	544.755
196.298	651.691
201.187	874.067
206.073	647.654
210.957	744.659
215.838	675.329
220.717	493.597
225.593	862.182
230.467	92.7412
235.338	80.418
240.207	138.796
245.073	27.958
249.937	201.785
254.798	191.342
259.657	527.163
264.513	314.494
269.367	210.175
274.219	151.814
279.067	334.43
283.914	389.371
288.757	541.994
293.599	666.236
298.437	741.795
303.274	754.929
308.107	856.102
312.939	781.988
317.767	676.481
322.593	325.717
327.417	223.052
332.238	148.255
337.057	163.561
341.873	17.8838
346.687	16.9023
351.498	106.126
356.307	152.472
361.113	50.2422
365.916	123.981
370.717	187.802
375.516	90.4873
380.312	2.17871
385.106	101.741
389.897	83.0273
394.685	9.6416
399.471	22.9385
404.254	122.267
409.035	13.5479
413.814	35.1309
418.59	13.3232
423.363	97.6338
428.134	279.457
432.902	246.08
437.668	248.142
442.431	267.357
447.192	190.751
451.95	134.341
456.706	233.143
461.459	262.243
466.21	39.3643
470.958	84.0127
475.703	18.7256
480.446	264.843
485.187	195.079
489.925	145.524
494.66	257.585
499.393	223.02
504.123	254.131
508.851	328.584
513.576	394.894
518.299	474.213
523.019	671.552
527.737	691.144
532.452	811.095
537.165	713.29
541.875	718.771
546.582	623.998
551.287	582.441
555.99	606.968
560.69	510.644
565.387	498.137
570.082	362.218
574.774	149.138
579.464	75.6397
584.151	258.725
588.836	341.39
593.518	220.429
598.197	520.15
602.874	509.195
607.549	628.896
612.221	853.95
616.89	1510.44
621.557	2343.22
626.221	2711.96
630.883	2602.45
635.542	3213.16
640.199	4372.34
644.853	5448.41
649.504	5978.31
654.153	5680.17
658.799	4900.99
663.443	4303.89
668.085	3672.8
672.723	3507.69
677.359	3391.56
681.993	3212.52
686.624	3024.31
691.253	2800.23
695.879	2090.58
700.502	1496.04
705.123	1061.68
709.741	761.338
714.357	560.947
718.97	440.516
723.581	370.047
728.189	152.555
732.794	278.059
737.397	74.5742
741.997	130.982
746.595	69.2852
751.19	121.477
755.783	102.984
760.373	174.156
764.961	0.441406
769.546	194.397
774.128	58.2676
778.708	17.4277
783.285	108.852
787.86	58.1777
792.432	121.572
797.002	142.369
801.569	242.43
806.133	441.191
810.695	532.799
815.254	487.707
819.811	669.57
824.365	640.527
828.917	878.578
833.466	949.744
838.012	1144.06
842.556	1199.47
847.097	1335.98
851.636	1777.63
856.172	2469.56
860.706	2509.69
865.237	2028.11
869.765	1754.7
874.291	1830.56
878.814	2035.5
883.335	2302.45
887.853	2205.36
892.369	1993.63
896.882	1770.62
901.392	1574.47
905.9	1471.15
910.405	1506.8
914.908	1051.22
919.408	705.668
923.906	842.393
928.401	738.356
932.893	608.666
937.383	623.26
941.87	641.127
946.355	848.268
950.837	902.682
955.316	705.369
959.793	834.326
964.267	887.551
968.739	656.908
973.208	570.672
977.675	713.693
982.139	850.979
986.6	1142.4
991.059	842.197
995.515	971.59
999.969	1372.2
1004.42	1156.87
1008.87	801.512
1013.31	744.625
1017.76	1088.52
1022.2	1091.94
1026.64	1001.22
1031.07	869.15
1035.51	599.428
1039.93	566.322
1044.36	542.289
1048.79	455.484
1053.21	298.797
1057.63	194.199
1062.05	54.6445
1066.46	144.631
1070.88	172.174
1075.29	204.783
1079.69	429.451
1084.1	411.172
1088.5	325.935
1092.9	205.742
1097.3	171.588
1101.69	128.357
1106.08	243.162
1110.47	394.947
1114.86	33.2441
1119.24	66.4004
1123.62	57.166
1128	80.0273
1132.38	4.94336
1136.75	27.2227
1141.12	9.23828
1145.49	36.0059
1149.85	96.6894
1154.22	33.0762
1158.58	50.9336
1162.93	116.707
1167.29	7.38867
1171.64	123.863
1175.99	126.93
1180.34	342.732
1184.68	270.129
1189.03	304.5
1193.37	33.1172
1197.7	370.121
1202.04	193.346
1206.37	181.557
1210.7	393.762
1215.03	397.961
1219.35	448.164
1223.67	388.371
1227.99	462.59
1232.31	454.961
1236.62	590.254
1240.93	608.717
1245.24	550.318
1249.55	689.596
1253.85	752.617
1258.15	659.986
1262.45	700.109
1266.74	988.146
1271.04	874.451
1275.33	1273.06
1279.62	950.904
1283.9	1011.52
1288.18	1146.47
1292.46	1418.11
1296.74	1399.12
1301.02	1382.57
1305.29	1485.12
1309.56	1659.89
1313.82	1825.84
1318.09	1468.99
1322.35	1321.86
1326.61	1034.48
1330.87	763.34
1335.12	917.447
1339.37	672.814
1343.62	643.453
1347.87	719.377
1352.11	572.879
1356.35	614.084
1360.59	430.922
1364.82	500.986
1369.06	481.33
1373.29	368.994
1377.52	546.184
1381.74	376.119
1385.96	442.51
1390.18	323.273
1394.4	19.8086
1398.62	244.752
1402.83	89.0938
1407.04	28.2324
1411.24	31.9043
1415.45	131.44
1419.65	37.2012
1423.85	273.713
1428.05	216.025
1432.24	568.662
1436.43	1037.77
1440.62	1938.66
1444.81	2246.36
1448.99	2345.68
1453.17	2302.56
1457.35	2317.39
1461.53	1802.08
1465.7	1346.81
1469.87	976.186
1474.04	643.055
1478.2	837.731
1482.37	643.332
1486.53	499.582
1490.68	241.877
1494.84	219.773
1498.99	150.404
1503.14	144.889
1507.29	24.8164
1511.43	43.7461
1515.57	183.062
1519.71	518.566
1523.85	200.914
1527.98	300.863
1532.12	191.041
1536.24	643.467
1540.37	282.592
1544.49	220.891
1548.62	52.6641
1552.73	408.545
1556.85	207.188
1560.96	221.92
