Measurement: Raman, 514 nm, depolarized, Raman Data Processed
Mineral: Akermanite
Rruff sample: R061100
Ideal chemistry: Ca_2_MgSi_2_O_7_
Locality: Lago de Vico, Viterbo, Italy
Source: Michael Scott
Description: Colorless to white short prismatic crystals
Measured chemistry: (Ca_1.80_Na_0.20_)_Σ=2_(Mg_0.58_Al_0.38_Fe_0.04_)_Σ=1_(Si_1.82_Al_0.18_)_Σ=2_O_7_
Pin_id: M00347
Orientation: Laser parallel to c* (0 0 1). Fiducial mark perpendicular to laser is parallel to a [1 0 0]
Raman shift (cm-1)	intensity
209.153	0
214.062	244.506
218.968	803.721
223.87	1318.14
228.77	1542.93
233.666	1492.25
238.56	1110.59
243.45	703.484
248.337	601.676
253.221	235.728
258.102	385.94
262.979	217.398
267.854	181.346
272.726	77.4863
277.594	40.7891
282.459	275.207
287.321	400.133
292.18	759.041
297.036	1002.76
301.889	1810.25
306.739	2403.25
311.586	2687.41
316.43	2305.14
321.271	1797.59
326.108	1165.25
330.943	758.445
335.774	422.404
340.603	499.115
345.428	327.574
350.251	251.838
355.07	265.393
359.887	307.742
364.7	120.236
369.511	120.272
374.318	67.2988
379.123	65.5762
383.924	199.356
388.723	104.188
393.518	46.6094
398.311	27.1523
403.1	11.5332
407.887	75.6621
412.671	57.0195
417.451	232.688
422.229	347.002
427.004	547.471
431.776	849.914
436.545	940.639
441.311	1098.43
446.074	1552.99
450.834	1888.24
455.591	2254.26
460.346	2076.28
465.097	1827.67
469.846	1903.61
474.591	2047.23
479.334	2565.93
484.074	2565.59
488.811	2694.34
493.545	2227.56
498.276	1718.21
503.005	1556.27
507.73	1359.87
512.453	1393.46
517.173	1235.75
521.89	1423.12
526.604	1242.89
531.315	911.811
536.024	831.303
540.729	618.932
545.432	416.299
550.132	483.488
554.83	282.596
559.524	349.699
564.216	279.967
568.904	492.853
573.59	471.379
578.274	520.168
582.954	751.65
587.632	1094.88
592.307	1617.44
596.979	2337.28
601.648	3588.04
606.315	4996.82
610.979	6934.02
615.64	8787.73
620.298	10396.4
624.954	11678
629.607	11188.4
634.257	9349.5
638.904	7635.52
643.549	6979.06
648.191	8344.09
652.83	12757.7
657.467	19042.4
662.101	22994.6
666.732	22493.7
671.36	17604.2
675.986	11957.2
680.609	7728.78
685.23	5019.67
689.847	3295.48
694.462	2342.38
699.075	1789.15
703.685	1168.79
708.292	1129.21
712.896	969.369
717.498	584.262
722.097	444.887
726.694	595.24
731.287	100.32
735.879	209.094
740.467	186.582
745.053	155.783
749.637	123.639
754.217	78.9785
758.795	7.89648
763.371	59.3828
767.944	46.2305
772.514	79.6523
777.082	236.746
781.647	122.453
786.21	71.4844
790.77	249.91
795.327	16.0605
799.882	40.5059
804.434	20.3945
808.984	298.215
813.531	143.457
818.076	257.44
822.618	257.164
827.158	398.637
831.695	289.865
836.229	344.871
840.761	515.666
845.291	837.232
849.817	1086.61
854.342	1604.8
858.864	2174.78
863.383	2674.57
867.9	2779.37
872.414	2135.6
876.926	1994.18
881.436	2936.48
885.942	4495.41
890.447	5878.98
894.949	6730.78
899.448	8222.31
903.945	11843.7
908.44	17747.6
912.932	23326.5
917.421	23519.7
921.909	22731.5
926.393	19131.4
930.876	14310.3
935.355	9912.86
939.833	6981.25
944.308	5221.82
948.78	4326.9
953.25	3804.94
957.718	3346.15
962.183	2927
966.646	2304.63
971.107	2035.25
975.565	1383.71
980.02	1339.46
984.474	1396.76
988.925	1084.86
993.373	1144.03
997.819	1058.67
1002.26	1238.61
1006.7	1203.77
1011.14	688.332
1015.58	1026.1
1020.01	865.271
1024.45	596.801
1028.88	522.186
1033.3	599.281
1037.73	815.807
1042.15	692.559
1046.57	359.69
1050.99	106.846
1055.4	391.81
1059.82	370.848
1064.23	314.295
1068.64	313.043
1073.04	241.828
1077.45	179.473
1081.85	216.541
1086.25	331.984
1090.64	370.373
1095.04	296.957
1099.43	106.607
1103.82	239.264
1108.21	377.891
1112.6	35.0859
1116.98	38.5215
1121.36	82.916
1125.74	274.875
1130.12	54.1855
1134.49	156.033
1138.86	129.352
1143.23	54.625
1147.6	132.24
1151.96	6.6582
1156.33	284.959
1160.69	107.324
1165.05	231.805
1169.4	89.2461
1173.76	129.975
1178.11	37.7148
1182.46	216.559
1186.81	125.004
1191.15	72.1231
1195.49	38.4219
1199.84	132.42
1204.17	147.742
1208.51	5.07422
1212.84	274.203
1217.18	173.121
1221.51	205.416
1225.83	147.287
1230.16	285.119
1234.48	227.633
1238.8	118.025
1243.12	243.438
1247.44	87.2519
1251.76	249.619
1256.07	165.435
1260.38	344.758
1264.69	344.576
1268.99	255.506
1273.3	117.688
1277.6	335.166
1281.9	129.963
1286.2	58.873
1290.49	259.848
1294.79	62.7129
1299.08	321.906
1303.37	122.629
1307.65	210.438
1311.94	249.441
1316.22	20.1875
1320.5	301.195
1324.78	117.156
1329.06	212.973
1333.33	188.07
1337.6	306.184
1341.87	134.773
1346.14	247.555
1350.41	432.465
1354.67	216.379
1358.93	274.465
1363.19	120.953
1367.45	228.836
1371.71	373.785
1375.96	133.894
1380.21	223.231
1384.46	258.898
1388.71	319.43
1392.96	19.6953
1397.2	220.379
1401.44	39.6484
1405.68	258.043
1409.92	220.969
1414.16	120.043
1418.39	300.18
1422.62	24.1875
1426.85	340.195
1431.08	266
1435.3	155.199
1439.53	359.516
1443.75	216.305
1447.97	350.641
1452.19	472.18
1456.4	196.769
1460.62	446.844
1464.83	494.09
1469.04	391.68
1473.24	419.578
1477.45	217.332
1481.65	384.527
1485.86	156.164
1490.06	344.18
1494.26	228.168
1498.45	341.363
1502.64	214.312
1506.84	389.801
1511.03	246.543
1515.22	217.562
1519.4	525.758
1523.59	71.2852
1527.77	200.082
1531.95	211.039
1536.13	40.4102
1540.31	348.297
1544.48	202.773
1548.65	194.516
1552.82	211.094
1556.99	193.027
1561.16	157.535
1565.33	0
