Measurement: Raman, 514 nm, depolarized, Raman Data Processed
Mineral: Akermanite
Rruff sample: R061085
Ideal chemistry: Ca_2_MgSi_2_O_7_
Locality: Kovdor, Kola Peninsula, Russia
Source: Michael Scott
Description: Dark blue coarsely crystalline massive associated with green diopside
Measured chemistry: (Ca_1.78_Na_0.22_)_Σ=2_(Mg_0.70_Al_0.22_Fe^2+^_0.08_)_Σ=1_Si_2.00_O_7_
Pin_id: M00490
Orientation: Laser parallel to -c* (0 0 -1). Fiducial mark perpendicular to laser is parallel to a [1 0 0]
Raman shift (cm-1)	intensity
153.852	0
158.75	17.0801
163.645	142.884
168.539	45.0708
173.43	12.4551
178.319	153.436
183.206	230.324
188.091	608.94
192.973	694.823
197.853	1022.52
202.731	1340.61
207.607	1732.36
212.48	2341.6
217.351	2834.76
222.22	3301.65
227.087	3435.84
231.951	2971.53
236.813	2365.37
241.673	1927.77
246.53	1590.05
251.386	1486.37
256.239	1466.8
261.089	1640.42
265.938	1490.59
270.784	1502.03
275.628	1582.49
280.469	1774.82
285.309	2264.8
290.146	2809.3
294.98	3688.4
299.813	4588.45
304.643	5734.48
309.471	6125.06
314.296	5735.38
319.119	4655.58
323.94	3525.28
328.758	2467.29
333.575	1705.2
338.388	1188.92
343.2	935.389
348.009	772.564
352.816	642.43
357.621	636.979
362.423	573.188
367.223	468.988
372.02	280.287
376.815	190.076
381.608	0.628906
386.398	9.14258
391.187	153.39
395.972	141.134
400.756	25.647
405.537	44.0654
410.315	5.1416
415.092	67.0566
419.865	74.9238
424.637	93.0176
429.406	46.5938
434.173	2.84522
438.937	176.477
443.699	513.221
448.459	690.632
453.216	818.726
457.971	938.536
462.723	1033.06
467.473	1204.29
472.221	1587.27
476.966	1949.08
481.709	2029.81
486.449	1895.58
491.187	1569.29
495.923	1351.22
500.656	1240.12
505.387	1237.11
510.115	1215.14
514.841	1288.11
519.565	1168.69
524.286	895.842
529.004	683.293
533.72	603.123
538.434	508.654
543.146	435.157
547.854	364.125
552.561	311.131
557.265	296.286
561.966	374.164
566.665	366.125
571.362	461.431
576.056	493.566
580.748	815.747
585.437	1047.1
590.124	1454.86
594.808	2216.54
599.49	3554.31
604.17	4986.46
608.846	6884.03
613.521	9782.84
618.193	12853.5
622.862	14299.9
627.529	13275.5
632.194	10589.3
636.856	7869.35
641.515	6577.43
646.172	7685.37
650.827	12572.5
655.479	22633
660.129	33704.6
664.776	36832.4
669.42	28293
674.062	17647.2
678.702	10349.2
683.339	6324.21
687.973	3958.22
692.605	2641.29
697.235	1876.52
701.862	1311.94
706.486	1055.69
711.108	780.701
715.728	657.971
720.344	559.192
724.959	383.261
729.57	212.161
734.18	165.902
738.786	129.491
743.391	108.918
747.992	14.1509
752.591	54.9477
757.188	50.5298
761.782	56.8447
766.373	79.9409
770.962	28.7764
775.549	136.583
780.133	24.5527
784.714	86.9487
789.292	47.2388
793.869	33.9522
798.442	42.7505
803.013	24.7573
807.581	60.6196
812.147	146.997
816.711	422.384
821.271	523.793
825.829	378.233
830.385	465.713
834.938	566.238
839.488	876.815
844.036	1168.51
848.581	1800.36
853.124	2503.37
857.664	3159.58
862.201	3817.04
866.736	3717.75
871.268	2674.86
875.798	2092.07
880.325	2091.03
884.849	2914.31
889.371	4233.64
893.89	6547.96
898.407	11337
902.921	20973.1
907.432	36183.7
911.941	48124.5
916.447	48073.3
920.95	39960.2
925.451	27226.7
929.95	16783.4
934.445	10731.1
938.938	7412.54
943.429	5765.02
947.916	4863.92
952.401	4417.28
956.884	4622.08
961.364	4496.32
965.841	4434.03
970.315	4263.17
974.787	3942.74
979.256	3995.14
983.723	4310.68
988.187	5089.41
992.648	6301.37
997.107	7302.96
1001.56	7132.47
1006.02	5946.66
1010.47	4561.69
1014.91	3709.36
1019.36	2937.47
1023.8	2482.59
1028.24	2152.35
1032.68	1744.81
1037.12	1511.93
1041.55	1255.43
1045.98	977.699
1050.4	929.779
1054.83	773.977
1059.25	547.381
1063.67	503.438
1068.08	431.276
1072.5	351.551
1076.91	406.938
1081.32	488.767
1085.72	514.42
1090.12	400.219
1094.52	169.609
1098.92	29.165
1103.31	25.7539
1107.7	86.0249
1112.09	89.8833
1116.48	75.8789
1120.86	88.8882
1125.24	40.5586
1129.62	4.66894
1134	79.417
1138.37	92.1313
1142.74	9.76611
1147.11	23.3887
1151.47	9.09961
1155.84	44.6489
1160.19	107.465
1164.55	41.5244
1168.9	33.8882
1173.26	87.0938
1177.6	24.8023
1181.95	32.3052
1186.29	140.269
1190.63	91.6719
1194.97	132.486
1199.31	8.96338
1203.64	132.232
1207.97	149.171
1212.29	14.8623
1216.62	127.228
1220.94	187.344
1225.26	187.161
1229.57	209.675
1233.88	116.643
1238.19	105.25
1242.5	101.039
1246.81	230.968
1251.11	195.008
1255.4	100.238
1259.7	121.946
1263.99	73.1958
1268.29	163.999
1272.57	74.3691
1276.86	146.759
1281.14	110.622
1285.42	2.99512
1289.7	172.998
1293.97	20.0664
1298.24	133.121
1302.51	80.9189
1306.78	90.7754
1311.04	34.7153
1315.3	151.888
1319.56	184.524
1323.81	135.787
1328.06	86.4668
1332.31	170.037
1336.56	111.512
1340.8	146.569
1345.04	85.8262
1349.28	77.9888
1353.52	98.5923
1357.75	159.588
1361.98	99.4722
1366.2	99.1768
1370.43	133.912
1374.65	82.7358
1378.87	48.291
1383.09	71.2695
1387.3	83.3677
1391.51	133.601
1395.71	184.219
1399.92	25.9102
1404.12	85.5688
1408.32	66.3208
1412.52	54.5142
1416.71	99.4482
1420.9	30.0928
1425.09	113.835
1429.27	39.8203
1433.45	173.835
1437.63	149.42
1441.81	220.304
1445.98	215.245
1450.15	234.56
1454.32	250.979
1458.48	146.532
1462.65	280.168
1466.81	93.6943
1470.96	300.604
1475.12	189.524
1479.27	121.593
1483.41	157.788
1487.56	174.847
1491.7	60.9136
1495.84	13.2285
1499.98	0.677734
1504.11	64.2456
1508.24	90.9751
1512.37	31.166
1516.49	51.0654
1520.62	116.495
1524.74	121.129
1528.85	85.7686
1532.97	20.0273
1537.08	43.4434
1541.19	99.6187
1545.29	15.7598
1549.39	73.4365
1553.49	140.39
1557.59	153.628
1561.68	73.8115
