Measurement: Raman, 514 nm, depolarized, Raman Data Processed
Mineral: Akermanite
Rruff sample: R061085
Ideal chemistry: Ca_2_MgSi_2_O_7_
Locality: Kovdor, Kola Peninsula, Russia
Source: Michael Scott
Description: Dark blue coarsely crystalline massive associated with green diopside
Measured chemistry: (Ca_1.78_Na_0.22_)_Σ=2_(Mg_0.70_Al_0.22_Fe^2+^_0.08_)_Σ=1_Si_2.00_O_7_
Pin_id: M00203
Orientation: Laser parallel to a* (1 0 0). Fiducial mark perpendicular to laser is parallel to c [0 0 1]
Raman shift (cm-1)	intensity
148.951	0
153.852	80.7161
158.75	9.42334
163.645	37.7219
168.539	7.29956
173.43	15.7715
178.319	173.367
183.206	329.468
188.091	507.697
192.973	715.664
197.853	954.181
202.731	1243.77
207.607	1487.31
212.48	1783.79
217.351	2220.61
222.22	2350.28
227.087	2460.62
231.951	2104.86
236.813	1609.25
241.673	1240.97
246.53	1021.12
251.386	871.731
256.239	858.857
261.089	910.51
265.938	813.017
270.784	1028.06
275.628	1146.46
280.469	1377.14
285.309	1720.07
290.146	2216.03
294.98	2653.05
299.813	3437.47
304.643	4017.38
309.471	4299.76
314.296	3798.14
319.119	3282.49
323.94	2278.21
328.758	1573.88
333.575	1176.44
338.388	860.851
343.2	670.084
348.009	528.002
352.816	504.266
357.621	524.611
362.423	473.938
367.223	343.934
372.02	177.621
376.815	107.015
381.608	7.13867
386.398	9.16846
391.187	62.2205
395.972	6.87524
400.756	71.8601
405.537	30.1821
410.315	26.9114
415.092	25.7722
419.865	37.5425
424.637	39.9207
429.406	10.6467
434.173	196.03
438.937	488.22
443.699	981.239
448.459	1365.09
453.216	1231.77
457.971	884.261
462.723	877.567
467.473	893.696
472.221	1033.71
476.966	1176.67
481.709	1270.63
486.449	1153.61
491.187	880.619
495.923	821.593
500.656	736.675
505.387	726.885
510.115	767.123
514.841	720.332
519.565	666.841
524.286	539.155
529.004	440.356
533.72	359.953
538.434	229.814
543.146	148.001
547.854	145.334
552.561	78.8286
557.265	74.0442
561.966	176.615
566.665	182.363
571.362	235.272
576.056	389.308
580.748	345.101
585.437	691.841
590.124	979.528
594.808	1602.16
599.49	2532.74
604.17	3629.39
608.846	4866.34
613.521	6654.04
618.193	8533.88
622.862	8943.98
627.529	7848.44
632.194	6185.35
636.856	4599.84
641.515	4003.02
646.172	4852.96
650.827	8453.71
655.479	15533
660.129	23215
664.776	24042.5
669.42	17235.7
674.062	10268
678.702	6022.43
683.339	3576.95
687.973	2249.67
692.605	1533.54
697.235	1065.47
701.862	842.405
706.486	543.246
711.108	519.023
715.728	411.703
720.344	284.248
724.959	214.657
729.57	180.935
734.18	98.0828
738.786	120.106
743.391	41.0102
747.992	39.7385
752.591	32.1665
757.188	0.837402
761.782	58.2969
766.373	26.3633
770.962	43.8752
775.549	55.8496
780.133	35.5549
784.714	33.905
789.292	18.6843
793.869	9.104
798.442	8.41846
803.013	8.89355
807.581	87.1479
812.147	6.37939
816.711	101.593
821.271	107.793
825.829	157.985
830.385	229.169
834.938	366.355
839.488	506.567
844.036	675.843
848.581	1011.14
853.124	1387.47
857.664	2068.82
862.201	2562.22
866.736	2432.78
871.268	1626.69
875.798	1367.44
880.325	1388.74
884.849	1936.28
889.371	2794.48
893.89	4452.92
898.407	7666.47
902.921	14664.4
907.432	25838
911.941	33043.5
916.447	31036.5
920.95	24480.7
925.451	15714
929.95	9482.33
934.445	6188.18
938.938	4406.86
943.429	3469.54
947.916	3126.52
952.401	3190.84
956.884	3315.45
961.364	3207.35
965.841	2944.54
970.315	2729.84
974.787	2558.47
979.256	2617.98
983.723	3017.43
988.187	3597.03
992.648	4568.93
997.107	4970.65
1001.56	4740.11
1006.02	3667.76
1010.47	2742.24
1014.91	2233.33
1019.36	1710.79
1023.8	1547.21
1028.24	1219.71
1032.68	1101.4
1037.12	921.117
1041.55	775.517
1045.98	634.333
1050.4	618.139
1054.83	484.913
1059.25	406.831
1063.67	285.258
1068.08	309.578
1072.5	319.38
1076.91	226.795
1081.32	263.615
1085.72	245.838
1090.12	160.276
1094.52	114.794
1098.92	43.3816
1103.31	23.0159
1107.7	27.6348
1112.09	30.2107
1116.48	104.813
1120.86	123.486
1125.24	100.13
1129.62	77.2398
1134	18.6599
1138.37	94.457
1142.74	24.5696
1147.11	23.0293
1151.47	78.5012
1155.84	19.5225
1160.19	18.292
1164.55	21.0373
1168.9	29.5337
1173.26	16.4404
1177.6	12.4355
1181.95	43.1409
1186.29	105.693
1190.63	46.0554
1194.97	20.835
1199.31	5.11865
1203.64	50.3545
1207.97	84.6553
1212.29	19.2666
1216.62	86.5386
1220.94	95.186
1225.26	120.673
1229.57	127.998
1233.88	130.324
1238.19	91.4758
1242.5	109.876
1246.81	57.4768
1251.11	137.09
1255.4	133.507
1259.7	94.915
1263.99	206.446
1268.29	193.583
1272.57	94.1145
1276.86	77.8733
1281.14	119.849
1285.42	55.9092
1289.7	148.027
1293.97	132.265
1298.24	80.1877
1302.51	143.036
1306.78	98.6619
1311.04	96.4844
1315.3	116.337
1319.56	89.2725
1323.81	134.302
1328.06	96.2048
1332.31	125.639
1336.56	51.7488
1340.8	83.6445
1345.04	76.9443
1349.28	103.223
1353.52	149.518
1357.75	127.733
1361.98	52.9434
1366.2	86.3294
1370.43	47.0991
1374.65	109.386
1378.87	99.3274
1383.09	66.7275
1387.3	98.0952
1391.51	53.6865
1395.71	33.3518
1399.92	55.2065
1404.12	22.2002
1408.32	112.035
1412.52	51.2349
1416.71	47.6736
1420.9	104.955
1425.09	79.3062
1429.27	68.4919
1433.45	81.4397
1437.63	60.6414
1441.81	152.28
1445.98	113.638
1450.15	78.325
1454.32	85.2351
1458.48	96.3376
1462.65	140.566
1466.81	101.87
1470.96	103.26
1475.12	17.7019
1479.27	107.375
1483.41	82.2219
1487.56	30.7524
1491.7	61.3147
1495.84	22.5095
1499.98	23.0735
1504.11	34.6304
1508.24	62.6362
1512.37	35.9221
1516.49	53.5076
1520.62	84.3625
1524.74	97.5571
1528.85	54.9219
1532.97	115.61
1537.08	38.2082
1541.19	147.104
1545.29	146.716
1549.39	149.75
1553.49	116.947
1557.59	90.978
1561.68	95.3206
