Measurement: Raman, 514 nm, depolarized, Raman Data Processed
Mineral: Akermanite
Rruff sample: R061100
Ideal chemistry: Ca_2_MgSi_2_O_7_
Locality: Lago de Vico, Viterbo, Italy
Source: Michael Scott
Description: Colorless to white short prismatic crystals
Measured chemistry: (Ca_1.80_Na_0.20_)_Σ=2_(Mg_0.58_Al_0.38_Fe_0.04_)_Σ=1_(Si_1.82_Al_0.18_)_Σ=2_O_7_
Pin_id: M00238
Orientation: Laser parallel to a* (1 0 0). Fiducial mark perpendicular to laser is parallel to -c [0 0 -1]
Raman shift (cm-1)	intensity
206.697	0
211.608	121.641
216.515	564.451
221.419	992.547
226.321	1424.11
231.219	1646.52
236.114	1339.02
241.005	1080.24
245.894	770.352
250.779	488.81
255.662	328.957
260.541	577.072
265.417	276.662
270.29	266.635
275.16	240.447
280.027	517.863
284.891	765.246
289.751	1093.77
294.609	1782.29
299.463	2771.12
304.315	4083.46
309.163	4763.25
314.008	4540.77
318.851	3979.88
323.69	2728.74
328.526	1984.78
333.359	1117.62
338.189	970.107
343.016	488.273
347.84	335.201
352.661	227.178
357.479	479.887
362.294	311.244
367.106	68.4141
371.915	89.5098
376.721	129.934
381.524	198.75
386.324	108.418
391.121	37.4414
395.915	100.883
400.706	119.723
405.494	104.971
410.279	2.1582
415.061	50.9473
419.841	59.9336
424.617	181.353
429.39	160.398
434.161	332.049
438.928	658.635
443.693	655.924
448.454	899.602
453.213	1118.32
457.969	1284.06
462.722	1283.65
467.472	1239.58
472.219	1725.03
476.963	1746.06
481.704	1939.65
486.443	2135.83
491.178	1645.2
495.911	1430.81
500.641	1088.16
505.368	1116.2
510.092	1079.4
514.813	1260.52
519.532	938.795
524.247	1156.91
528.96	828.4
533.67	636.072
538.377	470.402
543.081	451.566
547.783	231.688
552.481	251.277
557.177	364.51
561.87	282.82
566.56	292.6
571.248	447.934
575.932	515.541
580.614	878.295
585.293	1220.81
589.97	1919.07
594.643	2508.13
599.314	3932.06
603.982	5761.11
608.647	7849.04
613.31	10150
617.969	11963.5
622.626	13616
627.281	13233.1
631.932	11467.1
636.581	9235.78
641.227	7873.81
645.87	8584.12
650.511	12141.7
655.149	18695.3
659.784	24067.7
664.417	24747.3
669.046	20922.6
673.674	14734.2
678.298	9420.08
682.92	6173.52
687.539	3969.56
692.155	2714.13
696.769	1878.01
701.38	1351.12
705.988	1115.3
710.594	963.057
715.197	806.516
719.798	420.51
724.396	316.391
728.991	302.166
733.583	308.848
738.173	64.4434
742.761	409.957
747.345	86.375
751.927	189.678
756.507	220.857
761.084	165.996
765.658	76.0469
770.229	114.766
774.799	145.467
779.365	187.637
783.929	44.6387
788.49	245.045
793.049	121.877
797.605	104.215
802.159	269.266
806.71	278.359
811.258	592.494
815.804	396.68
820.347	323.912
824.888	724.189
829.427	507.51
833.962	700.879
838.495	979.332
843.026	1103.2
847.554	1418.25
852.08	1934.49
856.603	2427.89
861.124	2945.41
865.642	3304.32
870.157	2803.83
874.671	2457.4
879.181	2696.54
883.689	4206.09
888.195	6218.88
892.698	7340.14
897.199	8165.6
901.697	11176.5
906.193	16822.2
910.686	23171
915.177	26425
919.665	25305.8
924.151	23384
928.635	18261.8
933.116	12742.8
937.594	8870.22
942.071	6583.66
946.544	5503.54
951.016	4968.83
955.485	4936.55
959.951	4797.69
964.415	4422.31
968.877	4145.37
973.336	3368.1
977.793	3466.18
982.247	3185.21
986.699	3792.14
991.149	4446.31
995.596	5253.92
1000.04	5874.45
1004.48	5402.75
1008.92	4405.41
1013.36	3341.2
1017.8	2763.38
1022.23	2394.34
1026.66	2031.88
1031.09	1810.74
1035.52	1530.03
1039.94	1186.66
1044.36	1174.29
1048.78	1005.99
1053.2	705.371
1057.61	337.918
1062.02	628.418
1066.43	635.031
1070.84	457.576
1075.24	479.756
1079.65	370.746
1084.05	550.859
1088.45	329.758
1092.84	90.7812
1097.23	139.443
1101.63	19.8047
1106.02	86.7539
1110.4	26.7148
1114.79	37.9727
1119.17	208.34
1123.55	165.812
1127.93	86.6406
1132.3	69.8086
1136.67	30.3613
1141.05	162.412
1145.41	84.7988
1149.78	152.594
1154.14	204.887
1158.51	63.4023
1162.87	115.752
1167.22	12.4766
1171.58	54.3887
1175.93	504.299
1180.28	85.0508
1184.63	419.023
1188.98	146.539
1193.32	40.4316
1197.66	58.8535
1202	315.568
1206.34	163.707
1210.68	261.326
1215.01	297.434
1219.34	117.053
1223.67	272.066
1228	451.471
1232.32	118.326
1236.64	490.803
1240.96	387.76
1245.28	357.627
1249.6	98.3106
1253.91	265.647
1258.22	381.219
1262.53	475.945
1266.84	340.129
1271.14	52.3477
1275.45	168.266
1279.75	139.141
1284.05	125.223
1288.34	20.0352
1292.64	173.758
1296.93	319.387
1301.22	94.7969
1305.51	238.723
1309.8	126.008
1314.08	221.383
1318.36	321.254
1322.64	93.832
1326.92	389.934
1331.19	211.223
1335.47	225.59
1339.74	296.758
1344.01	183.797
1348.28	203.887
1352.54	418.82
1356.8	144.191
1361.07	339.062
1365.32	210.688
1369.58	285.215
1373.84	144.016
1378.09	78.2852
1382.34	114.352
1386.59	53.4062
1390.84	51.3359
1395.08	125.047
1399.32	166.481
1403.56	89.7227
1407.8	99.7578
1412.04	271.527
1416.27	279.879
1420.51	113.152
1424.74	9.72266
1428.96	68.582
1433.19	213.297
1437.42	150.856
1441.64	493.637
1445.86	231.922
1450.08	138.57
1454.3	333.457
1458.51	444.344
1462.72	345.793
1466.93	401.586
1471.14	98.5039
1475.35	56.5977
1479.55	107.023
1483.76	256.856
1487.96	365.965
1492.16	73.2578
1496.35	321.074
1500.55	336.832
1504.74	69.6328
1508.93	163.465
1513.12	14.1602
1517.31	452.363
1521.49	220.723
1525.68	351.617
1529.86	218.426
1534.04	465.211
1538.22	256.039
1542.39	360.754
1546.57	15.9922
1550.74	331.887
1554.91	358.652
1559.08	513.738
1563.24	2.36719
