Measurement: Raman, 514 nm, ccw, Raman Data Processed
Mineral: Albite
Rruff sample: R040068
Ideal chemistry: NaAlSi_3_O_8_
Locality: Harding Pegmatite, Dixon, New Mexico, USA
Source: University of Arizona Mineral Museum
Description: Tan colored crystal fragment
Measured chemistry: (Na_0.99_Ca_0.01_)Al_1.00_(Si_0.99_Al_0.01_)_3_O_8_
Pin_id: M00167
Orientation: Laser parallel to (-1 -1 0). Fiducial mark perpendicular to laser is parallel to -c [0 0 -1]
Raman shift (cm-1)	intensity
86.892	0
91.081	57.7827
95.268	23.5454
99.453	103.248
103.636	271.497
107.817	819.723
111.996	1666.71
116.172	2017.63
120.347	1400.73
124.519	1222.5
128.69	1055.83
132.858	1204.11
137.025	1406.9
141.189	2228.41
145.352	3997.11
149.512	6064.63
153.67	5183.71
157.827	4885.31
161.981	6123.68
166.133	4995.24
170.283	3966.29
174.431	4206.4
178.577	5925.73
182.721	8894.79
186.863	9763.78
191.003	6522.83
195.141	3702.01
199.277	2460.36
203.411	2524.89
207.543	3520.61
211.673	2842.5
215.801	1260.55
219.927	632.738
224.051	288.699
228.173	206.924
232.292	294.642
236.41	293.262
240.526	516.891
244.64	1315.03
248.752	3113.27
252.861	3688.72
256.969	2195.32
261.075	1634.15
265.179	2922.26
269.281	4197.93
273.38	3195.05
277.478	2136.77
281.574	2831.26
285.668	6300.38
289.76	11180
293.85	8840.08
297.937	3970.47
302.023	1672.15
306.107	991.056
310.189	782.149
314.269	611.4
318.347	396.783
322.423	761.266
326.497	2168.77
330.569	2091.22
334.639	945.616
338.707	272.961
342.773	241.273
346.837	385.56
350.899	294.848
354.96	85.1431
359.018	25.4629
363.074	121.148
367.128	46.0542
371.181	132.086
375.231	119.46
379.28	120.101
383.326	95.0713
387.37	3.37402
391.413	123.716
395.454	936.009
399.492	1472.5
403.529	1287.23
407.564	1118.5
411.596	1178.44
415.627	1966.35
419.656	1148.3
423.683	286.303
427.708	88.3262
431.731	66.4014
435.752	220.467
439.772	398.457
443.789	536.749
447.804	1015.03
451.817	2581.64
455.829	4468.9
459.838	3335.8
463.846	2172.5
467.852	2478.63
471.855	4904.61
475.857	12680.5
479.857	16926.2
483.855	8861.7
487.851	4247.1
491.845	2972.33
495.837	3557.4
499.828	7062.65
503.816	18558.3
507.802	27004.4
511.787	15201.7
515.77	6478.7
519.75	3362.71
523.729	2038.16
527.706	1383.5
531.681	1167.15
535.654	869.342
539.625	607.041
543.595	648.102
547.562	425.305
551.527	309.74
555.491	352.746
559.453	195.674
563.412	178.192
567.37	280.586
571.326	312.893
575.28	505.168
579.233	527.619
583.183	489.64
587.131	151.469
591.078	173.042
595.022	134.441
598.965	105.844
602.906	139.167
606.845	108.082
610.782	88.9141
614.718	139.547
618.651	120.006
622.582	170.281
626.512	260.377
630.44	580.296
634.366	740.038
638.29	489.603
642.212	538.989
646.132	528.198
650.05	347.228
653.967	286.079
657.882	184.747
661.794	103.223
665.705	1.48731
669.614	10.5137
673.522	87.1279
677.427	45.6094
681.331	28.5918
685.232	121.635
689.132	105.116
693.03	68.2529
696.926	35.0596
700.82	37.8252
704.713	45.085
708.603	143.987
712.492	146.462
716.379	256.94
720.264	352.918
724.147	324.551
728.028	207.49
731.908	128.363
735.785	193.7
739.661	258.601
743.535	376.804
747.407	601.149
751.278	1015.23
755.146	1529.84
759.013	3443.38
762.878	6136.4
766.741	4458.9
770.602	2302.78
774.461	1375.38
778.319	1048.7
782.174	571.584
786.028	594.304
789.88	436.866
793.73	509.272
797.579	411.524
801.425	473.628
805.27	795.584
809.113	1737.39
812.954	3838.73
816.794	3959.1
820.631	1807.25
824.467	764.86
828.301	515.666
832.133	328.252
835.963	309.165
839.792	274.323
843.618	190.907
847.443	124.751
851.266	23.3027
855.088	15.4883
858.907	35.6123
862.725	53.2852
866.541	101.481
870.355	41.915
874.167	38.7607
877.978	10.4023
881.787	79.3721
885.594	7.7832
889.399	16.3682
893.202	35.0967
897.004	73.3398
900.803	141.71
904.601	39.9385
908.398	78.3613
912.192	36.6475
915.985	54.9277
919.776	113.207
923.565	231.476
927.352	20.2705
931.138	167.976
934.922	36.2295
938.704	184.49
942.484	192.758
946.262	301.034
950.039	49.3301
953.814	237.641
957.587	365.972
961.359	424.357
965.128	632.793
968.896	701.269
972.662	1659.81
976.427	2828.43
980.189	2707.2
983.95	1436.17
987.709	755.395
991.467	574.749
995.222	454.264
998.976	574.208
1002.73	782.511
1006.48	1283.27
1010.23	875.422
1013.97	1019.73
1017.72	934.211
1021.46	751.2
1025.2	759.881
1028.94	987.137
1032.68	1301.33
1036.42	977.238
1040.15	616.695
1043.89	669.056
1047.62	829.569
1051.35	682.252
1055.07	373.869
1058.8	286.424
1062.52	358.997
1066.25	271.99
1069.97	277.236
1073.69	446.631
1077.4	609.637
1081.12	593.195
1084.83	806.896
1088.55	1300.14
1092.26	2543.44
1095.96	4107.28
1099.67	4870.69
1103.38	3463.95
1107.08	2187.47
1110.78	1544.92
1114.48	1289
1118.18	1283.4
1121.88	797.281
1125.57	540.889
1129.27	525.697
1132.96	118.18
1136.65	302.481
1140.34	107.223
1144.02	180.498
1147.71	345.709
1151.39	523.496
1155.07	477.799
1158.75	300.889
1162.43	142.451
1166.11	7.69336
1169.78	122.312
1173.45	178.34
1177.12	265.934
1180.79	81.8613
1184.46	266.731
1188.13	154.947
1191.79	22.5625
1195.45	118.336
1199.11	2.86133
1202.77	230.326
1206.43	353.787
1210.09	244.301
1213.74	195.449
1217.39	228.455
1221.05	32.6211
1224.69	53.7148
1228.34	64.4531
1231.99	161.924
1235.63	325.631
1239.27	475.881
1242.91	306.008
1246.55	315.949
1250.19	165.748
1253.83	44.6016
1257.46	64.7051
1261.09	329.092
1264.72	298.877
1268.35	447.404
1271.98	375.59
1275.61	393.684
1279.23	271.582
1282.85	69.3633
1286.47	84.7246
1290.09	120.475
1293.71	144.791
1297.33	89.1973
1300.94	342.711
1304.55	215.797
1308.16	58.4199
1311.77	180.428
1315.38	42.0957
1318.99	6.50781
1322.59	54.293
1326.19	204.777
1329.79	374.236
1333.39	283.482
1336.99	261.566
1340.59	369.82
1344.18	226.607
1347.77	83.8984
1351.37	89.1914
1354.95	92.5234
1358.54	133.527
1362.13	9.66797
1365.71	555.707
1369.3	395.658
1372.88	501.873
1376.46	437.492
1380.04	419.932
1383.61	525.963
1387.19	402.557
1390.76	621.326
1394.33	612.629
1397.9	645.975
1401.47	468.898
1405.04	560.299
1408.6	356.578
1412.16	441.043
1415.72	433.588
1419.29	180.463
1422.84	41.0566
1426.4	493.713
1429.96	312.059
1433.51	375.738
1437.06	510.121
1440.61	547.836
1444.16	756.576
1447.71	482.398
1451.25	668.297
1454.8	483.203
1458.34	368.75
1461.88	366.859
1465.42	15.4062
1468.96	101.281
1472.49	158.297
1476.03	121.338
1479.56	355.965
1483.09	390.4
1486.62	414.137
1490.15	658.738
1493.67	363.766
1497.2	513.731
1500.72	215.908
1504.24	159.652
1507.76	41.4727
1511.28	6.96875
1514.8	56.5273
