Measurement: Raman, 514 nm, depolarized, Raman Data Processed
Mineral: Albite
Rruff sample: R040068
Ideal chemistry: NaAlSi_3_O_8_
Locality: Harding Pegmatite, Dixon, New Mexico, USA
Source: University of Arizona Mineral Museum
Description: Tan colored crystal fragment
Measured chemistry: (Na_0.99_Ca_0.01_)Al_1.00_(Si_0.99_Al_0.01_)_3_O_8_
Pin_id: M00167
Orientation: Laser parallel to (-1 -1 0). Fiducial mark perpendicular to laser is parallel to -c [0 0 -1]
Raman shift (cm-1)	intensity
92.477	0
96.663	10.6416
100.848	50.5825
105.03	510.746
109.21	1889.61
113.388	3696.41
117.564	2865.4
121.738	1719.06
125.91	1243.08
130.08	1129.25
134.248	1185.57
138.413	1480.65
142.577	2226.65
146.739	4210.53
150.898	5560.59
155.056	4393.35
159.212	4708.52
163.365	4919.39
167.517	3577.04
171.666	2899.49
175.813	3225.73
179.959	4613.9
184.102	6251.5
188.244	5959.01
192.383	3916.71
196.52	2414.75
200.656	1949.18
204.789	2862.05
208.92	3741.34
213.049	2368.05
217.176	977.15
221.302	400.67
225.425	111.259
229.546	86.7417
233.665	64.0293
237.782	198.58
241.898	499.3
246.011	1329.59
250.122	2810.83
254.231	2388.28
258.338	1192.73
262.443	1427.61
266.546	2764.98
270.647	3237.7
274.747	2068.72
278.844	1825.47
282.939	3167.59
287.032	7816.83
291.123	10737
295.212	6597.89
299.3	2689.42
303.385	1346.44
307.468	896.879
311.549	726.668
315.629	477.755
319.706	357.099
323.781	863.66
327.855	1754.38
331.926	1300.15
335.995	422.929
340.063	123.706
344.128	102.488
348.192	171.296
352.253	36.8428
356.313	62.0454
360.37	16.0771
364.426	89.4102
368.479	136.995
372.531	105.865
376.581	88.0088
380.629	51.6523
384.674	80.7832
388.718	40.4502
392.76	267.332
396.8	666.413
400.838	734.756
404.874	1259.63
408.908	1494.32
412.94	1683.98
416.97	2103.63
420.999	833.285
425.025	202.107
429.049	105.035
433.072	222.904
437.092	191.986
441.111	337.991
445.127	506.924
449.142	952.899
453.155	2036.3
457.166	2896.22
461.175	2147.22
465.181	2216.98
469.186	3836.39
473.19	10575.7
477.191	21894.8
481.19	20443.9
485.187	9682.73
489.183	4741.46
493.176	3850.04
497.168	5328.46
501.157	11596.7
505.145	28395.4
509.131	29156.2
513.115	13792.8
517.097	6046.03
521.077	3482.73
525.055	2201.8
529.031	1548.65
533.006	1102.8
536.978	859.086
540.949	687.741
544.917	509.951
548.884	524.241
552.849	358.229
556.812	277.546
560.773	374.022
564.732	260.075
568.689	356.184
572.644	392.057
576.598	547.999
580.55	663.843
584.499	409.315
588.447	253.714
592.393	98.918
596.337	134.001
600.279	98.9766
604.219	93.7754
608.158	178.362
612.094	72.7549
616.029	26.9717
619.962	71
623.892	104.851
627.821	318.53
631.749	452.05
635.674	375.397
639.597	368.577
643.519	421.586
647.438	504.424
651.356	327.088
655.272	199.58
659.186	101.902
663.098	74.0439
667.009	115.977
670.917	32.3105
674.824	30.8828
678.728	40.3975
682.631	21.7148
686.532	16.9463
690.432	15.5996
694.329	4.10449
698.224	30.127
702.118	20.6199
706.01	24.5352
709.9	5.50781
713.788	146.181
717.674	266.193
721.558	302.127
725.441	332.806
729.322	196.904
733.201	276.447
737.078	295.602
740.953	317.144
744.826	486.035
748.698	535.299
752.567	818.383
756.435	1609.83
760.301	3835.96
764.165	5312.82
768.028	3199.97
771.888	1708.43
775.747	1415.6
779.604	792.918
783.459	640.99
787.312	468.008
791.164	345.221
795.013	201.942
798.861	248.519
802.707	554.955
806.551	591.253
810.394	1367.42
814.234	2343.38
818.073	2018.46
821.91	821.639
825.745	542.137
829.578	322.113
833.41	236.364
837.24	299.476
841.068	176.519
844.894	215.27
848.718	18.6768
852.54	86.832
856.361	7.70606
860.18	21.9951
863.997	86.4268
867.812	69.4111
871.626	47.1065
875.438	96.4902
879.248	99.8252
883.056	23.1318
886.862	54.3096
890.667	29.1309
894.469	62.2549
898.27	14.7012
902.07	81.6846
905.867	68.8066
909.663	113.946
913.457	96.6973
917.249	0.550781
921.039	122.194
924.827	44.8994
928.614	77.5977
932.399	30.292
936.182	72.9746
939.964	245.641
943.744	168.31
947.521	150.988
951.298	203.675
955.072	86.3779
958.845	349.101
962.615	391.843
966.384	704.612
970.152	1007.41
973.917	1460.27
977.681	2353.2
981.443	1776.24
985.203	929.38
988.962	482.628
992.719	366.004
996.474	369.583
1000.23	782.919
1003.98	868.523
1007.73	1016.29
1011.48	790.404
1015.22	915.143
1018.97	750.063
1022.71	532.693
1026.45	695.99
1030.19	1019.65
1033.93	1130.49
1037.66	936.16
1041.4	633.988
1045.13	668.205
1048.86	615.548
1052.59	508.382
1056.32	430.938
1060.04	537.352
1063.77	364.306
1067.49	380.735
1071.21	487.705
1074.93	633.165
1078.64	740.131
1082.36	947.313
1086.07	1433.42
1089.78	2300.59
1093.49	3958.44
1097.2	6465.61
1100.91	6593
1104.61	4791.19
1108.32	3468.89
1112.02	3136.9
1115.72	2894.22
1119.41	2171.78
1123.11	1330.24
1126.8	818.03
1130.5	436.182
1134.19	335.062
1137.88	326.961
1141.56	459.653
1145.25	546.115
1148.93	455.797
1152.62	445.502
1156.3	212.562
1159.98	262.545
1163.65	127.314
1167.33	246.074
1171	15.498
1174.68	213.562
1178.35	102.062
1182.02	81.0996
1185.68	50.4102
1189.35	58.3086
1193.01	176.59
1196.67	203.195
1200.33	244.19
1203.99	141.428
1207.65	98.4844
1211.31	213.387
1214.96	99.6172
1218.61	135.094
1222.26	292.312
1225.91	341.639
1229.56	218.287
1233.2	353.596
1236.85	500
1240.49	233.853
1244.13	187.92
1247.77	82.7383
1251.4	387.744
1255.04	431.117
1258.67	504.498
1262.3	258.006
1265.93	300.519
1269.56	302.197
1273.19	243.346
1276.82	34.3242
1280.44	4.15625
1284.06	246.856
1287.68	196.744
1291.3	375.822
1294.92	164.207
1298.53	131.795
1302.14	170.746
1305.76	42.5996
1309.37	143.018
1312.98	97.9746
1316.58	222.545
1320.19	156.619
1323.79	280.334
1327.39	273.402
1330.99	354.816
1334.59	146.586
1338.19	267.629
1341.79	23.4727
1345.38	166.215
1348.97	306.172
1352.56	315.455
1356.15	474.246
1359.74	372.463
1363.32	530.457
1366.91	327.777
1370.49	135.053
1374.07	162.978
1377.65	33.1641
1381.23	259.281
1384.8	185.301
1388.38	270.963
1391.95	485.822
1395.52	549.519
1399.09	611.816
1402.66	490.533
1406.22	237.453
1409.79	377.682
1413.35	232.795
1416.91	153.746
1420.47	128.584
1424.03	315.447
1427.59	185.951
1431.14	417.703
1434.69	410.795
1438.24	335.99
1441.8	502.504
1445.34	222.06
1448.89	165.76
1452.43	172.535
1455.98	56.1055
1459.52	194.549
1463.06	353.695
1466.6	245.99
1470.14	596.744
1473.67	592.356
1477.2	811.084
1480.74	615.643
1484.27	296.914
1487.8	227.926
1491.32	40.6348
1494.85	252.908
1498.37	71.0078
1501.9	56.873
1505.42	74.3066
1508.94	347.102
1512.45	408.318
1515.97	67.6973
