Measurement: Raman, 514 nm, depolarized, Raman Data Processed
Mineral: Albite
Rruff sample: R050402
Ideal chemistry: NaAlSi_3_O_8_
Locality: Urbano mine, Golconda District, Brazil
Source: Bob Downs
Description: Colorless tabular single crystals associated with fluorapatite R050401
Measured chemistry: Na_1.00_Al_1.00_Si_3.00_O_8_
Pin_id: M00171
Orientation: Laser parallel to (1 1 0). Fiducial mark perpendicular to laser is parallel to c [0 0 1]
Raman shift (cm-1)	intensity
81.131	0
86.072	1741.7
91.012	1028.08
95.948	33.4605
100.883	358.997
105.815	1952.11
110.744	4226.29
115.671	3709.26
120.596	941.602
125.519	22.4971
130.439	72.1982
135.356	657.835
140.271	2221.43
145.184	4006.54
150.094	5073.61
155.002	5903.24
159.908	8111.99
164.811	8422.68
169.711	7321.5
174.61	7685.81
179.505	9267.73
184.399	10830.4
189.29	8841.98
194.178	5983.51
199.064	5466.94
203.948	7405.26
208.829	8733.43
213.708	5014.44
218.585	1410.36
223.459	320.597
228.33	69.2022
233.199	109.225
238.066	482.195
242.93	1964.66
247.792	4255.6
252.651	5494.44
257.508	3015.11
262.363	2934.58
267.215	4553.65
272.064	4994.83
276.912	5182.8
281.756	10561.8
286.598	20239
291.438	24262.1
296.276	12727.4
301.111	4491.55
305.943	2224.53
310.773	1593.24
315.601	1227.68
320.426	2367.86
325.248	4776.78
330.068	5483.43
334.886	2252.82
339.701	728.931
344.514	355.765
349.324	297.316
354.132	108.581
358.938	9.52344
363.741	117.137
368.541	160.16
373.339	133.625
378.135	169.836
382.928	33.9263
387.718	183.954
392.506	562.574
397.292	1213.99
402.075	1811.27
406.856	2818.47
411.634	2498.7
416.41	2213.91
421.183	909.016
425.954	291.16
430.722	142.169
435.488	186.888
440.251	205.301
445.012	564.815
449.77	912.168
454.526	1651.62
459.28	2206.76
464.03	3407.59
468.779	8009.12
473.525	19498.3
478.268	29751.2
483.009	19240.9
487.747	8283.17
492.483	7174.2
497.217	13359.9
501.948	31925.4
506.676	49172.9
511.402	32131.9
516.125	12147.5
520.846	5448.31
525.565	3066.35
530.281	2006.01
534.994	1422.71
539.705	1067.68
544.413	840.19
549.119	649.474
553.822	537.04
558.523	510.128
563.222	541.671
567.917	727.136
572.611	974.206
577.302	1527.77
581.99	1202.18
586.676	533.572
591.359	304.785
596.04	178.909
600.718	196.039
605.394	271.077
610.067	243.028
614.737	362.888
619.406	461.716
624.071	707.612
628.734	1119.47
633.395	1359.26
638.053	1288.96
642.708	1584.65
647.361	1608.7
652.012	1018.49
656.66	403.043
661.305	165.343
665.948	57.3882
670.588	93.6484
675.226	46.7935
679.861	45.2329
684.494	44.6201
689.124	156.465
693.752	58.8291
698.377	4.66846
702.999	74.9873
707.619	43.3691
712.237	137.843
716.852	166.896
721.464	108.022
726.074	85.8227
730.681	179.511
735.286	189.038
739.888	166.601
744.488	397.678
749.085	540.607
753.68	1278.72
758.272	3227.17
762.861	4887.04
767.448	3416.53
772.033	1605.13
776.614	1149.6
781.194	514.955
785.77	437.159
790.345	213.333
794.916	440.445
799.485	417.167
804.052	666.66
808.616	1664.47
813.177	3002.17
817.736	2590.41
822.292	1035.85
826.846	599.218
831.397	392.481
835.945	288.337
840.491	203.895
845.035	89.2578
849.576	138.126
854.114	119.298
858.65	149.143
863.183	155.816
867.713	143.483
872.241	5.96143
876.767	12.2104
881.29	41.352
885.81	24.5752
890.328	8.396
894.843	118.08
899.356	74.4932
903.866	64.7295
908.373	101.922
912.878	123.089
917.38	76.207
921.88	132.367
926.377	16.5195
930.872	54.6074
935.364	39.6475
939.853	6.73047
944.34	130.945
948.824	92.2871
953.306	3.7334
957.785	256.373
962.261	275.262
966.735	455.568
971.207	914.081
975.675	1497.91
980.141	1451.05
984.605	806.367
989.066	449.774
993.524	528.042
997.98	583.596
1002.43	1173.22
1006.88	1289.88
1011.33	1389.67
1015.78	1640.83
1020.22	1139.1
1024.66	1343.18
1029.1	1917.91
1033.53	2000.45
1037.97	1375.88
1042.4	958.425
1046.82	749.426
1051.25	419.099
1055.67	423.094
1060.09	280.567
1064.51	343.35
1068.92	484.677
1073.33	477.526
1077.74	717.053
1082.15	1010.68
1086.55	1745.39
1090.95	3110.07
1095.35	5630.17
1099.75	7390.36
1104.14	5758.66
1108.53	4216.08
1112.92	3616.6
1117.31	3317.21
1121.69	2289.94
1126.07	1431.78
1130.45	799.727
1134.82	539.336
1139.19	360.99
1143.57	249.355
1147.93	406.606
1152.3	410.435
1156.66	298.118
1161.02	147.105
1165.38	162.251
1169.73	161.54
1174.08	142.934
1178.43	21.6045
1182.78	40.1035
1187.12	34.2588
1191.46	113.533
1195.8	66.7148
1200.14	20.0107
1204.47	81.1826
1208.8	48.2393
1213.13	183.732
1217.46	120.743
1221.78	36.7705
1226.1	81.8418
1230.42	13.3398
1234.73	88.7539
1239.04	149.897
1243.35	185.31
1247.66	114.069
1251.97	209.579
1256.27	125.084
1260.57	227.004
1264.86	152.599
1269.16	107.231
1273.45	106.023
1277.74	166.027
1282.03	189.763
1286.31	73.9209
1290.59	99.332
1294.87	143.066
1299.14	185.432
1303.42	327.215
1307.69	216.613
1311.95	297.508
1316.22	314.383
1320.48	142.869
1324.74	197.654
1329	264.32
1333.26	209.862
1337.51	68.8691
1341.76	7.69922
1346	110.723
1350.25	119.917
1354.49	81.8154
1358.73	144.786
1362.96	122.735
1367.2	105.871
1371.43	70.3447
1375.66	8.62988
1379.88	44.7949
1384.11	4.97656
1388.33	34.8184
1392.54	67.0361
1396.76	8.23926
1400.97	59.4277
1405.18	24.7764
1409.39	186.941
1413.59	33.6484
1417.8	201.181
1421.99	109.621
1426.19	164.25
1430.38	130.606
1434.58	198.988
1438.77	216.576
1442.95	307.371
1447.13	267.272
1451.32	385.018
1455.49	310.422
1459.67	380.693
1463.84	237.095
1468.01	266.779
1472.18	135.102
1476.35	307.484
1480.51	158.168
1484.67	130.287
1488.83	157.958
1492.98	180.016
1497.13	36.7685
1501.28	234.877
1505.43	191.195
1509.57	16.7158
1513.71	83.5478
1517.85	195.56
1521.99	164.652
1526.12	66.0137
1530.25	112.594
1534.38	203.9
1538.5	261.896
1542.62	149.373
1546.74	293.179
1550.86	49.6543
1554.98	339.005
1559.09	77.1592
1563.2	96.3281
1567.31	28.6953
