Measurement: Raman, 514 nm, depolarized, Raman Data Processed
Mineral: Albite
Rruff sample: R050402
Ideal chemistry: NaAlSi_3_O_8_
Locality: Urbano mine, Golconda District, Brazil
Source: Bob Downs
Description: Colorless tabular single crystals associated with fluorapatite R050401
Measured chemistry: Na_1.00_Al_1.00_Si_3.00_O_8_
Pin_id: M00163
Orientation: Laser parallel to (1 0 1). Fiducial mark perpendicular to laser is parallel to b [0 1 0]
Raman shift (cm-1)	intensity
126.749	0
131.668	36.4121
136.585	403.844
141.5	1856.1
146.412	3159.06
151.321	6483.59
156.229	7076
161.134	6662.71
166.036	7750.62
170.936	5261.94
175.834	6108
180.729	8240.27
185.622	9982.23
190.512	8886.63
195.4	5464.77
200.286	4818.1
205.169	5602.62
210.049	6509.52
214.928	4771.73
219.803	1189.03
224.677	277.438
229.548	117.049
234.416	353.547
239.282	194.184
244.146	44.4883
249.007	386.488
253.866	993.533
258.722	746.764
263.576	906.205
268.427	1715.06
273.276	2108.55
278.123	2686.04
282.967	5661.93
287.809	9209.42
292.648	13207.8
297.485	8255.42
302.319	3103.98
307.151	1440.01
311.98	998.457
316.807	665.197
321.631	773.436
326.454	1052.22
331.273	1734.03
336.09	1153.46
340.905	925.9
345.717	1075.72
350.527	1581.09
355.334	1587.91
360.139	1343.07
364.941	1074.5
369.741	732.146
374.538	589.807
379.333	18.9434
384.126	120.746
388.916	155.812
393.703	570.369
398.488	820.231
403.271	873.293
408.051	1261.58
412.828	1415.51
417.603	1273.24
422.376	599.566
427.146	1.07812
431.914	55.2871
436.679	20.9961
441.442	147.445
446.202	493.877
450.96	1990.41
455.715	3807.97
460.467	4355.51
465.218	4428.98
469.965	9148.68
474.711	17298.6
479.454	26404
484.194	19854.6
488.932	8698.42
493.667	7172.98
498.4	12398.2
503.13	22868.1
507.858	33640.5
512.583	26465.2
517.306	10025.6
522.026	4489.76
526.744	2651.84
531.459	1630.51
536.172	1109.9
540.882	688.729
545.59	613.928
550.295	505.412
554.998	575.67
559.698	485.512
564.396	512.602
569.091	563.061
573.784	819.141
578.474	1233.49
583.162	1693.57
587.847	1575.72
592.529	1810.35
597.209	2193.38
601.887	1823.08
606.562	1539.4
611.235	1147.19
615.905	1109.53
620.572	1218.37
625.237	2128.76
629.9	1709.7
634.56	1343.14
639.217	1370.05
643.872	1685.43
648.524	2030.29
653.174	1685.68
657.821	1212.79
662.466	682.59
667.108	486.121
671.748	331.344
676.385	184.934
681.02	157.6
685.652	58.2148
690.281	79.543
694.908	79.4941
699.533	31.5898
704.155	144.031
708.774	24.7539
713.391	308.682
718.005	126.865
722.617	147.16
727.226	290.166
731.833	757.297
736.437	216.664
741.039	397.256
745.638	728.088
750.234	1111.2
754.828	2005.6
759.419	4291.29
764.008	6450.27
768.595	4808.55
773.178	2699.15
777.759	2208.06
782.338	1558.3
786.914	1151.07
791.488	1269.21
796.059	1751.69
800.627	2279.97
805.193	4872.95
809.756	7027.38
814.317	7301.32
818.875	5848.93
823.431	2836.57
827.984	1678.54
832.534	1448.03
837.082	1400.13
841.627	1624.11
846.17	1913.79
850.71	2792.07
855.248	3417.64
859.783	3299.14
864.316	2531.11
868.846	1466.65
873.373	976.521
877.898	678.922
882.42	382.617
886.94	411.185
891.457	334.65
895.971	356.027
900.483	439.33
904.993	554.578
909.5	503.785
914.004	332.971
918.505	113.15
923.004	85.3027
927.501	203.559
931.995	95.916
936.486	48.0312
940.975	84.2832
945.461	72.8027
949.945	20.3086
954.426	406.068
958.904	691.156
963.38	795.824
967.853	865.34
972.324	1283.64
976.792	1575.5
981.258	1413.87
985.72	1603
990.181	1104.38
994.639	1202.44
999.094	1673.89
1003.55	2444.61
1008	1539.59
1012.44	1250.83
1016.89	1451.32
1021.33	971.072
1025.77	1067.07
1030.21	946.338
1034.64	768.867
1039.07	518.664
1043.5	452.734
1047.93	387.076
1052.35	317.695
1056.78	19.3867
1061.19	56.957
1065.61	216.492
1070.02	262.555
1074.43	277.887
1078.84	805.588
1083.25	1403.84
1087.65	2426.03
1092.05	4192.92
1096.45	7151.64
1100.85	8562.73
1105.24	7101.1
1109.63	6153.68
1114.02	5454.51
1118.4	4301.58
1122.78	2945.83
1127.16	1687.23
1131.54	1135.78
1135.92	816.471
1140.29	707.303
1144.66	526.273
1149.02	871.379
1153.39	754.623
1157.75	825.992
1162.11	642.592
1166.46	668.314
1170.82	425.164
1175.17	617.129
1179.52	381.213
1183.86	442.402
1188.21	127.744
1192.55	112.439
1196.89	79.8516
1201.22	17.293
1205.55	125.547
1209.88	134.783
1214.21	93.7734
1218.54	18.1719
1222.86	414.824
1227.18	240.607
1231.5	341.088
1235.81	586.404
1240.12	599.246
1244.43	716.578
1248.74	950.738
1253.04	723.348
1257.34	964.023
1261.64	837.773
1265.94	1040.71
1270.23	1163.85
1274.52	1225.06
1278.81	1270.04
1283.1	845.688
1287.38	639.812
1291.66	807.394
1295.94	992.074
1300.21	1111.82
1304.48	1094.64
1308.75	902.512
1313.02	1254.43
1317.29	1094.38
1321.55	984.617
1325.81	627.098
1330.06	586.356
1334.32	367.434
1338.57	348.438
1342.82	200.371
1347.06	205.172
1351.31	180.617
1355.55	21.2891
1359.79	38.9531
1364.02	150.703
1368.26	25.4023
1372.49	304.398
1376.71	143.293
1380.94	149.562
1385.16	310.742
1389.38	451.606
1393.6	114.348
1397.81	278.008
1402.02	209.871
1406.23	341.953
1410.44	119.262
1414.64	185.941
1418.85	251.648
1423.04	635.824
1427.24	816.594
1431.43	1551.8
1435.62	2365.17
1439.81	3314.27
1444	4569.53
1448.18	4897.62
1452.36	5126.02
1456.54	4785.16
1460.71	4131.64
1464.89	3291.56
1469.06	2314.39
1473.22	1937.64
1477.39	1297.28
1481.55	1269.28
1485.71	1010.01
1489.86	692.941
1494.02	604.144
1498.17	389.812
1502.32	7.73828
1506.46	278.543
1510.61	224.898
1514.75	328.273
1518.88	178.113
1523.02	149.641
1527.15	282.285
1531.28	506.641
1535.41	102.574
1539.53	62.5273
1543.66	655.801
1547.78	13.0469
1551.89	572.027
1556.01	337.481
1560.12	103.949
1564.23	126.316
1568.33	133.188
