Measurement: Raman, 514 nm, ccw, Raman Data Processed
Mineral: Albite
Rruff sample: R040068
Ideal chemistry: NaAlSi_3_O_8_
Locality: Harding Pegmatite, Dixon, New Mexico, USA
Source: University of Arizona Mineral Museum
Description: Tan colored crystal fragment
Measured chemistry: (Na_0.99_Ca_0.01_)Al_1.00_(Si_0.99_Al_0.01_)_3_O_8_
Pin_id: M00167
Orientation: Laser parallel to (-1 -1 0). Fiducial mark perpendicular to laser is parallel to -c [0 0 -1]
Raman shift (cm-1)	intensity
99.453	0
103.636	107.183
107.817	1340.22
111.996	3964.57
116.172	3857.24
120.347	1792.28
124.519	975.628
128.69	702.302
132.858	577.134
137.025	604.809
141.189	748.473
145.352	1581.84
149.512	2701.61
153.67	2576.06
157.827	1836.87
161.981	1774.31
166.133	1552.31
170.283	1226.13
174.431	1233.75
178.577	1763.51
182.721	2610.86
186.863	2862.08
191.003	2197.8
195.141	1697.5
199.277	1504.42
203.411	2283.62
207.543	3921.15
211.673	3147.99
215.801	1253.13
219.927	270.511
224.051	26.5273
228.173	22.5503
232.292	57.6279
236.41	128.058
240.526	48.5947
244.64	336.012
248.752	1020.03
252.861	1319.89
256.969	784.759
261.075	621.68
265.179	1406.48
269.281	2377.85
273.38	2029.01
277.478	1548.33
281.574	2500.78
285.668	5962.74
289.76	10546.8
293.85	8111.73
297.937	3497.3
302.023	1414.36
306.107	843.744
310.189	518.384
314.269	406.209
318.347	231.174
322.423	211.244
326.497	553.381
330.569	539.455
334.639	283.062
338.707	98.5166
342.773	19.8433
346.837	17.897
350.899	1.12207
354.96	59.915
359.018	64.1069
363.074	96.4941
367.128	24.7998
371.181	45.148
375.231	103.333
379.28	91.8579
383.326	29.7051
387.37	45.7637
391.413	92.458
395.454	127.762
399.492	331.107
403.529	476.765
407.564	1155.78
411.596	1263.51
415.627	1807.15
419.656	1175.73
423.683	457.239
427.708	140.699
431.731	254.242
435.752	287.8
439.772	386.315
443.789	364.752
447.804	627.194
451.817	695.445
455.829	1012.51
459.838	1378.06
463.846	2179.81
467.852	3810.93
471.855	8830.32
475.857	22939.5
479.857	29948.6
483.855	15017.4
487.851	6756.06
491.845	4654.51
495.837	5252.76
499.828	10110.8
503.816	26145.7
507.802	37713.5
511.787	21137.7
515.77	9093.68
519.75	4742.28
523.729	3005.46
527.706	2041.39
531.681	1497.04
535.654	1239.6
539.625	917.715
543.595	811.255
547.562	704.726
551.527	497.606
555.491	485.897
559.453	376.179
563.412	278.205
567.37	345.06
571.326	452.84
575.28	705.77
579.233	790.02
583.183	584.705
587.131	243.239
591.078	195.522
595.022	225.661
598.965	182.657
602.906	117.509
606.845	131.213
610.782	170.769
614.718	77.1768
618.651	118.412
622.582	81.459
626.512	108.332
630.44	189.06
634.366	187.649
638.29	135.1
642.212	354.415
646.132	427.606
650.05	280.646
653.967	373.551
657.882	146.32
661.794	138.995
665.705	101.519
669.614	13.9375
673.522	116.206
677.427	88.3906
681.331	90.5371
685.232	62.8018
689.132	75.2295
693.03	47.6494
696.926	22.3037
700.82	10.8623
704.713	23.9473
708.603	21.3369
712.492	23.2168
716.379	94.7637
720.264	302.552
724.147	139.682
728.028	84.0938
731.908	46.3535
735.785	102.956
739.661	114.96
743.535	318.78
747.407	419.188
751.278	649.46
755.146	939.601
759.013	2359.61
762.878	4159.39
766.741	3089.09
770.602	1688.54
774.461	1405.6
778.319	964.856
782.174	532.719
786.028	352.872
789.88	191.919
793.73	281.07
797.579	139.897
801.425	128.616
805.27	197.231
809.113	515.745
812.954	814.156
816.794	851.937
820.631	457.215
824.467	324.225
828.301	287.428
832.133	131.669
835.963	218.185
839.792	109.769
843.618	59.543
847.443	67.4502
851.266	42.9062
855.088	128.739
858.907	116.954
862.725	76.0029
866.541	87.7471
870.355	13.7451
874.167	59.9209
877.978	43.8193
881.787	21.8936
885.594	32.9043
889.399	27.3545
893.202	61.8848
897.004	73.5967
900.803	59.0586
904.601	34.5039
908.398	79.9268
912.192	195.334
915.985	40.7353
919.776	36.126
923.565	111.506
927.352	66.9033
931.138	92.3066
934.922	32.2715
938.704	93.1231
942.484	18.5215
946.262	193.924
950.039	89.335
953.814	184.748
957.587	130.192
961.359	455.669
965.128	451.176
968.896	346.712
972.662	802.327
976.427	1337.98
980.189	1415.56
983.95	829.578
987.709	395.526
991.467	351.474
995.222	257.206
998.976	363.282
1002.73	604.197
1006.48	850.948
1010.23	774.4
1013.97	475.585
1017.72	452.68
1021.46	579.975
1025.2	627.748
1028.94	889.458
1032.68	1318.8
1036.42	833.82
1040.15	666.638
1043.89	731.973
1047.62	783.734
1051.35	640.01
1055.07	518.718
1058.8	397.253
1062.52	366.984
1066.25	472.772
1069.97	545.894
1073.69	690.721
1077.4	722.232
1081.12	1031.61
1084.83	1259.69
1088.55	2089.11
1092.26	4008.44
1095.96	6788
1099.67	8197.64
1103.38	6427.36
1107.08	4747.44
1110.78	3873.24
1114.48	3971.39
1118.18	3572.33
1121.88	2400.39
1125.57	1410.5
1129.27	931.573
1132.96	525.3
1136.65	480.039
1140.34	534.561
1144.02	417.6
1147.71	342.888
1151.39	385.898
1155.07	354.059
1158.75	316.659
1162.43	261.351
1166.11	43.6582
1169.78	197.201
1173.45	196.141
1177.12	137.685
1180.79	178.944
1184.46	168.915
1188.13	79.0957
1191.79	32.2734
1195.45	26.9277
1199.11	23.2051
1202.77	192.096
1206.43	171.031
1210.09	130.553
1213.74	167.217
1217.39	226.596
1221.05	155.723
1224.69	38.3291
1228.34	173.583
1231.99	232.35
1235.63	160.814
1239.27	398.142
1242.91	355.001
1246.55	271.658
1250.19	41.0772
1253.83	11.6738
1257.46	105.922
1261.09	173.426
1264.72	65.1562
1268.35	286.197
1271.98	341.211
1275.61	417.279
1279.23	241.959
1282.85	85.9746
1286.47	59.541
1290.09	97.1699
1293.71	74.2207
1297.33	137.951
1300.94	359.947
1304.55	232.059
1308.16	77.1211
1311.77	6.94531
1315.38	97.1562
1318.99	51.916
1322.59	69.4004
1326.19	287.607
1329.79	235.353
1333.39	142.414
1336.99	228.631
1340.59	244.027
1344.18	239.473
1347.77	245.029
1351.37	50.1367
1354.95	86.2461
1358.54	88.1523
1362.13	81.9805
1365.71	295.756
1369.3	218.887
1372.88	253.404
1376.46	416.449
1380.04	238.461
1383.61	279.568
1387.19	289.494
1390.76	7.78125
1394.33	85.9219
1397.9	54.5996
1401.47	157.484
1405.04	524.018
1408.6	405.668
1412.16	376.113
1415.72	223.441
1419.29	309.709
1422.84	139.16
1426.4	167.434
1429.96	111.262
1433.51	108.978
1437.06	228.096
1440.61	393.676
1444.16	530.801
1447.71	586.504
1451.25	449.147
1454.8	484.293
1458.34	340.557
1461.88	428.951
1465.42	164.744
1468.96	163.562
1472.49	97.7383
1476.03	36.5176
1479.56	304.766
1483.09	282.254
1486.62	397.404
1490.15	475.82
1493.67	276.184
1497.2	397.572
1500.72	249.596
1504.24	153.998
1507.76	11.5195
1511.28	17.0059
1514.8	171.154
1518.31	84.3594
