Measurement: Raman, 514 nm, depolarized, Raman Data Processed
Mineral: Albite
Rruff sample: R050253
Ideal chemistry: NaAlSi_3_O_8_
Locality: Madawaska/Faraday mine, Bancroft, Ontario, Canada
Source: Marcus Origlieri
Description: Colorless to brown prismatic single crystals
Measured chemistry: (Na_0.99_Ca_0.01_)Al_1.00_(Si_0.99_Al_0.01_)_3_O_8_
Pin_id: L01944
Orientation: Laser parallel to (0 -1 -1). Fiducial mark perpendicular to laser is parallel to a [1 0 0]
Raman shift (cm-1)	intensity
94.714	0
99.649	171.423
104.582	718.541
109.512	3338.1
114.44	5050.27
119.365	2889.3
124.288	874.389
129.209	173.913
134.127	272.408
139.043	747.674
143.956	1642.05
148.867	2920.7
153.775	4085.5
158.681	5376.53
163.585	9354.91
168.486	7790.27
173.385	7109.32
178.282	5707.96
183.176	7098.94
188.067	8593.65
192.956	6437.39
197.843	4797.94
202.727	5068.33
207.609	6397.84
212.489	7171.94
217.366	2289.73
222.24	640.15
227.112	174.81
231.982	93.8672
236.849	42.0742
241.714	246.885
246.577	1066.3
251.437	2352.19
256.294	1985.36
261.149	1422.67
266.002	1796.09
270.852	3331.16
275.7	2873.81
280.545	3695.7
285.388	8120.61
290.229	17042
295.067	15495.4
299.902	5175.17
304.735	1909.76
309.566	1089.76
314.394	906.932
319.22	941.275
324.043	1844.81
328.864	4168.54
333.682	2766.45
338.498	699.516
343.311	410.707
348.122	64.9961
352.931	55.7598
357.737	61.7461
362.54	119.869
367.341	20.2305
372.14	139.906
376.936	77.3418
381.73	161.816
386.521	50.8945
391.31	25.3828
396.096	399.242
400.88	832.078
405.661	1452.12
410.44	2734.39
415.216	1564.9
419.99	1122.79
424.761	271.885
429.53	43.1211
434.297	127.449
439.061	70.5879
443.822	221.512
448.581	493.397
453.337	493.273
458.091	1186.11
462.843	1360.89
467.592	2802.61
472.338	6815.27
477.082	16502.9
481.824	21490.4
486.563	8547.84
491.3	4387.22
496.034	5192.59
500.765	11292.4
505.494	26490
510.221	32884.3
514.945	12604.9
519.666	4982.91
524.385	2610.27
529.102	1853.3
533.816	1319.58
538.527	1131.82
543.236	695.652
547.943	629.232
552.647	802.537
557.348	413.248
562.047	411.773
566.744	560.252
571.438	848.676
576.129	1241.89
580.818	1177.56
585.504	588.719
590.188	195.041
594.87	239.32
599.549	156.654
604.225	156.779
608.899	218.232
613.57	196.74
618.239	387.43
622.905	457.275
627.569	638.182
632.23	692.078
636.889	890.379
641.545	877.795
646.198	1299.65
650.849	1098.94
655.498	568.402
660.144	351.961
664.787	175.41
669.428	331.312
674.067	50.5254
678.703	11.6621
683.336	109.603
687.967	71.3398
692.595	259.688
697.221	18.9492
701.844	182.15
706.465	132.801
711.083	98.541
715.698	22.7695
720.311	283.715
724.922	144.703
729.53	120.447
734.135	53.5156
738.738	85.5606
743.338	130.922
747.936	323.115
752.531	425.592
757.124	1046.81
761.714	2603.07
766.302	3193.77
770.887	1547.61
775.469	996.723
780.049	811.766
784.626	1608.3
789.201	265.748
793.773	202.055
798.343	442.457
802.91	536.096
807.475	807.795
812.037	2164.92
816.596	3220.71
821.153	1719.6
825.707	512.771
830.259	140.795
834.808	173.562
839.355	213.828
843.899	159.156
848.441	349.869
852.98	188.174
857.516	56.4434
862.05	101.422
866.581	58.8633
871.11	89.3652
875.636	21.0449
880.159	101.279
884.68	107.481
889.199	57.0996
893.714	94.4531
898.228	134.295
902.738	77.4883
907.246	38.7441
911.752	357.56
916.255	3.36719
920.755	131.141
925.253	181.215
929.748	31.1621
934.241	46.3477
938.731	167.732
943.218	8.625
947.703	273.453
952.186	317.238
956.665	269.824
961.142	449.234
965.617	545.102
970.089	411.277
974.558	668.715
979.025	940.801
983.489	745.805
987.951	534.41
992.41	565.418
996.866	410.031
1001.32	743.941
1005.77	978.633
1010.22	1346.07
1014.67	1328.37
1019.11	1376.76
1023.55	1069.38
1027.99	1109.19
1032.42	1999.74
1036.86	1219.15
1041.29	921.32
1045.72	430.246
1050.14	755.918
1054.56	432.375
1058.98	444.871
1063.4	717.773
1067.82	290.672
1072.23	519.523
1076.64	600.5
1081.05	851.484
1085.45	1428.98
1089.85	1943
1094.25	3164.17
1098.65	5590.5
1103.04	5318
1107.43	3496.66
1111.82	3066.48
1116.21	3056.47
1120.59	2759.96
1124.97	2104.33
1129.35	1018.05
1133.73	310.957
1138.1	204.144
1142.47	307.785
1146.84	196.684
1151.21	389.867
1155.57	414.606
1159.93	298.141
1164.29	279.41
1168.64	285.516
1172.99	359.231
1177.34	46.3867
1181.69	327.812
1186.04	228.367
1190.38	263.434
1194.72	146.516
1199.05	88.1797
1203.39	268.769
1207.72	64.4727
1212.05	22.0664
1216.37	182.195
1220.7	116.223
1225.02	178.164
1229.34	243.742
1233.65	125.375
1237.97	294.043
1242.28	33.75
1246.59	50.3242
1250.89	299.477
1255.19	514.082
1259.49	164.262
1263.79	542.918
1268.09	205.184
1272.38	337.559
1276.67	166.551
1280.95	302.637
1285.24	204.141
1289.52	200.809
1293.8	334.211
1298.08	554.191
1302.35	301.984
1306.62	290.828
1310.89	602.859
1315.15	290.543
1319.42	380.984
1323.68	652.133
1327.94	337.684
1332.19	704.496
1336.44	452.113
1340.69	322.391
1344.94	529.629
1349.19	527.809
1353.43	550.625
1357.67	532.066
1361.9	311.109
1366.14	303.867
1370.37	497.328
1374.6	293.109
1378.83	333.152
1383.05	81.4727
1387.27	100.879
1391.49	231.238
1395.7	45.1836
1399.92	174.32
1404.13	162.344
1408.34	178.738
1412.54	155.383
1416.74	82.5547
1420.94	131.109
1425.14	117.625
1429.34	32.2734
1433.53	130.031
1437.72	45.1211
1441.9	232.184
1446.09	136.312
1450.27	316.07
1454.45	337.707
1458.63	50.6875
1462.8	434.117
1466.97	193.141
1471.14	493.766
1475.31	630.312
1479.47	679.867
1483.63	934.723
1487.79	964.488
1491.94	604.609
1496.09	694.711
1500.24	611.656
1504.39	712.934
1508.54	701.781
1512.68	646
1516.82	469.371
1520.95	527.207
1525.09	847.621
1529.22	223.867
1533.35	225.043
1537.47	451.957
1541.6	270.219
1545.72	159.91
1549.83	49.2891
1553.95	718.195
1558.06	384.273
1562.17	398.988
1566.28	333.766
1570.38	0
