Measurement: Raman, 514 nm, ccw, Raman Data Processed
Mineral: Albite
Rruff sample: R040068
Ideal chemistry: NaAlSi_3_O_8_
Locality: Harding Pegmatite, Dixon, New Mexico, USA
Source: University of Arizona Mineral Museum
Description: Tan colored crystal fragment
Measured chemistry: (Na_0.99_Ca_0.01_)Al_1.00_(Si_0.99_Al_0.01_)_3_O_8_
Pin_id: L00690
Orientation: Laser parallel to (0 1 1). Fiducial mark perpendicular to laser is parallel to a [1 0 0]
Raman shift (cm-1)	intensity
74.098	0
79.081	3414.13
84.062	1293.15
89.039	3338.69
94.013	662.128
98.985	61.6094
103.953	35.9834
108.919	1158.68
113.881	3469.62
118.841	4708.99
123.797	555.617
128.751	69.5234
133.701	110.386
138.649	811.528
143.594	2946.05
148.536	4968.54
153.475	5057.09
158.41	7173.78
163.343	10869
168.273	8061.86
173.2	6486.03
178.125	6672.4
183.046	10149.2
187.964	11683.2
192.879	7143.28
197.792	3904.22
202.701	3431.95
207.608	5978.39
212.512	5808.49
217.412	1974.16
222.31	654.584
227.205	88.7871
232.097	77.2158
236.986	72.6035
241.872	431.414
246.755	1848.71
251.636	5033.27
256.513	3514.64
261.388	1138.47
266.26	1669.49
271.128	2970.52
275.994	2691.96
280.857	3415.62
285.717	9006.47
290.574	21220.9
295.429	16884.2
300.28	5517.74
305.129	1992.09
309.975	1330.15
314.817	1058.42
319.657	778.872
324.494	2064.52
329.329	5834.33
334.16	3518.22
338.988	928.163
343.814	529.108
348.637	493.041
353.457	382.94
358.274	70.7881
363.088	86.5205
367.899	175.108
372.708	5.54883
377.513	90.6738
382.316	96.1631
387.116	63.418
391.913	226.796
396.708	693.986
401.499	1407.29
406.288	1626.57
411.073	1832.83
415.856	1292.09
420.636	921.286
425.414	191.643
430.188	18.9629
434.96	50.9346
439.729	38.707
444.495	15.2354
449.258	411.617
454.018	658.268
458.776	856.693
463.531	1047.92
468.283	1529.37
473.032	3389.11
477.778	10706.5
482.522	12817.7
487.262	5024.6
492	2949.27
496.735	3731.66
501.468	8192.77
506.197	24435.3
510.924	27659.9
515.648	9941.59
520.369	3930.26
525.088	1998.03
529.804	1328.96
534.516	841.314
539.227	520.588
543.934	514.588
548.638	420.674
553.34	251.639
558.039	267.035
562.736	314.045
567.429	365.44
572.12	589.85
576.808	740.018
581.493	1086.91
586.175	713.447
590.855	428.109
595.532	248.871
600.206	199.039
604.878	0.275391
609.546	276.621
614.212	160.744
618.876	304.664
623.536	225.359
628.194	615.9
632.849	1252.32
637.501	1270.54
642.151	901.568
646.798	1166.49
651.442	933.518
656.083	433.871
660.722	361.443
665.358	130.217
669.991	139.111
674.621	218.111
679.249	35.1191
683.874	204.269
688.497	65.5918
693.116	51.9121
697.733	135.365
702.348	16.2734
706.959	16.3418
711.568	193.002
716.174	224.863
720.778	70.4922
725.378	216.803
729.976	75.6406
734.572	155.107
739.164	115.557
743.754	246.992
748.342	141.904
752.926	469.106
757.508	873.137
762.088	1733.93
766.664	2070.85
771.238	1117.23
775.809	971.035
780.378	542.873
784.944	257.25
789.507	292.953
794.068	154.312
798.625	428.225
803.181	372.352
807.733	708.059
812.283	1626.95
816.83	2538.36
821.375	1207.63
825.917	706.297
830.456	270.453
834.993	333.072
839.527	78.6269
844.058	237.867
848.587	251.07
853.113	93.0938
857.637	73.8867
862.158	149.027
866.676	52.5645
871.191	0.007813
875.704	94.1875
880.214	15.4805
884.722	120.959
889.227	52.7969
893.73	208.371
898.229	56.2207
902.727	22.1543
907.221	90.6113
911.713	15.7676
916.202	174.644
920.689	69.1269
925.173	93.8359
929.655	126.934
934.134	30.0566
938.61	209.654
943.084	60.6367
947.555	171.871
952.023	195.346
956.489	130.818
960.952	211.266
965.413	279.789
969.871	606.348
974.327	1151.73
978.78	1550.57
983.23	1303.93
987.678	486.438
992.123	366.269
996.566	294.697
1001.01	384.394
1005.44	541.07
1009.88	517.717
1014.31	923.033
1018.74	701.281
1023.17	785.344
1027.59	1300.8
1032.01	2283.91
1036.43	2101.15
1040.85	912.572
1045.27	604.158
1049.68	199.371
1054.09	279.994
1058.49	192.93
1062.9	119.656
1067.3	210.086
1071.7	284.371
1076.09	142.867
1080.49	311.01
1084.88	679.277
1089.27	678.777
1093.65	1749.57
1098.04	2947.52
1102.42	2947.2
1106.8	2292.4
1111.17	1450.71
1115.55	1632.17
1119.92	1392.76
1124.29	660.469
1128.65	412.305
1133.02	366.32
1137.38	231.606
1141.74	202.086
1146.09	370.867
1150.45	340.836
1154.8	292.728
1159.15	304.291
1163.49	262.629
1167.84	6.73828
1172.18	234.041
1176.51	135.906
1180.85	3.16406
1185.18	65.293
1189.52	149.56
1193.84	227.08
1198.17	53.1465
1202.49	139.674
1206.81	256.191
1211.13	270.785
1215.45	277.744
1219.76	49.5117
1224.07	511.156
1228.38	265.318
1232.69	230.465
1236.99	212.621
1241.29	66.7988
1245.59	372.996
1249.89	54.2051
1254.18	57.4277
1258.47	26.6719
1262.76	322.019
1267.05	340.389
1271.33	438.897
1275.61	380.109
1279.89	41.8867
1284.17	378.211
1288.44	259.508
1292.71	254.768
1296.98	328.853
1301.25	79.9844
1305.51	25.7832
1309.77	240.41
1314.03	287.051
1318.29	313.897
1322.54	119.617
1326.8	87.9766
1331.05	42.916
1335.29	120.975
1339.54	27.1562
1343.78	338.418
1348.02	61.6328
1352.26	272.113
1356.49	221.318
1360.72	641.871
1364.95	263.996
1369.18	333.006
1373.4	244.258
1377.63	195.834
1381.85	179.67
1386.07	284.568
1390.28	382.85
1394.49	227.688
1398.7	446.35
1402.91	304
1407.12	252.598
1411.32	150.176
1415.52	389.762
1419.72	128.473
1423.92	271.828
1428.11	430.871
1432.3	266.863
1436.49	337.949
1440.68	332.012
1444.86	466.039
1449.05	458.547
1453.22	318.227
1457.4	270.234
1461.58	618.359
1465.75	515.312
1469.92	352.16
1474.09	419.996
1478.25	213.769
1482.41	311.484
1486.57	149.816
1490.73	306.043
1494.89	66.0703
1499.04	292.84
1503.19	156.578
1507.34	256.812
1511.48	71.8945
1515.63	148.246
1519.77	402.523
1523.91	392.379
1528.05	274.656
1532.18	138.094
1536.31	140
1540.44	129.773
1544.57	87.8672
1548.69	176.184
1552.82	232.574
1556.94	58.2148
1561.05	177.606
1565.17	339.586
1569.28	338.394
1573.39	1.8125
1577.5	0
