Measurement: Raman, 514 nm, depolarized, Raman Data Processed
Mineral: Albite
Rruff sample: R040129
Ideal chemistry: NaAlSi_3_O_8_
Locality: LaChance Quarry, Brunswick, Cumberland County, Maine, USA
Source: Bob Downs
Description: Colorless fragment of a tabular single crystal
Measured chemistry: (Na_0.99_K_0.01_)Al_1.00_Si_3.00_O_8_
Pin_id: L00143
Orientation: Laser parallel to -a* (-1 0 0). Fiducial mark perpendicular to laser is parallel to -b [0 -1 0]
Raman shift (cm-1)	intensity
102.242	0
106.423	465.859
110.603	2686.34
114.78	2832.25
118.956	754.059
123.129	182.46
127.3	54.53
131.469	144.876
135.636	355.882
139.801	969.152
143.964	2609.65
148.125	4731.34
152.284	3702.86
156.441	1148.06
160.596	1350.86
164.749	1288.52
168.9	1981.93
173.049	2249.79
177.195	2746.83
181.34	4518.38
185.483	5803.39
189.624	4089.64
193.762	2282.65
197.899	1719.71
202.034	2444.94
206.166	4972.35
210.297	5422.94
214.425	2008.68
218.552	633.55
222.676	168.464
226.799	53.73
230.919	103.887
235.038	68.609
239.154	75.687
243.269	149.248
247.381	701.201
251.492	1243.94
255.6	575.912
259.707	591.829
263.811	1382.75
267.914	2798.96
272.014	2346.06
276.113	1296.06
280.209	1458.11
284.304	3897.48
288.396	9534.71
292.487	9271.52
296.575	3614.74
300.662	1459.24
304.746	746.841
308.829	447.465
312.909	351.804
316.988	212.695
321.065	318.272
325.139	1140.81
329.212	1679.27
333.283	500.144
337.351	184.337
341.418	88.358
345.483	49.27
349.546	58.07
353.606	20.753
357.665	9.744
361.722	24.469
365.777	22.421
369.83	75.631
373.881	32.848
377.93	18.896
381.977	30.862
386.023	27.936
390.066	98.933
394.107	231.291
398.146	553.444
402.184	479.92
406.219	1009.01
410.252	1051.55
414.284	2012.99
418.313	1684.39
422.341	503.732
426.367	371.024
430.39	292.277
434.412	350.55
438.432	495.789
442.45	609.956
446.466	999.026
450.48	2026.98
454.492	4598.82
458.502	4212.69
462.51	2658.88
466.517	3276.31
470.521	6329.6
474.523	17349.8
478.524	31399.8
482.523	16479.6
486.519	6449.35
490.514	4110.93
494.507	4150.36
498.498	6897.67
502.487	18136.8
506.474	37855.5
510.459	23214.3
514.442	8888.07
518.424	4463.68
522.403	2801.95
526.381	1991.79
530.356	1580.49
534.33	1173.3
538.302	947.589
542.272	762.8
546.24	687.904
550.206	650.428
554.17	474.558
558.132	420.412
562.093	412.072
566.051	368.128
570.008	489.135
573.963	672.106
577.915	1124.04
581.866	818.94
585.815	424.796
589.763	242.587
593.708	202.314
597.651	190.966
601.593	103.539
605.532	115.034
609.47	104.45
613.406	111.789
617.34	145.051
621.272	200.222
625.202	193.331
629.131	221.368
633.057	345.333
636.982	285.23
640.905	459.058
644.825	600.82
648.744	518.517
652.662	272.15
656.577	221.722
660.49	49.233
664.402	55.687
668.312	61.087
672.219	58.471
676.125	67.9
680.03	6.632
683.932	7.141
687.832	6.425
691.731	2.05
695.628	0.109
699.522	28.768
703.415	7.864
707.307	46.541
711.196	25.903
715.083	37.943
718.969	52.085
722.853	98.016
726.735	52.787
730.615	110.386
734.493	64.061
738.37	166.769
742.244	287.483
746.117	362.966
749.988	628.736
753.857	1284.27
757.724	3075.75
761.59	7131.19
765.453	5936.59
769.315	2510.95
773.175	1780.12
777.033	1195.97
780.889	662.214
784.744	418.427
788.596	305.608
792.447	331.76
796.296	392.883
800.143	418.98
803.989	739.052
807.832	1576.1
811.674	4059.13
815.514	5734.14
819.352	2759.13
823.189	1061.93
827.023	567.66
830.856	346.108
834.687	394.449
838.516	348.251
842.343	185.169
846.169	16.572
849.992	148.491
853.814	86.948
857.634	3.098
861.453	10.741
865.269	13.533
869.084	32.165
872.897	13.968
876.708	62.287
880.517	1.39
884.325	76.033
888.13	56.324
891.934	0.255
895.737	32.154
899.537	69.436
903.336	141.058
907.132	156.721
910.928	100.428
914.721	141.181
918.512	21.983
922.302	53.835
926.09	150.743
929.876	36.707
933.66	109.718
937.443	22.794
941.224	28.932
945.003	51.134
948.78	179.405
952.556	112.746
956.33	211.156
960.102	140.642
963.872	207.2
967.64	105.834
971.407	301.545
975.172	825.334
978.935	831.202
982.697	509.157
986.456	454.277
990.214	215.567
993.971	348.05
997.725	480.761
1001.48	814.491
1005.23	1152.93
1008.98	885.117
1012.73	948.355
1016.47	850.046
1020.22	730.836
1023.96	595.273
1027.7	637.562
1031.44	858.867
1035.17	628.164
1038.91	415.959
1042.64	684.007
1046.37	865.725
1050.1	734.974
1053.83	961.419
1057.56	520.863
1061.28	302.623
1065.01	420.996
1068.73	390.339
1072.45	644.776
1076.16	750.643
1079.88	810.104
1083.6	1131.3
1087.31	1611.22
1091.02	2871.37
1094.73	5601.86
1098.44	7472.79
1102.14	6322.71
1105.85	4273.46
1109.55	3154.28
1113.25	2884.9
1116.95	2635.78
1120.65	2046.71
1124.34	1307.43
1128.04	838.485
1131.73	620.123
1135.42	532.032
1139.11	297.874
1142.79	262.75
1146.48	643.456
1150.16	334.513
1153.84	448.349
1157.52	396.825
1161.2	248.646
1164.88	146.826
1168.56	7.321
1172.23	22.143
1175.9	32.674
1179.57	69.206
1183.24	230.049
1186.9	217.991
1190.57	114.931
1194.23	23.233
1197.89	20.46
1201.55	51.881
1205.21	61.651
1208.87	63.468
1212.52	201.075
1216.18	203.242
1219.83	131.979
1223.48	161.34
1227.13	26.89
1230.77	64.896
1234.42	203.813
1238.06	139.529
1241.7	224.348
1245.34	173.877
1248.98	193.693
1252.62	193.401
1256.25	113.242
1259.88	67.062
1263.51	72.725
1267.14	231.591
1270.77	250.529
1274.4	169.677
1278.02	268.165
1281.65	276.886
1285.27	44.648
1288.89	37.664
1292.51	0.457
1296.12	53.199
1299.74	103.953
1303.35	140.419
1306.96	216.969
1310.57	212.446
1314.18	117.428
1317.79	102.278
1321.39	76.871
1324.99	71.204
1328.59	52.651
1332.19	124.811
1335.79	118.351
1339.39	121.384
1342.98	127.662
1346.58	206.24
1350.17	178.646
1353.76	225.129
1357.35	3.039
1360.93	98.692
1364.52	10.532
1368.1	151.569
1371.68	18.935
1375.26	211.311
1378.84	261.073
1382.42	269.93
1385.99	365.857
1389.57	331.618
1393.14	146.812
1396.71	112.164
1400.28	107.253
1403.85	137.867
1407.41	338.085
1410.98	287.263
1414.54	397.869
1418.1	451.227
1421.66	359.86
1425.21	328.505
1428.77	296.312
1432.33	179.109
1435.88	115.372
1439.43	93.473
1442.98	377.748
1446.53	379.495
1450.07	496.754
1453.62	396.982
1457.16	562.561
1460.7	404.959
1464.24	476.363
1467.78	409.033
1471.32	229.385
1474.85	128.979
1478.38	130.02
1481.91	238.678
1485.44	248.852
1488.97	398.98
1492.5	292.11
1496.03	495.356
1499.55	409.102
1503.07	493.907
1506.59	340.744
1510.11	204.933
1513.63	181.052
1517.14	32.509
1520.66	1.004
