Measurement: Raman, 514 nm, ccw, Raman Data Processed
Mineral: Albite
Rruff sample: R040068
Ideal chemistry: NaAlSi_3_O_8_
Locality: Harding Pegmatite, Dixon, New Mexico, USA
Source: University of Arizona Mineral Museum
Description: Tan colored crystal fragment
Measured chemistry: (Na_0.99_Ca_0.01_)Al_1.00_(Si_0.99_Al_0.01_)_3_O_8_
Pin_id: L00690
Orientation: Laser parallel to (0 1 1). Fiducial mark perpendicular to laser is parallel to a [1 0 0]
Raman shift (cm-1)	intensity
97.742	0
102.711	50.8291
107.678	957.263
112.641	2951.07
117.601	4406.34
122.558	1096.13
127.513	152.314
132.464	107.752
137.412	123.359
142.358	582.512
147.3	1597.14
152.24	3089.08
157.177	2569.74
162.11	2780.01
167.041	2234.91
171.969	1535.96
176.894	1086.95
181.816	1378.51
186.735	1984.85
191.651	1706.64
196.564	1110.48
201.474	787.672
206.382	1650.02
211.286	2046.47
216.187	826.016
221.086	182.631
225.982	39.1514
230.874	33.8691
235.764	8.30078
240.651	67.1064
245.535	473.542
250.416	1660.81
255.294	1797.95
260.169	595.988
265.042	898.275
269.911	1983.43
274.778	1481.21
279.642	1031.46
284.502	1568
289.36	4432.32
294.215	5014.25
299.068	1941.28
303.917	774.379
308.763	536.521
313.607	416.498
318.448	199.359
323.285	218.174
328.12	921.971
332.952	1019.52
337.782	211.379
342.608	117.98
347.431	214.497
352.252	2.08789
357.07	66.0225
361.885	23.6113
366.697	145.969
371.506	121.124
376.312	89.2598
381.116	32.0566
385.916	14.8857
390.714	114.489
395.509	229.008
400.301	476.488
405.091	763.941
409.877	1550.51
414.661	1287.08
419.442	1486.54
424.22	456.933
428.995	73.1836
433.767	216.206
438.537	236.353
443.303	277.197
448.067	197.89
452.828	369.646
457.587	793.09
462.342	830.776
467.095	965.925
471.845	2373.41
476.592	6606.23
481.336	11680.2
486.077	5358.64
490.816	2168.97
495.552	1910.77
500.285	3485.15
505.015	10133.5
509.743	17024.3
514.467	7516.02
519.189	2731.39
523.909	1283.58
528.625	747.372
533.338	678.365
538.049	498.403
542.757	221.837
547.463	319.049
552.165	287.007
556.865	270.312
561.562	105.21
566.256	346.332
570.947	369.119
575.636	346.578
580.322	447.95
585.005	322.405
589.685	230.889
594.363	144.3
599.038	36.7861
603.71	160.15
608.38	145.386
613.046	110.005
617.71	214.528
622.371	91.9453
627.03	95.3037
631.685	169.626
636.338	325.928
640.989	298.515
645.636	231.323
650.281	271.17
654.923	198.356
659.562	28.5312
664.199	91.8359
668.833	81.1387
673.464	134.405
678.093	134.536
682.718	39.5654
687.341	15.375
691.962	70.7148
696.579	116.44
701.194	112.472
705.806	72.1318
710.416	16.6621
715.023	24.8008
719.627	158.704
724.228	159.762
728.827	92.96
733.423	115.501
738.016	34.9902
742.607	5.72949
747.195	148.706
751.78	202.43
756.363	622.188
760.943	1508.27
765.52	2460.43
770.095	1204.28
774.667	625.457
779.236	533.811
783.803	492.479
788.366	255.344
792.928	196.174
797.486	253.565
802.042	281.031
806.595	205.518
811.146	512.171
815.694	1080.87
820.239	818.544
824.782	318.185
829.322	134.267
833.859	188.502
838.394	194.769
842.926	233.434
847.455	174.923
851.982	132.203
856.506	151.261
861.028	18.4814
865.546	102.301
870.063	90.0361
874.576	102.902
879.087	80.7617
883.595	52.9717
888.101	63.0654
892.604	75.959
897.105	17.6123
901.603	21.9668
906.098	83.1328
910.59	68.1279
915.08	171.87
919.568	90.3672
924.052	34.252
928.535	75.8848
933.014	31.3701
937.491	8.3623
941.965	94.9356
946.437	201.428
950.906	148.834
955.373	223.674
959.837	220.473
964.298	323.891
968.757	337.647
973.213	744.912
977.667	1155.27
982.118	1181.68
986.566	580.828
991.012	188.807
995.455	102.606
999.896	270.041
1004.33	469.254
1008.77	470.463
1013.2	458.514
1017.63	467.348
1022.06	256.721
1026.49	445.272
1030.91	607.781
1035.33	655.688
1039.75	253.744
1044.16	334.742
1048.57	275.56
1052.98	191.897
1057.39	302.475
1061.8	147.06
1066.2	41.8672
1070.6	254.805
1074.99	100.33
1079.39	250.133
1083.78	437.162
1088.17	938.113
1092.56	1485.87
1096.94	2157.43
1101.32	2621.9
1105.7	1738.46
1110.08	1348.09
1114.45	1204.8
1118.83	1054.58
1123.2	546.812
1127.56	284.961
1131.93	339.117
1136.29	248.385
1140.65	304.801
1145	164.297
1149.36	231.889
1153.71	248.606
1158.06	79.416
1162.4	25.3574
1166.75	153.504
1171.09	294.713
1175.43	118.232
1179.77	181.615
1184.1	75.125
1188.43	140.078
1192.76	43.3652
1197.09	80.7812
1201.41	240.418
1205.73	22.8281
1210.05	149.703
1214.37	267.959
1218.68	191.478
1222.99	111.986
1227.3	399.728
1231.61	150.984
1235.91	201.473
1240.22	298.949
1244.52	123.41
1248.81	167.857
1253.11	215.266
1257.4	175.643
1261.69	284.781
1265.97	251.477
1270.26	302.482
1274.54	336.783
1278.82	194.949
1283.1	3.17188
1287.37	144.312
1291.64	185.412
1295.91	128.463
1300.18	123.256
1304.45	147.252
1308.71	236.137
1312.97	264.107
1317.22	147.676
1321.48	297.471
1325.73	235.219
1329.98	58.3027
1334.23	162.812
1338.47	109.027
1342.72	189.877
1346.96	177.662
1351.2	140.053
1355.43	224.783
1359.66	131.4
1363.89	232.924
1368.12	406.389
1372.35	320.793
1376.57	340.137
1380.79	253.496
1385.01	219.924
1389.23	247.141
1393.44	227.215
1397.65	253.158
1401.86	197.127
1406.07	126.062
1410.27	72.9766
1414.47	144.922
1418.67	439.853
1422.87	127.393
1427.06	308.051
1431.26	212.398
1435.44	286.754
1439.63	24.7246
1443.82	241.94
1448	207.264
1452.18	249.869
1456.36	170.891
1460.53	265.691
1464.7	80.8242
1468.88	181.902
1473.04	223.912
1477.21	9.85547
1481.37	82.75
1485.53	682.088
1489.69	277.568
1493.85	346.969
1498	254.324
1502.15	119.865
1506.3	218.703
1510.45	224.428
1514.59	132.244
1518.73	30.3047
1522.88	194.957
1527.01	242.863
1531.15	135.889
1535.28	441.648
1539.41	259.99
1543.54	303.754
1547.66	136.842
1551.79	322.371
1555.91	307.184
1560.02	267.965
1564.14	132.537
1568.25	161.707
1572.37	165.725
1576.47	124.457
