Measurement: Raman, 514 nm, depolarized, Raman Data Processed
Mineral: Albite
Rruff sample: R050402
Ideal chemistry: NaAlSi_3_O_8_
Locality: Urbano mine, Golconda District, Brazil
Source: Bob Downs
Description: Colorless tabular single crystals associated with fluorapatite R050401
Measured chemistry: Na_1.00_Al_1.00_Si_3.00_O_8_
Pin_id: M00107
Orientation: Laser parallel to b* (0 1 0). Fiducial mark perpendicular to laser is parallel to c [0 0 1]
Raman shift (cm-1)	intensity
81.131	0
86.072	1682.93
91.012	579.93
95.948	80.0019
100.883	480.526
105.815	2699.23
110.744	5412.25
115.671	3298.14
120.596	356.44
125.519	136.22
130.439	538.952
135.356	2013.74
140.271	5166.13
145.184	8249.56
150.094	9764.86
155.002	11005.4
159.908	14756.9
164.811	14397.1
169.711	13838.4
174.61	14056.7
179.505	17416
184.399	19363.8
189.29	14335.7
194.178	8752.79
199.064	9129.98
203.948	12607.2
208.829	13421.3
213.708	6490.22
218.585	1833.97
223.459	512.585
228.33	224.299
233.199	112.702
238.066	118.486
242.93	788.807
247.792	1939.52
252.651	2204.03
257.508	1583.56
262.363	2519.55
267.215	4054.52
272.064	4907.36
276.912	5819.08
281.756	14173.1
286.598	26291.1
291.438	26697.4
296.276	11970.8
301.111	4018.57
305.943	1929.62
310.773	1328.86
315.601	1112.27
320.426	2743.84
325.248	5453.53
330.068	4829.32
334.886	1779.16
339.701	553.019
344.514	456.872
349.324	330.693
354.132	79.4502
358.938	231.216
363.741	288.944
368.541	69.1416
373.339	173.976
378.135	27.2354
382.928	31.541
387.718	300.613
392.506	672.946
397.292	1630.41
402.075	2371.99
406.856	3397.68
411.634	2390.61
416.41	2104.89
421.183	766.182
425.954	342.592
430.722	186.796
435.488	349.69
440.251	643.284
445.012	1574.65
449.77	4064.79
454.526	6691.7
459.28	5453.41
464.03	4867.83
468.779	10700
473.525	24452.9
478.268	32600.6
483.009	17681
487.747	7762.11
492.483	7721
497.217	16677.7
501.948	38049.8
506.676	49371.7
511.402	27329.8
516.125	10169.6
520.846	4896.49
525.565	2842.8
530.281	1976.52
534.994	1348.91
539.705	1162.04
544.413	1078.29
549.119	706.322
553.822	683.102
558.523	392.242
563.222	533.422
567.917	711.881
572.611	1373.65
577.302	2226.24
581.99	1438.42
586.676	691.498
591.359	276.904
596.04	69.8984
600.718	90.9336
605.394	87.8887
610.067	126.832
614.737	214.904
619.406	481.986
624.071	575.106
628.734	1274.16
633.395	1345.14
638.053	1420.07
642.708	1776.47
647.361	1857.83
652.012	835.215
656.66	474.469
661.305	161.639
665.948	111.57
670.588	49.6484
675.226	176.58
679.861	12.7383
684.494	174.603
689.124	23.5117
693.752	4.48828
698.377	76.6133
702.999	151.617
707.619	12.6816
712.237	192.795
716.852	313.977
721.464	239.613
726.074	424.723
730.681	88.7109
735.286	277.371
739.888	174.973
744.488	463.219
749.085	1299.25
753.68	2758.15
758.272	6676.08
762.861	9320.64
767.448	5195.53
772.033	2597.07
776.614	1801.99
781.194	987.342
785.77	820.893
790.345	659.506
794.916	853.172
799.485	1336.7
804.052	2319.72
808.616	6352.34
813.177	10873.4
817.736	7945.4
822.292	2943.3
826.846	1561.81
831.397	950.918
835.945	698.582
840.491	349.766
845.035	277.725
849.576	208.744
854.114	41.3047
858.65	134.887
863.183	190.248
867.713	2.11328
872.241	8.35156
876.767	115.856
881.29	85.1562
885.81	50.6621
890.328	10.7324
894.843	122.758
899.356	171.879
903.866	54.7617
908.373	58.4316
912.878	54.9297
917.38	80.2695
921.88	0.541016
926.377	56.291
930.872	52.0215
935.364	48.7305
939.853	269.244
944.34	127.195
948.824	232.24
953.306	297.269
957.785	272.299
962.261	367.496
966.735	522.023
971.207	1026.84
975.675	1795.71
980.141	1636.89
984.605	901.363
989.066	577.473
993.524	672.713
997.98	841.894
1002.43	1236.75
1006.88	1317.58
1011.33	1487.28
1015.78	1299.25
1020.22	1040.81
1024.66	1375.69
1029.1	2228.29
1033.53	2294.6
1037.97	1550.25
1042.4	1240.27
1046.82	941.996
1051.25	609.643
1055.67	538.32
1060.09	484.949
1064.51	376.885
1068.92	401.945
1073.33	450.871
1077.74	841.348
1082.15	1390.95
1086.55	1959.48
1090.95	3800.87
1095.35	6824.9
1099.75	7953.52
1104.14	5315.88
1108.53	3561.8
1112.92	3202.68
1117.31	2842.45
1121.69	2071.8
1126.07	1225.81
1130.45	605.934
1134.82	416.047
1139.19	162.326
1143.57	308.766
1147.93	451.5
1152.3	378.397
1156.66	205.629
1161.02	174.115
1165.38	98.6777
1169.73	307.303
1174.08	201.994
1178.43	11.3359
1182.78	78.3106
1187.12	5.17773
1191.46	216.285
1195.8	119.473
1200.14	90.1152
1204.47	241.088
1208.8	1.60156
1213.13	236.062
1217.46	313.84
1221.78	52.2227
1226.1	355.242
1230.42	228.512
1234.73	160.834
1239.04	160.098
1243.35	177.199
1247.66	22.332
1251.97	293.641
1256.27	344.121
1260.57	223.103
1264.86	287.309
1269.16	269.131
1273.45	93.3477
1277.74	256.816
1282.03	362.857
1286.31	271.443
1290.59	227.955
1294.87	357.832
1299.14	153.652
1303.42	432.168
1307.69	367.301
1311.95	364.769
1316.22	172.775
1320.48	153.119
1324.74	193.648
1329	339.398
1333.26	435.488
1337.51	291.785
1341.76	188.652
1346	223.977
1350.25	222.746
1354.49	208.674
1358.73	302.514
1362.96	433.443
1367.2	189.057
1371.43	629.939
1375.66	99.3672
1379.88	45.3789
1384.11	252.971
1388.33	157.207
1392.54	835.447
1396.76	125.283
1400.97	9.48438
1405.18	81.8945
1409.39	18.9824
1413.59	178.168
1417.8	198.982
1421.99	39.75
1426.19	14.0547
1430.38	233.549
1434.58	110.748
1438.77	315.334
1442.95	421.039
1447.13	362.209
1451.32	279.19
1455.49	326.998
1459.67	270.154
1463.84	417.963
1468.01	251.797
1472.18	207.699
1476.35	278.062
1480.51	233.56
1484.67	312.18
1488.83	32.9219
1492.98	136.65
1497.13	88.0449
1501.28	205.029
1505.43	255.883
1509.57	215.754
1513.71	1.47266
1517.85	184.391
1521.99	329.047
1526.12	107.949
1530.25	369.703
1534.38	143.258
1538.5	265.09
1542.62	236.695
1546.74	355.574
1550.86	160.781
1554.98	235.602
1559.09	133.422
1563.2	348.637
1567.31	48.6523
