Measurement: Raman, 514 nm, depolarized, Raman Data Processed
Mineral: Albite
Rruff sample: R050253
Ideal chemistry: NaAlSi_3_O_8_
Locality: Madawaska/Faraday mine, Bancroft, Ontario, Canada
Source: Marcus Origlieri
Description: Colorless to brown prismatic single crystals
Measured chemistry: (Na_0.99_Ca_0.01_)Al_1.00_(Si_0.99_Al_0.01_)_3_O_8_
Pin_id: L00649
Orientation: Laser parallel to c* (0 0 1). Fiducial mark perpendicular to laser is parallel to a [1 0 0]
Raman shift (cm-1)	intensity
87.308	0
92.246	232.899
97.182	72.936
102.116	772.134
107.047	2876.54
111.976	5064.88
116.903	4880.85
121.827	1598.37
126.749	543.86
131.668	762.681
136.585	1408.8
141.5	3834.47
146.412	6780.61
151.321	9831.45
156.229	7329.84
161.134	5864.69
166.036	5633.37
170.936	5072.8
175.834	6858.27
180.729	9695.26
185.622	11995
190.512	9832.72
195.4	5909.4
200.286	5505.08
205.169	6196.76
210.049	6669.41
214.928	3523.02
219.803	897.576
224.677	221.21
229.548	17.4482
234.416	90.4795
239.282	470.528
244.146	1722.53
249.007	3214.47
253.866	3887.62
258.722	2932.41
263.576	4044.45
268.427	5869.46
273.276	5686.23
278.123	4989.54
282.967	9302.26
287.809	16131.3
292.648	18086.6
297.485	9177.03
302.319	3521.6
307.151	1883.13
311.98	1273.47
316.807	997.606
321.631	1496.56
326.454	2400.34
331.273	2264.94
336.09	831.37
340.905	411.612
345.717	264.631
350.527	188.529
355.334	36.8071
360.139	73.5137
364.941	166.976
369.741	123.658
374.538	140.118
379.333	135.039
384.126	54.4019
388.916	243.565
393.703	811.527
398.488	1496.44
403.271	1863.47
408.051	2677.72
412.828	3273.06
417.603	3506.43
422.376	1464.93
427.146	549.481
431.914	443.028
436.679	689.39
441.442	1055.55
446.202	2213.49
450.96	4446.23
455.715	6527.75
460.467	6440.08
465.218	7300.2
469.965	16730.1
474.711	33757.9
479.454	45212.4
484.194	26382.8
488.932	11105
493.667	10229
498.4	21373.8
503.13	43269.7
507.858	57391.9
512.583	34346.2
517.306	12625
522.026	6105.37
526.744	3767.55
531.459	2575.13
536.172	1842.24
540.882	1394.06
545.59	1086.24
550.295	910.1
554.998	786.232
559.698	703.009
564.396	629.435
569.091	866.685
573.784	1200.64
578.474	1359.32
583.162	1059.11
587.847	439.692
592.529	337.418
597.209	168.2
601.887	122.055
606.562	101.157
611.235	152.339
615.905	231.583
620.572	265.895
625.237	307.302
629.9	510.723
634.56	619.141
639.217	732.561
643.872	826.187
648.524	698.45
653.174	357.513
657.821	184.426
662.466	68.1641
667.108	52.4727
671.748	6.99951
676.385	46.602
681.02	81.2441
685.652	139.565
690.281	82.644
694.908	1.24512
699.533	24.3408
704.155	20.877
708.774	12.456
713.391	81.8159
718.005	224.676
722.617	345.052
727.226	310.522
731.833	251.948
736.437	317.346
741.039	450.886
745.638	850.287
750.234	1466.58
754.828	3526.75
759.419	8258.2
764.008	11234.2
768.595	6714.86
773.178	3328.99
777.759	2315.31
782.338	1318.44
786.914	700.411
791.488	667.156
796.059	661.684
800.627	877.98
805.193	1493.95
809.756	3478.09
814.317	5551.65
818.875	4237.17
823.431	1599.93
827.984	862.099
832.534	613.382
837.082	460.321
841.627	278.344
846.17	115.329
850.71	137.155
855.248	57.1728
859.783	134.019
864.316	72.6475
868.846	4.91846
873.373	6.75635
877.898	62.0063
882.42	10.2466
886.94	91.2056
891.457	22.0347
895.971	141.379
900.483	52.5513
904.993	31.3755
909.5	138.587
914.004	60.5112
918.505	40.4023
923.004	59.2778
927.501	102.144
931.995	125.046
936.486	128.112
940.975	248.265
945.461	300.537
949.945	512.934
954.426	703.458
958.904	738.368
963.38	944.675
967.853	1333.46
972.324	2568.76
976.792	3889.42
981.258	3471.39
985.72	1693.52
990.181	1003.05
994.639	980.062
999.094	1084.99
1003.55	2097.12
1008	2276.06
1012.44	1805.52
1016.89	1378.77
1021.33	908.854
1025.77	1143.63
1030.21	1670
1034.64	1697.41
1039.07	1080.51
1043.5	1172.42
1047.93	1241.53
1052.35	824.822
1056.78	532.201
1061.19	473.269
1065.61	582.246
1070.02	631.958
1074.43	809.19
1078.84	1243.68
1083.25	1977.56
1087.65	3422.31
1092.05	6779.21
1096.45	12121.1
1100.85	13631.1
1105.24	9783.24
1109.63	6945.68
1114.02	6084.25
1118.4	5177.92
1122.78	3419.67
1127.16	1957.19
1131.54	1161.27
1135.92	763.488
1140.29	626.901
1144.66	762.681
1149.02	840.808
1153.39	997.854
1157.75	533.5
1162.11	322.156
1166.46	269.946
1170.82	165.816
1175.17	224.776
1179.52	66.7935
1183.86	23.8594
1188.21	36.9414
1192.55	70.0469
1196.89	74.9692
1201.22	30.7148
1205.55	108.665
1209.88	55.6977
1214.21	3.96484
1218.54	48.2129
1222.86	7.52588
1227.18	52.4438
1231.5	68.8599
1235.81	19.4082
1240.12	74.8242
1244.43	46.4829
1248.74	57.9966
1253.04	177.225
1257.34	235.422
1261.64	106.559
1265.94	257.317
1270.23	162.938
1274.52	111.188
1278.81	133.492
1283.1	248.468
1287.38	151.385
1291.66	247.246
1295.94	289.025
1300.21	225.991
1304.48	259.977
1308.75	356.481
1313.02	273.893
1317.29	388.31
1321.55	238.775
1325.81	304.659
1330.06	243.43
1334.32	227.606
1338.57	189.59
1342.82	178.781
1347.06	164.696
1351.31	199.038
1355.55	174.115
1359.79	133.165
1364.02	198.929
1368.26	119.486
1372.49	146.008
1376.71	150.365
1380.94	268.128
1385.16	73.5644
1389.38	76.8643
1393.6	102.433
1397.81	37.915
1402.02	9.46191
1406.23	86.376
1410.44	83.0488
1414.64	109.673
1418.85	162.852
1423.04	55.0029
1427.24	11.7773
1431.43	91.0869
1435.62	108.915
1439.81	158.592
1444	247.55
1448.18	93.3516
1452.36	171.102
1456.54	71.0762
1460.71	95.1289
1464.89	112.318
1469.06	71.2529
1473.22	99.8926
1477.39	49.6699
1481.55	89.4356
1485.71	38.5147
1489.86	83.6631
1494.02	7.4082
1498.17	149.321
1502.32	21.7178
1506.46	37.2353
1510.61	57.4307
1514.75	123.857
1518.88	28.2119
1523.02	32.0469
1527.15	74.6523
1531.28	199.935
1535.41	90.6982
1539.53	99.3164
1543.66	201.099
1547.78	16.5605
1551.89	147.852
1556.01	183.046
1560.12	31.2812
1564.23	105.178
1568.33	0.050781
