Measurement: Raman, 514 nm, depolarized, Raman Data Processed
Mineral: Albite
Rruff sample: R040068
Ideal chemistry: NaAlSi_3_O_8_
Locality: Harding Pegmatite, Dixon, New Mexico, USA
Source: University of Arizona Mineral Museum
Description: Tan colored crystal fragment
Measured chemistry: (Na_0.99_Ca_0.01_)Al_1.00_(Si_0.99_Al_0.01_)_3_O_8_
Pin_id: M00277
Orientation: Laser parallel to (-1 0 -1). Fiducial mark perpendicular to laser is parallel to b [0 1 0]
Raman shift (cm-1)	intensity
119.119	0
123.286	72.442
127.452	80.409
131.615	304.852
135.777	405.197
139.937	1056.43
144.094	1792.79
148.25	2874.84
152.403	2958.55
156.555	2910.39
160.705	4058.42
164.853	3331.15
168.998	2657.37
173.142	2226.4
177.284	2572.92
181.424	3786.45
185.562	4186.46
189.698	3156.21
193.831	1848.43
197.963	1441.38
202.093	1815.45
206.221	3208.95
210.347	3462.19
214.472	1525.59
218.594	539.336
222.714	263.514
226.832	108.15
230.948	33.479
235.063	104.596
239.175	98.214
243.286	69.174
247.394	385.609
251.501	633.022
255.605	339.026
259.708	443.718
263.808	848.696
267.907	1263.98
272.004	1130.03
276.099	820.042
280.192	982.465
284.283	2903.67
288.372	6107.19
292.459	5236
296.544	2227.59
300.627	911.079
304.709	425.999
308.788	512.059
312.865	198.993
316.941	286.623
321.015	374.812
325.086	733.459
329.156	1042.49
333.224	461.854
337.29	171.504
341.354	1.385
345.416	131.395
349.476	1.538
353.534	111.762
357.591	87.955
361.645	27.643
365.698	17.29
369.748	3.113
373.797	76.524
377.844	13.722
381.889	55.907
385.932	45.484
389.973	34.875
394.012	215.238
398.049	373.943
402.084	512.678
406.118	1070.97
410.15	790.865
414.179	970.352
418.207	699.604
422.233	38.826
426.257	38.104
430.279	107.271
434.299	16.361
438.318	34.725
442.334	194.838
446.349	527.736
450.361	1276.57
454.372	2099.52
458.381	2110.01
462.388	1270.11
466.394	1524.14
470.397	3023.56
474.398	7712.9
478.398	12931.7
482.396	7080.47
486.391	3139.11
490.385	1837.65
494.377	1956.08
498.368	3845.5
502.356	9474.44
506.342	17050.5
510.327	10054.2
514.31	4262.93
518.291	2097.1
522.27	1281.33
526.247	1001.42
530.222	639.344
534.196	289.135
538.167	659.186
542.137	297.777
546.105	131.158
550.071	330.795
554.035	477.684
557.998	454.01
561.958	322.689
565.917	279.295
569.874	165.953
573.829	472.461
577.782	880.355
581.733	563.789
585.683	386.002
589.63	151.17
593.576	173.814
597.52	226.145
601.462	59.076
605.402	133.488
609.341	477.652
613.277	51.605
617.212	55.254
621.145	118.664
625.076	211.793
629.006	254.652
632.933	187.293
636.859	369.723
640.783	202.229
644.705	234.297
648.625	316.102
652.543	87.689
656.46	149.045
660.375	39.832
664.288	160.896
668.199	101.42
672.108	111.713
676.016	41.803
679.921	28.314
683.825	121.447
687.727	241.17
691.628	210.424
695.526	19.51
699.423	130.379
703.318	239.07
707.211	121.828
711.102	453.479
714.992	493.279
718.879	147.137
722.765	214.428
726.649	301.795
730.532	355.553
734.412	263.123
738.291	209.502
742.168	358.869
746.043	295.145
749.916	431.441
753.788	787.07
757.658	1810.48
761.526	3422.25
765.392	2908.11
769.257	1697.26
773.119	1129.91
776.98	873.996
780.839	462.768
784.697	356.217
788.552	289.203
792.406	302.66
796.258	465.607
800.108	518.367
803.957	560.947
807.804	1012.76
811.649	2544.34
815.492	3420.03
819.333	1479.4
823.173	930.465
827.011	431.047
830.847	317.289
834.681	435.762
838.514	104.738
842.345	271.949
846.174	99.457
850.001	62.816
853.827	57.42
857.651	112.027
861.473	49.562
865.293	29.68
869.112	90.061
872.928	226.824
876.744	56.025
880.557	115.266
884.369	273.156
888.178	39.934
891.987	230.35
895.793	1.221
899.598	97.408
903.401	61.438
907.202	74.537
911.001	13.031
914.799	231.482
918.595	199.869
922.389	287.881
926.182	176.488
929.972	164.693
933.761	362.865
937.549	70.936
941.334	228.936
945.118	196.883
948.9	454.504
952.681	352.309
956.459	250.127
960.236	277.92
964.012	685.656
967.785	533.395
971.557	381.188
975.327	588.975
979.095	716.756
982.862	55.428
986.627	192.416
990.39	320.066
994.152	358.002
997.912	205.832
1001.67	552.986
1005.43	599.939
1009.18	758.141
1012.93	815.646
1016.68	441.381
1020.43	410.205
1024.18	575.168
1027.93	659.277
1031.67	630.914
1035.42	289.947
1039.16	367.408
1042.9	586.414
1046.63	781.836
1050.37	761.225
1054.11	625.588
1057.84	306.355
1061.57	454.639
1065.3	393.551
1069.03	490.766
1072.75	528.133
1076.47	574.74
1080.2	630.5
1083.92	635.551
1087.64	1110.85
1091.36	1659.49
1095.07	2718.56
1098.79	3477.69
1102.5	2746.89
1106.21	2236.17
1109.92	1402.89
1113.62	1182.25
1117.33	1391.69
1121.04	1341.25
1124.74	1030.91
1128.44	460.758
1132.14	340.762
1135.83	40.924
1139.53	301.252
1143.22	451.754
1146.92	262.141
1150.61	422.586
1154.3	233.242
1157.98	434.242
1161.67	34.234
1165.35	307.633
1169.04	0.25
1172.72	82.227
1176.4	305.152
1180.07	198.461
1183.75	162.152
1187.42	595.344
1191.1	98.738
1194.77	203.895
1198.44	57.801
1202.1	465.145
1205.77	467.5
1209.43	508.465
1213.1	364.047
1216.76	450.801
1220.42	263.355
1224.07	389.973
1227.73	187.508
1231.38	58.402
