Measurement: Raman, 514 nm, depolarized, Raman Data Processed
Mineral: Albite
Rruff sample: R040129
Ideal chemistry: NaAlSi_3_O_8_
Locality: LaChance Quarry, Brunswick, Cumberland County, Maine, USA
Source: Bob Downs
Description: Colorless fragment of a tabular single crystal
Measured chemistry: (Na_0.99_K_0.01_)Al_1.00_Si_3.00_O_8_
Pin_id: M00199
Orientation: Laser parallel to (0 -1 -1). Fiducial mark perpendicular to laser is parallel to a [1 0 0]
Raman shift (cm-1)	intensity
103.514	0
107.711	477.82
111.905	2356.82
116.097	2369.41
120.287	733.375
124.475	259.08
128.66	141.994
132.843	348.439
137.024	760.471
141.203	1980.61
145.38	3607.99
149.554	4020.22
153.726	3881.68
157.896	5486.47
162.064	8033.99
166.23	7703.98
170.393	7369.56
174.555	6724.04
178.714	7148.53
182.871	9642.85
187.025	10256.6
191.178	7299.22
195.328	4341.2
199.476	3262.08
203.623	4205.13
207.766	7107.46
211.908	7060.11
216.048	3042.08
220.185	1066.37
224.32	332.921
228.453	4.312
232.584	135.283
236.713	137.684
240.839	20.979
244.964	274.669
249.086	1042.75
253.206	1721.49
257.324	1093.52
261.439	849.661
265.553	1425.88
269.665	2412.35
273.774	2278.96
277.881	2070.65
281.986	3322.97
286.089	8651.7
290.19	17312.2
294.288	15354
298.385	6906.73
302.479	2751.27
306.571	1385.37
310.661	922.878
314.749	672.706
318.835	570.783
322.919	1071.05
327	2879.48
331.08	3835.01
335.157	1784.35
339.232	570.421
343.305	384.402
347.376	296.273
351.445	240.042
355.512	156.736
359.576	27.627
363.639	96.103
367.699	35.883
371.757	109.006
375.814	84.52
379.868	133.448
383.92	99.758
387.969	54.391
392.017	77.542
396.063	270.904
400.106	611.245
404.148	1059.18
408.187	2077.49
412.224	1570.98
416.26	1319.22
420.293	904.402
424.324	343.324
428.353	169.564
432.379	232.561
436.404	120.629
440.427	226.667
444.448	341.861
448.466	702.802
452.482	1795.74
456.497	3530.78
460.509	3298.45
464.519	2185.89
468.527	2503.16
472.534	5120.26
476.538	13207.2
480.54	20583.9
484.539	12360.5
488.537	5526.85
492.533	3543.02
496.527	3898.99
500.518	6994.77
504.508	17850.4
508.495	31666
512.481	21341.9
516.464	9189.72
520.446	4433.35
524.425	2589.24
528.402	1784.95
532.377	1391.02
536.351	992.25
540.322	864.624
544.291	697.757
548.258	461.62
552.223	386.552
556.186	398.519
560.147	428.328
564.106	382.595
568.063	330.801
572.018	470.927
575.97	900.456
579.921	1168.39
583.87	986.845
587.817	465.651
591.761	369.037
595.704	251.623
599.645	91.302
603.583	161.861
607.52	112.306
611.455	25.632
615.387	108.805
619.318	300.886
623.247	206.864
627.173	289.737
631.098	601.515
635.02	813.182
638.941	674.744
642.859	696.201
646.776	1127.56
650.691	1108.81
654.603	529.962
658.514	311.021
662.422	81.984
666.329	72.852
670.233	153.614
674.136	4.227
678.036	25.307
681.935	76.886
685.832	45.598
689.726	26.233
693.619	57.025
697.51	21.92
701.398	40.981
705.285	95.128
709.17	13.858
713.052	67.153
716.933	157.976
720.812	142.387
724.689	186.534
728.564	27.869
732.437	126.15
736.308	119.554
740.176	149.926
744.043	221.259
747.908	386.044
751.771	514.593
755.633	1124.63
759.492	2434.62
763.349	5284.63
767.204	4403.19
771.057	2203.04
774.909	1435.26
778.758	975.012
782.605	546.018
786.451	415.66
790.294	355.247
794.136	324.782
797.976	494.267
801.813	653.704
805.649	923.094
809.483	1902.44
813.315	4521.75
817.144	5970.99
820.972	2999.97
824.798	1388.46
828.623	743.333
832.445	426.637
836.265	535.683
840.083	243.008
843.9	238.945
847.714	70.094
851.527	78.886
855.337	154.712
859.146	59.294
862.953	32.79
866.757	21.495
870.56	19.822
874.361	68.588
878.16	12.772
881.958	64.632
885.753	103.818
889.546	22.172
893.338	0.098
897.127	38.439
900.915	176.739
904.7	234.936
908.484	93.025
912.266	11.143
916.046	29.288
919.824	7.471
923.6	64.305
927.375	133.888
931.147	12.116
934.918	150.356
938.686	148.626
942.453	136.938
946.218	95.294
949.981	293.696
953.742	172.147
957.501	240.651
961.258	109.21
965.014	137.822
968.767	296.489
972.519	575.214
976.269	954.007
980.017	932.909
983.762	501.927
987.507	381.066
991.249	360.315
994.989	259.751
998.728	386.926
1002.46	629.023
1006.2	859.115
1009.93	794.358
1013.66	773.562
1017.39	685.891
1021.12	726.851
1024.85	884.301
1028.57	1241.6
1032.29	1610.31
1036.01	1277.4
1039.73	786.116
1043.44	837.87
1047.16	838.759
1050.87	616.172
1054.58	393.219
1058.29	215.379
1062	267.851
1065.7	330.223
1069.4	400.634
1073.11	422.729
1076.81	545.366
1080.5	568.102
1084.2	859.66
1087.89	1222.61
1091.59	1975.64
1095.28	3678.75
1098.96	4892.72
1102.65	4085.38
1106.34	2938.98
1110.02	2152.36
1113.7	1835.77
1117.38	1649.23
1121.06	1312.81
1124.73	876.567
1128.41	500.187
1132.08	335.286
1135.75	319.206
1139.42	217.699
1143.08	342.032
1146.75	199.242
1150.41	375.285
1154.07	362.225
1157.73	303.051
1161.39	131.229
1165.05	132.869
1168.7	44.158
1172.35	102.116
1176	119.305
1179.65	95.185
1183.3	170.072
1186.94	195.143
1190.58	101.058
1194.22	76.454
1197.86	68.587
1201.5	256.819
1205.14	251.857
1208.77	66.931
1212.4	211.754
1216.03	357.073
1219.66	151.791
1223.29	226.782
1226.91	175.152
1230.54	268.923
1234.16	313.468
1237.78	196.811
1241.4	299.448
1245.01	281.82
1248.63	304.046
1252.24	235.951
1255.85	219.587
1259.46	311.431
1263.07	293.046
1266.67	133.419
1270.28	213.594
1273.88	203.244
1277.48	242.4
1281.08	172.523
1284.67	120.924
1288.27	31.949
1291.86	6.188
1295.45	60.219
1299.04	74.879
1302.63	50.436
1306.22	225.488
1309.8	119.227
1313.38	53.758
1316.96	24.195
1320.54	68.479
1324.12	87.633
1327.69	116.449
1331.27	160.412
1334.84	134.201
1338.41	197.943
1341.98	391.367
1345.55	414.629
1349.11	198.51
1352.67	382.066
1356.23	143.561
1359.8	247.922
1363.35	250.246
1366.91	151.547
1370.46	302.717
1374.02	315.887
1377.57	336.582
1381.12	410.398
1384.66	276.654
1388.21	163.807
1391.75	256.514
1395.3	2.65
1398.84	167.199
1402.38	175.691
1405.91	198.502
1409.45	165.879
1412.98	253.193
1416.51	222.123
1420.04	250.652
1423.57	136.73
1427.1	92.48
1430.62	37.146
