Measurement: Raman, 514 nm, depolarized, Raman Data Processed
Mineral: Albite
Rruff sample: R040068
Ideal chemistry: NaAlSi_3_O_8_
Locality: Harding Pegmatite, Dixon, New Mexico, USA
Source: University of Arizona Mineral Museum
Description: Tan colored crystal fragment
Measured chemistry: (Na_0.99_Ca_0.01_)Al_1.00_(Si_0.99_Al_0.01_)_3_O_8_
Pin_id: L00690
Orientation: Laser parallel to (0 1 1). Fiducial mark perpendicular to laser is parallel to a [1 0 0]
Raman shift (cm-1)	intensity
97.742	0
102.711	15.2041
107.678	789.789
112.641	2453.72
117.601	3259.93
122.558	897.035
127.513	95.6377
132.464	180.315
137.412	321.009
142.358	1123.68
147.3	2617.34
152.24	3344.97
157.177	3374.88
162.11	5425.44
167.041	4386.88
171.969	3057.48
176.894	3062.5
181.816	4228.03
186.735	5745.67
191.651	4301.74
196.564	2439.67
201.474	1717.77
206.382	2940.55
211.286	3752.73
216.187	1608.29
221.086	505.19
225.982	124.389
230.874	30.2607
235.764	89.4971
240.651	271.723
245.535	687.32
250.416	2033.62
255.294	2294.16
260.169	746.601
265.042	938.068
269.911	1696.05
274.778	1437.19
279.642	1563.26
284.502	3348.68
289.36	9294.07
294.215	10488.9
299.068	3722.61
303.917	1306.33
308.763	855.176
313.607	455.273
318.448	288.59
323.285	761.951
328.12	2268.42
332.952	2233.92
337.782	565.457
342.608	358.002
347.431	253.523
352.252	164.002
357.07	76.4238
361.885	98.7598
366.697	103.938
371.506	112.066
376.312	83.6719
381.116	178.853
385.916	27.7578
390.714	114.219
395.509	256.658
400.301	589.357
405.091	1096.29
409.877	1365.44
414.661	1377.57
419.442	1044.39
424.22	349.035
428.995	103.606
433.767	196.018
438.537	38.2207
443.303	15.0254
448.067	88.293
452.828	303.647
457.587	747.654
462.342	893.691
467.095	831.387
471.845	2272.11
476.592	6767.91
481.336	11985.1
486.077	5763.84
490.816	2695.3
495.552	2329.51
500.285	4144.49
505.015	12910.2
509.743	21013.6
514.467	9093.51
519.189	3300.48
523.909	1760.92
528.625	878.676
533.338	606.389
538.049	526.461
542.757	184.199
547.463	395.603
552.165	372.984
556.865	231.453
561.562	145.219
566.256	98.5098
570.947	252.453
575.636	568.85
580.322	659.92
585.005	431.184
589.685	346.914
594.363	52.2656
599.038	46.041
603.71	42.9961
608.38	85.6191
613.046	80.6406
617.71	276.496
622.371	184.103
627.03	180.887
631.685	558.727
636.338	552.285
640.989	600.805
645.636	817.977
650.281	617.832
654.923	256.824
659.562	67.0938
664.199	153.707
668.833	185.359
673.464	56.7617
678.093	50.2363
682.718	38.0234
687.341	53.5645
691.962	217.832
696.579	125.625
701.194	39.5273
705.806	55.0547
710.416	112.004
715.023	9.89844
719.627	173.019
724.228	53.6914
728.827	223.576
733.423	4.05859
738.016	43.5859
742.607	260.057
747.195	44.6348
751.78	153.953
756.363	538.172
760.943	1306.21
765.52	2255.84
770.095	1251.4
774.667	810.127
779.236	657.731
783.803	383.236
788.366	288.701
792.928	165.648
797.486	55.0586
802.042	398.551
806.595	305.971
811.146	985.887
815.694	1666.56
820.239	1165.77
824.782	536.283
829.322	307.309
833.859	311.352
838.394	359.141
842.926	142.58
847.455	273.289
851.982	81.6719
856.506	206.543
861.028	269.602
865.546	188.047
870.063	199.391
874.576	42.4961
879.087	234.207
883.595	98.7266
888.101	1.14258
892.604	133.736
897.105	233.047
901.603	52.0781
906.098	54.7598
910.59	14.8711
915.08	66.7598
919.568	234.826
924.052	173.887
928.535	203.414
933.014	43.6328
937.491	103.717
941.965	174.248
946.437	305.647
950.906	44.959
955.373	21.1875
959.837	283.305
964.298	222.016
968.757	336.715
973.213	784.197
977.667	1081.24
982.118	976.859
986.566	349.496
991.012	223.359
995.455	365.065
999.896	328.318
1004.33	386.291
1008.77	466.318
1013.2	591.162
1017.63	671.074
1022.06	330.43
1026.49	486.258
1030.91	1137.84
1035.33	1093.36
1039.75	492.266
1044.16	448.902
1048.57	468.5
1052.98	18.3281
1057.39	125.309
1061.8	225.875
1066.2	73.9297
1070.6	324.121
1074.99	96.2969
1079.39	315.652
1083.78	353.289
1088.17	791.938
1092.56	1237.03
1096.94	2434.18
1101.32	2937.4
1105.7	2185.67
1110.08	1397.02
1114.45	1427.43
1118.83	984.922
1123.2	870.609
1127.56	516.383
1131.93	409.223
1136.29	20.1836
1140.65	274.234
1145	164.379
1149.36	151.598
1153.71	109.715
1158.06	145.301
1162.4	56.9648
1166.75	98.5469
1171.09	53.4453
1175.43	67.1406
1179.77	80.4297
1184.1	105.797
1188.43	120.121
1192.76	68.5039
1197.09	156.644
1201.41	180.035
1205.73	216.777
1210.05	31.0781
1214.37	438.059
1218.68	47.957
1222.99	247.953
1227.3	336.898
1231.61	379.867
1235.91	195.852
1240.22	432.856
1244.52	198.875
1248.81	188.898
1253.11	151.934
1257.4	296.981
1261.69	205.035
1265.97	317.09
1270.26	252.148
1274.54	238.211
1278.82	165.273
1283.1	255.277
1287.37	141.152
1291.64	30.0195
1295.91	82.3086
1300.18	98.2305
1304.45	24.2891
1308.71	109.086
1312.97	425.633
1317.22	278.445
1321.48	338.996
1325.73	219.629
1329.98	63.2969
1334.23	87.7812
1338.47	218.887
1342.72	393.172
1346.96	325.215
1351.2	252.227
1355.43	381.219
1359.66	145.188
1363.89	155.133
1368.12	712.055
1372.35	183.957
1376.57	656.848
1380.79	214.707
1385.01	85.5664
1389.23	456.402
1393.44	166.262
1397.65	240.148
1401.86	284.078
1406.07	205.066
1410.27	7.42578
1414.47	416.586
1418.67	22.3438
1422.87	375.625
1427.06	77.1641
1431.26	192.926
1435.44	293.348
1439.63	487.617
1443.82	457.223
1448	441.789
1452.18	280.301
1456.36	195.344
1460.53	236.613
1464.7	335.731
1468.88	186.91
1473.04	530.098
1477.21	396.422
1481.37	363.09
1485.53	351.812
1489.69	442.984
1493.85	372.441
1498	455.691
1502.15	488.602
1506.3	641.656
1510.45	612.414
1514.59	707.16
1518.73	230.699
1522.88	403.652
1527.01	446.156
1531.15	496.785
1535.28	257.356
1539.41	152.477
1543.54	397.016
1547.66	76.4688
1551.79	199.016
1555.91	313.133
1560.02	175.746
1564.14	341.188
1568.25	292.664
1572.37	185.894
1576.47	63.8672
