Measurement: Raman, 514 nm, depolarized, Raman Data Processed
Mineral: Albite
Rruff sample: R050253
Ideal chemistry: NaAlSi_3_O_8_
Locality: Madawaska/Faraday mine, Bancroft, Ontario, Canada
Source: Marcus Origlieri
Description: Colorless to brown prismatic single crystals
Measured chemistry: (Na_0.99_Ca_0.01_)Al_1.00_(Si_0.99_Al_0.01_)_3_O_8_
Pin_id: L01398
Orientation: Laser parallel to a* (1 0 0). Fiducial mark perpendicular to laser is parallel to b [0 1 0]
Raman shift (cm-1)	intensity
87.308	0
92.246	394.362
97.182	45.2188
102.116	781.249
107.047	3066.06
111.976	5071.32
116.903	3485.48
121.827	931.379
126.749	361.863
131.668	610.162
136.585	1294.34
141.5	2591.72
146.412	4321.27
151.321	6179.22
156.229	9237.38
161.134	12249.7
166.036	10675.6
170.936	8803.6
175.834	8107.26
180.729	9854.01
185.622	10199.1
190.512	7742.63
195.4	5703.87
200.286	6218.58
205.169	8249.78
210.049	7571.44
214.928	3644.53
219.803	1412.01
224.677	686.148
229.548	442.629
234.416	343.665
239.282	891.712
244.146	1881.94
249.007	3641.69
253.866	3241.28
258.722	2392.91
263.576	3066.15
268.427	4693.72
273.276	4470.36
278.123	5516.89
282.967	12339.2
287.809	21834
292.648	19804.4
297.485	8967.29
302.319	3820.59
307.151	2169.17
311.98	1629.87
316.807	1299.69
321.631	2645.63
326.454	4586.69
331.273	3729.88
336.09	1308.17
340.905	349.562
345.717	261.034
350.527	233.578
355.334	35.8213
360.139	146.3
364.941	154.191
369.741	229.863
374.538	155.202
379.333	224.358
384.126	73.7383
388.916	170.519
393.703	640.069
398.488	1645.84
403.271	2989.8
408.051	4174.98
412.828	3409.61
417.603	2170.57
422.376	785.999
427.146	230.758
431.914	198.749
436.679	129.751
441.442	282.694
446.202	470.336
450.96	931.729
455.715	1649.96
460.467	2243.22
465.218	3858.51
469.965	10422.8
474.711	23475.2
479.454	27158.5
484.194	13830
488.932	6545.4
493.667	6880.87
498.4	15283.9
503.13	33872.8
507.858	40433.9
512.583	20535.7
517.306	7810.67
522.026	3926.47
526.744	2295.09
531.459	1647.65
536.172	958.166
540.882	762.893
545.59	664.623
550.295	518.225
554.998	436.385
559.698	363.751
564.396	478.425
569.091	590.037
573.784	1181.04
578.474	1150.05
583.162	840.088
587.847	213.32
592.529	190.056
597.209	167.655
601.887	174.661
606.562	449.717
611.235	568.034
615.905	486.491
620.572	428.12
625.237	622.089
629.9	900.73
634.56	1048.66
639.217	1168.72
643.872	1332.09
648.524	1495.73
653.174	582.788
657.821	342.069
662.466	321.1
667.108	259.829
671.748	190.777
676.385	253.676
681.02	228.51
685.652	26.2178
690.281	147.425
694.908	37.8447
699.533	63.5635
704.155	50.4395
708.774	6.42578
713.391	183.703
718.005	299.872
722.617	209.971
727.226	13.2568
731.833	276.844
736.437	131.966
741.039	129.625
745.638	329.222
750.234	633.507
754.828	1439.96
759.419	3468.36
764.008	4437.31
768.595	2662.9
773.178	1567.02
777.759	1645.28
782.338	1985.13
786.914	1004.66
791.488	406.484
796.059	449.727
800.627	528.666
805.193	807.483
809.756	1964.4
814.317	3134.08
818.875	2279.14
823.431	993.192
827.984	535.246
832.534	124.895
837.082	217.614
841.627	314.238
846.17	128.618
850.71	143.882
855.248	134.746
859.783	132.174
864.316	5.33106
868.846	185.985
873.373	40.5586
877.898	54.3477
882.42	45.3926
886.94	119.254
891.457	101.611
895.971	37.8672
900.483	89.9082
904.993	27.5098
909.5	219.666
914.004	150.539
918.505	49.9688
923.004	43.1289
927.501	284.025
931.995	101.643
936.486	142.875
940.975	188.789
945.461	72.5176
949.945	410.99
954.426	366.24
958.904	235.475
963.38	481.717
967.853	667.674
972.324	854.111
976.792	1461.64
981.258	1329.54
985.72	844.029
990.181	626.09
994.639	581.957
999.094	755.721
1003.55	1390.16
1008	2454.23
1012.44	2252.6
1016.89	1741.69
1021.33	1198.58
1025.77	1441.87
1030.21	2299.03
1034.64	1934.35
1039.07	1284.96
1043.5	883.981
1047.93	663.332
1052.35	813.842
1056.78	479.934
1061.19	435.107
1065.61	529.805
1070.02	481.178
1074.43	746.369
1078.84	1000.6
1083.25	1427.22
1087.65	2384.87
1092.05	4403.54
1096.45	7836.06
1100.85	8752.6
1105.24	6362.79
1109.63	4687.83
1114.02	4395.44
1118.4	3968.1
1122.78	2621.81
1127.16	1764.61
1131.54	1013.58
1135.92	454.734
1140.29	557.047
1144.66	450.615
1149.02	465.5
1153.39	515.613
1157.75	164.867
1162.11	3.32422
1166.46	175.902
1170.82	38.6621
1175.17	61.5254
1179.52	45.0938
1183.86	13.9609
1188.21	74.4688
1192.55	49.9609
1196.89	62.5156
1201.22	74.9004
1205.55	105.596
1209.88	88.0449
1214.21	46.5391
1218.54	158.951
1222.86	12.8906
1227.18	111.246
1231.5	101.465
1235.81	45.8555
1240.12	148.268
1244.43	305.697
1248.74	237.139
1253.04	404.6
1257.34	325.096
1261.64	474.656
1265.94	271.654
1270.23	558.404
1274.52	572.508
1278.81	678.367
1283.1	686.496
1287.38	712.061
1291.66	780.525
1295.94	949.34
1300.21	1157.24
1304.48	1265.94
1308.75	1260.53
1313.02	1450.78
1317.29	1413.23
1321.55	1562.68
1325.81	1539.41
1330.06	1219.86
1334.32	1196.87
1338.57	885.041
1342.82	861.697
1347.06	760.717
1351.31	694.508
1355.55	758.746
1359.79	521.35
1364.02	464.998
1368.26	525.152
1372.49	447.004
1376.71	297.869
1380.94	234.766
1385.16	435.65
1389.38	61.5938
1393.6	145.252
1397.81	258.59
1402.02	29.0918
1406.23	161.412
1410.44	80.7969
1414.64	66.6641
1418.85	152.18
1423.04	81.8496
1427.24	15.7559
1431.43	11.5059
1435.62	18.8906
1439.81	305.32
1444	53.0703
1448.18	98.5547
1452.36	292.787
1456.54	189.066
1460.71	169.324
1464.89	76.7481
1469.06	253.672
1473.22	271.348
1477.39	168.832
1481.55	69.9375
1485.71	200.119
1489.86	167.086
1494.02	205.022
1498.17	333.33
1502.32	236.766
1506.46	7.5332
1510.61	238.404
1514.75	242.043
1518.88	261.973
1523.02	195.748
1527.15	277.959
1531.28	77.8223
1535.41	304.625
1539.53	36.9707
1543.66	88.0059
1547.78	109.438
1551.89	378.318
1556.01	477.84
1560.12	233.305
1564.23	301.516
1568.33	1.5957
