Measurement: Raman, 514 nm, depolarized, Raman Data Processed
Mineral: Albite
Rruff sample: R050253
Ideal chemistry: NaAlSi_3_O_8_
Locality: Madawaska/Faraday mine, Bancroft, Ontario, Canada
Source: Marcus Origlieri
Description: Colorless to brown prismatic single crystals
Measured chemistry: (Na_0.99_Ca_0.01_)Al_1.00_(Si_0.99_Al_0.01_)_3_O_8_
Pin_id: L01266
Orientation: Laser parallel to (-1 -1 0). Fiducial mark perpendicular to laser is parallel to c [0 0 1]
Raman shift (cm-1)	intensity
109.512	0
114.44	146.163
119.365	124.509
124.288	32.0376
129.209	226.38
134.127	1015.9
139.043	3581.13
143.956	7157.63
148.867	10014
153.775	14467.1
158.681	14410
163.585	17350.9
168.486	13575.1
173.385	11778.2
178.282	14252.4
183.176	16473.7
188.067	16514.7
192.956	11183.8
197.843	8328.74
202.727	9944.02
207.609	10823.8
212.489	10428.2
217.366	4236.22
222.24	1140.89
227.112	352.188
231.982	8.1626
236.849	110.061
241.714	461.379
246.577	980.026
251.437	1558.44
256.294	1725.58
261.149	1925.16
266.002	2714.57
270.852	3733.67
275.7	4243.48
280.545	8160.1
285.388	15136.4
290.229	21266.3
295.067	17900.3
299.902	6838.46
304.735	2904.64
309.566	1989.82
314.394	1490.97
319.22	1530.88
324.043	2073.24
328.864	2726.26
333.682	2261.94
338.498	624.331
343.311	313.44
348.122	347.284
352.931	176.862
357.737	24.1484
362.54	55.1199
367.341	106.313
372.14	131.605
376.936	104.106
381.73	138.635
386.521	39.6433
391.31	461.633
396.096	973.727
400.88	2062.24
405.661	2647.91
410.44	3714.2
415.216	2595.64
419.99	1886.33
424.761	487.275
429.53	291.292
434.297	310.267
439.061	543.722
443.822	1265.7
448.581	3222.11
453.337	5075.3
458.091	6568.28
462.843	5664.05
467.592	8914.62
472.338	21243
477.082	31370.2
481.824	32252.2
486.563	14542
491.3	8382.71
496.034	12616.6
500.765	29813.1
505.494	45110.7
510.221	46170.6
514.945	20252.9
519.666	8179.29
524.385	4374.02
529.102	2816.3
533.816	1960.21
538.527	1456.6
543.236	1054.33
547.943	827.607
552.647	822.803
557.348	555.575
562.047	730.691
566.744	830.85
571.438	1287.86
576.129	1728.18
580.818	1734.7
585.504	873.09
590.188	429.53
594.87	161.97
599.549	165.44
604.225	153.982
608.899	139.548
613.57	78.1021
618.239	144.831
622.905	367.651
627.569	613.497
632.23	735.311
636.889	866.104
641.545	917.922
646.198	993.106
650.849	927.99
655.498	323.706
660.144	252.161
664.787	98.2305
669.428	90.7104
674.067	68.2041
678.703	24.6186
683.336	11.772
687.967	37.4829
692.595	41.9263
697.221	63.7065
701.844	112.946
706.465	30.1128
711.083	21.8076
715.698	57.1172
720.311	122.884
724.922	95.4228
729.53	149.312
734.135	176.722
738.738	402.417
743.338	531.99
747.936	1012
752.531	2108.67
757.124	5007.35
761.714	8067.32
766.302	7905.1
770.887	4014.32
775.469	2786.68
780.049	1801.57
784.626	984.294
789.201	823.829
793.773	749.167
798.343	956.292
802.91	1570.19
807.475	3756.86
812.037	7294.12
816.596	8221.01
821.153	4273.48
825.707	1742.7
830.259	905.059
834.808	670.626
839.355	476.012
843.899	259.539
848.441	188.417
852.98	131.633
857.516	2.58789
862.05	6.93555
866.581	13.4819
871.11	48.2144
875.636	9.82568
880.159	8.61816
884.68	11.2812
889.199	93.2119
893.714	0.788086
898.228	5.43066
902.738	115.224
907.246	6.15088
911.752	25.4355
916.255	54.0098
920.755	60.582
925.253	9.1626
929.748	110.762
934.241	169.381
938.731	101.034
943.218	235.744
947.703	420.518
952.186	640.486
956.665	736.729
961.142	661.295
965.617	594.17
970.089	1008.46
974.558	1353.25
979.025	1823.55
983.489	1277.15
987.951	717.953
992.41	616.204
996.866	949.133
1001.32	1285.81
1005.77	1699.78
1010.22	1857.12
1014.67	1639.27
1019.11	1379.99
1023.55	912.22
1027.99	771.029
1032.42	1006.65
1036.86	863.108
1041.29	803.211
1045.72	795.362
1050.14	685.605
1054.56	528.556
1058.98	403.027
1063.4	362.615
1067.82	488.487
1072.23	610.657
1076.64	968.723
1081.05	1294.99
1085.45	2158.53
1089.85	3580.57
1094.25	6689.44
1098.65	9650.26
1103.04	8776.68
1107.43	6166.76
1111.82	4989.33
1116.21	4543.16
1120.59	3590.12
1124.97	2222.23
1129.35	1352.54
1133.73	791.265
1138.1	523.935
1142.47	442.892
1146.84	445.264
1151.21	558.063
1155.57	426.149
1159.93	269.412
1164.29	265.616
1168.64	215.935
1172.99	43.3398
1177.34	120.727
1181.69	117.298
1186.04	62.9487
1190.38	21.2583
1194.72	27.4595
1199.05	1.21533
1203.39	42.9834
1207.72	8.27295
1212.05	49.4985
1216.37	59.083
1220.7	64.6997
1225.02	47.542
1229.34	32.9097
1233.65	31.1118
1237.97	42.2754
1242.28	47.4551
1246.59	100.294
1250.89	62.8989
1255.19	78.8384
1259.49	104.342
1263.79	42.8013
1268.09	42.7739
1272.38	77.1465
1276.67	121.639
1280.95	87.6694
1285.24	102.76
1289.52	61.1885
1293.8	86.2378
1298.08	145.346
1302.35	119.22
1306.62	78.0327
1310.89	163.096
1315.15	54.0259
1319.42	155.69
1323.68	136.452
1327.94	95.2905
1332.19	134.94
1336.44	165.461
1340.69	242.894
1344.94	55.8345
1349.19	146.503
1353.43	4.12451
1357.67	140.736
1361.9	137.062
1366.14	37.8887
1370.37	93.9043
1374.6	133.894
1378.83	21.4658
1383.05	53.4834
1387.27	11.1489
1391.49	100.682
1395.7	28.5523
1399.92	59.9736
1404.13	6.39941
1408.34	85.7544
1412.54	87.0264
1416.74	75.04
1420.94	61.8042
1425.14	55.9507
1429.34	81.7852
1433.53	50.4058
1437.72	140.633
1441.9	68.374
1446.09	98.1382
1450.27	182.085
1454.45	167.936
1458.63	140.734
1462.8	194.558
1466.97	98.8921
1471.14	185.138
1475.31	120.851
1479.47	40.4326
1483.63	117.014
1487.79	61.9722
1491.94	105.332
1496.09	84.1479
1500.24	34.0147
1504.39	103.179
1508.54	24.727
1512.68	83.1245
1516.82	128.946
1520.95	96.6655
1525.09	128.87
1529.22	113.499
1533.35	106.305
1537.47	70.7109
1541.6	102.441
1545.72	110.131
1549.83	29.8227
1553.95	215.477
1558.06	39.9136
1562.17	109.927
1566.28	10.3076
1570.38	0
