Measurement: Raman, 514 nm, ccw, Raman Data Processed
Mineral: Albite
Rruff sample: R040068
Ideal chemistry: NaAlSi_3_O_8_
Locality: Harding Pegmatite, Dixon, New Mexico, USA
Source: University of Arizona Mineral Museum
Description: Tan colored crystal fragment
Measured chemistry: (Na_0.99_Ca_0.01_)Al_1.00_(Si_0.99_Al_0.01_)_3_O_8_
Pin_id: L00690
Orientation: Laser parallel to (0 1 1). Fiducial mark perpendicular to laser is parallel to a [1 0 0]
Raman shift (cm-1)	intensity
74.098	0
79.081	1330.89
84.062	264.684
89.039	438.819
94.013	224.988
98.985	85.4497
103.953	228.447
108.919	1336.38
113.881	3997.77
118.841	4463.09
123.797	1320.81
128.751	358.929
133.701	255.786
138.649	325.916
143.594	909.947
148.536	2352.47
153.475	3432.61
158.41	2503.52
163.343	2993.91
168.273	2222.51
173.2	1609.52
178.125	1287.99
183.046	1668.93
187.964	2122.87
192.879	1616.47
197.792	1018.83
202.701	1092.51
207.608	1788.5
212.512	1985.77
217.412	611.735
222.31	219.921
227.205	19.8223
232.097	16.4893
236.986	133.589
241.872	230.318
246.755	699.894
251.636	1907.66
256.513	1487.76
261.388	576.513
266.26	1127.79
271.128	2015.51
275.994	1462.6
280.857	1087.99
285.717	2114.65
290.574	5001.28
295.429	4350.93
300.28	1375.1
305.129	749.341
309.975	500.673
314.817	423.156
319.657	371.725
324.494	403.388
329.329	1003.12
334.16	559.879
338.988	231.663
343.814	177.448
348.637	69.2197
353.457	111.037
358.274	76.333
363.088	4.83106
367.899	68.585
372.708	86.8945
377.513	25.4375
382.316	48.0752
387.116	39.8935
391.913	18.1123
396.708	197.185
401.499	493.22
406.288	886.269
411.073	1430.48
415.856	1499.68
420.636	1310.81
425.414	227.883
430.188	291.932
434.96	102.9
439.729	54.7773
444.495	276.522
449.258	198.165
454.018	718.233
458.776	796.11
463.531	749.687
468.283	1158.45
473.032	2745.17
477.778	8639.17
482.522	10928.5
487.262	4019.29
492	2145.91
496.735	2058
501.468	4446.01
506.197	13092.9
510.924	15754.1
515.648	5481.09
520.369	2102.55
525.088	1178.23
529.804	837.707
534.516	655.903
539.227	397.325
543.934	273.286
548.638	265.197
553.34	218.27
558.039	181.838
562.736	190.12
567.429	109.706
572.12	236.223
576.808	312.881
581.493	342.62
586.175	366.478
590.855	173.387
595.532	148.16
600.206	63.3721
604.878	40.8359
609.546	69.251
614.212	183.206
618.876	15.96
623.536	274.765
628.194	96.4209
632.849	164.055
637.501	360.666
642.151	278.408
646.798	244.131
651.442	277.854
656.083	88.2744
660.722	71.4902
665.358	21.3018
669.991	75.8047
674.621	52.252
679.249	56.583
683.874	5.21875
688.497	121.312
693.116	86.0879
697.733	140.939
702.348	40.0947
706.959	59.0361
711.568	170.513
716.174	227.131
720.778	295.666
725.378	290.247
729.976	46.9473
734.572	23.3867
739.164	163.612
743.754	90.9619
748.342	250.326
752.926	511.765
757.508	658.991
762.088	1929.61
766.664	2465.65
771.238	972.262
775.809	661.471
780.378	439.729
784.944	165.379
789.507	231.85
794.068	190.954
798.625	293.865
803.181	277.83
807.733	312.935
812.283	523.384
816.83	791.967
821.375	554.634
825.917	259.731
830.456	234.128
834.993	114.335
839.527	335.288
844.058	286.486
848.587	56.5185
853.113	157.734
857.637	117.701
862.158	87.7949
866.676	107.272
871.191	49.335
875.704	42.8281
880.214	34.6172
884.722	72.8311
889.227	152.8
893.73	58.3711
898.229	9.83008
902.727	211.488
907.221	152.506
911.713	48.5674
916.202	126.045
920.689	128.481
925.173	52.7666
929.655	60.8359
934.134	22.6055
938.61	72.1377
943.084	138.659
947.555	142.115
952.023	90.4629
956.489	281.049
960.952	241.699
965.413	307.482
969.871	669.186
974.327	703.449
978.78	1446.8
983.23	1022.94
987.678	498.318
992.123	172.346
996.566	297.096
1001.01	348.578
1005.44	475.508
1009.88	494.785
1014.31	436.816
1018.74	496.217
1023.17	267.285
1027.59	388.232
1032.01	802.854
1036.43	490.312
1040.85	335.498
1045.27	205.76
1049.68	203.379
1054.09	142.623
1058.49	86.2734
1062.9	98.9316
1067.3	173.236
1071.7	285.789
1076.09	197.353
1080.49	432.176
1084.88	446.693
1089.27	814.391
1093.65	1238.76
1098.04	2497.62
1102.42	2652.11
1106.8	1653.69
1111.17	1335.34
1115.55	1260.06
1119.92	904.873
1124.29	419.24
1128.65	242.32
1133.02	476.504
1137.38	83.8086
1141.74	106.244
1146.09	202.76
1150.45	35.3867
1154.8	196.144
1159.15	225.971
1163.49	122.939
1167.84	231.113
1172.18	25.2949
1176.51	256.838
1180.85	82.2422
1185.18	233.475
1189.52	84.7109
1193.84	48.0078
1198.17	54.4727
1202.49	70.1035
1206.81	137.9
1211.13	148.103
1215.45	181.637
1219.76	0.841797
1224.07	173.656
1228.38	180.154
1232.69	145.647
1236.99	151.129
1241.29	213.092
1245.59	221.059
1249.89	332.502
1254.18	114.893
1258.47	141.273
1262.76	164.402
1267.05	299.758
1271.33	364.084
1275.61	410.373
1279.89	59.5273
1284.17	218.727
1288.44	221.859
1292.71	267.947
1296.98	205.016
1301.25	17.5488
1305.51	25.502
1309.77	278.381
1314.03	172.404
1318.29	345.9
1322.54	365.684
1326.8	198.418
1331.05	147.478
1335.29	225.877
1339.54	174.99
1343.78	176.85
1348.02	260.279
1352.26	212.049
1356.49	115.717
1360.72	175.307
1364.95	304.818
1369.18	255.269
1373.4	375.656
1377.63	204.982
1381.85	248.332
1386.07	350.746
1390.28	117.947
1394.49	192.975
1398.7	262.93
1402.91	300.875
1407.12	174.815
1411.32	263.731
1415.52	78.6816
1419.72	230.533
1423.92	294.789
1428.11	105.398
1432.3	445.949
1436.49	486.51
1440.68	268.537
1444.86	345.815
1449.05	178.99
1453.22	66.5039
1457.4	347.471
1461.58	239.506
1465.75	392.627
1469.92	263.685
1474.09	61.6758
1478.25	356.606
1482.41	245.445
1486.57	91.7402
1490.73	252.205
1494.89	385.592
1499.04	291.926
1503.19	87.8144
1507.34	67.707
1511.48	223.418
1515.63	141.232
1519.77	328.438
1523.91	358.197
1528.05	151.043
1532.18	163.312
1536.31	159.191
1540.44	113.703
1544.57	267.018
1548.69	120.482
1552.82	199.092
1556.94	133.943
1561.05	190.519
1565.17	90.8047
1569.28	144.322
1573.39	203.166
1577.5	0
