Measurement: Raman, 514 nm, depolarized, Raman Data Processed
Mineral: Albite
Rruff sample: R050253
Ideal chemistry: NaAlSi_3_O_8_
Locality: Madawaska/Faraday mine, Bancroft, Ontario, Canada
Source: Marcus Origlieri
Description: Colorless to brown prismatic single crystals
Measured chemistry: (Na_0.99_Ca_0.01_)Al_1.00_(Si_0.99_Al_0.01_)_3_O_8_
Pin_id: L01462
Orientation: Laser parallel to (1 0 1). Fiducial mark perpendicular to laser is parallel to b [0 1 0]
Raman shift (cm-1)	intensity
94.714	0
99.649	22.8037
104.582	1068.48
109.512	3409.39
114.44	3427.16
119.365	1372.45
124.288	531.618
129.209	282.484
134.127	824.094
139.043	2222.79
143.956	4574.53
148.867	6285.07
153.775	4871.94
158.681	3699.34
163.585	4263
168.486	4441.94
173.385	5062.27
178.282	6718.68
183.176	8321.43
188.067	7757.05
192.956	5063.78
197.843	4411.88
202.727	6319.15
207.609	8956.55
212.489	6032
217.366	2308.44
222.24	775.567
227.112	227.718
231.982	168.711
236.849	216.421
241.714	316.498
246.577	758.565
251.437	1119.32
256.294	907.128
261.149	1652.18
266.002	2799.39
270.852	3196.08
275.7	2592.76
280.545	4161.05
285.388	8984.66
290.229	13639.4
295.067	8218.41
299.902	3007.89
304.735	1277.08
309.566	760.846
314.394	539.012
319.22	659.59
324.043	1336.49
328.864	1730.69
333.682	909.164
338.498	206.891
343.311	53.1758
348.122	99.125
352.931	182.012
357.737	172.08
362.54	37.4141
367.341	132.129
372.14	172.852
376.936	147.805
381.73	294.375
386.521	92.6543
391.31	263.65
396.096	486.359
400.88	982.648
405.661	1520.36
410.44	1886.51
415.216	2377.06
419.99	1086.02
424.761	364.211
429.53	236.846
434.297	8.71484
439.061	655.58
443.822	1000.49
448.581	2744.4
453.337	5458.33
458.091	5847.92
462.843	4885.72
467.592	7956.49
472.338	19445.3
477.082	34512.1
481.824	24862.8
486.563	10118.1
491.3	6476.83
496.034	9193.96
500.765	22428.3
505.494	40525.6
510.221	30218.1
514.945	12541
519.666	5394.73
524.385	3362.53
529.102	2061
533.816	1454.6
538.527	1055.41
543.236	791.867
547.943	651.695
552.647	480.305
557.348	540.602
562.047	420.441
566.744	690.064
571.438	924.334
576.129	1442.13
580.818	1105.76
585.504	774.686
590.188	239.734
594.87	232.781
599.549	198.603
604.225	57.1426
608.899	248.621
613.57	240.049
618.239	169.697
622.905	435.348
627.569	298.014
632.23	482.685
636.889	465.394
641.545	671.43
646.198	696.715
650.849	823.561
655.498	303.977
660.144	242.787
664.787	140.127
669.428	135.938
674.067	250.652
678.703	123.791
683.336	87.0742
687.967	113.57
692.595	170.459
697.221	38.291
701.844	26.2891
706.465	11.3164
711.083	126.527
715.698	19.2871
720.311	251.115
724.922	247.83
729.53	60.2109
734.135	361.428
738.738	285.182
743.338	494.842
747.936	904.367
752.531	1874.97
757.124	4583.08
761.714	8831.56
766.302	6843.64
770.887	3127.14
775.469	2183.03
780.049	1105.12
784.626	901.736
789.201	632.742
793.773	751.701
798.343	808.672
802.91	1317.93
807.475	3161.95
812.037	6524.46
816.596	6963.13
821.153	2896.69
825.707	1584.31
830.259	788.072
834.808	558.754
839.355	413.731
843.899	410.754
848.441	50.4316
852.98	304.785
857.516	190.826
862.05	70.2617
866.581	11.1562
871.11	186.93
875.636	19.7188
880.159	22.6934
884.68	20.5254
889.199	39.6484
893.714	63.3633
898.228	91.0371
902.738	116.383
907.246	78.5117
911.752	176.435
916.255	150.148
920.755	225.289
925.253	317.68
929.748	47.4863
934.241	62.0918
938.731	130.51
943.218	162.611
947.703	355.648
952.186	502.707
956.665	614.943
961.142	539.201
965.617	384.566
970.089	209.227
974.558	422.055
979.025	467.144
983.489	540.939
987.951	428.353
992.41	486.744
996.866	425.738
1001.32	876.682
1005.77	1360.36
1010.22	1502.16
1014.67	1397.2
1019.11	846.271
1023.55	715.912
1027.99	544.1
1032.42	655.549
1036.86	517.113
1041.29	628.979
1045.72	663.894
1050.14	616.07
1054.56	480.234
1058.98	342.428
1063.4	273.973
1067.82	454.207
1072.23	534.092
1076.64	848.762
1081.05	1208.28
1085.45	1830.24
1089.85	3482.55
1094.25	6800.15
1098.65	9707.56
1103.04	7748.6
1107.43	5268.8
1111.82	4358.06
1116.21	3868.44
1120.59	2438.96
1124.97	1761.95
1129.35	917.84
1133.73	675.07
1138.1	394.633
1142.47	274.527
1146.84	378.359
1151.21	628.5
1155.57	199.902
1159.93	196.68
1164.29	107.988
1168.64	310.234
1172.99	142.617
1177.34	3.87109
1181.69	121.648
1186.04	21.8008
1190.38	18.0898
1194.72	153.629
1199.05	205.496
1203.39	83.5234
1207.72	138.332
1212.05	121.785
1216.37	351.637
1220.7	163.629
1225.02	142.356
1229.34	185.148
1233.65	275.898
1237.97	92.6172
1242.28	132.367
1246.59	306.285
1250.89	151.746
1255.19	105.254
1259.49	186.117
1263.79	173.418
1268.09	390.785
1272.38	244.992
1276.67	540.008
1280.95	128.269
1285.24	419.777
1289.52	143.496
1293.8	516.562
1298.08	244.383
1302.35	297.668
1306.62	413.422
1310.89	550.32
1315.15	270.836
1319.42	643.074
1323.68	716.742
1327.94	459.234
1332.19	375.246
1336.44	417.723
1340.69	478.176
1344.94	562.816
1349.19	175.578
1353.43	330.148
1357.67	163.098
1361.9	390.031
1366.14	343.305
1370.37	322.738
1374.6	58.8047
1378.83	40.6172
1383.05	152.555
1387.27	69.8867
1391.49	108.66
1395.7	157.215
1399.92	46.543
1404.13	262.863
1408.34	196.199
1412.54	391.348
1416.74	73.3789
1420.94	214.578
1425.14	85.4727
1429.34	132.562
1433.53	285.644
1437.72	369.477
1441.9	87.2539
1446.09	214.25
1450.27	130.363
1454.45	64.0625
1458.63	274.586
1462.8	64.6875
1466.97	232.973
1471.14	207.613
1475.31	13.293
1479.47	242.582
1483.63	193.766
1487.79	308.805
1491.94	565.938
1496.09	419.988
1500.24	227.133
1504.39	497.836
1508.54	352.492
1512.68	199.172
1516.82	156.266
1520.95	185.664
1525.09	173.867
1529.22	378.055
1533.35	257.359
1537.47	607.754
1541.6	344.078
1545.72	118.066
1549.83	647.465
1553.95	90.3516
1558.06	248.441
1562.17	171.176
1566.28	53.5664
1570.38	0
