Measurement: Raman, 514 nm, depolarized, Raman Data Processed
Mineral: Albite
Rruff sample: R040068
Ideal chemistry: NaAlSi_3_O_8_
Locality: Harding Pegmatite, Dixon, New Mexico, USA
Source: University of Arizona Mineral Museum
Description: Tan colored crystal fragment
Measured chemistry: (Na_0.99_Ca_0.01_)Al_1.00_(Si_0.99_Al_0.01_)_3_O_8_
Pin_id: L00307
Orientation: Laser parallel to c* (0 0 1). Fiducial mark perpendicular to laser is parallel to -a [-1 0 0]
Raman shift (cm-1)	intensity
116.172	0
120.347	21.616
124.519	17.851
128.69	128.329
132.858	518.102
137.025	782.977
141.189	1715.35
145.352	2780.24
149.512	3334.64
153.67	3067.17
157.827	3626.05
161.981	4059.84
166.133	3277.29
170.283	3107.66
174.431	3150.48
178.577	4025.96
182.721	5296.29
186.863	4959.81
191.003	3244.08
195.141	2078.84
199.277	1825.23
203.411	2971.22
207.543	3936.9
211.673	2752.68
215.801	1258.78
219.927	525.281
224.051	252.221
228.173	269.606
232.292	207.435
236.41	129.159
240.526	317.296
244.64	575.029
248.752	1133.76
252.861	1111.39
256.969	428.667
261.075	556.32
265.179	974.298
269.281	1232.54
273.38	1001.01
277.478	1235.79
281.574	2490.35
285.668	5837.05
289.76	7788.43
293.85	4712.31
297.937	1977.97
302.023	815.002
306.107	603.229
310.189	332.361
314.269	442.203
318.347	372.623
322.423	1003.53
326.497	1754.83
330.569	1326.48
334.639	528.424
338.707	250.625
342.773	53.041
346.837	285.646
350.899	88.379
354.96	101.209
359.018	125.744
363.074	112.758
367.128	29.869
371.181	77.02
375.231	4.121
379.28	171.229
383.326	128.402
387.37	15.686
391.413	96.982
395.454	339.652
399.492	512.318
403.529	684.824
407.564	706.881
411.596	844.92
415.627	840.137
419.656	301.5
423.683	52.891
427.708	64.717
431.731	31.529
435.752	89.992
439.772	44.543
443.789	272.283
447.804	334.514
451.817	1320.91
455.829	1622.06
459.838	1143.79
463.846	912.037
467.852	1199.86
471.855	3410.38
475.857	7940.8
479.857	8031.12
483.855	3841.33
487.851	1931.4
491.845	1591.35
495.837	2561.16
499.828	5640.82
503.816	13300.8
507.802	14283.3
511.787	7023.26
515.77	3145.43
519.75	1688.46
523.729	988.438
527.706	862.066
531.681	518.098
535.654	633.492
539.625	383.941
543.595	316.701
547.562	226.598
551.527	244.223
555.491	241.646
559.453	258.916
563.412	259.951
567.37	165.574
571.326	233.566
575.28	490.037
579.233	628.859
583.183	336.9
587.131	202.846
591.078	161.342
595.022	48.475
598.965	123.33
602.906	48.291
606.845	62.814
610.782	76.938
614.718	80.818
618.651	48.404
622.582	22.062
626.512	200.92
630.44	373.695
634.366	246.307
638.29	348.75
642.212	490.684
646.132	543.154
650.05	535.119
653.967	246.924
657.882	228.576
661.794	0.074
665.705	231.342
669.614	112.43
673.522	53.191
677.427	63.643
681.331	15.924
685.232	84.434
689.132	224.656
693.03	64.664
696.926	3.225
700.82	26.576
704.713	80.291
708.603	77.904
712.492	90.65
716.379	227.154
720.264	157.627
724.147	20.957
728.028	260.051
731.908	89.057
735.785	22.064
739.661	78.303
743.535	245.533
747.407	211.779
751.278	418.883
755.146	695.041
759.013	1945.41
762.878	2792.97
766.741	1576.31
770.602	894.658
774.461	721.588
778.319	309.209
782.174	165.195
786.028	313.877
789.88	192.576
793.73	320.223
797.579	340.033
801.425	328.803
805.27	517.605
809.113	1446.45
812.954	3005.34
816.794	2361.5
820.631	999.65
824.467	637.938
828.301	491.162
832.133	360.246
835.963	256.756
839.792	81.209
843.618	262.508
847.443	130.887
851.266	143.473
855.088	180.828
858.907	79.324
862.725	70.445
866.541	19.637
870.355	226.27
874.167	76.629
877.978	87.004
881.787	117.539
885.594	81.961
889.399	34.848
893.202	115.828
897.004	77.062
900.803	238.488
904.601	280.113
908.398	121.949
912.192	34.09
915.985	316.609
919.776	499.395
923.565	102.379
927.352	495.566
931.138	339.027
934.922	292.762
938.704	346.691
942.484	480.801
946.262	365.09
950.039	249.551
953.814	194.195
957.587	179.02
961.359	504.031
965.128	479.234
968.896	554.645
972.662	770.293
976.427	1026.16
980.189	802.398
983.95	488.898
987.709	345.625
991.467	574.984
995.222	392.309
998.976	359.91
1002.73	515.602
1006.48	683.777
1010.23	620.367
1013.97	799.016
1017.72	567.668
1021.46	462.68
1025.2	727.789
1028.94	1013.33
1032.68	1203.26
1036.42	1023.56
1040.15	704.852
1043.89	734.93
1047.62	825.93
1051.35	527.211
1055.07	548.785
1058.8	580.562
1062.52	518.504
1066.25	710.199
1069.97	502.031
1073.69	324.07
1077.4	456.254
1081.12	518.043
1084.83	869.641
1088.55	1091.17
1092.26	1532.59
1095.96	1834.04
1099.67	1885.65
1103.38	1227.62
1107.08	969.949
1110.78	872.645
1114.48	895.703
1118.18	939.07
1121.88	1022.77
1125.57	576.887
1129.27	171.395
1132.96	226.211
1136.65	68.84
1140.34	326.426
1144.02	581.984
1147.71	287.859
1151.39	304.02
1155.07	140.215
1158.75	216.719
1162.43	13.547
1166.11	200.77
1169.78	138.477
1173.45	356.746
1177.12	255.594
1180.79	15.023
1184.46	5.059
1188.13	55.703
1191.79	60.098
1195.45	81.562
1199.11	103.719
1202.77	396.684
1206.43	356.078
1210.09	145.793
1213.74	478.996
1217.39	75.426
1221.05	249.699
1224.69	256.887
1228.34	510.574
1231.99	573.883
1235.63	437.41
1239.27	97.613
