Measurement: Raman, 514 nm, depolarized, Raman Data Processed
Mineral: Albite
Rruff sample: R050402
Ideal chemistry: NaAlSi_3_O_8_
Locality: Urbano mine, Golconda District, Brazil
Source: Bob Downs
Description: Colorless tabular single crystals associated with fluorapatite R050401
Measured chemistry: Na_1.00_Al_1.00_Si_3.00_O_8_
Pin_id: M00068
Orientation: Laser parallel to a* (1 0 0). Fiducial mark perpendicular to laser is parallel to b [0 1 0]
Raman shift (cm-1)	intensity
86.072	0
91.012	9.41016
95.948	131.166
100.883	348.954
105.815	1024.15
110.744	2650.26
115.671	2122.96
120.596	635.934
125.519	234.383
130.439	172.886
135.356	347.041
140.271	492.947
145.184	1046.11
150.094	2050.09
155.002	2004.49
159.908	2901.48
164.811	2856.22
169.711	2745.73
174.61	2146.41
179.505	2454.26
184.399	3054.41
189.29	2572.29
194.178	1669.18
199.064	1589.59
203.948	2362.37
208.829	2940.35
213.708	1312.06
218.585	420.079
223.459	116.589
228.33	59.3511
233.199	41.7632
238.066	152.819
242.93	385.177
247.792	1130.76
252.651	1462.33
257.508	629.101
262.363	918.697
267.215	1857.31
272.064	1667.87
276.912	1136.29
281.756	2311.78
286.598	5240.52
291.438	6252.59
296.276	2611.13
301.111	991.91
305.943	638.981
310.773	497.69
315.601	294.859
320.426	397.083
325.248	979.539
330.068	1091.02
334.886	351.926
339.701	147.217
344.514	90.8247
349.324	135.719
354.132	83.9028
358.938	13.3081
363.741	41.2764
368.541	24.978
373.339	49.1528
378.135	32.1592
382.928	64.0254
387.718	140.024
392.506	13.0029
397.292	302.278
402.075	522.15
406.856	1436.61
411.634	902.393
416.41	1068.4
421.183	395.133
425.954	146.787
430.722	118.569
435.488	105.255
440.251	88.6611
445.012	408.9
449.77	576.411
454.526	957.286
459.28	993.578
464.03	1254.16
468.779	2614.23
473.525	6845.2
478.268	12382.2
483.009	6065.02
487.747	2551.49
492.483	2032.27
497.217	3894.05
501.948	9883.31
506.676	17254.7
511.402	8694.58
516.125	3103.34
520.846	1521.49
525.565	884.187
530.281	589.54
534.994	363.347
539.705	413.637
544.413	316.816
549.119	164.249
553.822	181.133
558.523	235.3
563.222	99.2686
567.917	222.955
572.611	374.328
577.302	497.836
581.99	402.726
586.676	146.734
591.359	28.0361
596.04	14.4512
600.718	47.666
605.394	138.519
610.067	106.751
614.737	160.418
619.406	77.9824
624.071	28.6553
628.734	387.478
633.395	86.6103
638.053	333.888
642.708	364.443
647.361	389.486
652.012	218.227
656.66	0.998047
661.305	89.9824
665.948	164.883
670.588	104.961
675.226	2.17676
679.861	160.192
684.494	43.7109
689.124	165.194
693.752	84.1963
698.377	5.34375
702.999	208.844
707.619	22.4619
712.237	5.93164
716.852	256.777
721.464	238.374
726.074	133.088
730.681	96.0332
735.286	71.0586
739.888	57.8574
744.488	116.203
749.085	397.291
753.68	714.07
758.272	1334.37
762.861	2619.24
767.448	1495.63
772.033	876.613
776.614	643.074
781.194	373.397
785.77	252.664
790.345	373.315
794.916	324.139
799.485	425.117
804.052	459.697
808.616	891.561
813.177	1941.77
817.736	1461.43
822.292	637.689
826.846	407.053
831.397	275.231
835.945	215.055
840.491	286.928
845.035	226.178
849.576	82.3477
854.114	173.996
858.65	206.117
863.183	230.039
867.713	71.2012
872.241	267.32
876.767	6.80078
881.29	138.014
885.81	42.3965
890.328	91.6152
894.843	188.014
899.356	63.6348
903.866	174.508
908.373	72.2363
912.878	79.3144
917.38	40.4316
921.88	126.268
926.377	17.3945
930.872	41.3164
935.364	181.225
939.853	8.77539
944.34	55.9434
948.824	18.6367
953.306	185.881
957.785	252.756
962.261	797.42
966.735	963.469
971.207	610.213
975.675	759.473
980.141	1049.02
984.605	528.082
989.066	356.211
993.524	360.172
997.98	440.027
1002.43	402.408
1006.88	619.869
1011.33	533.115
1015.78	561.176
1020.22	487.31
1024.66	266.166
1029.1	418.822
1033.53	662.188
1037.97	547.58
1042.4	228.029
1046.82	385.307
1051.25	249.529
1055.67	97.0078
1060.09	94.2051
1064.51	256.147
1068.92	186.238
1073.33	51.332
1077.74	268.297
1082.15	571.498
1086.55	532.252
1090.95	1234.56
1095.35	2421.99
1099.75	3160.5
1104.14	2406.1
1108.53	1780.19
1112.92	1336
1117.31	1294.95
1121.69	981.062
1126.07	643.328
1130.45	280.547
1134.82	380.207
1139.19	90.1836
1143.57	210.453
1147.93	128.969
1152.3	298.723
1156.66	176.762
1161.02	122.07
1165.38	4.35938
1169.73	82.5352
1174.08	265.57
1178.43	141.941
1182.78	149.699
1187.12	106.57
1191.46	97.3125
1195.8	36.9414
1200.14	87.2617
1204.47	147.867
1208.8	117.477
1213.13	191.238
1217.46	282.316
1221.78	192.629
1226.1	78.0898
1230.42	262.508
1234.73	24.1562
1239.04	142.129
1243.35	227.68
1247.66	447.531
1251.97	125.676
1256.27	241.109
1260.57	324.941
1264.86	218.898
1269.16	173.488
1273.45	270.961
1277.74	92.8828
1282.03	289.344
1286.31	373.094
1290.59	217.164
1294.87	220.305
1299.14	239.981
1303.42	198.102
1307.69	323.246
1311.95	362.598
1316.22	239.602
1320.48	363.953
1324.74	242.812
1329	410.578
1333.26	42.6289
1337.51	469.394
1341.76	144.332
1346	333.586
1350.25	276.18
1354.49	449.086
1358.73	403.152
1362.96	334.074
1367.2	270.957
1371.43	414.262
1375.66	380.441
1379.88	17.8516
1384.11	507.703
1388.33	305.914
1392.54	143.004
1396.76	222.102
1400.97	252.894
1405.18	427.508
1409.39	248.207
1413.59	340.152
1417.8	188.723
1421.99	30.5547
1426.19	280.031
1430.38	185.473
1434.58	515.629
1438.77	201.426
1442.95	279.684
1447.13	334.793
1451.32	277.609
1455.49	101.625
1459.67	351.035
1463.84	292.91
1468.01	177.164
1472.18	53.7305
1476.35	135.594
1480.51	79.6133
1484.67	106.824
1488.83	213.242
1492.98	244.43
1497.13	180.82
1501.28	128.285
1505.43	223.918
1509.57	5.73438
1513.71	396.719
1517.85	483.984
1521.99	133.43
1526.12	218.781
1530.25	93.3281
1534.38	290.238
1538.5	410.356
1542.62	306.894
1546.74	0.867188
1550.86	335.301
1554.98	445.906
1559.09	165.051
1563.2	401.289
1567.31	12.2812
