Measurement: Raman, 514 nm, depolarized, Raman Data Processed
Mineral: Albite
Rruff sample: R040129
Ideal chemistry: NaAlSi_3_O_8_
Locality: LaChance Quarry, Brunswick, Cumberland County, Maine, USA
Source: Bob Downs
Description: Colorless fragment of a tabular single crystal
Measured chemistry: (Na_0.99_K_0.01_)Al_1.00_Si_3.00_O_8_
Pin_id: L00382
Orientation: Laser parallel to b* (0 1 0). Fiducial mark perpendicular to laser is parallel to c [0 0 1]
Raman shift (cm-1)	intensity
124.519	0
128.69	109.683
132.858	157.542
137.025	365.582
141.189	929.541
145.352	2437.72
149.512	2211.53
153.67	2367.99
157.827	4302.63
161.981	7671.16
166.133	4664.62
170.283	3704.34
174.431	3096.44
178.577	4289.5
182.721	6353.31
186.863	6233.56
191.003	3827.2
195.141	2419.9
199.277	1814.59
203.411	2197.75
207.543	4701.86
211.673	3464.79
215.801	1013.73
219.927	239.833
224.051	77.054
228.173	87.694
232.292	205.479
236.41	113.028
240.526	122.542
244.64	446.973
248.752	2007.18
252.861	3475.58
256.969	1227.13
261.075	662.71
265.179	1490.32
269.281	2977.66
273.38	2212.95
277.478	1716.39
281.574	2937.02
285.668	7929.02
289.76	17618.2
293.85	10801.7
297.937	3943.01
302.023	1939.64
306.107	1155.5
310.189	905.29
314.269	583.899
318.347	612.122
322.423	945.767
326.497	3032.92
330.569	3475.64
334.639	1144.98
338.707	441.904
342.773	174.425
346.837	304.149
350.899	359.546
354.96	140.822
359.018	106.134
363.074	41.885
367.128	64.612
371.181	68.92
375.231	91.838
379.28	50.084
383.326	6.399
387.37	22.968
391.413	59.115
395.454	406.68
399.492	924.74
403.529	811.968
407.564	2135.64
411.596	945.334
415.627	1464.34
419.656	587.699
423.683	67.82
427.708	14.207
431.731	146.956
435.752	81.612
439.772	51.453
443.789	85.664
447.804	271.336
451.817	482.961
455.829	751.945
459.838	829.238
463.846	1162.84
467.852	2244.06
471.855	4414.6
475.857	12554.9
479.857	18834.9
483.855	8174.71
487.851	3634.24
491.845	2523.53
495.837	3112.58
499.828	6551.39
503.816	17779.7
507.802	29291.4
511.787	13362.6
515.77	5732.22
519.75	3240.19
523.729	1981.18
527.706	1282.24
531.681	959.339
535.654	799.396
539.625	818.443
543.595	365.647
547.562	267.337
551.527	405.662
555.491	374.008
559.453	352.68
563.412	240.068
567.37	237.163
571.326	384.587
575.28	681.728
579.233	790.309
583.183	416.275
587.131	268.64
591.078	222.236
595.022	332.18
598.965	11.672
602.906	56.08
606.845	230.565
610.782	285.367
614.718	180.166
618.651	34.809
622.582	69.29
626.512	513.618
630.44	817.805
634.366	681.853
638.29	405.945
642.212	559.713
646.132	1053.35
650.05	766.845
653.967	210.213
657.882	73.453
661.794	23.44
665.705	289.479
669.614	242.21
673.522	25.263
677.427	102.93
681.331	39.134
685.232	141.149
689.132	23.112
693.03	4.867
696.926	159.689
700.82	42.007
704.713	195.842
708.603	127.312
712.492	104.129
716.379	76.69
720.264	177.391
724.147	328.188
728.028	332.671
731.908	207.255
735.785	47.634
739.661	177.875
743.535	408.045
747.407	398.528
751.278	366.59
755.146	605.455
759.013	1405.26
762.878	3012.87
766.741	1998.78
770.602	1138.04
774.461	977.339
778.319	506.336
782.174	396.332
786.028	505.864
789.88	385.223
793.73	284.509
797.579	243.728
801.425	272.881
805.27	361.973
809.113	861.006
812.954	1339.66
816.794	1326.15
820.631	435.528
824.467	370.784
828.301	393.229
832.133	394.409
835.963	292.583
839.792	98.81
843.618	96.253
847.443	208.696
851.266	363.293
855.088	155.886
858.907	10.88
862.725	265.676
866.541	20.1
870.355	246.041
874.167	383.91
877.978	211.701
881.787	81.037
885.594	26.302
889.399	121.696
893.202	289.622
897.004	327.287
900.803	295.314
904.601	263.418
908.398	18.419
912.192	159.753
915.985	427.976
919.776	316.271
923.565	164.614
927.352	122.996
931.138	18.575
934.922	229.894
938.704	258.411
942.484	386.948
946.262	325.355
950.039	404.01
953.814	132.73
957.587	231.521
961.359	450.39
965.128	569.351
968.896	568.423
972.662	427.613
976.427	476.956
980.189	446.471
983.95	266.156
987.709	546.028
991.467	486.059
995.222	356.245
998.976	176.66
1002.73	384.236
1006.48	785.235
1010.23	984.237
1013.97	1241.84
1017.72	852.657
1021.46	675.277
1025.2	822.405
1028.94	1445.05
1032.68	1990.48
1036.42	1623.7
1040.15	1137.74
1043.89	851.234
1047.62	555.837
1051.35	368.773
1055.07	294.318
1058.8	302.547
1062.52	704.025
1066.25	945.678
1069.97	646.955
1073.69	438.854
1077.4	491.072
1081.12	763.506
1084.83	1256.16
1088.55	2076.78
1092.26	2919.83
1095.96	4593.11
1099.67	4926.62
1103.38	3650.37
1107.08	2904.6
1110.78	2669.62
1114.48	2825.22
1118.18	2530.89
1121.88	1567.05
1125.57	923.377
1129.27	449.906
1132.96	256.797
1136.65	414.283
1140.34	692.416
1144.02	1001.22
1147.71	740.836
1151.39	611.377
1155.07	322.869
1158.75	54.607
1162.43	89.008
1166.11	333.902
1169.78	550.379
1173.45	718.727
1177.12	548.553
1180.79	421.65
1184.46	61.369
1188.13	102.777
1191.79	41.057
1195.45	245.527
1199.11	557.424
1202.77	0
