Measurement: Raman, 514 nm, depolarized, Raman Data Processed
Mineral: Albite
Rruff sample: R050253
Ideal chemistry: NaAlSi_3_O_8_
Locality: Madawaska/Faraday mine, Bancroft, Ontario, Canada
Source: Marcus Origlieri
Description: Colorless to brown prismatic single crystals
Measured chemistry: (Na_0.99_Ca_0.01_)Al_1.00_(Si_0.99_Al_0.01_)_3_O_8_
Pin_id: L01416
Orientation: Laser parallel to b* (0 1 0). Fiducial mark perpendicular to laser is parallel to c [0 0 1]
Raman shift (cm-1)	intensity
77.423	0
82.367	857.615
87.308	2017.64
92.246	1662.38
97.182	42.8752
102.116	32.7891
107.047	713.109
111.976	1007.88
116.903	1149.39
121.827	587.556
126.749	606.587
131.668	1750.42
136.585	3743.76
141.5	6410.74
146.412	9059.69
151.321	13451.2
156.229	15827.5
161.134	17403.9
166.036	18385.6
170.936	12618.1
175.834	13343.6
180.729	16197.4
185.622	18461.5
190.512	15814.9
195.4	10028.7
200.286	9299.81
205.169	10852.2
210.049	12700.8
214.928	8358.69
219.803	2646.02
224.677	1067.17
229.548	423.207
234.416	208.27
239.282	332.77
244.146	910.96
249.007	1496.14
253.866	2095.01
258.722	1989.18
263.576	2551.41
268.427	3632.5
273.276	4367.28
278.123	5392.64
282.967	11350.5
287.809	19048.7
292.648	23696.3
297.485	12470.1
302.319	4579.1
307.151	2486.08
311.98	1827.05
316.807	1426.01
321.631	1857.98
326.454	2372.94
331.273	2799.88
336.09	1234.8
340.905	461.676
345.717	295.507
350.527	245.285
355.334	124.999
360.139	154.511
364.941	120.689
369.741	133.379
374.538	136.358
379.333	76.1294
384.126	41.1611
388.916	248.973
393.703	695.421
398.488	1524.02
403.271	2457.82
408.051	3788.78
412.828	3465.18
417.603	2763.94
422.376	1240.93
427.146	242.005
431.914	291.018
436.679	396.963
441.442	765.808
446.202	1909.55
450.96	4377.18
455.715	6426.71
460.467	6651.14
465.218	6617.49
469.965	14786.7
474.711	28217.8
479.454	40153.9
484.194	26688.8
488.932	10977.6
493.667	9799.35
498.4	19931
503.13	39423
507.858	55394.6
512.583	37147.9
517.306	13793.2
522.026	6427.71
526.744	3905.72
531.459	2528.23
536.172	1889.54
540.882	1348.38
545.59	1076.23
550.295	915.897
554.998	767.956
559.698	761.792
564.396	760.768
569.091	1031.2
573.784	1525.02
578.474	1862.34
583.162	1446.63
587.847	624.144
592.529	315.469
597.209	95.0933
601.887	92.4912
606.562	93.5815
611.235	83.4307
615.905	163.431
620.572	252.489
625.237	531.611
629.9	822.789
634.56	931.972
639.217	1001.14
643.872	1074.55
648.524	1114.62
653.174	642.402
657.821	322.929
662.466	222.421
667.108	34.4746
671.748	25.6719
676.385	62.7647
681.02	4.4458
685.652	4.11133
690.281	129.438
694.908	147.807
699.533	64.1426
704.155	47.8823
708.774	28.5718
713.391	108.075
718.005	165.53
722.617	129.983
727.226	124.513
731.833	336.785
736.437	286.258
741.039	536.138
745.638	738.027
750.234	1424.74
754.828	3367.96
759.419	7128.43
764.008	9635.4
768.595	6626.68
773.178	3610.51
777.759	2705.52
782.338	1506.95
786.914	1062.54
791.488	788.657
796.059	964.505
800.627	1264.06
805.193	2428.31
809.756	5461.25
814.317	8726.42
818.875	7133.16
823.431	2772.26
827.984	1247.47
832.534	815.856
837.082	439.48
841.627	374.034
846.17	183.604
850.71	123.025
855.248	91.4971
859.783	46.791
864.316	3.26465
868.846	68.7334
873.373	0.296875
877.898	15.9883
882.42	2.59033
886.94	35.415
891.457	66.9702
895.971	22.311
900.483	38.7046
904.993	82.0078
909.5	56.5508
914.004	97.9673
918.505	91.2842
923.004	88.5352
927.501	1622.72
931.995	1866.85
936.486	21.9673
940.975	226.077
945.461	388.185
949.945	491.303
954.426	662.585
958.904	824.188
963.38	778.234
967.853	833.786
972.324	1358.77
976.792	1712.04
981.258	1694.38
985.72	1163.95
990.181	801.132
994.639	742.263
999.094	1084.44
1003.55	1612.67
1008	1891.06
1012.44	2028.12
1016.89	1902.87
1021.33	1138.04
1025.77	938.366
1030.21	974.454
1034.64	1021.89
1039.07	876.06
1043.5	786.987
1047.93	780.65
1052.35	679.604
1056.78	500.774
1061.19	517.161
1065.61	557.6
1070.02	701.379
1074.43	905.4
1078.84	1281.96
1083.25	1972.33
1087.65	3138.72
1092.05	5810.71
1096.45	10145.2
1100.85	11999.8
1105.24	9073.04
1109.63	6496.9
1114.02	5997.65
1118.4	5141.48
1122.78	3690.55
1127.16	2176.59
1131.54	1127.45
1135.92	713.036
1140.29	620.869
1144.66	514.885
1149.02	643.332
1153.39	740.086
1157.75	418.16
1162.11	217.813
1166.46	167.74
1170.82	73.645
1175.17	131.624
1179.52	46.6352
1183.86	18.3223
1188.21	81.8291
1192.55	6.84961
1196.89	19.0581
1201.22	11.6055
1205.55	13.6777
1209.88	23.8814
1214.21	20.332
1218.54	10.0005
1222.86	16.0566
1227.18	4.94678
1231.5	26.7974
1235.81	4.45996
1240.12	31.9497
1244.43	40.9399
1248.74	38.6309
1253.04	95.9585
1257.34	125.023
1261.64	90.3047
1265.94	25.6055
1270.23	75.2261
1274.52	58.582
1278.81	139.539
1283.1	127.549
1287.38	152.543
1291.66	61.7725
1295.94	123.706
1300.21	159.754
1304.48	140.291
1308.75	145.406
1313.02	76.7056
1317.29	190.248
1321.55	148.894
1325.81	240.123
1330.06	229.823
1334.32	194.474
1338.57	168.53
1342.82	193.71
1347.06	218.58
1351.31	110.319
1355.55	213.161
1359.79	172.969
1364.02	155.588
1368.26	36.6914
1372.49	80.9785
1376.71	119.77
1380.94	130.891
1385.16	67.8555
1389.38	139.981
1393.6	134.731
1397.81	19.8936
1402.02	45.3223
1406.23	127.064
1410.44	96.4668
1414.64	100.715
1418.85	138.98
1423.04	110.987
1427.24	1.09863
1431.43	74.1592
1435.62	9.12402
1439.81	124.864
1444	36.1895
1448.18	165.592
1452.36	35.3193
1456.54	202.798
1460.71	77.4902
1464.89	133.16
1469.06	52.875
1473.22	11.7871
1477.39	98.9014
1481.55	148.673
1485.71	96.4033
1489.86	161.731
1494.02	12.2295
1498.17	157.196
1502.32	13.6582
1506.46	18.25
1510.61	173.841
1514.75	4.25586
1518.88	17.7324
1523.02	104.258
1527.15	150.026
1531.28	176.123
1535.41	132.027
1539.53	48.1572
1543.66	125.075
1547.78	166.636
1551.89	115.141
1556.01	366.616
1560.12	81.9873
1564.23	244.644
1568.33	177.148
