Measurement: Raman, 514 nm, depolarized, Raman Data Processed
Mineral: Albite
Rruff sample: R040129
Ideal chemistry: NaAlSi_3_O_8_
Locality: LaChance Quarry, Brunswick, Cumberland County, Maine, USA
Source: Bob Downs
Description: Colorless fragment of a tabular single crystal
Measured chemistry: (Na_0.99_K_0.01_)Al_1.00_Si_3.00_O_8_
Pin_id: L00331
Orientation: Laser parallel to (1 0 1). Fiducial mark perpendicular to laser is parallel to -b [0 -1 0]
Raman shift (cm-1)	intensity
123.129	0
127.3	10.004
131.469	21.787
135.636	109.878
139.801	724.28
143.964	2097.97
148.125	3331.83
152.284	3766.44
156.441	4043.03
160.596	6860.02
164.749	5436.89
168.9	3743.32
173.049	3519.22
177.195	3934.65
181.34	5817.49
185.483	7331.96
189.624	5239.11
193.762	2927.95
197.899	1984.14
202.034	2490.04
206.166	4856
210.297	5719.95
214.425	2482.37
218.552	883.476
222.676	273.327
226.799	51.93
230.919	25.275
235.038	38.998
239.154	105.906
243.269	26.801
247.381	269.004
251.492	643.23
255.6	401.485
259.707	325.654
263.811	770.716
267.914	1500.66
272.014	1383.37
276.113	983.231
280.209	1469.66
284.304	3562.61
288.396	9205.25
292.487	9700.91
296.575	4038.34
300.662	1526.2
304.746	900.616
308.829	864.288
312.909	619.04
316.988	428.76
321.065	416.27
325.139	855.519
329.212	1636.5
333.283	639.212
337.351	271.66
341.418	194.845
345.483	206.299
349.546	213.782
353.606	39.948
357.665	30.736
361.722	49.912
365.777	49.068
369.83	58.709
373.881	34.219
377.93	14.309
381.977	57.32
386.023	12.867
390.066	126.158
394.107	182.934
398.146	355.255
402.184	407.212
406.219	1294.57
410.252	1030.3
414.284	1042.51
418.313	881.9
422.341	238.436
426.367	77.715
430.39	20.363
434.412	110.754
438.432	130.114
442.45	352.168
446.466	429.042
450.48	1073.8
454.492	2990.41
458.502	3016.85
462.51	1753.11
466.517	1749.15
470.521	3374.99
474.523	9000.61
478.524	18076
482.523	10421.2
486.519	4426.21
490.514	2571
494.507	2645.59
498.498	4209.98
502.487	10884.1
506.474	24138.9
510.459	16852.4
514.442	6603.31
518.424	3088.47
522.403	1959.08
526.381	1431.6
530.356	911.814
534.33	686.48
538.302	420.006
542.272	511.654
546.24	377.649
550.206	262.056
554.17	91.408
558.132	64.094
562.093	266.824
566.051	171.205
570.008	294.129
573.963	367.388
577.915	796.4
581.866	759.2
585.815	400.699
589.763	167.658
593.708	28.503
597.651	189.299
601.593	231.094
605.532	3.99
609.47	56.905
613.406	9.87
617.34	162.871
621.272	255.904
625.202	98.978
629.131	322.1
633.057	275.265
636.982	298.479
640.905	471.745
644.825	545.068
648.744	498.478
652.662	411.98
656.577	285.611
660.49	169.34
664.402	53.144
668.312	67.033
672.219	81.03
676.125	25.207
680.03	59.628
683.932	35.614
687.832	80.607
691.731	25.375
695.628	80.194
699.522	16.102
703.415	12.384
707.307	201.077
711.196	11.689
715.083	175.084
718.969	191.795
722.853	1.4
726.735	14.407
730.615	172.622
734.493	399.729
738.37	396.858
742.244	194.132
746.117	367.182
749.988	564.987
753.857	862.817
757.724	2040.81
761.59	4148.94
765.453	3627.21
769.315	1598.61
773.175	1197.17
777.033	1155.87
780.889	565.81
784.744	444.803
788.596	393.942
792.447	333.229
796.296	412.662
800.143	423.85
803.989	833.577
807.832	1339.89
811.674	3419.91
815.514	4812.62
819.352	2912.41
823.189	1192.85
827.023	663.428
830.856	334.147
834.687	375.003
838.516	543.229
842.343	372.465
846.169	263.246
849.992	263.23
853.814	154.86
857.634	236.604
861.453	358.719
865.269	420.361
869.084	192.468
872.897	24.732
876.708	125.722
880.517	378.055
884.325	240.938
888.13	117.82
891.934	91.02
895.737	115.619
899.537	2.18
903.336	231.374
907.132	295.059
910.928	298.862
914.721	92.768
918.512	63.205
922.302	130.846
926.09	224.992
929.876	419.238
933.66	133.558
937.443	107.971
941.224	72.477
945.003	27.071
948.78	271.743
952.556	306.47
956.33	161.232
960.102	165.94
963.872	49.354
967.64	235.332
971.407	310.076
975.172	414.851
978.935	509.662
982.697	334.506
986.456	0.623
990.214	84.499
993.971	69.729
997.725	373.548
1001.48	740.15
1005.23	705.176
1008.98	480.206
1012.73	596.052
1016.47	555.647
1020.22	511.096
1023.96	543.401
1027.7	536.341
1031.44	373.419
1035.17	175.808
1038.91	231.955
1042.64	367.614
1046.37	520.191
1050.1	537.519
1053.83	483.381
1057.56	461.926
1061.28	198.168
1065.01	135.727
1068.73	238.869
1072.45	404.704
1076.16	640.928
1079.88	786.759
1083.6	771.614
1087.31	988.739
1091.02	1604.91
1094.73	3160.18
1098.44	4525.2
1102.14	3888.19
1105.85	2692.45
1109.55	1899.98
1113.25	1711.2
1116.95	1524.77
1120.65	1248.08
1124.34	961.256
1128.04	774.153
1131.73	436.819
1135.42	289.837
1139.11	72.309
1142.79	107.117
1146.48	354.846
1150.16	216.557
1153.84	328.998
1157.52	320.393
1161.2	393.203
1164.88	86.455
1168.56	27.018
1172.23	240.848
1175.9	45.119
1179.57	90.908
1183.24	366.566
1186.9	372.121
1190.57	337.619
1194.23	163.102
1197.89	168.541
1201.55	3.896
1205.21	109.23
1208.87	224.732
1212.52	540.541
1216.18	546.551
1219.83	582.773
1223.48	378.904
1227.13	189.365
1230.77	52.848
1234.42	208.07
1238.06	648.945
1241.7	581.131
1245.34	583.912
1248.98	483.576
1252.62	496.502
1256.25	225.213
1259.88	213.438
1263.51	45.043
1267.14	214.039
1270.77	485.996
1274.4	590.035
1278.02	327.906
1281.65	538.68
1285.27	110.514
1288.89	69.443
1292.51	234.957
1296.12	8.285
1299.74	165.424
1303.35	400.895
1306.96	0
