Measurement: Raman, 514 nm, depolarized, Raman Data Processed
Mineral: Albite
Rruff sample: R050402
Ideal chemistry: NaAlSi_3_O_8_
Locality: Urbano mine, Golconda District, Brazil
Source: Bob Downs
Description: Colorless tabular single crystals associated with fluorapatite R050401
Measured chemistry: Na_1.00_Al_1.00_Si_3.00_O_8_
Pin_id: M00139
Orientation: Laser parallel to c* (0 0 1). Fiducial mark perpendicular to laser is parallel to a [1 0 0]
Raman shift (cm-1)	intensity
81.131	0
86.072	2074.35
91.012	4260.58
95.948	481.473
100.883	3.3501
105.815	728.735
110.744	3458.93
115.671	7352.66
120.596	1866.13
125.519	123.765
130.439	136.181
135.356	35.0952
140.271	1053.24
145.184	4227.36
150.094	8267.78
155.002	6679.89
159.908	2254.7
164.811	3062.01
169.711	5367.18
174.61	6856.87
179.505	6738.1
184.399	10370.4
189.29	10896.6
194.178	6705.76
199.064	4787.26
203.948	5411.81
208.829	9883.58
213.708	8135.15
218.585	2041.46
223.459	462.848
228.33	90.9937
233.199	55.9907
238.066	280.438
242.93	728.829
247.792	2770.82
252.651	8411.54
257.508	4367.79
262.363	1876.91
267.215	3333.69
272.064	5465.89
276.912	3576.03
281.756	4119.26
286.598	10417
291.438	24833.9
296.276	14933.6
301.111	4682.16
305.943	1843.24
310.773	1072.94
315.601	588.261
320.426	910.201
325.248	2844.76
330.068	8490.94
334.886	3694.75
339.701	1035.18
344.514	557.21
349.324	406.844
354.132	189.075
358.938	26.1352
363.741	171.148
368.541	132.541
373.339	112.242
378.135	139.668
382.928	73.5078
387.718	39.0957
392.506	398.846
397.292	1248.21
402.075	1704.4
406.856	2265.39
411.634	2685.13
416.41	3756.54
421.183	2036.86
425.954	512.096
430.722	318.071
435.488	247.854
440.251	307.217
445.012	586.125
449.77	998.577
454.526	2593.58
459.28	3776.14
464.03	2419.25
468.779	3245.93
473.525	7700.18
478.268	21458
483.009	19323.4
487.747	7117.38
492.483	4594.95
497.217	6504.11
501.948	15114.4
506.676	42599.1
511.402	38193.3
516.125	12921.6
520.846	5395.37
525.565	3024.97
530.281	2001.72
534.994	1387.86
539.705	1026.8
544.413	739.704
549.119	725.086
553.822	508.897
558.523	543.524
563.222	402.132
567.917	449.252
572.611	780.463
577.302	1381.49
581.99	1674.96
586.676	776.208
591.359	329.283
596.04	270.193
600.718	181.945
605.394	285.637
610.067	172.37
614.737	266.979
619.406	300.466
624.071	591.869
628.734	963.158
633.395	1363.33
638.053	1121.38
642.708	1191.43
647.361	1791.89
652.012	1176.86
656.66	529.606
661.305	209.222
665.948	53.4028
670.588	82.3042
675.226	17.0596
679.861	69.375
684.494	27.4287
689.124	23.9106
693.752	10.7568
698.377	46.9346
702.999	22.3154
707.619	96.7388
712.237	59.3169
716.852	51.5767
721.464	176.361
726.074	110.063
730.681	86.6846
735.286	149.228
739.888	106.232
744.488	341.144
749.085	633.714
753.68	1188.94
758.272	2806.92
762.861	6954.02
767.448	5792
772.033	2012.91
776.614	1035.75
781.194	625.046
785.77	634.734
790.345	363.664
794.916	492.687
799.485	640.28
804.052	858.492
808.616	1971.15
813.177	5349.26
817.736	7188.63
822.292	2849.79
826.846	1297.02
831.397	656.807
835.945	469.72
840.491	433.96
845.035	392.687
849.576	192.971
854.114	176.061
858.65	101.436
863.183	191.812
867.713	112.194
872.241	113.585
876.767	26.0366
881.29	59.709
885.81	74.9575
890.328	19.832
894.843	12.312
899.356	44.4985
903.866	58.3364
908.373	67.2207
912.878	150.156
917.38	96.1016
921.88	57.8218
926.377	74.2095
930.872	36.2344
935.364	11.7261
939.853	153.387
944.34	52.6899
948.824	142.747
953.306	118.886
957.785	312.143
962.261	353.784
966.735	522.654
971.207	1089.79
975.675	2349.29
980.141	3039.03
984.605	1831.15
989.066	703.566
993.524	661.128
997.98	407.832
1002.43	790.679
1006.88	928.672
1011.33	965.867
1015.78	1229.84
1020.22	876.263
1024.66	784.903
1029.1	952.24
1033.53	1447.86
1037.97	996.037
1042.4	689.398
1046.82	477.943
1051.25	437.89
1055.67	244.843
1060.09	137.928
1064.51	381.694
1068.92	291.551
1073.33	219.29
1077.74	337.406
1082.15	401.396
1086.55	741.432
1090.95	1230.64
1095.35	2125.15
1099.75	3298.89
1104.14	2578.77
1108.53	1516.84
1112.92	1273.74
1117.31	1253.14
1121.69	1037.67
1126.07	768.312
1130.45	413.075
1134.82	33.9502
1139.19	87.2744
1143.57	89.0889
1147.93	119.719
1152.3	236.599
1156.66	158.579
1161.02	129.697
1165.38	63.9482
1169.73	57.2891
1174.08	88.709
1178.43	84.2041
1182.78	8.75977
1187.12	12.8193
1191.46	74.6787
1195.8	83.2734
1200.14	62.9395
1204.47	43.3389
1208.8	96.2734
1213.13	48.8115
1217.46	99.6797
1221.78	16.4043
1226.1	37.5166
1230.42	85.5283
1234.73	29.5518
1239.04	217.09
1243.35	100.4
1247.66	86.5527
1251.97	242.816
1256.27	156.144
1260.57	179.226
1264.86	106.634
1269.16	303.639
1273.45	202.631
1277.74	218.148
1282.03	201.574
1286.31	209.681
1290.59	296.233
1294.87	154.914
1299.14	106.619
1303.42	201.233
1307.69	254.879
1311.95	199.595
1316.22	326.625
1320.48	249.932
1324.74	216.167
1329	238.357
1333.26	72.9121
1337.51	219.249
1341.76	148.252
1346	147.352
1350.25	170.248
1354.49	135.917
1358.73	104.473
1362.96	59.7871
1367.2	154.773
1371.43	90.2959
1375.66	230.089
1379.88	109.411
1384.11	100.976
1388.33	167.468
1392.54	183.985
1396.76	112.618
1400.97	39.9238
1405.18	17.3242
1409.39	50.1719
1413.59	172.851
1417.8	14.3135
1421.99	95.4199
1426.19	132.688
1430.38	58.5713
1434.58	242.438
1438.77	234.052
1442.95	243.916
1447.13	408.43
1451.32	512.423
1455.49	402.418
1459.67	396.569
1463.84	307.345
1468.01	186.795
1472.18	142.468
1476.35	216.946
1480.51	263.327
1484.67	208.531
1488.83	105.502
1492.98	194.501
1497.13	50.917
1501.28	201.69
1505.43	98.6172
1509.57	182.504
1513.71	81.1797
1517.85	119.463
1521.99	44.4053
1526.12	139.094
1530.25	228.023
1534.38	54.4072
1538.5	124.603
1542.62	69.9961
1546.74	167.494
1550.86	268.899
1554.98	431.482
1559.09	79.4756
1563.2	30.1211
1567.31	188.634
