Measurement: Raman, 514 nm, depolarized, Raman Data Processed
Mineral: Albite
Rruff sample: R040068
Ideal chemistry: NaAlSi_3_O_8_
Locality: Harding Pegmatite, Dixon, New Mexico, USA
Source: University of Arizona Mineral Museum
Description: Tan colored crystal fragment
Measured chemistry: (Na_0.99_Ca_0.01_)Al_1.00_(Si_0.99_Al_0.01_)_3_O_8_
Pin_id: L00433
Orientation: Laser parallel to -b* (0 -1 0). Fiducial mark perpendicular to laser is parallel to -c [0 0 -1]
Raman shift (cm-1)	intensity
128.69	0
132.858	102.682
137.025	93.007
141.189	836.975
145.352	1451.41
149.512	1930.52
153.67	1848.95
157.827	3088.87
161.981	4094.88
166.133	2896.42
170.283	2595.06
174.431	2331.72
178.577	3053.62
182.721	4172.54
186.863	4051.38
191.003	2544.83
195.141	1580.69
199.277	1367.1
203.411	2533.42
207.543	3631.18
211.673	2419.08
215.801	806.844
219.927	274.84
224.051	26.833
228.173	218.2
232.292	79.327
236.41	140.27
240.526	108.832
244.64	478.054
248.752	1860.31
252.861	1802.04
256.969	679.785
261.075	705.637
265.179	1371.66
269.281	1847.3
273.38	1323.1
277.478	1369
281.574	2866.8
285.668	7164.47
289.76	10719.8
293.85	6315.96
297.937	2693.03
302.023	1442.95
306.107	703.94
310.189	545.461
314.269	297.203
318.347	499.026
322.423	980.654
326.497	2502.02
330.569	1873.18
334.639	794.175
338.707	435.033
342.773	215.209
346.837	254.008
350.899	212.339
354.96	130.754
359.018	99.252
363.074	37.825
367.128	43.664
371.181	54.653
375.231	17.061
379.28	31.145
383.326	29.289
387.37	5.547
391.413	195.999
395.454	444.664
399.492	535.219
403.529	830.68
407.564	1218.8
411.596	876.764
415.627	1214.38
419.656	381.861
423.683	119.184
427.708	26.451
431.731	4.105
435.752	18.5
439.772	1.588
443.789	215.42
447.804	115.035
451.817	511.326
455.829	627.912
459.838	854.268
463.846	1070.53
467.852	1646.96
471.855	4172.91
475.857	10438.7
479.857	11304.5
483.855	5450.06
487.851	2495.54
491.845	1990.9
495.837	2826.14
499.828	6371.26
503.816	16526.3
507.802	19158.5
511.787	8853.81
515.77	3946.15
519.75	2127.27
523.729	1653.21
527.706	932.424
531.681	726.457
535.654	487.312
539.625	470.023
543.595	355.174
547.562	224.881
551.527	363.723
555.491	188.506
559.453	328.494
563.412	273.764
567.37	386.127
571.326	241.332
575.28	666.395
579.233	736.266
583.183	291.521
587.131	349.621
591.078	130.232
595.022	122.203
598.965	65.145
602.906	31.426
606.845	171.801
610.782	234.895
614.718	117.932
618.651	180.828
622.582	63.596
626.512	436.219
630.44	528.707
634.366	321.066
638.29	303.291
642.212	465.379
646.132	577.342
650.05	509.182
653.967	160.893
657.882	222.467
661.794	16.092
665.705	215.105
669.614	236.07
673.522	6.766
677.427	47.18
681.331	93.225
685.232	17.645
689.132	11.609
693.03	191.492
696.926	41.713
700.82	172.916
704.713	250.312
708.603	149.52
712.492	308.166
716.379	227.164
720.264	83.332
724.147	400.285
728.028	228.213
731.908	397.059
735.785	24.338
739.661	91.596
743.535	192.842
747.407	293.918
751.278	410.348
755.146	466.83
759.013	1382.79
762.878	2368.77
766.741	1490.82
770.602	966.65
774.461	812.732
778.319	278.207
782.174	224.006
786.028	229.664
789.88	355.184
793.73	320.566
797.579	345.814
801.425	352.406
805.27	467.387
809.113	842.236
812.954	1353.14
816.794	1289.44
820.631	518.781
824.467	422.674
828.301	258.354
832.133	276.332
835.963	347.994
839.792	39.227
843.618	209.168
847.443	47.635
851.266	6.926
855.088	101.619
858.907	42.461
862.725	220.133
866.541	62.588
870.355	29.691
874.167	224.193
877.978	95.982
881.787	22.51
885.594	218.943
889.399	4.414
893.202	275.984
897.004	357.729
900.803	259.717
904.601	261.625
908.398	46.361
912.192	75.586
915.985	257.57
919.776	229.531
923.565	111.383
927.352	63.219
931.138	35.033
934.922	336.82
938.704	198.59
942.484	310.342
946.262	142.07
950.039	373.785
953.814	115.479
957.587	317.166
961.359	448.861
965.128	630.562
968.896	632.287
972.662	424.104
976.427	665.979
980.189	547.996
983.95	170.119
987.709	402.131
991.467	241.15
995.222	454.646
998.976	232.877
1002.73	547.623
1006.48	670.271
1010.23	714.902
1013.97	1078.09
1017.72	701.238
1021.46	534.031
1025.2	746.834
1028.94	949.584
1032.68	1117.41
1036.42	901.588
1040.15	615.758
1043.89	790.314
1047.62	609.533
1051.35	571.059
1055.07	535.787
1058.8	118.436
1062.52	683.504
1066.25	542.764
1069.97	492.615
1073.69	477.031
1077.4	270.836
1081.12	533.809
1084.83	806.898
1088.55	1188.91
1092.26	1885.43
1095.96	2998.32
1099.67	3032.93
1103.38	2435.02
1107.08	1755.4
1110.78	1527.67
1114.48	1573.06
1118.18	1388.83
1121.88	865.166
1125.57	571.92
1129.27	398.895
1132.96	146.049
1136.65	26.516
1140.34	481.234
1144.02	899.434
1147.71	507.633
1151.39	606.051
1155.07	84.939
1158.75	14.334
1162.43	74.285
1166.11	274.939
1169.78	156.289
1173.45	508.396
1177.12	381.336
1180.79	365.133
1184.46	157.973
1188.13	309.906
1191.79	206.523
1195.45	204.373
1199.11	254.143
1202.77	623.984
1206.43	620.473
1210.09	527.613
1213.74	375.414
1217.39	405.055
1221.05	392.594
1224.69	518.289
1228.34	490.113
