Measurement: Raman, 514 nm, depolarized, Raman Data Processed
Mineral: Albite
Rruff sample: R050402
Ideal chemistry: NaAlSi_3_O_8_
Locality: Urbano mine, Golconda District, Brazil
Source: Bob Downs
Description: Colorless tabular single crystals associated with fluorapatite R050401
Measured chemistry: Na_1.00_Al_1.00_Si_3.00_O_8_
Pin_id: M00145
Orientation: Laser parallel to (0 1 1). Fiducial mark perpendicular to laser is parallel to -a [-1 0 0]
Raman shift (cm-1)	intensity
93.48	0
98.416	296.353
103.349	1275.13
108.28	5342.54
113.208	5400.27
118.134	1667.93
123.058	473.581
127.979	360.917
132.898	731.926
137.814	2353.36
142.728	5136.18
147.639	6268.65
152.549	6662.89
157.455	10095.5
162.359	12568
167.261	11439.5
172.161	10629.8
177.058	11444.7
181.952	14250.8
186.845	11926.8
191.734	7215.48
196.622	5576.73
201.507	7173.18
206.389	10761.8
211.269	6937.38
216.147	2343.94
221.022	642.356
225.895	70.1084
230.765	163.641
235.633	180.984
240.498	680.786
245.361	1459.44
250.222	2854.2
255.08	1933.32
259.936	2239.97
264.789	3503.39
269.64	4558.71
274.488	4018.35
279.334	7152.84
284.178	15750.6
289.019	25743.8
293.857	14835.9
298.693	5462.89
303.527	2374.64
308.358	1430.94
313.187	987.572
318.013	1209.27
322.837	2925.3
327.659	5362.42
332.478	2531.68
337.294	777.056
342.108	582.505
346.92	368.994
351.729	54.5
356.535	168.058
361.34	94.9453
366.141	213.397
370.94	229.753
375.737	242.702
380.531	211.738
385.323	72.6025
390.113	224.286
394.9	549.718
399.684	1199.63
404.466	2613.94
409.245	2290.69
414.022	1859.85
418.797	945.282
423.569	167.829
428.338	2.44336
433.105	239.519
437.87	389.378
442.632	556.021
447.391	1647.45
452.149	3543.67
456.903	4150.65
461.655	3492.38
466.405	5844.86
471.152	14132.1
475.897	28790
480.639	21271.7
485.378	8627.06
490.116	5786.16
494.85	8686.98
499.582	20198.5
504.312	41022
509.039	32923.8
513.764	12955.3
518.486	5681.24
523.206	2992.95
527.923	2017.89
532.638	1393.94
537.35	1256.86
542.059	682.482
546.766	682.711
551.471	504.75
556.173	603.615
560.873	448.123
565.57	590.053
570.264	926.533
574.957	1425.88
579.646	1478.01
584.333	869.768
589.018	487.344
593.7	190.203
598.379	366.492
603.056	280.469
607.73	177.377
612.402	398.125
617.072	504.701
621.739	723.744
626.403	1119.36
631.065	1210.49
635.724	1236.51
640.381	1481.48
645.035	1941.61
649.687	1321.3
654.336	701.621
658.983	365.93
663.627	37.2129
668.268	256.291
672.907	44.5488
677.544	171.373
682.178	133.246
686.809	31.3359
691.438	82.9981
696.065	82.3027
700.688	122.656
705.31	34.9961
709.929	127.791
714.545	99.5547
719.158	613.143
723.77	280.57
728.378	8.8457
732.984	222.898
737.588	131.799
742.189	390.885
746.787	831.688
751.383	1455.13
755.976	3257.43
760.567	6385.58
765.155	4905.59
769.741	2247.47
774.324	1501.19
778.904	995.769
783.482	707.617
788.058	627.314
792.631	586.361
797.201	768.121
801.769	1300.96
806.334	2440.79
810.897	5101.01
815.457	5669.31
820.014	2528.56
824.569	1225.26
829.122	808.283
833.671	579.779
838.219	292.982
842.763	375.459
847.306	260.525
851.845	228.16
856.382	328.938
860.917	444.639
865.448	411.826
869.978	162.365
874.505	36.8613
879.029	31.707
883.55	101.57
888.069	117.803
892.586	89.9902
897.1	136.137
901.611	31.7344
906.12	176.205
910.626	11.0918
915.129	73.959
919.63	155.766
924.129	218.367
928.625	99.0879
933.118	13.5625
937.609	107.955
942.097	231.059
946.582	65.0566
951.065	5.98242
955.546	80.2988
960.023	229.965
964.499	352.113
968.971	366.977
973.441	1157.11
977.909	1109.84
982.374	630.34
986.836	562.16
991.295	361.01
995.753	504.062
1000.21	856.146
1004.66	1050.34
1009.11	997.629
1013.55	1078.47
1018	1286.95
1022.44	1141.57
1026.88	1715.31
1031.32	2203.86
1035.75	1478.87
1040.18	1044.91
1044.61	751.137
1049.04	644.516
1053.46	527.744
1057.88	418.977
1062.3	476.123
1066.71	333.135
1071.13	832.094
1075.54	701.338
1079.94	1053.92
1084.35	1547.55
1088.75	3002.28
1093.15	5318.16
1097.55	7386.4
1101.94	6191.71
1106.34	3933.97
1110.73	3593.34
1115.11	3113.81
1119.5	1872.4
1123.88	1186.08
1128.26	856.875
1132.63	631.775
1137.01	512.781
1141.38	327.332
1145.75	319.172
1150.12	312.596
1154.48	459.084
1158.84	143.953
1163.2	236.916
1167.55	254.973
1171.91	6.21094
1176.26	18.1836
1180.61	53.6211
1184.95	146.19
1189.29	59.9141
1193.63	54.2812
1197.97	56.7012
1202.31	208.848
1206.64	42.8242
1210.97	119.248
1215.29	171.67
1219.62	131.541
1223.94	99.4883
1228.26	116.596
1232.57	187.957
1236.89	57.584
1241.2	91.2793
1245.51	215.043
1249.81	245.865
1254.12	216.752
1258.42	134.732
1262.72	256.871
1267.01	414.07
1271.3	290.389
1275.59	140.082
1279.88	21.9707
1284.17	71.7852
1288.45	43.418
1292.73	495.397
1297.01	293.121
1301.28	306.875
1305.55	394.602
1309.82	394.324
1314.09	480.928
1318.35	573.67
1322.61	123.334
1326.87	250.254
1331.13	186.072
1335.38	475.818
1339.63	330.533
1343.88	172.451
1348.12	68.4375
1352.37	337.502
1356.61	102.244
1360.85	7.46289
1365.08	263.701
1369.31	274.719
1373.54	24.7344
1377.77	134.873
1381.99	192.016
1386.22	91.4023
1390.43	209.69
1394.65	198.057
1398.87	101.514
1403.08	9.00195
1407.29	166.703
1411.49	90.2148
1415.69	166.779
1419.89	186.131
1424.09	147.065
1428.29	102.287
1432.48	259.644
1436.67	506.459
1440.86	384.387
1445.04	684.945
1449.23	424.762
1453.4	685.945
1457.58	860.338
1461.76	300.184
1465.93	455.318
1470.1	533.072
1474.26	501.004
1478.43	327.143
1482.59	329.248
1486.75	350.232
1490.9	129.326
1495.06	165.348
1499.21	88.2519
1503.35	202.418
1507.5	170.969
1511.64	180.938
1515.78	167.227
1519.92	82.1816
1524.05	243.471
1528.18	76.1035
1532.31	344.004
1536.44	98.5195
1540.56	252.713
1544.69	341.022
1548.8	116.404
1552.92	42.3711
1557.03	239.279
1561.14	130.209
1565.25	144.902
1569.36	323.467
