Measurement: Raman, 514 nm, depolarized, Raman Data Processed
Mineral: Albite
Rruff sample: R040068
Ideal chemistry: NaAlSi_3_O_8_
Locality: Harding Pegmatite, Dixon, New Mexico, USA
Source: University of Arizona Mineral Museum
Description: Tan colored crystal fragment
Measured chemistry: (Na_0.99_Ca_0.01_)Al_1.00_(Si_0.99_Al_0.01_)_3_O_8_
Pin_id: L00467
Orientation: Laser parallel to a* (1 0 0). Fiducial mark perpendicular to laser is parallel to -b [0 -1 0]
Raman shift (cm-1)	intensity
124.519	0
127.3	19.362
130.08	127.533
132.858	185.886
135.636	333.276
138.413	998.367
141.189	2118.78
143.964	3327.86
146.739	4351.4
149.512	4367.64
152.284	3787.5
155.056	3255.91
157.827	3310.33
160.596	3951.91
163.365	4271.2
166.133	4118.68
168.9	4354.69
171.666	4259.48
174.431	4467.67
177.195	5111.93
179.959	6489.67
182.721	7788.84
185.483	8070.54
188.244	6834.91
191.003	5130.98
193.762	3767.2
196.52	2813.07
199.277	2628.6
202.034	3454.14
204.789	4840.19
207.543	5845.97
210.297	5211.63
213.049	3277.25
215.801	1712.98
218.552	728.834
221.302	394.817
224.051	19.101
226.799	22.946
229.546	36.743
232.292	140.511
235.038	224.288
237.782	18.154
240.526	10.016
243.269	594.055
246.011	1415.56
248.752	2391.01
251.492	2732.78
254.231	1948.19
256.969	1109.75
259.707	884.394
262.443	936.443
265.179	1627.9
267.914	2034.09
270.647	2120.8
273.38	1822.27
276.113	1655.76
278.844	2105.02
281.574	3666.71
284.304	6738.21
287.032	11189.1
289.76	13591.8
292.487	11207.3
295.212	7013.09
297.937	3937.64
300.662	2184.8
303.385	1202.3
306.107	709.971
308.829	577.71
311.549	625.462
314.269	343.192
316.988	390.808
319.706	708.189
322.423	1665.36
325.139	3092.33
327.855	4089.15
330.569	3015.8
333.283	1712.31
335.995	948.686
338.707	494.891
341.418	308.639
344.128	324.879
346.837	498.736
349.546	482.543
352.253	166.307
354.96	190.01
357.665	123.654
360.37	127.215
363.074	69.27
365.777	24.133
368.479	42.545
371.181	79.367
373.881	53.629
376.581	36.508
379.28	69.268
381.977	38.043
384.674	44.59
387.37	82.859
390.066	130.357
392.76	254.668
395.454	628.98
398.146	962.916
400.838	711.389
403.529	1071.09
406.219	1303.26
408.908	1255.25
411.596	1276.93
414.284	1578.35
416.97	1329.52
419.656	790.535
422.341	291.473
425.025	22.367
427.708	26.803
430.39	53.902
433.072	55.061
435.752	43.584
438.432	136.848
441.111	457.979
443.789	328.543
446.466	438.943
449.142	1109.6
451.817	2000.19
454.492	2650.44
457.166	2545.11
459.838	2085.5
462.51	1555.56
465.181	1705.2
467.852	2084.71
470.521	3524.05
473.19	6653.28
475.857	11632.4
478.524	14201.4
481.19	10790.4
483.855	6679.17
486.519	4357.88
489.183	2836.48
491.845	2734.99
494.507	3283.4
497.168	4671.7
499.828	8410.07
502.487	15928.5
505.145	24736.5
507.802	24294.8
510.459	16663
513.115	9360.31
515.77	5488.64
518.424	3516.41
521.077	2334.46
523.729	1625.45
526.381	1640.88
529.031	1064.34
531.681	886.475
534.33	789.311
536.978	619.457
539.625	701.633
542.272	549.684
544.917	634.76
547.562	245.119
550.206	424.961
552.849	69.697
555.491	317.045
558.132	197.342
560.773	234.607
563.412	222.229
566.051	289.82
568.689	385.67
571.326	323.383
573.963	560.348
576.598	1197.43
579.233	1275.11
581.866	872.348
584.499	527.135
587.131	427.447
589.763	163.465
592.393	14.242
595.022	216.152
597.651	2.129
600.279	68.082
602.906	154.209
605.532	130.256
608.158	156.219
610.782	92.098
613.406	62.082
616.029	153.578
618.651	79.156
621.272	154.648
623.892	160.1
626.512	365.48
629.131	610.785
631.749	686.018
634.366	601.178
636.982	586.27
639.597	761.289
642.212	596.238
644.825	801.119
647.438	875.928
650.05	700.666
652.662	565.336
655.272	409.938
657.882	144.471
660.49	228.928
663.098	177.678
665.705	137.641
668.312	101.889
670.917	6.066
673.522	10.166
676.125	34.184
678.728	88.127
681.331	1.984
683.932	144.211
686.532	29.459
689.132	33.182
691.731	6.898
694.329	39.209
696.926	132.033
699.522	168.156
702.118	74.186
704.713	263.639
707.307	82.428
709.9	153.061
712.492	175.775
715.083	203.451
717.674	86.111
720.264	80.676
722.853	106.951
725.441	125.195
728.028	207.396
730.615	119.389
733.201	21.309
735.785	173.143
738.37	222.668
740.953	234.367
743.535	370.158
746.117	506.902
748.698	672.521
751.278	663.994
753.857	1044.75
756.435	1625.84
759.013	2997.22
761.59	4308.19
764.165	4268.99
766.741	3162
769.315	1678.69
771.888	1269.44
774.461	979.592
777.033	844.52
779.604	675.449
782.174	406.393
784.744	487.275
787.312	624.363
789.88	398.879
792.447	419.602
795.013	400.266
797.579	630.877
800.143	471.438
802.707	691.945
805.27	1172.4
807.832	2000.25
810.394	3173.17
812.954	4703.19
815.514	4603.26
818.073	3543.47
820.631	1613.22
823.189	1192.8
825.745	782.102
828.301	720.846
830.856	560.086
833.41	424.643
835.963	481.906
838.516	321.299
841.068	450.381
843.618	169.02
846.169	337.494
848.718	213.248
851.266	13.281
853.814	131.117
856.361	15.797
858.907	6.188
861.453	242.494
863.997	280.26
866.541	80.615
869.084	255.459
871.626	394.215
874.167	452.9
876.708	303.221
879.248	12.021
881.787	80.525
884.325	249.152
886.862	47.141
889.399	133.977
891.934	104.332
894.469	113.125
897.004	91.875
899.537	0.574
902.07	39.242
904.601	527.906
907.132	206.566
909.663	305.227
912.192	93.879
914.721	132.533
917.249	261.191
919.776	509.836
922.302	228.492
924.827	207.176
927.352	305.865
929.876	344.541
932.399	103.201
934.922	291.869
937.443	340.541
939.964	409.219
942.484	157.904
945.003	156.604
947.521	355.32
950.039	584.053
952.556	362.811
955.072	601.596
957.587	514.541
960.102	589.258
962.615	848.145
965.128	927.074
967.64	576.055
970.152	445.086
972.662	1224.18
975.172	1693.33
977.681	1812.56
980.189	1351.86
982.697	1231.26
985.203	1080.8
987.709	530.453
990.214	340.27
992.719	530.385
995.222	513.643
997.725	655.898
1000.23	506.176
1002.73	772.953
1005.23	803.955
1007.73	722.939
1010.23	759.582
1012.73	710.48
1015.22	949.045
1017.72	684.25
1020.22	623.906
1022.71	571.574
1025.2	791.424
1027.7	1111.47
1030.19	1463.1
1032.68	1488.54
1035.17	1048.33
1037.66	898.346
1040.15	678.412
1042.64	728.535
1045.13	765.525
1047.62	755.703
1050.1	840.879
1052.59	741.078
1055.07	331.346
1057.56	711.682
1060.04	662.09
1062.52	662.57
1065.01	453.127
1067.49	233.762
1069.97	554.471
1072.45	535.262
1074.93	286.119
1077.4	297.041
1079.88	808.01
1082.36	968.922
1084.83	669.836
1087.31	890.828
1089.78	1061.99
1092.26	1803.63
1094.73	2445.53
1097.2	2467.61
1099.67	2770.2
1102.14	2483.14
1104.61	1716.28
1107.08	1479.79
1109.55	983.809
1112.02	1318.14
1114.48	952.812
1116.95	967.871
1119.41	793.344
1121.88	759.285
1124.34	665.766
1126.8	92.891
1129.27	140.742
1131.73	129.387
1134.19	288.891
1136.65	217.176
1139.11	0.871
1141.56	283.598
1144.02	827.746
1146.48	643.574
1148.93	201.363
1151.39	731.5
1153.84	652.793
1156.3	387.363
1158.75	127.867
1161.2	558.922
1163.65	544.336
