Measurement: Raman, 514 nm, depolarized, Raman Data Processed
Mineral: Albite
Rruff sample: R040129
Ideal chemistry: NaAlSi_3_O_8_
Locality: LaChance Quarry, Brunswick, Cumberland County, Maine, USA
Source: Bob Downs
Description: Colorless fragment of a tabular single crystal
Measured chemistry: (Na_0.99_K_0.01_)Al_1.00_Si_3.00_O_8_
Pin_id: L00347
Orientation: Laser parallel to (-1 -1 0). Fiducial mark perpendicular to laser is parallel to -c [0 0 -1]
Raman shift (cm-1)	intensity
107.817	0
111.996	3490.22
116.172	1951.58
120.347	235.473
124.519	119.573
128.69	24.987
132.858	98.438
137.025	432.813
141.189	935.566
145.352	1427.56
149.512	1686.66
153.67	1651.03
157.827	2339.27
161.981	3110.52
166.133	3024.22
170.283	3705.71
174.431	2547.5
178.577	2912.84
182.721	3710.08
186.863	3437.27
191.003	2165.01
195.141	1529.97
199.277	1519.56
203.411	2946.45
207.543	5453.36
211.673	3620.51
215.801	1127.93
219.927	465.623
224.051	203.592
228.173	135.441
232.292	23.51
236.41	15.959
240.526	102.07
244.64	464.662
248.752	611.041
252.861	1037.85
256.969	483.207
261.075	558.746
265.179	864.412
269.281	1684.13
273.38	1221.23
277.478	850.832
281.574	1813.26
285.668	4836.04
289.76	8830.4
293.85	5124.18
297.937	1778.68
302.023	826.381
306.107	754.727
310.189	753.57
314.269	582.801
318.347	242.334
322.423	422.111
326.497	1072.08
330.569	982.199
334.639	362.381
338.707	122.582
342.773	57.242
346.837	87.182
350.899	272.773
354.96	87.391
359.018	57.621
363.074	92.23
367.128	12.002
371.181	188.371
375.231	0.971
379.28	79.719
383.326	0.617
387.37	78.373
391.413	22.797
395.454	277.232
399.492	305.689
403.529	463.84
407.564	1361.56
411.596	588.758
415.627	1225.69
419.656	552.5
423.683	109.193
427.708	144.178
431.731	172.898
435.752	129.717
439.772	325.717
443.789	222.588
447.804	459.094
451.817	1207.33
455.829	2044.02
459.838	1429.29
463.846	1235.29
467.852	2440.16
471.855	5144.82
475.857	13389.3
479.857	15184.1
483.855	6298.22
487.851	3102.13
491.845	2175.79
495.837	2699.21
499.828	5822.37
503.816	16261.1
507.802	21383.3
511.787	9269.08
515.77	3836.22
519.75	2330.22
523.729	1800.26
527.706	1323.06
531.681	669.809
535.654	826.449
539.625	403.049
543.595	435.229
547.562	374.945
551.527	421.488
555.491	321.188
559.453	381.045
563.412	270.83
567.37	419.627
571.326	751.521
575.28	1029.57
579.233	827.041
583.183	738.83
587.131	482.389
591.078	553.709
595.022	388.512
598.965	171.82
602.906	415.979
606.845	121.338
610.782	416.33
614.718	481.014
618.651	165.418
622.582	319.566
626.512	713.422
630.44	796.982
634.366	570.277
638.29	312.373
642.212	886.955
646.132	1299.41
650.05	1251.58
653.967	953.455
657.882	315.074
661.794	466.436
665.705	347.553
669.614	458.4
673.522	88.988
677.427	140.934
681.331	48.492
685.232	217.619
689.132	346.611
693.03	54.695
696.926	13.535
700.82	137.098
704.713	220.367
708.603	407.271
712.492	220.332
716.379	115.578
720.264	163.086
724.147	95.926
728.028	290.68
731.908	215.176
735.785	560.332
739.661	294.41
743.535	369.363
747.407	752.398
751.278	705.207
755.146	858.711
759.013	2074.41
762.878	3705.07
766.741	2249.44
770.602	1311.2
774.461	780.277
778.319	473.113
782.174	475.832
786.028	469.734
789.88	842.242
793.73	443.926
797.579	140.148
801.425	122.082
805.27	1093.94
809.113	1987.35
812.954	3439.08
816.794	2711.98
820.631	1438.56
824.467	677.738
828.301	836.219
832.133	758.863
835.963	997.555
839.792	222.832
843.618	283.59
847.443	654.812
851.266	649.062
855.088	687.5
858.907	766.824
862.725	551.738
866.541	423.207
870.355	523.914
874.167	435.527
877.978	797.008
881.787	906.391
885.594	41.086
889.399	271.93
893.202	580.137
897.004	753.551
900.803	617.168
904.601	49
908.398	95.086
912.192	258.934
915.985	283.039
919.776	247.293
923.565	521.695
927.352	46.176
931.138	350.801
934.922	265.598
938.704	320.57
942.484	975.746
946.262	672.062
950.039	465.82
953.814	211.688
957.587	227.82
961.359	644.227
965.128	680.91
968.896	767.879
972.662	595.18
976.427	312.832
980.189	260.824
983.95	349.406
987.709	308.469
991.467	407.984
995.222	367.926
998.976	569.332
1002.73	630.469
1006.48	230.836
1010.23	903.254
1013.97	1156.48
1017.72	1490.65
1021.46	991.289
1025.2	506.793
1028.94	172.984
1032.68	960.746
1036.42	731.977
1040.15	1110.22
1043.89	1009.02
1047.62	476.699
1051.35	366.863
1055.07	256.547
1058.8	810.129
1062.52	1161.97
1066.25	1168.68
1069.97	882.148
1073.69	747.801
1077.4	429.211
1081.12	694.176
1084.83	1480.19
1088.55	2177.99
1092.26	2636.93
1095.96	3696.59
1099.67	4206.72
1103.38	2747.77
1107.08	1739.54
1110.78	1791.8
1114.48	1904.47
1118.18	1777.5
1121.88	1690.8
1125.57	814.457
1129.27	438.98
1132.96	35.062
1136.65	142.707
1140.34	442.105
1144.02	713.219
1147.71	1186.04
1151.39	960.668
1155.07	217.289
1158.75	46.25
1162.43	498.086
1166.11	136.5
1169.78	373.07
1173.45	782.566
1177.12	822.203
1180.79	589.328
1184.46	335.695
1188.13	156.031
1191.79	368.359
1195.45	483.66
