Measurement: Raman, 514 nm, ccw, Raman Data Processed
Mineral: Albite
Rruff sample: R040068
Ideal chemistry: NaAlSi_3_O_8_
Locality: Harding Pegmatite, Dixon, New Mexico, USA
Source: University of Arizona Mineral Museum
Description: Tan colored crystal fragment
Measured chemistry: (Na_0.99_Ca_0.01_)Al_1.00_(Si_0.99_Al_0.01_)_3_O_8_
Pin_id: M00167
Orientation: Laser parallel to (-1 -1 0). Fiducial mark perpendicular to laser is parallel to -c [0 0 -1]
Raman shift (cm-1)	intensity
85.496	0
89.685	15.5693
93.873	40.5742
98.058	212.838
102.242	577.402
106.423	1420.63
110.603	3916.95
114.78	4943.05
118.956	3211.33
123.129	2206.65
127.3	1797.17
131.469	1674.76
135.636	1658.72
139.801	1950.18
143.964	2880.86
148.125	5319.33
152.284	6110.23
156.441	4664.45
160.596	4704.33
164.749	4067.61
168.9	3112.55
173.049	2614.91
177.195	2602.91
181.34	3452.1
185.483	4214.7
189.624	3708.86
193.762	2650.63
197.899	2058.06
202.034	2222.15
206.166	3234.89
210.297	3529.26
214.425	2077.22
218.552	943.76
222.676	509.543
226.799	390.004
230.919	372.875
235.038	358.71
239.154	405.968
243.269	749.047
247.381	1845.57
251.492	2787.98
255.6	1863.36
259.707	1059.52
263.811	1560
267.914	2492.4
272.014	2543.05
276.113	1687.03
280.209	1877.15
284.304	3906.3
288.396	7966.37
292.487	8257.19
296.575	4278.69
300.662	1868.81
304.746	1187.48
308.829	1008.62
312.909	638.197
316.988	510.16
321.065	680.472
325.139	1374.06
329.212	1879.86
333.283	1015.85
337.351	330.038
341.418	41.4316
345.483	33.0308
349.546	28.8511
353.606	21.1084
357.665	95.8677
361.722	118.541
365.777	172.129
369.83	144.717
373.881	121.347
377.93	85.9394
381.977	63.5166
386.023	59.0576
390.066	69.1338
394.107	163.912
398.146	558.268
402.184	723.448
406.219	1629.68
410.252	1735.02
414.284	2290.49
418.313	1906.27
422.341	609.35
426.367	259.658
430.39	87.1357
434.412	47.7871
438.432	71.7041
442.45	160.585
446.466	236.87
450.48	610.63
454.492	1081.16
458.502	1430.88
462.51	1460.99
466.517	2239
470.521	4796.39
474.523	12733.6
478.524	23240.9
482.523	15948.1
486.519	6945.31
490.514	4152.52
494.507	3589.7
498.498	6127.12
502.487	15274.2
506.474	30092.8
510.459	22412.8
514.442	9871.44
518.424	4596.3
522.403	2668.33
526.381	1643.81
530.356	1212.65
534.33	928.358
538.302	781.977
542.272	467.678
546.24	400.457
550.206	493.074
554.17	284.563
558.132	253.21
562.093	199.402
566.051	219.599
570.008	196.204
573.963	473.416
577.915	591.316
581.866	507.871
585.815	304.15
589.763	169.655
593.708	95.543
597.651	101.476
601.593	167.335
605.532	163.038
609.47	108.569
613.406	43.9746
617.34	0.786133
621.272	84.2168
625.202	79.0586
629.131	233.754
633.057	118.314
636.982	252.732
640.905	287.138
644.825	341.272
648.744	355.26
652.662	99.1006
656.577	182.791
660.49	46.3252
664.402	189.68
668.312	92.8174
672.219	14.2773
676.125	98.3994
680.03	59.0107
683.932	13.3975
687.832	75.9873
691.731	51.7227
695.628	80.7588
699.522	22.7832
703.415	69.4639
707.307	125.919
711.196	159.274
715.083	121.788
718.969	132.728
722.853	151.445
726.735	180.658
730.615	148.196
734.493	188.374
738.37	251.486
742.244	312.442
746.117	362.109
749.988	421.532
753.857	892.238
757.724	1840.23
761.59	3907.04
765.453	3875.64
769.315	2103.22
773.175	1467.92
777.033	1035.51
780.889	712.705
784.744	500.576
788.596	278.285
792.447	325.914
796.296	333.317
800.143	370.57
803.989	407.677
807.832	514.64
811.674	931.202
815.514	1507.21
819.352	872.959
823.189	426.445
827.023	295.251
830.856	161.312
834.687	197.204
838.516	140.108
842.343	152.102
846.169	43.9434
849.992	58.6895
853.814	43.7295
857.634	47.666
861.453	27.124
865.269	12.0713
869.084	76.3047
872.897	29.1201
876.708	104.735
880.517	20.7334
884.325	142.481
888.13	55.1445
891.934	58.3828
895.737	2.04102
899.537	45.6484
903.336	89.2266
907.132	72.7647
910.928	36.2656
914.721	39.7754
918.512	83.2744
922.302	23.25
926.09	110.264
929.876	153.815
933.66	217.399
937.443	100.982
941.224	5.43262
945.003	38.1504
948.78	161.615
952.556	185.215
956.33	388.834
960.102	282.481
963.872	396.175
967.64	589.898
971.407	863.663
975.172	1637.51
978.935	1941.45
982.697	1165.47
986.456	579.679
990.214	394.051
993.971	368.352
997.725	352.961
1001.48	647.659
1005.23	982.741
1008.98	849.857
1012.73	605.499
1016.47	457.501
1020.22	422.299
1023.96	576.602
1027.7	798.035
1031.44	1123.2
1035.17	983.841
1038.91	557.751
1042.64	574.281
1046.37	710.029
1050.1	737.668
1053.83	584.939
1057.56	301.054
1061.28	249.226
1065.01	386.774
1068.73	393.39
1072.45	612.648
1076.16	620.562
1079.88	900.804
1083.6	1288.51
1087.31	1846.61
1091.02	2584.45
1094.73	4632.46
1098.44	6880.54
1102.14	6069.05
1105.85	4697.45
1109.55	3432.02
1113.25	3566.96
1116.95	3007.84
1120.65	2144.25
1124.34	1333.13
1128.04	872.206
1131.73	588.328
1135.42	447.069
1139.11	522.689
1142.79	569.171
1146.48	393.375
1150.16	365.534
1153.84	385.49
1157.52	402.627
1161.2	292.62
1164.88	256.715
1168.56	86.1152
1172.23	96.8633
1175.9	108.34
1179.57	40.4609
1183.24	99.834
1186.9	312.184
1190.57	154.82
1194.23	113.6
1197.89	123.762
1201.55	82.0918
1205.21	91.5469
1208.87	38.4902
1212.52	175.289
1216.18	482.816
1219.83	400.568
1223.48	368.002
1227.13	287.356
1230.77	80.1582
1234.42	262.566
1238.06	189.256
1241.7	204.635
1245.34	360.121
1248.98	415.965
1252.62	421.617
1256.25	357.402
1259.88	402.039
1263.51	107.035
1267.14	81.75
1270.77	205.338
1274.4	208.361
1278.02	257.154
1281.65	249.383
1285.27	352.156
1288.89	184.394
1292.51	85.3086
1296.12	65.9199
1299.74	93.7773
1303.35	164.219
1306.96	164.606
1310.57	292.935
1314.18	241.926
1317.79	439.443
1321.39	176.588
1324.99	153.065
1328.59	20.5762
1332.19	4.72656
1335.79	90.3848
1339.39	45.4141
1342.98	349.242
1346.58	352.74
1350.17	555.781
1353.76	487.844
1357.35	160.812
1360.93	137.037
1364.52	77.0566
1368.1	130.981
1371.68	42.8066
1375.26	105.772
1378.84	356.289
1382.42	606.412
1385.99	545.424
1389.57	611.381
1393.14	468.547
1396.71	256.019
1400.28	284.26
1403.85	201.965
1407.41	264.935
1410.98	190.508
1414.54	404.535
1418.1	472.156
1421.66	242.799
1425.21	75.1641
1428.77	175.463
1432.33	401.09
1435.88	481.266
1439.43	764.121
1442.98	424.5
1446.53	663.264
1450.07	300.592
1453.62	364.07
1457.16	672.348
1460.7	640.088
1464.24	756.34
1467.78	777.67
1471.32	586.391
1474.85	472.133
1478.38	49.875
1481.91	147.853
1485.44	317.777
1488.97	142.318
1492.5	271.635
1496.03	582.695
1499.55	478.35
1503.07	622.473
1506.59	470.918
1510.11	515.713
1513.63	162.914
