Measurement: Raman, 514 nm, depolarized, Raman Data Processed
Mineral: Albite
Rruff sample: R040129
Ideal chemistry: NaAlSi_3_O_8_
Locality: LaChance Quarry, Brunswick, Cumberland County, Maine, USA
Source: Bob Downs
Description: Colorless fragment of a tabular single crystal
Measured chemistry: (Na_0.99_K_0.01_)Al_1.00_Si_3.00_O_8_
Pin_id: L00089
Orientation: Laser parallel to c* (0 0 1). Fiducial mark perpendicular to laser is parallel to -a [-1 0 0]
Raman shift (cm-1)	intensity
128.69	0
132.858	22.817
137.025	280.345
141.189	972.493
145.352	2951.68
149.512	3989.81
153.67	2888.4
157.827	2918.5
161.981	6020.26
166.133	3687.47
170.283	3896.43
174.431	3426.33
178.577	4610.51
182.721	7688.33
186.863	8180.54
191.003	4733.53
195.141	2842.99
199.277	2134.17
203.411	2586.25
207.543	6163.57
211.673	5553.2
215.801	1586.02
219.927	450.57
224.051	115.594
228.173	38.24
232.292	141.884
236.41	201.246
240.526	162.13
244.64	32.874
248.752	527.064
252.861	1495.31
256.969	494.263
261.075	321.694
265.179	777.778
269.281	1762.93
273.38	1277.46
277.478	949.354
281.574	1776.38
285.668	5305.9
289.76	13766.7
293.85	8913.11
297.937	3024.57
302.023	1229.74
306.107	740.452
310.189	458.078
314.269	242.228
318.347	288.776
322.423	460.405
326.497	2006.85
330.569	2723.3
334.639	880.938
338.707	380.879
342.773	204.908
346.837	309.295
350.899	295.678
354.96	154.325
359.018	9.746
363.074	31.104
367.128	27.772
371.181	29.595
375.231	38.261
379.28	70.175
383.326	21.344
387.37	77.678
391.413	69.95
395.454	161.287
399.492	622.657
403.529	516.022
407.564	1118.92
411.596	471.682
415.627	1325.39
419.656	638.599
423.683	127.18
427.708	19.474
431.731	78.061
435.752	95.575
439.772	34.01
443.789	115.348
447.804	465.807
451.817	1260.17
455.829	3051.26
459.838	2042.13
463.846	1324.77
467.852	1675.13
471.855	3234.22
475.857	8685.48
479.857	14902.9
483.855	6420.61
487.851	2955.64
491.845	1998.42
495.837	2331.99
499.828	4980.93
503.816	13566.1
507.802	25693.4
511.787	11661.7
515.77	4814.06
519.75	2744.78
523.729	1658.82
527.706	1106.01
531.681	837.02
535.654	772.749
539.625	675.4
543.595	377.077
547.562	283.152
551.527	326.194
555.491	336.963
559.453	256.654
563.412	290.281
567.37	213.131
571.326	344.512
575.28	751.267
579.233	1099.59
583.183	566.494
587.131	295.057
591.078	256.5
595.022	291.908
598.965	170.215
602.906	69.345
606.845	111.998
610.782	207.558
614.718	194.042
618.651	119.45
622.582	228.803
626.512	404.064
630.44	715.235
634.366	668.321
638.29	444.333
642.212	531.274
646.132	966.134
650.05	817.913
653.967	359.613
657.882	188.24
661.794	12.809
665.705	132.302
669.614	220.681
673.522	104.966
677.427	30.776
681.331	26.565
685.232	60.615
689.132	47.784
693.03	58.944
696.926	81.897
700.82	10.862
704.713	11.401
708.603	66.804
712.492	60.86
716.379	66.998
720.264	41.042
724.147	171.988
728.028	240.379
731.908	256.238
735.785	99.55
739.661	55.909
743.535	247.759
747.407	425.74
751.278	521.756
755.146	766.692
759.013	1911.7
762.878	4481.44
766.741	3008.6
770.602	1360.15
774.461	828.049
778.319	381.396
782.174	317.644
786.028	315.794
789.88	325.846
793.73	324.802
797.579	258.665
801.425	329.433
805.27	829.11
809.113	1816.7
812.954	4174.19
816.794	4825.23
820.631	1635.06
824.467	723.038
828.301	538.888
832.133	489.573
835.963	323.563
839.792	126.684
843.618	114.788
847.443	94.617
851.266	146.014
855.088	156.869
858.907	88.333
862.725	39.03
866.541	17.927
870.355	1.636
874.167	139.162
877.978	37.726
881.787	5.691
885.594	8.697
889.399	28.479
893.202	87.561
897.004	184.923
900.803	159.271
904.601	14.591
908.398	23.096
912.192	19.833
915.985	97.393
919.776	145.599
923.565	165.771
927.352	39.865
931.138	36.923
934.922	59.986
938.704	136.059
942.484	268.145
946.262	217.247
950.039	159.373
953.814	128.518
957.587	63.683
961.359	228.871
965.128	364.084
968.896	477.327
972.662	497.622
976.427	791.977
980.189	716.383
983.95	422.84
987.709	409.369
991.467	236.002
995.222	174.738
998.976	327.589
1002.73	561.529
1006.48	681.621
1010.23	639.543
1013.97	788.697
1017.72	710.455
1021.46	539.75
1025.2	577.671
1028.94	845.575
1032.68	1236.23
1036.42	951.104
1040.15	681.535
1043.89	628.012
1047.62	445.085
1051.35	322.061
1055.07	143.438
1058.8	193.2
1062.52	379.345
1066.25	535.693
1069.97	463.444
1073.69	417.045
1077.4	326.282
1081.12	417.104
1084.83	676.053
1088.55	1030.03
1092.26	1591.16
1095.96	2437.08
1099.67	2880.29
1103.38	2019.58
1107.08	1381.94
1110.78	962.376
1114.48	1033.9
1118.18	1106.84
1121.88	1219.51
1125.57	596.341
1129.27	233.292
1132.96	179.244
1136.65	219.373
1140.34	317.929
1144.02	430.177
1147.71	425.417
1151.39	449.975
1155.07	175.638
1158.75	451.171
1162.43	11.271
1166.11	154.945
1169.78	204.364
1173.45	350.936
1177.12	328.352
1180.79	199.257
1184.46	117.45
1188.13	52.812
1191.79	110.559
1195.45	31.819
1199.11	262.372
1202.77	422.741
1206.43	389.122
1210.09	242.839
1213.74	138.215
1217.39	159.484
1221.05	110.807
1224.69	213.191
1228.34	326.799
1231.99	374.301
1235.63	430.291
1239.27	255.07
1242.91	130.475
1246.55	140.379
1250.19	184.846
1253.83	220.57
1257.46	157.962
1261.09	291.551
1264.72	411.397
1268.35	376.38
1271.98	237.658
1275.61	105.914
1279.23	84.087
1282.85	3.084
1286.47	155.411
1290.09	189.427
1293.71	325.525
1297.33	400.684
1300.94	249.604
1304.55	229.273
1308.16	128.64
1311.77	8.622
1315.38	25.829
1318.99	24.743
1322.59	96.065
1326.19	107.865
1329.79	201.047
1333.39	247.963
1336.99	174.971
1340.59	30.513
1344.18	77.268
1347.77	54.021
1351.37	85.8
1354.95	4.41
1358.54	143.34
1362.13	259.039
1365.71	411.476
1369.3	197.842
1372.88	177.005
1376.46	59.995
1380.04	153.338
1383.61	104.777
1387.19	66.576
1390.76	234.56
1394.33	324.944
1397.9	433.429
1401.47	453.572
1405.04	443.788
1408.6	389.019
1412.16	230.205
1415.72	85.775
1419.29	63.384
1422.84	21.875
1426.4	101.649
1429.96	160.96
1433.51	229.301
1437.06	382.461
1440.61	450.543
1444.16	477.035
1447.71	349.53
1451.25	236.908
1454.8	323.745
1458.34	142.857
1461.88	2.277
1465.42	143.38
1468.96	204.918
1472.49	305.716
1476.03	328.138
1479.56	568.554
1483.09	410.733
1486.62	408.129
1490.15	288.092
