Measurement: Raman, 532 nm, ccw, Raman Data Processed
Mineral: Almandine
Rruff sample: R190023
Ideal chemistry: Fe^2+^_3_Al_2_(SiO_4_)_3_
Locality: Bella Vista mine, Mitkof Island, Alexander Archipelago, Alaska, USA
Source: Robert Downs
Description: Red vitreous crystals in schist matrix
Raman shift (cm-1)	intensity
88.1367	0
91.5115	4.77194
94.8863	4.48086
98.2612	3.42818
101.636	2.35243
105.011	0.174042
108.386	6.24744
111.76	0.567047
115.135	3.79765
118.51	5.79837
121.885	4.93231
125.26	8.59924
128.635	8.6272
132.009	13.3635
135.384	12.8602
138.759	18.6058
142.134	20.3193
145.509	19.3389
148.883	22.9314
152.258	24.954
155.633	33.7641
159.008	41.8232
162.383	52.3333
165.757	66.818
169.132	90.4884
172.507	70.792
175.882	32.6636
179.257	14.1985
182.632	6.65005
186.006	5.17298
189.381	1.83614
192.756	3.4764
196.131	5.79044
199.506	11.1775
202.881	20.2994
206.255	30.5976
209.63	46.4831
213.005	61.0941
216.38	56.3379
219.755	41.5844
223.129	25.5104
226.504	16.2056
229.879	9.36769
233.254	9.10614
236.629	5.93928
240.004	4.34717
243.378	3.59018
246.753	1.92407
250.128	1.25743
253.503	0.859051
256.878	0.079433
260.252	0.338093
263.627	0.595161
267.002	1.07241
270.377	1.13781
273.752	0.137299
277.127	0.592041
280.501	0.26976
283.876	0.850605
287.251	2.81886
290.626	3.49627
294.001	6.03033
297.375	8.54502
300.75	9.95692
304.125	16.4226
307.5	24.0832
310.875	37.1982
314.25	61.9129
317.624	62.0348
320.999	56.5545
324.374	64.7958
327.749	86.1321
331.124	108.68
334.498	136.118
337.873	182.579
341.248	274.744
344.623	423.715
347.998	508.787
351.373	371.041
354.747	207.042
358.122	126.43
361.497	98.045
364.872	91.0152
368.247	102.548
371.621	111.343
374.996	99.7487
378.371	68.7887
381.746	42.6832
385.121	24.8867
388.495	15.4133
391.87	9.99488
395.245	6.45167
398.62	3.73523
401.995	3.93144
405.37	1.47225
408.744	0.22485
412.119	1.06037
415.494	0.077312
418.869	1.98102
422.244	0.9356
425.618	1.26085
428.993	0.651173
432.368	0.948994
435.743	1.43674
439.118	0.072639
442.493	1.20557
445.867	0.049706
449.242	0.085896
452.617	0.802563
455.992	1.68927
459.367	2.57406
462.741	5.36582
466.116	7.35734
469.491	11.826
472.866	18.8968
476.241	30.2569
479.615	44.092
482.99	30.086
486.365	18.0726
489.74	23.3675
493.115	38.836
496.49	78.412
499.864	139.791
503.239	137.02
506.614	63.416
509.989	29.4035
513.364	13.7529
516.739	8.99999
520.113	4.52437
523.488	4.58909
526.863	2.80111
530.238	4.24575
533.613	1.66917
536.987	6.24029
540.362	11.4218
543.737	19.3368
547.112	34.1236
550.487	60.8153
553.861	103.186
557.236	131.491
560.611	100.961
563.986	52.9217
567.361	26.3149
570.736	14.1376
574.11	8.51475
577.485	11.9018
580.86	16.9976
584.235	25.9202
587.61	19.9383
590.985	8.86074
594.359	5.91968
597.734	6.9886
601.109	5.01797
604.484	1.68377
607.859	0.664375
611.233	2.05271
614.608	0.293941
617.983	1.38891
621.358	5.6749
624.733	10.0454
628.107	18.5372
631.482	36.3928
634.857	42.2415
638.232	28.3805
641.607	16.1719
644.982	9.06387
648.356	5.23261
651.731	4.0885
655.106	2.81536
658.481	2.64238
661.856	2.31221
665.231	1.75172
668.605	1.63916
671.98	0.53035
675.355	0.295944
678.73	0.178062
682.105	0.797867
685.479	0.369438
688.854	0.157131
692.229	0.683853
695.604	0.862453
698.979	1.97933
702.354	1.12809
705.728	1.56134
709.103	1.96782
712.478	2.42313
715.853	3.51271
719.227	2.55226
722.602	3.88283
725.977	4.17072
729.352	4.48203
732.727	3.70311
736.102	4.19033
739.476	3.69852
742.851	4.85597
746.226	4.00492
749.601	4.06161
752.976	3.54833
756.351	3.946
759.725	2.99676
763.1	4.03852
766.475	2.46847
769.85	2.4824
773.225	1.5466
776.599	1.73097
779.974	2.19789
783.349	1.19177
786.724	0.945042
790.099	0.204273
793.473	0.839413
796.848	0.325451
800.223	0.580326
803.598	0.593552
806.973	0.965828
810.348	1.91082
813.722	2.38712
817.097	0.968811
820.472	3.20501
823.847	0.574913
827.222	2.4616
830.597	0.347885
833.971	0.656078
837.346	0.772274
840.721	2.41523
844.096	4.22921
847.471	8.43873
850.846	13.6643
854.22	26.0833
857.595	44.2158
860.97	64.5724
864.345	80.7763
867.72	75.7269
871.094	53.1528
874.469	39.2835
877.844	34.9407
881.219	37.0792
884.594	46.0562
887.968	61.9239
891.343	84.3392
894.718	120.735
898.093	164.417
901.468	209.125
904.842	279.299
908.217	424.814
911.592	681.317
914.967	1066.18
918.342	1303.82
921.717	1019.53
925.091	593.203
928.466	337.26
931.841	197.985
935.216	124.92
938.591	78.3765
941.966	50.7227
945.34	27.6662
948.715	16.7468
952.09	8.98742
955.465	3.78781
958.84	2.7579
962.214	2.27477
965.589	0.233047
968.964	0.444962
972.339	0.80262
975.714	0.861526
979.088	0.79269
982.463	0.054455
985.838	0.458683
989.213	0.753372
992.588	1.42067
995.963	0.737438
999.337	0.366562
1002.71	0.119488
1006.09	2.87605
1009.46	6.57272
1012.84	8.57791
1016.21	11.4863
1019.59	16.5351
1022.96	20.9114
1026.34	29.4622
1029.71	40.5809
1033.09	56.9327
1036.46	74.573
1039.84	91.3624
1043.21	96.8508
1046.59	88.1689
1049.96	67.9486
1053.33	42.9051
1056.71	27.0206
1060.08	17.0422
1063.46	10.7642
1066.83	7.90612
1070.21	5.79392
1073.58	4.27242
1076.96	3.95321
1080.33	2.23185
1083.71	2.14799
1087.08	2.43673
1090.46	2.30882
1093.83	0.07497
1097.21	0.185959
1100.58	0.817753
1103.96	0.494629
1107.33	0.494377
1110.71	1.02033
1114.08	1.33229
1117.46	0.174347
1120.83	1.43356
1124.21	0.240982
1127.58	1.90126
1130.95	1.56844
1134.33	0.740078
1137.7	1.06176
1141.08	0.484241
1144.45	1.91065
1147.83	0.120293
1151.2	1.73547
1154.58	1.5572
1157.95	2.34119
1161.33	3.73064
1164.7	3.85259
1168.08	5.11116
1171.45	5.59592
1174.83	4.42451
1178.2	2.18546
1181.58	3.33654
1184.95	5.35754
1188.33	3.54979
1191.7	2.75603
1195.08	2.45259
1198.45	2.21002
1201.83	2.54302
1205.2	2.56688
1208.58	4.46893
1211.95	3.42899
1215.33	1.00811
1218.7	1.08501
1222.08	0.742466
1225.45	0.286789
1228.83	0.966599
1232.2	1.05495
1235.58	0.308197
1238.95	1.88827
1242.32	2.13498
1245.7	0.39249
1249.07	0.226059
1252.45	2.40073
1255.82	1.80958
1259.2	2.11159
1262.57	2.88953
1265.95	2.56953
1269.32	2.75322
1272.7	2.37307
1276.07	1.78901
1279.45	1.53216
1282.82	2.15348
1286.2	1.73079
1289.57	0.727242
1292.95	1.1754
1296.32	1.15331
1299.7	0.659325
