Measurement: Raman, 514 nm, depolarized, Raman Data Processed
Mineral: Almandine
Rruff sample: R060450
Ideal chemistry: Fe^2+^_3_Al_2_(SiO_4_)_3_
Locality: Canada
Source: Gemological Institute of America
Description: Reddish-brown translucent fragment
Measured chemistry: (Fe^2+^_1.92_Mg_1.03_Ca_0.04_Mn_0.01_)_Î£=3_Al_2.00_(Si_1.00_O_4_)_3_
Pin_id: L00665
Orientation: Laser parallel to c* (0 0 1). Fiducial mark perpendicular to laser is parallel to a [1 0 0]
Raman shift (cm-1)	intensity
91.012	0
95.948	40.9551
100.883	76.0811
105.815	226.387
110.744	643.638
115.671	408.529
120.596	167.541
125.519	247.188
130.439	548.795
135.356	1102.81
140.271	1538.28
145.184	1489.9
150.094	1024.43
155.002	641.512
159.908	522.76
164.811	763.853
169.711	916.405
174.61	819.345
179.505	585.033
184.399	406.875
189.29	462.502
194.178	700.606
199.064	811.467
203.948	1027.74
208.829	721.708
213.708	631.227
218.585	443.278
223.459	141.835
228.33	98.8701
233.199	127.355
238.066	99.4746
242.93	204.047
247.792	152.103
252.651	228.792
257.508	227.089
262.363	168.676
267.215	183.338
272.064	182.362
276.912	264.313
281.756	267.931
286.598	298.853
291.438	489.983
296.276	378.69
301.111	558.658
305.943	778.074
310.773	959.525
315.601	1323.78
320.426	1381.5
325.248	1697.55
330.068	2436.9
334.886	3589.52
339.701	5499.39
344.514	8186.48
349.324	10430.7
354.132	8459.16
358.938	4651.74
363.741	3196.46
368.541	3244.31
373.339	2963.27
378.135	2188.35
382.928	1256.54
387.718	632.066
392.506	472.977
397.292	216.194
402.075	120.753
406.856	303.578
411.634	19.7256
416.41	41.8921
421.183	36.5478
425.954	149.639
430.722	119.144
435.488	14.8848
440.251	88.1773
445.012	3.646
449.77	69.4277
454.526	28.4673
459.28	52.2744
464.03	74.9922
468.779	172.692
473.525	302.401
478.268	579.106
483.009	681.744
487.747	601.331
492.483	659.84
497.217	1146.28
501.948	1838.71
506.676	1300.07
511.402	738.385
516.125	681.751
520.846	516.007
525.565	534.489
530.281	700.578
534.994	633.271
539.705	773.13
544.413	1249.7
549.119	2112.36
553.822	3303.51
558.523	4195.58
563.222	2891.15
567.917	1268.6
572.611	842.526
577.302	610.898
581.99	572.701
586.676	610.06
591.359	474.307
596.04	396.559
600.718	532.268
605.394	469.299
610.067	348.312
614.737	231.03
619.406	359.47
624.071	493.639
628.734	512.097
633.395	922.717
638.053	1089.82
642.708	824.393
647.361	364.17
652.012	234.13
656.66	257.462
661.305	127.663
665.948	57.1084
670.588	69.9248
675.226	91.6816
679.861	127.941
684.494	153.674
689.124	28.8838
693.752	76.4404
698.377	74.5117
702.999	29.7324
707.619	20.3867
712.237	81.5625
716.852	35.665
721.464	11.1123
726.074	161.34
730.681	214.71
735.286	129.936
739.888	93.9941
744.488	34.875
749.085	5.54883
753.68	126.892
758.272	103.025
762.861	24.9883
767.448	116.799
772.033	85.4609
776.614	18.0791
781.194	75.0938
785.77	29.8789
790.345	81.1699
794.916	57.167
799.485	14.5684
804.052	50.5664
808.616	83.8018
813.177	153.277
817.736	176.176
822.292	238.088
826.846	95.6875
831.397	45.6728
835.945	142.947
840.491	163.153
845.035	272.96
849.576	509.614
854.114	897.457
858.65	1407.43
863.183	2202.6
867.713	2298.18
872.241	1751.84
876.767	1402.92
881.29	1447.42
885.81	1648.66
890.328	2140.7
894.843	3238.88
899.356	4580.74
903.866	6785.38
908.373	11113.3
912.878	21129
917.38	35204.6
921.88	38156.2
926.377	23346.7
930.872	11195.7
935.364	5889.61
939.853	3411.71
944.34	2305.14
948.824	1261.53
953.306	995.343
957.785	809.537
962.261	569.715
966.735	421.851
971.207	471.608
975.675	529.808
980.141	507.812
984.605	520.346
989.066	454.429
993.524	457.839
997.98	269.538
1002.43	575.997
1006.88	400.041
1011.33	510.85
1015.78	427.353
1020.22	520.518
1024.66	454.053
1029.1	649.798
1033.53	989.894
1037.97	1257.72
1042.4	1571.39
1046.82	1893.61
1051.25	1603.69
1055.67	1152.29
1060.09	707.206
1064.51	482.404
1068.92	137.661
1073.33	62.0908
1077.74	275.721
1082.15	323.805
1086.55	426.732
1090.95	49.6826
1095.35	79.2129
1099.75	85.1123
1104.14	159.255
1108.53	12.9688
1112.92	19.8047
1117.31	145.906
1121.69	314.11
1126.07	344.762
1130.45	150.333
1134.82	71.6865
1139.19	75.5625
1143.57	67.1162
1147.93	57.4805
1152.3	1.21484
1156.66	30.1699
1161.02	186.404
1165.38	140.842
1169.73	149.156
1174.08	92.2471
1178.43	3.55762
1182.78	101.238
1187.12	249.906
1191.46	178.526
1195.8	239.923
1200.14	139.515
1204.47	174.635
1208.8	41.0215
1213.13	98.5205
1217.46	118.605
1221.78	156.085
1226.1	172.295
1230.42	314.093
1234.73	83.7002
1239.04	257.525
1243.35	181.159
1247.66	7.9834
1251.97	220.458
1256.27	248.657
1260.57	167.514
1264.86	293.56
1269.16	117.054
1273.45	218.848
1277.74	252.524
1282.03	231.248
1286.31	218.714
1290.59	137.98
1294.87	136.897
1299.14	292.182
1303.42	321.666
1307.69	143.082
1311.95	282.016
1316.22	223.852
1320.48	212.598
1324.74	187.15
1329	89.6172
1333.26	89.0957
1337.51	104.63
1341.76	124.509
1346	174.073
1350.25	29.5293
1354.49	93.1084
1358.73	238.273
1362.96	5.05566
1367.2	23.002
1371.43	217.826
1375.66	33.458
1379.88	158.183
1384.11	216.715
1388.33	82.2227
1392.54	79.7978
1396.76	213.539
1400.97	17.3428
1405.18	59.1494
1409.39	100.952
1413.59	183.894
1417.8	189.018
1421.99	115.244
1426.19	127.54
1430.38	205.046
1434.58	287.639
1438.77	89.5537
1442.95	470.752
1447.13	306.644
1451.32	339.639
1455.49	286.055
1459.67	272.718
1463.84	403.835
1468.01	360.306
1472.18	291.678
1476.35	179.327
1480.51	173.767
1484.67	242.967
1488.83	277.026
1492.98	315.029
1497.13	260.592
1501.28	236.379
1505.43	205.012
1509.57	195.365
1513.71	315.684
1517.85	241.273
1521.99	148.445
1526.12	199.904
1530.25	237.93
1534.38	374.756
1538.5	275.252
1542.62	338.773
1546.74	263.815
1550.86	285.682
1554.98	214.875
1559.09	36.4531
1563.2	312.062
1567.31	221.316
