Measurement: Raman, 514 nm, depolarized, Raman Data Processed
Mineral: Almandine
Rruff sample: R070129
Ideal chemistry: Fe^2+^_3_Al_2_(SiO_4_)_3_
Locality: Wrangell, Wrangell Island, Wrangell-Petersburg Borough, Alaska, USA
Source: Michael Scott
Description: Dark red well-formed dodecahedral crystals in schist
Measured chemistry: (Fe^2+^_2.15_Mg_0.60_Mn_0.11_Fe^3+^_0.06_Ca_0.08_)_Σ=3_Al_2.00_((Si_0.98_Al_0.02_)_Σ=1_O_4_)_3_
Pin_id: L01134
Orientation: Laser parallel to b* (0 1 0). Fiducial mark perpendicular to laser is parallel to a [1 0 0]
Raman shift (cm-1)	intensity
137.683	0
142.633	52.248
147.579	81.1475
152.522	279.337
157.462	646.682
162.4	1163.82
167.334	1678.01
172.265	1082.13
177.193	312.255
182.117	17.1227
187.039	19.6096
191.958	44.7231
196.874	200.918
201.787	474.85
206.696	697.428
211.603	904.866
216.506	799.185
221.407	565.172
226.304	300.637
231.199	349.209
236.091	309.9
240.979	318.561
245.864	267.424
250.747	333.497
255.626	266.775
260.503	346.25
265.376	285.915
270.247	313.766
275.114	289.814
279.979	360.062
284.84	488.169
289.699	505.518
294.554	593.804
299.407	734.134
304.257	956.36
309.103	1467.43
313.947	2099.01
318.788	2438.86
323.626	3335.99
328.461	4672.37
333.292	6428.84
338.121	10669.1
342.947	16395.1
347.771	16445.2
352.591	9885.5
357.408	5594.9
362.222	4572.42
367.034	4941.04
371.842	5031.74
376.648	3634.52
381.45	1927.4
386.25	1022.36
391.047	601.396
395.841	332.563
400.632	189.93
405.42	113.501
410.205	70.3596
414.988	64.4452
419.767	21.3326
424.544	30.9413
429.318	25.4335
434.089	11.1049
438.857	23.8221
443.622	23.4416
448.384	35.3334
453.143	57.7368
457.9	16.8132
462.654	144.891
467.405	252.957
472.153	463.003
476.898	711.039
481.64	662.098
486.38	487.116
491.116	920.084
495.85	1871
500.581	2558.85
505.309	1576.62
510.035	754.339
514.757	569.995
519.477	466.815
524.194	481.313
528.908	588.247
533.62	603.914
538.328	837.794
543.034	1470.18
547.737	2808.05
552.437	4718.33
557.134	5177.82
561.829	3309.85
566.521	1627.13
571.21	989.327
575.896	772.414
580.58	821.64
585.261	761.844
589.939	626.023
594.614	697.865
599.286	594.63
603.956	424.927
608.623	226.037
613.287	281.769
617.949	239.403
622.608	378.675
627.264	631.086
631.917	868.138
636.568	723.582
641.215	396.903
645.861	310.038
650.503	178.994
655.143	125.724
659.78	31.3805
664.414	96.243
669.046	83.8345
673.674	26.1378
678.301	16.9988
682.924	32.6271
687.545	11.9244
692.163	31.8977
696.778	15.6903
701.391	63.4983
706.001	2.13354
710.609	49.7964
715.213	0.613037
719.815	30.7956
724.415	25.9048
729.011	20.8787
733.606	18.4314
738.197	23.4268
742.786	11.9695
747.372	48.3757
751.955	19.657
756.536	61.8176
761.114	5.87109
765.69	12.1743
770.262	29.6711
774.833	4.57593
779.4	11.897
783.965	34.2903
788.528	38.1931
793.087	9.42554
797.645	24.8679
802.199	72.8623
806.751	191.52
811.3	281.685
815.847	247.948
820.391	177.012
824.933	94.7273
829.471	224.401
834.008	186.888
838.541	307.379
843.073	459.253
847.601	662.682
852.127	1024.45
856.65	1618.51
861.171	2265.53
865.69	2289.76
870.205	2027.3
874.718	1895.09
879.229	2057.39
883.737	2607.03
888.242	3652.95
892.745	5348.95
897.246	7803.27
901.743	11918.6
906.239	21534.9
910.731	40947.8
915.221	60426.8
919.709	52266.4
924.194	28450.7
928.677	14189.2
933.157	7946.04
937.634	4632.47
942.109	2944.15
946.582	1977.1
951.052	1416.41
955.519	1131.08
959.984	915.231
964.447	849.295
968.906	778.94
973.364	741.984
977.819	752.806
982.271	626.35
986.721	579.501
991.169	471.18
995.614	465.045
1000.06	483.445
1004.5	549.336
1008.93	645.778
1013.37	658.292
1017.8	837.974
1022.23	938.29
1026.66	1351.03
1031.09	1679.83
1035.51	2265.7
1039.93	2575.63
1044.35	2283.62
1048.76	1717.67
1053.17	1024.82
1057.58	574.035
1061.99	452.332
1066.4	271.748
1070.8	152.197
1075.2	97.874
1079.6	94.0825
1084	83.6711
1088.39	48.2222
1092.78	14.1113
1097.17	38.3445
1101.56	46.4053
1105.94	4.49854
1110.32	22.2612
1114.7	86.5593
1119.08	21.3274
1123.45	39.6519
1127.82	13.6128
1132.19	27.1333
1136.56	34.1043
1140.92	3.47022
1145.29	46.6169
1149.65	23.4189
1154	14.9966
1158.36	142.336
1162.71	212.474
1167.06	253.464
1171.41	198.188
1175.76	254.697
1180.1	229.416
1184.44	231.671
1188.78	238.9
1193.11	253.487
1197.45	236.644
1201.78	224.525
1206.11	197.034
1210.43	101.11
1214.76	167.072
1219.08	140.995
1223.4	151.58
1227.72	164.382
1232.03	113.15
1236.35	144.934
1240.66	138.204
1244.96	187.344
1249.27	187.011
1253.57	236.522
1257.88	196.813
1262.17	203.077
1266.47	253.173
1270.76	204.456
1275.06	155.216
1279.35	134.52
1283.63	185.215
1287.92	136.473
1292.2	91.7522
1296.48	130.879
1300.76	69.8569
1305.04	4.30396
1309.31	43.312
1313.58	38.7424
1317.85	11.0024
1322.12	47.9363
1326.38	10.6274
1330.64	23.7439
1334.9	10.1238
1339.16	3.0166
1343.41	19.2351
1347.67	0.685547
1351.92	70.7461
1356.17	47.9031
1360.41	85.0879
1364.66	14.4739
1368.9	41.6189
1373.14	81.9531
1377.38	48.2322
1381.61	78.6321
1385.84	15.2021
1390.08	67.9292
1394.3	128.76
1398.53	124.716
1402.75	139.791
1406.97	90.9387
1411.19	174.137
1415.41	131.415
1419.63	180.071
1423.84	186.516
1428.05	201.206
1432.26	124.995
1436.46	247.154
1440.67	269.025
1444.87	233.234
1449.07	166.67
1453.27	205.461
1457.46	218.51
1461.66	209.033
1465.85	236.633
1470.04	241.374
1474.22	236.753
1478.41	215.095
1482.59	301.012
1486.77	242.897
1490.95	220.722
1495.12	209.439
1499.3	146.03
1503.47	208.626
1507.63	141.697
1511.8	179.754
1515.97	189.496
1520.13	208.584
1524.29	138.085
1528.45	172.136
1532.61	193.211
1536.76	73.0269
1540.91	15.5928
1545.06	83.4321
1549.21	94.8413
1553.35	151.465
1557.5	26.8936
1561.64	103.617
