Measurement: Raman, 514 nm, depolarized, Raman Data Processed
Mineral: Almandine
Rruff sample: R050029
Ideal chemistry: Fe^2+^_3_Al_2_(SiO_4_)_3_
Locality: Barton Garnet mine, Gore Mountain, Warren County, New York, USA
Source: University of Arizona Mineral Museum
Description: Reddish brown fragments
Measured chemistry: (Fe^2+^_1.34_Mg_1.26_Ca_0.37_Mn_0.03_)_Î£=3_Al_2.00_(Si_1.00_O_4_)_3_
Pin_id: L00523
Orientation: Laser parallel to a* (1 0 0). Fiducial mark perpendicular to laser is parallel to b [0 1 0]
Raman shift (cm-1)	intensity
90.65	0
94.838	18.174
99.023	128.218
103.206	6.844
107.387	135.526
111.566	340.068
115.744	300.856
119.919	86.724
124.092	136.318
128.263	153.396
132.432	204.681
136.599	209.805
140.764	257.646
144.927	210.738
149.088	199.291
153.247	151.379
157.404	106.862
161.559	23.18
165.711	70.636
169.862	24.243
174.011	144.655
178.158	283.202
182.303	128.26
186.446	37.423
190.587	17.469
194.726	8.393
198.862	121.808
202.997	177.981
207.13	221.799
211.261	280.055
215.39	285.369
219.517	213.423
223.642	173.16
227.765	168.443
231.886	166.471
236.005	142.077
240.122	137.158
244.237	170.805
248.35	172.311
252.461	107.792
256.57	137.801
260.677	133.06
264.782	184.55
268.885	240.012
272.986	211.686
277.085	241.361
281.182	274.535
285.278	301.886
289.371	313.887
293.462	388.841
297.552	366.749
301.639	401.14
305.724	554.211
309.808	626.19
313.889	746
317.969	882.094
322.046	1038.37
326.122	1256.88
330.196	1569.07
334.267	2208.44
338.337	2907.4
342.405	3819.15
346.471	5469.83
350.535	8040.1
354.597	10231.6
358.657	9015.4
362.715	6453.44
366.771	4728.16
370.825	3752.8
374.877	3034.86
378.928	2453.02
382.976	1852
387.023	1428.37
391.067	945.503
395.11	660.591
399.15	431.548
403.189	303.348
407.226	185.483
411.261	145.579
415.294	77.405
419.325	32.957
423.354	14.37
427.381	10.884
431.406	11.907
435.43	0.37
439.451	1.332
443.471	4.294
447.488	1.316
451.504	4.698
455.518	19.667
459.53	19.848
463.54	93.867
467.548	107.734
471.554	167.459
475.558	237.062
479.561	324.557
483.561	406.951
487.559	370.266
491.556	338.464
495.551	401.93
499.544	686.222
503.535	1177.39
507.524	1127.51
511.511	738.65
515.496	586.309
519.48	541.175
523.461	575.829
527.441	588.573
531.418	652.366
535.394	664.358
539.368	871.4
543.34	1165.89
547.311	1707.34
551.279	2631.93
555.245	4431.11
559.21	5188.67
563.173	3598.49
567.133	1950.87
571.092	1072.6
575.049	715.828
579.005	535.747
582.958	499.981
586.909	461.941
590.859	420.665
594.807	320.331
598.753	334.63
602.697	351.139
606.639	370.893
610.579	353.551
614.518	295.809
618.454	205.43
622.389	182.422
626.322	237.579
630.253	354.017
634.182	556.783
638.109	715.418
642.035	671.922
645.958	446.297
649.88	336.542
653.8	230.657
657.718	159.643
661.634	132.5
665.549	108.229
669.461	70.831
673.372	21.295
677.281	25.611
681.188	2.219
685.093	7.228
688.997	10.455
692.898	33.972
696.798	18.832
700.696	30.986
704.592	13.462
708.486	20.232
712.378	4.24
716.269	15.427
720.158	4.209
724.045	4.717
727.93	6.91
731.813	5.341
735.694	13.493
739.574	13.465
743.452	19.476
747.328	12.364
751.202	20.208
755.075	4.026
758.945	14.807
762.814	5.573
766.681	2.669
770.546	45.083
774.409	14.807
778.271	29.503
782.131	6.168
785.989	33.801
789.845	66.398
793.699	106.962
797.552	111.496
801.402	127.003
805.251	208.498
809.098	253.983
812.944	371.464
816.787	397.952
820.629	407.365
824.469	390.544
828.307	405.074
832.144	453.611
835.978	503.455
839.811	613.805
843.642	747.215
847.472	986.083
851.299	1354.26
855.125	1879.19
858.949	2392.78
862.771	2558.94
866.591	2188.7
870.41	1917.28
874.227	1780.34
878.042	1794.56
881.855	2040.76
885.667	2456.7
889.476	2962.73
893.284	3804.37
897.09	4996.59
900.895	6736
904.698	10137.3
908.499	16603.8
912.298	27420.5
916.095	38797.4
919.891	37034.4
923.685	25141.7
927.477	14739
931.267	9086.46
935.056	5922
938.843	4131.63
942.628	2914.36
946.411	2228.18
950.193	1727.11
953.973	1467.45
957.751	1203.18
961.527	1044.35
965.302	950.049
969.075	836.873
972.846	824.901
976.615	772.503
980.383	738.921
984.149	708.502
987.913	681.125
991.675	593.42
995.436	502.345
999.195	485.433
1002.95	466.319
1006.71	456.072
1010.46	473.86
1014.21	600.204
1017.96	685.428
1021.71	722.771
1025.46	835.218
1029.2	855.755
1032.95	959.396
1036.69	1036.12
1040.43	1280.95
1044.17	1470.89
1047.9	1519.92
1051.64	1335.04
1055.37	995.231
1059.1	658.503
1062.83	446.874
1066.56	309.349
1070.29	208.904
1074.01	167.526
1077.73	123.201
1081.46	100.929
1085.17	50.718
1088.89	29.563
1092.61	27.471
1096.32	20.429
1100.04	14.423
1103.75	17.535
1107.46	19.48
1111.16	14.42
1114.87	10.635
1118.57	6.667
1122.28	103.683
1125.98	24.706
1129.67	27.272
1133.37	38.363
1137.07	67.596
1140.76	38.04
1144.45	0.654
1148.14	0.667
1151.83	13.916
1155.52	1.888
1159.21	3.257
1162.89	54.367
1166.57	24.452
1170.25	95.615
1173.93	122.74
1177.61	128.053
1181.28	142.652
1184.96	145.432
1188.63	98.192
1192.3	84.102
1195.97	119.613
1199.64	74.166
1203.3	127.389
1206.97	136.231
1210.63	120.427
1214.29	113.212
1217.95	145.291
1221.6	97.437
1225.26	120.468
1228.91	126.271
1232.57	118.376
1236.21	85.198
1239.86	135.026
1243.51	106.355
1247.16	106.785
1250.8	131.77
1254.44	128.194
1258.08	127.672
1261.72	147.959
1265.36	159.617
1268.99	166.855
1272.63	210.439
1276.26	171.544
1279.89	160.399
1283.52	127.913
1287.15	124.717
1290.77	127.627
1294.4	119.936
1298.02	105.471
1301.64	110.573
1305.26	110.358
1308.88	88.531
1312.49	38.487
1316.11	40.543
1319.72	28.207
1323.33	17.72
1326.94	17.087
1330.55	21.31
1334.15	35.375
1337.76	21.297
1341.36	10.705
1344.96	13.695
1348.56	14.091
1352.16	22.674
1355.75	9.377
1359.35	2.742
1362.94	12.019
1366.53	42.721
1370.12	47.197
1373.71	28.552
1377.3	32.067
1380.88	15.625
1384.46	27.124
1388.05	21.422
1391.63	20.411
1395.2	11.659
1398.78	14.592
1402.36	56.599
1405.93	21.91
1409.5	32.313
1413.07	73.729
1416.64	38.1
1420.21	59.104
1423.78	87.906
1427.34	56.345
1430.9	22.838
1434.46	47.291
1438.02	50.063
1441.58	74.987
1445.13	95.714
1448.69	55.047
1452.24	74.574
1455.79	12.783
1459.34	86.616
1462.89	83.976
1466.44	38.047
1469.98	66.778
1473.53	79.076
1477.07	20.78
1480.61	47.992
1484.14	79.996
1487.68	71.006
1491.22	58.145
1494.75	62.413
1498.28	63.615
1501.81	57.059
1505.34	1.942
1508.87	27.659
1512.4	32.575
1515.92	27.952
1519.44	0
