Measurement: Raman, 780 nm, ccw, Raman Data Processed
Mineral: Almandine
Rruff sample: R190023
Ideal chemistry: Fe^2+^_3_Al_2_(SiO_4_)_3_
Locality: Bella Vista mine, Mitkof Island, Alexander Archipelago, Alaska, USA
Source: Robert Downs
Description: Red vitreous crystals in schist matrix
Raman shift (cm-1)	intensity
87.582	0
90.9569	63.4799
94.3317	67.425
97.7065	16.6712
101.081	2.67242
104.456	0.822052
107.831	1.68765
111.206	3.20694
114.581	3.11517
117.955	1.67816
121.33	6.18137
124.705	2.32657
128.08	2.18256
131.455	0.410095
134.829	0.354553
138.204	6.81729
141.579	6.08655
144.954	7.59277
148.329	13.7357
151.704	28.1549
155.078	39.4126
158.453	54.4594
161.828	72.4297
165.203	96.1079
168.578	114.359
171.952	61.8126
175.327	26.9838
178.702	17.7432
182.077	10.3333
185.452	6.72424
188.827	4.75537
192.201	9.2959
195.576	14.5035
198.951	20.6744
202.326	35.5685
205.701	52.9718
209.076	65.8738
212.45	69.8116
215.825	60.8963
219.2	42.3417
222.575	25.7569
225.95	19.9603
229.324	16.7261
232.699	8.90994
236.074	11.0693
239.449	7.60507
242.824	8.3064
246.198	6.86844
249.573	6.04568
252.948	0.111237
256.323	0.71347
259.698	0.269592
263.073	0.316162
266.447	0.475906
269.822	0.184509
273.197	1.35243
276.572	2.20827
279.947	1.66057
283.322	1.87961
286.696	3.12322
290.071	8.20683
293.446	8.50349
296.821	13.2446
300.196	16.2673
303.57	23.5403
306.945	36.9607
310.32	56.3429
313.695	78.3189
317.07	71.8147
320.445	76.2379
323.819	102.374
327.194	131.34
330.569	169.613
333.944	204.831
337.319	275.305
340.693	411.846
344.068	571.104
347.443	551.397
350.818	347.753
354.193	201.536
357.567	138.809
360.942	114.097
364.317	121.012
367.692	140.219
371.067	144.561
374.442	116.206
377.816	72.9806
381.191	43.1291
384.566	24.8329
387.941	14.0183
391.316	9.1185
394.69	7.33261
398.065	3.68932
401.44	3.12778
404.815	2.68742
408.19	0.828125
411.565	0.048645
414.939	2.5714
418.314	1.00433
421.689	1.30135
425.064	2.9268
428.439	0.107071
431.813	0.541733
435.188	0.902176
438.563	1.98447
441.938	1.26817
445.313	3.08414
448.688	0.778992
452.062	2.57077
455.437	4.3886
458.812	4.17485
462.187	5.80025
465.562	11.2519
468.937	14.1669
472.311	22.547
475.686	34.8915
479.061	38.101
482.436	25.2194
485.81	21.7351
489.185	30.1933
492.56	52.2328
495.935	98.7729
499.31	142.642
502.685	95.9663
506.059	43.4107
509.434	19.1702
512.809	7.81552
516.184	6.22855
519.559	3.72586
522.933	4.94087
526.308	2.18588
529.683	2.0273
533.058	4.46663
536.433	12.2554
539.808	24.4374
543.182	33.1551
546.557	60.2642
549.932	99.1194
553.307	151.783
556.682	155.719
560.057	94.2679
563.431	47.6621
566.806	25.9478
570.181	14.2684
573.556	10.2276
576.931	8.35162
580.305	18.6796
583.68	24.6029
587.055	13.2408
590.43	8.32365
593.805	5.82164
597.18	6.18433
600.554	3.13118
603.929	2.36261
607.304	1.8029
610.679	2.25296
614.054	0.327011
617.428	4.8446
620.803	7.45932
624.178	16.4747
627.553	26.4806
630.928	41.5477
634.303	36.684
637.677	22.3479
641.052	15.4875
644.427	8.17731
647.802	5.07861
651.177	4.34749
654.552	5.30641
657.926	2.17476
661.301	3.64694
664.676	0.230667
668.051	3.13956
671.426	0.710968
674.8	2.45807
678.175	0.877686
681.55	2.57379
684.925	2.7428
688.3	0.847061
691.674	0.259979
695.049	1.94051
698.424	2.51488
701.799	3.01631
705.174	2.45418
708.548	1.85599
711.923	2.60268
715.298	4.86356
718.673	5.85486
722.048	5.55183
725.423	6.76363
728.797	4.23834
732.172	2.86636
735.547	4.94656
738.922	6.15292
742.297	5.37563
745.672	5.73761
749.046	6.54033
752.421	4.57561
755.796	4.05809
759.171	3.76663
762.546	3.9803
765.92	2.97604
769.295	2.7908
772.67	2.24498
776.045	2.50256
779.42	0.862015
782.795	1.91924
786.169	0.334335
789.544	1.53722
792.919	0.517685
796.294	0.202713
799.669	0.491257
803.043	3.16464
806.418	2.25944
809.793	0.652298
813.168	1.3087
816.543	0.584366
819.918	2.55388
823.292	1.94589
826.667	2.48923
830.042	0.328217
833.417	1.14726
836.792	1.58539
840.166	2.99615
843.541	6.42011
846.916	10.2064
850.291	20.0274
853.666	28.7406
857.04	46.2972
860.415	68.9202
863.79	73.9687
867.165	60.7013
870.54	44.8934
873.915	34.4799
877.289	33.1827
880.664	38.6497
884.039	50.803
887.414	66.3539
890.789	93.0033
894.163	131.978
897.538	180.664
900.913	237.817
904.288	345.283
907.663	525.839
911.038	819.43
914.412	1164.57
917.787	1190.37
921.162	807.356
924.537	458.159
927.912	266.54
931.287	160.964
934.661	102.094
938.036	62.4056
941.411	35.8504
944.786	24.9084
948.161	13.8896
951.535	6.71811
954.91	4.34312
958.285	3.49893
961.66	0.325638
965.035	0.318817
968.409	0.51609
971.784	1.49174
975.159	0.253487
978.534	0.799095
981.909	2.33363
985.284	0.53521
988.658	1.7709
992.033	0.521233
995.408	0.467873
998.783	0.765144
1002.16	2.6654
1005.53	3.37317
1008.91	5.89873
1012.28	8.74982
1015.66	13.1439
1019.03	13.127
1022.41	20.7918
1025.78	25.345
1029.16	38.9787
1032.53	52.1649
1035.91	67.1777
1039.28	77.3278
1042.66	76.9693
1046.03	62.4663
1049.4	42.7245
1052.78	29.7415
1056.15	17.7364
1059.53	10.9767
1062.9	7.00005
1066.28	5.54681
1069.65	4.99008
1073.03	2.88694
1076.4	2.13246
1079.78	4.07762
1083.15	0.597107
1086.53	1.71908
1089.9	2.03457
1093.28	1.01622
1096.65	1.16109
1100.03	1.33835
1103.4	0.387634
1106.78	0.363289
1110.15	1.85693
1113.53	1.85102
1116.9	1.99042
1120.28	1.9185
1123.65	0.20697
1127.03	1.28934
1130.4	0.433754
1133.78	2.27627
1137.15	1.98833
1140.53	0.681702
1143.9	1.93109
1147.28	1.60711
1150.65	2.47243
1154.03	3.54067
1157.4	2.72656
1160.77	4.13301
1164.15	3.5256
1167.52	4.07436
1170.9	3.75624
1174.27	5.25418
1177.65	3.84904
1181.02	4.05034
1184.4	3.588
1187.77	3.00964
1191.15	3.52799
1194.52	3.24358
1197.9	3.81073
1201.27	3.02212
1204.65	2.30805
1208.02	0.504753
1211.4	1.91796
1214.77	2.52934
1218.15	2.27837
1221.52	0.838089
1224.9	0.515739
1228.27	1.59293
1231.64	1.96558
1235.02	1.60371
1238.39	0.316101
1241.77	1.22121
1245.14	2.16813
1248.52	0.479584
1251.89	0.593185
1255.27	3.42609
1258.64	2.97657
1262.02	1.40263
1265.39	3.55519
1268.77	2.37023
1272.14	1.20345
1275.52	3.6387
1278.89	2.1999
1282.27	0
