Measurement: Raman, 514 nm, depolarized, Raman Data Processed
Mineral: Almandine
Rruff sample: R040079
Ideal chemistry: Fe^2+^_3_Al_2_(SiO_4_)_3_
Locality: Ontario, Canada
Source: University of Arizona Mineral Museum
Description: Dark red dodecahedral crystal
Measured chemistry: (Fe^2+^_2.29_Mg_0.53_Ca_0.18_)_Î£=3_Al_2.00_(Si_1.00_O_4_)_3_
Pin_id: M00037
Orientation: Laser parallel to a* (1 0 0). Fiducial mark perpendicular to laser is parallel to b [0 1 0]
Raman shift (cm-1)	intensity
90.487	0
94.682	5.518
98.874	257.753
103.064	196.872
107.252	121.682
111.437	215.558
115.62	134.989
119.801	511.262
123.98	454.806
128.157	124.107
132.331	64.311
136.503	61.633
140.673	199.512
144.841	334.759
149.007	296.382
153.17	269.532
157.331	264.77
161.49	317.87
165.647	387.122
169.801	584.534
173.953	735.184
178.104	734.62
182.251	326.908
186.397	120.905
190.541	3.006
194.682	2.579
198.821	0.476
202.958	103.706
207.093	241.694
211.225	432.289
215.356	554.505
219.484	570.398
223.61	542.332
227.734	330.796
231.855	142.207
235.975	29.146
240.092	72.885
244.207	24.464
248.32	53.333
252.431	57.961
256.539	51.627
260.646	35.863
264.75	10.679
268.852	6.73
272.952	64.715
277.05	158.838
281.146	185.615
285.239	185.425
289.33	231.213
293.419	280.317
297.506	277.498
301.591	408.547
305.674	486.539
309.755	521.186
313.833	641.245
317.909	968.182
321.983	1246.03
326.055	1143.9
330.125	1153.15
334.193	1583.05
338.258	2134.22
342.322	2662.25
346.383	4121.68
350.442	7410.12
354.499	10112.2
358.554	6743.99
362.607	3662.85
366.658	2491.25
370.706	2064.97
374.753	1871.17
378.797	1813.73
382.839	1552.59
386.879	1108.55
390.917	833.728
394.953	573.586
398.987	496.126
403.018	443.297
407.048	369.46
411.075	263.691
415.1	287.054
419.124	283.87
423.145	190.424
427.164	122.795
431.18	162.38
435.195	174.209
439.208	147.728
443.219	153.239
447.227	162.951
451.233	198.897
455.238	143.999
459.24	139.099
463.24	155.469
467.238	207.146
471.234	223.827
475.228	260.78
479.22	403.407
483.21	682.653
487.197	783.535
491.183	545.684
495.166	410.24
499.148	669.076
503.127	1494.93
507.104	2358.63
511.08	1495.35
515.053	789.46
519.024	564.577
522.993	519.617
526.96	404.202
530.925	383.836
534.888	372.323
538.848	408.697
542.807	483.291
546.764	586.405
550.718	840.538
554.671	1350.49
558.622	2460.88
562.57	3131.32
566.516	2407.31
570.461	1424.53
574.403	898.46
578.344	614.453
582.282	529.992
586.218	561.385
590.152	748.412
594.084	516.017
598.014	384.392
601.943	284.369
605.869	333.334
609.793	243.416
613.715	192.209
617.635	131.175
621.553	152.215
625.468	198.485
629.382	323.449
633.294	401.367
637.204	585.534
641.112	680.812
645.018	467.89
648.922	311.903
652.823	154.764
656.723	103.522
660.621	71.176
664.517	83.724
668.411	50.166
672.302	4.49
676.192	32.692
680.08	11.777
683.966	19.735
687.849	34.555
691.731	52.814
695.611	26.454
699.489	54.603
703.364	49.579
707.238	16.059
711.11	38.716
714.98	44.564
718.848	31.595
722.713	23.228
726.577	22.96
730.439	9.594
734.299	46.165
738.157	2.304
742.013	17.179
745.867	52.616
749.719	16.986
753.569	28.318
757.417	1.625
761.263	14.906
765.107	44.166
768.949	23.409
772.789	18.543
776.627	31.439
780.463	13.325
784.298	23.72
788.13	36.698
791.96	27.642
795.789	20.545
799.615	30.411
803.439	67.242
807.262	124.049
811.083	52.716
814.901	72.064
818.718	75.454
822.532	90.427
826.345	142.896
830.156	187.607
833.965	180.152
837.772	172.21
841.577	213.13
845.38	267.944
849.181	426.007
852.98	527.011
856.777	705.994
860.573	1051.36
864.366	1523.67
868.157	1971.73
871.947	1764.04
875.734	1399.25
879.52	1206.6
883.304	1211.11
887.086	1460.92
890.865	1932.32
894.643	2562.26
898.419	3329.48
902.194	4227.34
905.966	5549.52
909.736	8602.8
913.504	15199.3
917.271	25746
921.035	32632.7
924.798	24588.4
928.559	14273.5
932.317	8409.64
936.074	5345.28
939.829	3593.36
943.582	2342.6
947.334	1549.87
951.083	1208.28
954.83	986.735
958.576	982.49
962.319	811.685
966.061	724.235
969.801	561.676
973.539	551.237
977.275	538.813
981.009	574.76
984.741	609.916
988.472	502.192
992.2	427.853
995.927	377.84
999.651	327.438
1003.37	402.568
1007.1	469.702
1010.81	501.013
1014.53	497.515
1018.25	452.569
1021.96	564.831
1025.67	688.076
1029.38	883.392
1033.09	1201.89
1036.8	1504.37
1040.5	1750.09
1044.2	1851.61
1047.9	1708.06
1051.6	1463.54
1055.3	1045.23
1058.99	678.112
1062.68	458.787
1066.38	285.199
1070.07	234.768
1073.75	178.995
1077.44	147.807
1081.12	100.75
1084.8	103.605
1088.48	103.977
1092.16	98.246
1095.84	58.993
1099.51	15.057
1103.18	19.727
1106.86	38.067
1110.52	56.957
1114.19	12.448
1117.86	19.145
1121.52	12.598
1125.18	187.591
1128.84	2.554
1132.5	29.247
1136.15	10.973
1139.81	10.026
1143.46	2.307
1147.11	0.269
1150.76	17.923
1154.41	38.642
1158.05	32.571
1161.7	42.155
1165.34	84.618
1168.98	100.043
1172.61	58.324
1176.25	31.619
1179.88	90.724
1183.52	37.765
1187.15	83.598
1190.78	166.266
1194.4	190.156
1198.03	93.486
1201.65	48.107
1205.27	74.571
1208.89	8.221
1212.51	22.255
1216.13	46.469
1219.74	58.151
1223.35	49.746
1226.96	63.258
1230.57	49.573
1234.18	15.333
1237.78	15.565
1241.39	27.302
1244.99	55.86
1248.59	110.352
1252.19	61.178
1255.78	90.54
1259.38	84.463
1262.97	60.493
1266.56	60.643
1270.15	3.094
1273.74	25.312
1277.32	31.451
1280.91	75.154
1284.49	61.542
1288.07	49.149
1291.65	92.294
1295.22	51.571
1298.8	74.874
1302.37	59.539
1305.94	54.095
1309.51	79.265
1313.08	48.826
1316.65	103.428
1320.21	100.776
1323.77	111.481
1327.34	67.181
1330.89	88.081
1334.45	24.671
1338.01	81.933
1341.56	102.522
1345.11	43.949
1348.66	40.486
1352.21	101.072
1355.76	62.679
1359.3	81.218
1362.85	55.047
1366.39	33.314
1369.93	24.592
1373.46	78.5
1377	20.891
1380.54	34.414
1384.07	121.965
1387.6	82.174
1391.13	77.313
1394.65	93.153
1398.18	32.426
1401.7	45.769
1405.23	71.026
1408.75	11.924
1412.27	6.892
1415.78	54.86
1419.3	25.963
1422.81	13.693
1426.32	76.471
1429.83	3.581
1433.34	80.61
1436.85	58.806
1440.35	31.138
1443.86	80.369
1447.36	80.874
1450.86	79.317
1454.36	5.767
1457.85	75.891
1461.35	53.401
1464.84	91.12
1468.33	98.332
1471.82	15.032
1475.31	23.913
1478.8	16.784
1482.28	97.558
1485.76	82.405
1489.24	1.543
1492.72	8.275
1496.2	20.13
1499.67	56.998
1503.15	57.614
