Measurement: Raman, 514 nm, depolarized, Raman Data Processed
Mineral: Almandine
Rruff sample: R040076
Ideal chemistry: Fe^2+^_3_Al_2_(SiO_4_)_3_
Locality: Barton Garnet mine, Gore Mountain, Warren County, New York, USA
Source: University of Arizona Mineral Museum
Description: Red coarsely crystalline
Measured chemistry: (Fe^2+^_1.38_Mg_1.26_Ca_0.33_Mn_0.03_)_Î£=3_Al_2.00_(Si_1.00_O_4_)_3_; trace amounts of Ti
Pin_id: M00102
Orientation: Laser parallel to -a* (-1 0 0). Fiducial mark perpendicular to laser is parallel to b [0 1 0]
Raman shift (cm-1)	intensity
96.079	0
100.271	44.45
104.46	164.7
108.647	167.564
112.832	102.661
117.014	136.369
121.195	181.654
125.373	101.612
129.549	30.67
133.722	113.488
137.894	98.23
142.063	59.527
146.23	153.936
150.395	192.713
154.557	117.251
158.718	104.378
162.876	112.16
167.032	48.544
171.186	42.908
175.337	53.042
179.486	133.318
183.634	203.053
187.779	125.634
191.921	126.562
196.062	25.081
200.2	38.086
204.336	181.813
208.47	269.726
212.602	249.47
216.732	262.914
220.859	348.841
224.985	281.515
229.108	158.952
233.229	60.048
237.347	297.916
241.464	284.608
245.578	135.137
249.691	168.507
253.801	290.725
257.908	193.411
262.014	39.679
266.118	0.625
270.219	75.905
274.318	21.142
278.415	182.219
282.51	302.761
286.603	301.584
290.694	270.615
294.782	295.141
298.868	457.801
302.952	429.802
307.034	389.483
311.114	391.227
315.192	615.352
319.267	697.602
323.341	863.32
327.412	856.289
331.481	1062.62
335.548	1300.61
339.613	1761.48
343.676	2345.94
347.736	3401.04
351.795	4555.77
355.851	6537.96
359.905	8864.99
363.957	8548.78
368.007	6026.88
372.055	4228.1
376.101	3430.26
380.145	3010.34
384.186	2292.4
388.225	1699.46
392.263	1269.48
396.298	1050.18
400.331	768.02
404.362	377.727
408.39	293.563
412.417	340.236
416.442	183.898
420.464	84.284
424.485	126.883
428.503	138.633
432.519	169.972
436.533	7.736
440.545	18.54
444.555	96.496
448.563	157.191
452.568	1.473
456.572	86.363
460.574	144.376
464.573	173.38
468.57	134.646
472.566	37.299
476.559	175.503
480.55	400.18
484.539	339.676
488.526	311.001
492.511	331.165
496.494	434.169
500.474	410.071
504.453	499.826
508.43	945.595
512.404	1240.15
516.377	876.651
520.347	587.928
524.315	417.012
528.282	533.015
532.246	705.611
536.208	602.554
540.168	560.273
544.126	707.813
548.082	1097.13
552.036	1508.67
555.988	2109.81
559.938	3398
563.886	4710.96
567.831	3760.99
571.775	2167.65
575.717	1023.29
579.656	683.93
583.594	576.474
587.53	650.41
591.463	536.552
595.395	422.422
599.324	325.42
603.251	472.062
607.177	577.076
611.1	301.682
615.022	309.401
618.941	357.683
622.858	432.675
626.773	372.265
630.687	374.195
634.598	344.062
638.507	572.934
642.414	855.278
646.319	828.638
650.222	503.483
654.124	385.35
658.023	501.088
661.92	501.621
665.815	800.949
669.708	51.072
673.599	79.97
677.488	217.618
681.375	200.97
685.26	23.016
689.143	43.196
693.025	0.737
696.904	109.398
700.781	120.137
704.656	76.463
708.529	70.6
712.4	51.921
716.269	160.193
720.136	165.116
724.002	90.696
727.865	61.056
731.726	32.737
735.585	84.245
739.442	236.073
743.298	171.744
747.151	7.748
751.002	88.322
754.852	31.876
758.699	239.027
762.544	221.111
766.388	22.116
770.229	80.907
774.069	138.933
777.906	212.201
781.742	310.881
785.575	109.467
789.407	90.07
793.237	3.797
797.064	253.423
800.89	382.572
804.714	262.686
808.536	168.755
812.356	146.809
816.174	322.858
819.99	514.682
823.804	507.649
827.616	438.715
831.426	222.118
835.234	320.045
839.04	449.608
842.845	738.007
846.647	678.489
850.447	770.46
854.246	1032.47
858.043	1627.38
861.837	2370.2
865.63	2544.2
869.421	2151.55
873.21	1657.53
876.997	1445.09
880.782	1653.6
884.565	1957.28
888.346	2238.19
892.125	2523.79
895.902	2971.54
899.678	3895.1
903.451	5227.92
907.223	7826.52
910.992	12144.1
914.76	19903.2
918.526	31111.2
922.29	34855.9
926.052	25865.3
929.812	15663.2
933.57	9453.34
937.326	6100.3
941.081	3822.34
944.833	2675.65
948.584	2145.53
952.332	1868.34
956.079	1528.77
959.824	1228.82
963.567	822.847
967.308	729.569
971.047	801.336
974.784	887.267
978.52	830.248
982.253	606.098
985.985	460.363
989.715	490.54
993.443	461.857
997.169	582.883
1000.89	621.776
1004.62	830.558
1008.34	628.996
1012.05	294.121
1015.77	313.281
1019.49	604.898
1023.2	891.109
1026.91	1168.67
1030.62	1011.79
1034.33	794.654
1038.03	739.088
1041.73	955.681
1045.43	1401.02
1049.13	1687.53
1052.83	1613.63
1056.53	1179.91
1060.22	424.362
1063.91	375.349
1067.61	271.669
1071.29	411.596
1074.98	516.325
1078.67	525.606
1082.35	317.012
1086.03	117.305
1089.71	71.966
1093.39	12.882
1097.06	78.785
1100.74	313.689
1104.41	455.517
1108.08	420.247
1111.75	2.163
1115.41	3.353
1119.08	16.113
1122.74	197.454
1126.4	389.039
1130.06	248.578
1133.72	218.095
1137.37	105.606
1141.03	133.934
1144.68	126.58
1148.33	49.372
1151.98	269.666
1155.62	480.628
1159.27	457.578
1162.91	264.456
1166.55	0.657
1170.19	21.752
1173.83	116.181
1177.46	232.14
1181.1	499.15
1184.73	476.24
1188.36	583.435
1191.98	180.73
1195.61	88.169
1199.24	95.836
1202.86	73.812
1206.48	174.604
1210.1	552.776
1213.72	581.21
1217.33	661.36
1220.94	311.538
1224.56	288.519
1228.17	83.626
1231.78	135.634
1235.38	342.581
1238.99	497.805
1242.59	738.414
1246.19	606.126
1249.79	544.337
1253.39	364.215
1256.98	145.912
1260.58	69.585
1264.17	224.316
1267.76	461.175
1271.35	528.946
1274.93	667.391
1278.52	734.593
1282.1	436.821
1285.68	352.002
1289.26	194.257
1292.84	43.798
1296.42	147.57
1299.99	221.215
1303.56	435.848
1307.13	512.09
1310.7	678.928
1314.27	445.857
1317.84	223.172
1321.4	61.223
1324.96	61.386
1328.52	73.323
1332.08	147.661
1335.64	424.337
1339.19	584.816
1342.74	780.321
1346.3	643.244
1349.85	478.916
1353.39	0
