Measurement: Raman, 514 nm, depolarized, Raman Data Processed
Mineral: Almandine
Rruff sample: R060099
Ideal chemistry: Fe^2+^_3_Al_2_(SiO_4_)_3_
Locality: Alaska, USA
Source: Roland Boehne
Description: Red cube shaped single crystal
Measured chemistry: (Fe^2+^_1.63_Mg_0.57_Mn_0.56_Ca_0.24_)_Σ=3_(Al_1.98_Fe^3+^_0.02_)_Σ=2_(Si_1.00_O_4_)_3_
Pin_id: M00497
Orientation: Laser parallel to -a* (-1 0 0). Fiducial mark perpendicular to laser is parallel to c [0 0 1]
Raman shift (cm-1)	intensity
93.48	0
98.416	55.9224
103.349	67.2148
108.28	345.224
113.208	332.704
118.134	251.365
123.058	164.805
127.979	75.686
132.898	109.039
137.814	197.948
142.728	192.932
147.639	120.882
152.549	414.631
157.455	578.872
162.359	892.366
167.261	1139.91
172.161	954.729
177.058	389.706
181.952	147.167
186.845	187.712
191.734	372.365
196.622	612.269
201.507	808.269
206.389	936.62
211.269	1148.22
216.147	814.062
221.022	469.143
225.895	464.449
230.765	237.961
235.633	352.666
240.498	249.671
245.361	142.931
250.222	115.545
255.08	187.209
259.936	213.792
264.789	65.1128
269.64	112.643
274.488	134.228
279.334	114.867
284.178	253.695
289.019	300.019
293.857	284.536
298.693	425.911
303.527	623.036
308.358	885.805
313.187	1405.68
318.013	1394.73
322.837	1777.94
327.659	2566.31
332.478	3886.82
337.294	6839.45
342.108	11222.2
346.92	11784
351.729	7023.78
356.535	3640.66
361.34	2715.58
366.141	2571.53
370.94	2481.5
375.737	1696.49
380.531	899.499
385.323	469.551
390.113	200.794
394.9	201.231
399.684	129.879
404.466	153.589
409.245	24.5044
414.022	31.5254
418.797	23.3291
423.569	2.22656
428.338	66.9541
433.105	68.7686
437.87	51.3506
442.632	4.43311
447.391	20.5439
452.149	46.1294
456.903	269.721
461.655	709.222
466.405	628.632
471.152	738.934
475.897	936.115
480.639	749.207
485.378	578.162
490.116	944.974
494.85	2110.64
499.582	2540.16
504.312	1518.6
509.039	827.898
513.764	446.06
518.486	428.09
523.206	522.05
527.923	564.477
532.638	601.55
537.35	766.785
542.059	1266.26
546.766	2266.39
551.471	3920.3
556.173	4103.3
560.873	2441.58
565.57	1310.8
570.264	758.744
574.957	632.401
579.646	814.268
584.333	626.182
589.018	646.55
593.7	572.983
598.379	427.582
603.056	266.541
607.73	250.73
612.402	329.538
617.072	353.056
621.739	566.129
626.403	853.894
631.065	1014.35
635.724	814.531
640.381	419.416
645.035	347.185
649.687	287.404
654.336	262.774
658.983	214.579
663.627	55.8599
668.268	29.7236
672.907	20.1343
677.544	55.019
682.178	83.4477
686.809	74.4497
691.438	63.5947
696.065	72.9463
700.688	46.4004
705.31	70.6387
709.929	38.2295
714.545	21.5835
719.158	120.042
723.77	3.40478
728.378	13.5469
732.984	63.5117
737.588	24.2764
742.189	31.8394
746.787	9.20996
751.383	157.414
755.976	61.4473
760.567	71.2798
765.155	52.9805
769.741	0.439453
774.324	11.9741
778.904	48.665
783.482	79.3799
788.058	50.6792
792.631	80.0767
797.201	33.7153
801.769	90.5762
806.334	173.757
810.897	155.383
815.457	189.914
820.014	293.294
824.569	156.753
829.122	158.614
833.671	285.848
838.219	337.247
842.763	422.014
847.306	651.009
851.845	1167.16
856.382	1831.48
860.917	2563.11
865.448	2294.73
869.978	1571.03
874.505	1619.78
879.029	1781.37
883.55	2354.73
888.069	3280.57
892.586	4621.49
897.1	6484.77
901.611	9684.29
906.12	17791
910.626	32997.8
915.129	44223.3
919.63	33736.5
924.129	17403.6
928.625	8940.85
933.118	5142.97
937.609	3139.59
942.097	1827.59
946.582	1214.94
951.065	949.726
955.546	759.857
960.023	578.357
964.499	580.357
968.971	441.479
973.441	423.715
977.909	409.947
982.374	283.329
986.836	263.685
991.295	244.467
995.753	241.399
1000.21	443.324
1004.66	455.503
1009.11	267.969
1013.55	451.732
1018	563.398
1022.44	874.003
1026.88	1166.83
1031.32	1392.88
1035.75	2073.12
1040.18	2287.55
1044.61	2010.16
1049.04	1297.01
1053.46	707.089
1057.88	253.351
1062.3	204.833
1066.71	106.54
1071.13	163.794
1075.54	56.8867
1079.94	82.1768
1084.35	42.8115
1088.75	188.018
1093.15	37.7051
1097.55	30.1328
1101.94	32.5273
1106.34	57.3877
1110.73	96.4844
1115.11	52.876
1119.5	14.6055
1123.88	141.081
1128.26	87.5644
1132.63	87.2383
1137.01	4.55957
1141.38	121.823
1145.75	11.8916
1150.12	121.403
1154.48	72.3174
1158.84	73.0098
1163.2	171.665
1167.55	89.2773
1171.91	153.843
1176.26	288.356
1180.61	247.811
1184.95	200.204
1189.29	160.527
1193.63	158.65
1197.97	197.993
1202.31	128.1
1206.64	153.573
1210.97	80.0361
1215.29	227.682
1219.62	109.141
1223.94	236.69
1228.26	227.324
1232.57	188.969
1236.89	58.6279
1241.2	373.259
1245.51	246.107
1249.81	213.92
1254.12	120.866
1258.42	164.871
1262.72	175.978
1267.01	189.634
1271.3	261.364
1275.59	313.673
1279.88	220.689
1284.17	281.236
1288.45	188.099
1292.73	263.884
1297.01	118.601
1301.28	84.2471
1305.55	174.828
1309.82	158.346
1314.09	180.804
1318.35	149.204
1322.61	16.5146
1326.87	225.695
1331.13	67.2217
1335.38	3.92676
1339.63	33.5147
1343.88	1.34277
1348.12	141.321
1352.37	51.5459
1356.61	79.4121
1360.85	2.53418
1365.08	95.1865
1369.31	178.115
1373.54	111.188
1377.77	54.8721
1381.99	16.7754
1386.22	2.16211
1390.43	141.249
1394.65	96.5225
1398.87	63.9824
1403.08	218.536
1407.29	36.1875
1411.49	35.8887
1415.69	63.2334
1419.89	70.3564
1424.09	143.335
1428.29	115.336
1432.48	58.8672
1436.67	136.732
1440.86	368.952
1445.04	282.292
1449.23	290.787
1453.4	425.916
1457.58	454.574
1461.76	375.63
1465.93	372.827
1470.1	302.213
1474.26	161.1
1478.43	213.815
1482.59	126.881
1486.75	258.917
1490.9	373.963
1495.06	118.431
1499.21	177.81
1503.35	8.06445
1507.5	32.1309
1511.64	147.041
1515.78	57.6924
1519.92	205.808
1524.05	258.236
1528.18	144.144
1532.31	145.641
1536.44	110.447
1540.56	126.038
1544.69	66.7363
1548.8	155.176
1552.92	265.477
1557.03	30.4277
1561.14	103.642
1565.25	113.636
1569.36	162.892
