Measurement: Raman, 514 nm, depolarized, Raman Data Processed
Mineral: Almandine
Rruff sample: R040168
Ideal chemistry: Fe^2+^_3_Al_2_(SiO_4_)_3_
Locality: Pocos Dos Cavatos, Ceara, Brazil
Source: University of Arizona Mineral Museum
Description: Dark red etched single crystal
Measured chemistry: (Fe^2+^_1.48_Mn_1.47_Ca_0.05_)_Î£=3_Al_2.00_(Si_1.00_O_4_)_3_; trace amounts of Ti and Y
Pin_id: L00513
Orientation: Laser parallel to -a* (-1 0 0). Fiducial mark perpendicular to laser is parallel to -c [0 0 -1]
Raman shift (cm-1)	intensity
82.916	0
87.101	226.144
91.284	117.291
95.465	30.583
99.644	21.582
103.82	89.993
107.995	255.052
112.168	333.259
116.339	386.016
120.508	203.481
124.675	126.863
128.84	53.228
133.003	4.4
137.164	91.076
141.323	175.992
145.48	154.213
149.635	81.054
153.788	122.898
157.939	312.694
162.088	1278.08
166.235	2225.36
170.38	931.62
174.523	473.731
178.664	343.729
182.803	161.546
186.94	72.568
191.076	23.764
195.209	62.063
199.34	93
203.47	42.112
207.597	179.058
211.722	416.701
215.846	918.597
219.967	1050.5
224.087	703.887
228.204	369.887
232.32	207.263
236.434	172.341
240.545	69.088
244.655	104.466
248.763	46.329
252.869	139.544
256.973	130.504
261.075	148.546
265.175	174.998
269.273	206.404
273.369	202.657
277.463	286.345
281.556	296.178
285.646	377.466
289.734	489.525
293.821	578.749
297.905	793.15
301.988	886.96
306.069	975.646
310.147	1155.04
314.224	1807.88
318.299	2743.86
322.372	3871.64
326.443	3501.43
330.512	2920.35
334.579	3349.71
338.645	5631.84
342.708	11286.8
346.769	16474.4
350.829	10899.8
354.887	5297.06
358.942	3384.96
362.996	3061.83
367.048	4019.29
371.098	5962.21
375.146	5655.86
379.192	3274.26
383.236	1740.53
387.279	962.66
391.319	691.12
395.358	452.342
399.394	341.152
403.429	252.625
407.462	201.925
411.493	167.564
415.522	107.085
419.549	83.034
423.575	91.067
427.598	108.742
431.619	32.156
435.639	1.295
439.657	31.011
443.673	5.686
447.687	2.995
451.699	16.325
455.709	26.434
459.717	67.237
463.724	111.836
467.728	210.258
471.731	425.559
475.732	641.773
479.731	410.904
483.728	247.924
487.723	233.935
491.716	374.166
495.708	958.574
499.697	1825.35
503.685	1134.08
507.671	535.144
511.655	361.388
515.637	305.634
519.617	315.179
523.596	382.962
527.572	452.259
531.547	452.891
535.52	560.332
539.491	767.982
543.46	1269.39
547.427	2310.77
551.393	4140.86
555.356	4420.48
559.318	2719.26
563.278	1487.11
567.236	910.464
571.192	622.837
575.147	478.611
579.099	453.076
583.05	414.098
586.999	420.776
590.946	537.353
594.891	552.514
598.834	291.588
602.776	192.027
606.715	170.603
610.653	107.574
614.589	132.689
618.523	191.064
622.456	243.738
626.386	424.205
630.315	527.168
634.242	354.01
638.167	210.73
642.09	133.331
646.012	60.812
649.931	50.165
653.849	0.388
657.765	2.54
661.679	9.012
665.592	5.093
669.502	25.349
673.411	26.519
677.318	19.027
681.223	31.259
685.126	34.805
689.028	35.667
692.927	10.81
696.825	3.818
700.721	6.751
704.616	33.525
708.508	30.566
712.399	13.825
716.288	7.239
720.175	6.787
724.06	57.534
727.944	48.784
731.825	20.987
735.705	43.148
739.584	34.171
743.46	48.38
747.334	32.459
751.207	29.52
755.078	50.569
758.947	72.612
762.815	69.654
766.68	59.507
770.544	82.757
774.406	104.523
778.267	105.538
782.125	152.539
785.982	209.518
789.837	205.494
793.69	151.472
797.542	191.454
801.391	237.051
805.239	287.489
809.085	371.106
812.93	424.626
816.772	501.916
820.613	486.006
824.452	431.365
828.29	432.37
832.125	458.713
835.959	473.848
839.791	581.089
843.621	728.195
847.45	989.963
851.277	1361.74
855.102	1884.27
858.925	1892.71
862.746	1603.08
866.566	1549.66
870.384	1551.4
874.2	1631.57
878.015	1997.38
881.828	2765.77
885.639	3844.11
889.448	4945.69
893.256	6282.37
897.061	8760.16
900.865	14138
904.668	25336
908.468	43574.1
912.267	49832.3
916.064	34330.6
919.86	19449.1
923.653	11367.6
927.445	7183.23
931.236	4708.98
935.024	3264.86
938.811	2230.89
942.596	1711.95
946.379	1287.93
950.161	1105.59
953.94	989.631
957.719	926.171
961.495	823.027
965.27	761.048
969.043	751.777
972.814	729.115
976.583	652.373
980.351	607.454
984.117	482.255
987.882	459.458
991.644	448.392
995.405	477.339
999.165	448.747
1002.92	523.312
1006.68	559.024
1010.43	556.898
1014.18	655.975
1017.93	707.205
1021.68	857.558
1025.43	1129.04
1029.18	1616.66
1032.92	1913.36
1036.66	1585.17
1040.4	983.068
1044.14	605.07
1047.88	424.161
1051.62	322.338
1055.35	231.6
1059.08	163.955
1062.81	98.395
1066.54	99.908
1070.27	39.497
1073.99	90.176
1077.72	84.934
1081.44	69.775
1085.16	2.323
1088.88	30.373
1092.59	17.422
1096.31	25.45
1100.02	23.464
1103.73	49.487
1107.44	21.607
1111.15	32.783
1114.86	23.066
1118.57	54.461
1122.27	90.025
1125.97	35.531
1129.67	26.955
1133.37	1.464
1137.07	14.807
1140.76	6.117
1144.45	23.376
1148.15	83.609
1151.84	105.824
1155.53	132.311
1159.21	205.074
1162.9	237.925
1166.58	198.333
1170.26	197.452
1173.94	208.851
1177.62	203.488
1181.3	221.247
1184.97	159.126
1188.65	183.588
1192.32	215.058
1195.99	177.206
1199.66	178.217
1203.33	146.958
1206.99	111.328
1210.65	112.912
1214.32	131.254
1217.98	133.934
1221.64	106.515
1225.29	108.428
1228.95	112.323
1232.6	118.911
1236.26	157.366
1239.91	176.626
1243.56	184.71
1247.2	186.201
1250.85	213.97
1254.49	257.16
1258.13	247.125
1261.78	214.031
1265.41	222.056
1269.05	239.851
1272.69	208.237
1276.32	205.357
1279.95	161.678
1283.59	172.294
1287.21	106.847
1290.84	127.694
1294.47	79.991
1298.09	60.14
1301.72	17.102
1305.34	10.163
1308.96	43.522
1312.58	16.902
1316.19	8.103
1319.81	35.122
1323.42	16.971
1327.03	32.628
1330.64	8.096
1334.25	9.613
1337.86	1.475
1341.46	5.451
1345.07	7.199
1348.67	25.774
1352.27	13.172
1355.87	15.403
1359.46	3.478
1363.06	9.509
1366.65	10.757
1370.25	30.133
1373.84	17.382
1377.43	21.632
1381.02	35.749
1384.6	25.712
1388.18	35.634
1391.77	27.609
1395.35	29.709
1398.93	27.696
1402.51	49.719
1406.08	25.714
1409.66	16.601
1413.23	42.207
1416.8	43.679
1420.37	90.978
1423.94	98.549
1427.51	99.53
1431.08	75.655
1434.64	73.914
1438.2	54.652
1441.76	88.502
1445.32	64.506
1448.88	15.928
1452.43	69.738
1455.99	60.411
1459.54	97.758
1463.09	96.113
1466.64	115.931
1470.19	82.556
1473.74	80.019
1477.28	69.691
1480.83	41.115
1484.37	78.268
1487.91	72.103
1491.45	40.029
1494.98	60.1
1498.52	29.488
1502.05	32.888
1505.59	45.001
1509.12	58.71
1512.65	13.3
1516.17	32.032
