Measurement: Raman, 514 nm, depolarized, Raman Data Processed
Mineral: Amblygonite
Rruff sample: R040006
Ideal chemistry: LiAlPO_4_F
Locality: Pala, San Diego County, California, USA
Source: University of Arizona Mineral Museum
Description: Light gray coarsely crystalline massive
Measured chemistry: LiAl_1.00_(P_1.00_O_4_)(F_0.73_(OH)_0.27_)_Î£=1_; Li assumed by stoichiometry; OH estimated by charge balance
Pin_id: l00058
Orientation: Laser parallel to (0 1 1). Fiducial mark perpendicular to laser is parallel to a [1 0 0]
Raman shift (cm-1)	intensity
116.172	0
120.347	76.566
124.519	435.917
128.69	771.139
132.858	789.861
137.025	590.28
141.189	576.409
145.352	780.443
149.512	994.165
153.67	1620.48
157.827	2434.16
161.981	3253.18
166.133	3446.46
170.283	2849.98
174.431	2129.56
178.577	1832.3
182.721	1535.66
186.863	1346.49
191.003	1129.93
195.141	984.841
199.277	572.169
203.411	328.998
207.543	165.555
211.673	53.825
215.801	37.713
219.927	14.103
224.051	29.104
228.173	81.998
232.292	33.728
236.41	136.391
240.526	14.985
244.64	46.512
248.752	29.67
252.861	186.577
256.969	254.759
261.075	587.413
265.179	1138.67
269.281	1528.91
273.38	1803.28
277.478	1394.78
281.574	1393.86
285.668	1619.51
289.76	2326.26
293.85	4691.75
297.937	9583.57
302.023	14945.5
306.107	12807.3
310.189	8569
314.269	6410.39
318.347	4231.42
322.423	2292.18
326.497	1462.74
330.569	1142.09
334.639	868.146
338.707	629.361
342.773	734.46
346.837	580.864
350.899	608.208
354.96	586.648
359.018	695.176
363.074	719.784
367.128	714.928
371.181	739.392
375.231	574.26
379.28	485.322
383.326	445.663
387.37	374.085
391.413	269.912
395.454	246.337
399.492	236.23
403.529	292.564
407.564	285.034
411.596	439.27
415.627	863.979
419.656	2086.56
423.683	4875.25
427.708	4434.03
431.731	1832.91
435.752	671.832
439.772	477.784
443.789	326.78
447.804	382.783
451.817	424.051
455.829	515.585
459.838	752.347
463.846	897.025
467.852	1162.65
471.855	1941.17
475.857	2949.57
479.857	4017.86
483.855	4286.04
487.851	4304.11
491.845	3662.06
495.837	2899.89
499.828	2257.62
503.816	1725.26
507.802	1132.8
511.787	780.252
515.77	472.608
519.75	343.866
523.729	248.021
527.706	111.1
531.681	39.627
535.654	48.547
539.625	16.744
543.595	43.971
547.562	60.465
551.527	12.968
555.491	7.154
559.453	95.914
563.412	34.099
567.37	25.832
571.326	141.199
575.28	192.228
579.233	229.546
583.183	341.827
587.131	474.932
591.078	583.913
595.022	991.076
598.965	2109.65
602.906	3268.76
606.845	2303.58
610.782	1538.06
614.718	1331.88
618.651	1575.7
622.582	1954.3
626.512	2897.22
630.44	4539.65
634.366	5461.83
638.29	6013.75
642.212	10715.4
646.132	15676.8
650.05	10038
653.967	4598.89
657.882	2349.53
661.794	1419.91
665.705	880.034
669.614	679.893
673.522	549.488
677.427	368.82
681.331	367.889
685.232	166.177
689.132	161.164
693.03	143.121
696.926	109.151
700.82	199.578
704.713	51.698
708.603	113.62
712.492	12.598
716.379	125.026
720.264	170.018
724.147	155.124
728.028	24.792
731.908	21.387
735.785	212.49
739.661	77.784
743.535	100.724
747.407	154.062
751.278	136.233
755.146	28.917
759.013	91.181
762.878	62.72
766.741	120.3
770.602	98.851
774.461	19.222
778.319	179.271
782.174	149.025
786.028	288.562
789.88	407.885
793.73	477
797.579	785.912
801.425	904.63
805.27	1153.15
809.113	1051.49
812.954	1089.66
816.794	1057.64
820.631	1015.46
824.467	813.121
828.301	580.625
832.133	477.979
835.963	255.19
839.792	221.953
843.618	208.558
847.443	75.021
851.266	49.648
855.088	64.027
858.907	50.065
862.725	184.668
866.541	171.936
870.355	123.805
874.167	6.945
877.978	72.339
881.787	163.479
885.594	3.889
889.399	102.561
893.202	20.595
897.004	31.569
900.803	40.217
904.601	36.647
908.398	143.424
912.192	175.661
915.985	39.544
919.776	84.075
923.565	191.429
927.352	45.251
931.138	307.648
934.922	83.675
938.704	170.059
942.484	286.553
946.262	233.17
950.039	419.93
953.814	446.875
957.587	503.99
961.359	601.25
965.128	578.659
968.896	856.222
972.662	1194.04
976.427	1192.07
980.189	1620.27
983.95	2338.66
987.709	2997.27
991.467	4716.19
995.222	7615.31
998.976	11834.8
1002.73	17254
1006.48	23009.2
1010.23	26119.6
1013.97	23210.3
1017.72	17541.2
1021.46	11930
1025.2	8201.79
1028.94	6213.23
1032.68	5460.11
1036.42	5393.86
1040.15	5957.49
1043.89	6989.6
1047.62	7963.54
1051.35	9397.87
1055.07	12152
1058.8	17667.4
1062.52	22832.1
1066.25	19356.7
1069.97	11249
1073.69	6055.28
1077.4	3751.78
1081.12	2338.53
1084.83	1535.63
1088.55	1052.97
1092.26	940.672
1095.96	738.432
1099.67	890.72
1103.38	952.215
1107.08	1080.99
1110.78	999.715
1114.48	1178.55
1118.18	1267.9
1121.88	1478.12
1125.57	1428.2
1129.27	1258.13
1132.96	788.607
1136.65	787.656
1140.34	468.117
1144.02	142.354
1147.71	377.938
1151.39	246.809
1155.07	199.271
1158.75	251.684
1162.43	307.252
1166.11	129.984
1169.78	179.738
1173.45	134.459
1177.12	365.586
1180.79	457.77
1184.46	508.406
1188.13	591.859
1191.79	987.51
1195.45	902.229
1199.11	918.795
1202.77	821.705
1206.43	892.098
1210.09	904.213
1213.74	954.559
1217.39	784.688
1221.05	394.424
1224.69	424.424
1228.34	413.754
1231.99	86.613
1235.63	150.635
1239.27	390.08
1242.91	239.291
1246.55	218.08
1250.19	207.506
1253.83	166.379
1257.46	94.912
1261.09	38.484
1264.72	154.088
1268.35	55.221
1271.98	252.648
1275.61	219.395
1279.23	45.227
1282.85	150.234
1286.47	34.848
1290.09	40.514
1293.71	92.619
1297.33	3.113
1300.94	145.896
1304.55	357.797
1308.16	228.914
1311.77	419.268
1315.38	119.098
1318.99	228.432
1322.59	37.199
1326.19	94.592
1329.79	32.992
1333.39	90.102
1336.99	286.719
1340.59	362.812
1344.18	308.391
1347.77	313.508
1351.37	258.217
1354.95	312.627
1358.54	256.611
1362.13	210.305
1365.71	294.33
1369.3	287.637
1372.88	151.039
1376.46	294.104
1380.04	357.389
1383.61	370.523
1387.19	525.295
1390.76	96.576
1394.33	185.562
1397.9	375.182
1401.47	162.924
1405.04	278.051
1408.6	314.395
1412.16	475.039
1415.72	648.506
1419.29	199.393
1422.84	164.508
1426.4	369.234
1429.96	20.352
1433.51	223.84
1437.06	17.965
1440.61	91.881
1444.16	398.938
1447.71	394.797
1451.25	473.75
1454.8	604.639
1458.34	362.102
1461.88	508.336
1465.42	363.734
1468.96	232.299
1472.49	346
1476.03	450.691
1479.56	386.861
1483.09	301.627
1486.62	419.488
1490.15	557.086
1493.67	716.574
1497.2	599.029
1500.72	633.738
1504.24	342.08
1507.76	405.355
1511.28	334.666
1514.8	223.857
1518.31	3.27
