Measurement: Raman, 514 nm, depolarized, Raman Data Processed
Mineral: Amblygonite
Rruff sample: R040006
Ideal chemistry: LiAlPO_4_F
Locality: Pala, San Diego County, California, USA
Source: University of Arizona Mineral Museum
Description: Light gray coarsely crystalline massive
Measured chemistry: LiAl_1.00_(P_1.00_O_4_)(F_0.73_(OH)_0.27_)_Î£=1_; Li assumed by stoichiometry; OH estimated by charge balance
Pin_id: l00499
Orientation: Laser parallel to (1 0 1). Fiducial mark perpendicular to laser is parallel to -b [0 -1 0]
Raman shift (cm-1)	intensity
102.242	0
106.423	178.83
110.603	335.292
114.78	637.113
118.956	1007.97
123.129	1329.98
127.3	2136.05
131.469	2752.63
135.636	2133.9
139.801	1334.8
143.964	912.622
148.125	809.667
152.284	769.949
156.441	909.004
160.596	992.333
164.749	1141.86
168.9	971.307
173.049	765.798
177.195	768.452
181.34	623.951
185.483	507.477
189.624	393.306
193.762	264.298
197.899	133.305
202.034	67.11
206.166	0.489
210.297	49.247
214.425	38.799
218.552	17.165
222.676	54.975
226.799	65.46
230.919	48.139
235.038	41.109
239.154	59.733
243.269	34.925
247.381	19.631
251.492	16.538
255.6	70.238
259.707	106.123
263.811	448.842
267.914	959.746
272.014	1334.42
276.113	1618.65
280.209	1459.44
284.304	1547.12
288.396	1857.39
292.487	3058.11
296.575	6140.14
300.662	11463.4
304.746	12645.7
308.829	8727.2
312.909	6137.96
316.988	4267.99
321.065	2728.74
325.139	1945.31
329.212	1571.95
333.283	1186.44
337.351	965.607
341.418	722.971
345.483	689.892
349.546	496.702
353.606	556.475
357.665	605.194
361.722	682.727
365.777	651.327
369.83	664.897
373.881	719.692
377.93	579.13
381.977	543.109
386.023	473.721
390.066	402.331
394.107	308.68
398.146	308.632
402.184	222.257
406.219	217.89
410.252	120.711
414.284	190.918
418.313	226.643
422.341	635.846
426.367	1377.12
430.39	911.848
434.412	440.575
438.432	311.124
442.45	258.475
446.466	295.727
450.48	355.794
454.492	362.704
458.502	420.452
462.51	656.038
466.517	982.479
470.521	1505.77
474.523	2329.87
478.524	3706.78
482.523	4586.52
486.519	4506.09
490.514	4136.64
494.507	3344.81
498.498	2761.97
502.487	2051.02
506.474	1328.96
510.459	894.783
514.442	554.499
518.424	402.1
522.403	240.591
526.381	30.999
530.356	24.623
534.33	25.686
538.302	11.073
542.272	60.497
546.24	43.418
550.206	58.361
554.17	2.61
558.132	65.526
562.093	71.615
566.051	30.146
570.008	3.513
573.963	93.535
577.915	54.349
581.866	20.696
585.815	191.367
589.763	307.298
593.708	413.259
597.651	822.031
601.593	1502.5
605.532	1782.22
609.47	1391.72
613.406	1272.07
617.34	1409.24
621.272	2096.94
625.202	3011.2
629.131	4737.48
633.057	6793.35
636.982	7839.02
640.905	12344.5
644.825	25549.7
648.744	26924.8
652.662	12509.7
656.577	5724.36
660.49	3008.83
664.402	1868.09
668.312	1260.16
672.219	784.022
676.125	643.685
680.03	468.144
683.932	429.32
687.832	301.967
691.731	233.501
695.628	82.523
699.522	306.345
703.415	263.688
707.307	550.733
711.196	710.811
715.083	523.369
718.969	375.978
722.853	304.755
726.735	76.932
730.615	87.276
734.493	131.234
738.37	56.812
742.244	2.257
746.117	31.179
749.988	109.931
753.857	85.374
757.724	6.975
761.59	60.382
765.453	59.437
769.315	83.334
773.175	92.61
777.033	16.428
780.889	150.193
784.744	277.588
788.596	188.801
792.447	409.841
796.296	401.712
800.143	600.42
803.989	704.968
807.832	805.363
811.674	839.61
815.514	723.714
819.352	757.679
823.189	532.51
827.023	422.216
830.856	368.801
834.687	111.272
838.516	51.644
842.343	82.944
846.169	65.198
849.992	40.936
853.814	40.048
857.634	62.948
861.453	27.265
865.269	39.818
869.084	35.435
872.897	135.62
876.708	3.75
880.517	21.067
884.325	57.771
888.13	30.253
891.934	44.779
895.737	94.939
899.537	23.212
903.336	22.628
907.132	83.371
910.928	72.951
914.721	93.688
918.512	0.493
922.302	1.343
926.09	126.621
929.876	42.187
933.66	12.733
937.443	105.287
941.224	188.203
945.003	111.276
948.78	244.505
952.556	335.513
956.33	341.442
960.102	455.16
963.872	619.053
967.64	503.122
971.407	667.414
975.172	931.97
978.935	1266.72
982.697	1591.69
986.456	2506.89
990.214	3392.34
993.971	5088.07
997.725	7724.07
1001.48	11917.5
1005.23	17882
1008.98	23379.2
1012.73	23615.2
1016.47	18705.4
1020.22	13121.6
1023.96	9020.07
1027.7	7086.92
1031.44	6435.38
1035.17	7334.89
1038.91	8524.83
1042.64	10213.8
1046.37	10944.8
1050.1	11461.1
1053.83	12212.1
1057.56	14154.3
1061.28	17277
1065.01	16528.8
1068.73	10551.9
1072.45	6105.25
1076.16	3719.22
1079.88	2483.52
1083.6	1928.19
1087.31	1483.2
1091.02	1188.51
1094.73	1025.22
1098.44	871.039
1102.14	977.27
1105.85	1223.6
1109.55	1610.17
1113.25	1916.98
1116.95	2124.03
1120.65	2349.93
1124.34	2297.47
1128.04	1905.38
1131.73	1765.16
1135.42	1637.61
1139.11	1330.46
1142.79	910.159
1146.48	629.56
1150.16	349.244
1153.84	454.507
1157.52	307.623
1161.2	250.039
1164.88	401.697
1168.56	377.248
1172.23	595.658
1175.9	455.684
1179.57	627.029
1183.24	622.869
1186.9	779.514
1190.57	1047.4
1194.23	1107.78
1197.89	1131.29
1201.55	995.669
1205.21	906.953
1208.87	720.14
1212.52	540.943
1216.18	441.826
1219.83	302.614
1223.48	303.547
1227.13	164.718
1230.77	154.269
1234.42	256.839
1238.06	41.976
1241.7	10.565
1245.34	8.258
1248.98	33.039
1252.62	13.63
1256.25	104.494
1259.88	144.918
1263.51	115.483
1267.14	46.098
1270.77	7.632
1274.4	22.093
1278.02	12.783
1281.65	75.604
1285.27	64.198
1288.89	47.141
1292.51	89.998
1296.12	32.993
1299.74	46.181
1303.35	40.19
1306.96	74.078
1310.57	168.782
1314.18	46.01
1317.79	90.435
1321.39	184.425
1324.99	307.918
1328.59	181.009
1332.19	193.697
1335.79	104.038
1339.39	17.763
1342.98	49.225
1346.58	110.363
1350.17	21.187
1353.76	151.717
1357.35	162.005
1360.93	194.929
1364.52	182.014
1368.1	212.38
1371.68	37.257
1375.26	41.603
1378.84	88.476
1382.42	36.078
1385.99	193.582
1389.57	410.821
1393.14	787.936
1396.71	332.091
1400.28	252.789
1403.85	156.347
1407.41	307.307
1410.98	29.202
1414.54	35.611
1418.1	91.085
1421.66	206.352
1425.21	38.618
1428.77	117.487
1432.33	286.68
1435.88	358.372
1439.43	334.037
1442.98	158.791
1446.53	331.621
1450.07	187.647
1453.62	338.232
1457.16	243.862
1460.7	259.351
1464.24	318.279
1467.78	280.722
1471.32	345.24
1474.85	309.773
1478.38	317.267
1481.91	462.932
1485.44	250.728
1488.97	158.617
1492.5	97.838
1496.03	138.937
1499.55	182.043
1503.07	77.812
1506.59	297.619
1510.11	283.533
1513.63	374.322
