Measurement: Raman, 514 nm, depolarized, Raman Data Processed
Mineral: Amblygonite
Rruff sample: R040006
Ideal chemistry: LiAlPO_4_F
Locality: Pala, San Diego County, California, USA
Source: University of Arizona Mineral Museum
Description: Light gray coarsely crystalline massive
Measured chemistry: LiAl_1.00_(P_1.00_O_4_)(F_0.73_(OH)_0.27_)_Î£=1_; Li assumed by stoichiometry; OH estimated by charge balance
Pin_id: l00204
Orientation: Laser parallel to b* (0 1 0). Fiducial mark perpendicular to laser is parallel to c [0 0 1]
Raman shift (cm-1)	intensity
107.817	0
111.996	92.427
116.172	208.213
120.347	387.739
124.519	882.5
128.69	1384.15
132.858	1188.36
137.025	643.737
141.189	389.928
145.352	400.125
149.512	682.127
153.67	1223.97
157.827	2174.11
161.981	3405.59
166.133	4075.18
170.283	3464.38
174.431	2557.06
178.577	1877.97
182.721	1544.64
186.863	1269.01
191.003	1034.02
195.141	786.335
199.277	467.076
203.411	193.33
207.543	51.094
211.673	33.331
215.801	32.005
219.927	14.952
224.051	29.567
228.173	15.079
232.292	47.044
236.41	10.943
240.526	32.623
244.64	7.063
248.752	12.11
252.861	108.354
256.969	281.115
261.075	618.935
265.179	1156.85
269.281	1639.91
273.38	1759.19
277.478	1553.77
281.574	1363.38
285.668	1521.05
289.76	2368.39
293.85	4355.2
297.937	9032.31
302.023	15007.7
306.107	13723.2
310.189	8218.69
314.269	5123.27
318.347	3203.9
322.423	1851.59
326.497	1102.31
330.569	893.96
334.639	584.442
338.707	474.656
342.773	395.5
346.837	290.34
350.899	251.307
354.96	265.39
359.018	242.581
363.074	331.875
367.128	305.264
371.181	335.738
375.231	242.805
379.28	205.381
383.326	141.717
387.37	151.705
391.413	201.419
395.454	171.29
399.492	235.812
403.529	333.889
407.564	462.697
411.596	779.387
415.627	1657.76
419.656	4492.6
423.683	11975.1
427.708	13261.5
431.731	5474
435.752	2060.54
439.772	1073.17
443.789	722.832
447.804	872.524
451.817	732.238
455.829	635.922
459.838	847.608
463.846	1228.26
467.852	1478.86
471.855	1984.4
475.857	2896.88
479.857	4046.29
483.855	4617.64
487.851	4534.92
491.845	4098.12
495.837	3480.24
499.828	2759.29
503.816	2093.29
507.802	1488.18
511.787	959.002
515.77	593.746
519.75	395.402
523.729	288.967
527.706	165.435
531.681	25.804
535.654	53.052
539.625	45.423
543.595	71.387
547.562	2.951
551.527	62.861
555.491	33.781
559.453	34.222
563.412	34.249
567.37	28.101
571.326	21.96
575.28	44.838
579.233	89.123
583.183	143.943
587.131	203.129
591.078	226.602
595.022	362.121
598.965	532.328
602.906	797.212
606.845	717.393
610.782	572.48
614.718	569.382
618.651	648.777
622.582	837.069
626.512	1125.01
630.44	1786.76
634.366	2712.28
638.29	4853.6
642.212	11182.7
646.132	19102.6
650.05	13162.3
653.967	5815.83
657.882	2786.12
661.794	1586.21
665.705	964.082
669.614	735.746
673.522	549.203
677.427	426.449
681.331	293.487
685.232	257.316
689.132	162.625
693.03	114.27
696.926	155.078
700.82	110.325
704.713	160.652
708.603	50.942
712.492	59.125
716.379	103.041
720.264	72.364
724.147	30.491
728.028	37.341
731.908	5.342
735.785	48.718
739.661	43.823
743.535	40.672
747.407	40.273
751.278	25.743
755.146	111.765
759.013	53.564
762.878	4.181
766.741	12.472
770.602	30.633
774.461	101.552
778.319	82.305
782.174	57.911
786.028	127.376
789.88	176.706
793.73	387.905
797.579	449.977
801.425	563.926
805.27	746.758
809.113	781.477
812.954	801.087
816.794	711.592
820.631	630
824.467	545.314
828.301	357.542
832.133	338.77
835.963	345.029
839.792	220.261
843.618	119.037
847.443	105.361
851.266	30.862
855.088	8.528
858.907	67.83
862.725	2.665
866.541	3.391
870.355	30.939
874.167	68.505
877.978	21.136
881.787	86.613
885.594	19.78
889.399	30.217
893.202	33.711
897.004	38.809
900.803	43.734
904.601	13.828
908.398	23.572
912.192	42.336
915.985	13.218
919.776	33.389
923.565	48.011
927.352	60.532
931.138	64.779
934.922	66.253
938.704	114.854
942.484	142.558
946.262	138.368
950.039	218.301
953.814	264.365
957.587	308.548
961.359	351.856
965.128	355.294
968.896	542.923
972.662	692.763
976.427	824.76
980.189	1070.93
983.95	1338.25
987.709	1910.75
991.467	2822.42
995.222	4679.28
998.976	7032.35
1002.73	10134.9
1006.48	13824.4
1010.23	16328.1
1013.97	15152
1017.72	11832.8
1021.46	8625.72
1025.2	6527.46
1028.94	5471.47
1032.68	5664.28
1036.42	6787.94
1040.15	8332.77
1043.89	9777.71
1047.62	10972.9
1051.35	11768.3
1055.07	13915
1058.8	18522
1062.52	23558.2
1066.25	20835.6
1069.97	12433.3
1073.69	6941.21
1077.4	4179.29
1081.12	2838.55
1084.83	1953.05
1088.55	1417.74
1092.26	1093.61
1095.96	932.742
1099.67	875.595
1103.38	725.981
1107.08	783.545
1110.78	609.29
1114.48	640.211
1118.18	746.245
1121.88	839.895
1125.57	793.521
1129.27	696.105
1132.96	503.542
1136.65	425.443
1140.34	296.156
1144.02	229.022
1147.71	195.527
1151.39	143.036
1155.07	289.318
1158.75	116.5
1162.43	176.999
1166.11	75.87
1169.78	46.503
1173.45	72
1177.12	167.667
1180.79	325.243
1184.46	388.918
1188.13	487.958
1191.79	715.841
1195.45	793.966
1199.11	854.795
1202.77	716.057
1206.43	717.397
1210.09	749.5
1213.74	715.97
1217.39	560.063
1221.05	389.981
1224.69	312.992
1228.34	175.343
1231.99	137.91
1235.63	79.88
1239.27	49.795
1242.91	61.675
1246.55	80.712
1250.19	35.042
1253.83	28.714
1257.46	0.686
1261.09	113.581
1264.72	57.111
1268.35	29.472
1271.98	14.431
1275.61	58.632
1279.23	42.098
1282.85	42.686
1286.47	1.04
1290.09	20.751
1293.71	39.552
1297.33	43.304
1300.94	7.338
1304.55	8.83
1308.16	52.056
1311.77	60.985
1315.38	46.902
1318.99	89.616
1322.59	27.096
1326.19	10.666
1329.79	14.289
1333.39	35.025
1336.99	40.533
1340.59	90.831
1344.18	79.943
1347.77	97.864
1351.37	49.562
1354.95	28.053
1358.54	108.43
1362.13	67.604
1365.71	124.91
1369.3	170.922
1372.88	95.54
1376.46	49.81
1380.04	120.327
1383.61	206.694
1387.19	166.284
1390.76	98.345
1394.33	78.621
1397.9	50.405
1401.47	56.409
1405.04	98.037
1408.6	112.268
1412.16	128.022
1415.72	160.181
1419.29	188.086
1422.84	89.823
1426.4	138.44
1429.96	22.459
1433.51	92.843
1437.06	94.446
1440.61	173.717
1444.16	203.546
1447.71	187.909
1451.25	259.879
1454.8	245.341
1458.34	228.097
1461.88	295.23
1465.42	176.274
1468.96	191.901
1472.49	144.206
1476.03	144.124
1479.56	174.819
1483.09	177.628
1486.62	98.04
1490.15	128.123
1493.67	255.129
1497.2	265.416
1500.72	196.437
1504.24	175.074
1507.76	133.753
1511.28	163.158
1514.8	30.249
1518.31	0.248
