Measurement: Raman, 514 nm, depolarized, Raman Data Processed
Mineral: Amblygonite
Rruff sample: R040006
Ideal chemistry: LiAlPO_4_F
Locality: Pala, San Diego County, California, USA
Source: University of Arizona Mineral Museum
Description: Light gray coarsely crystalline massive
Measured chemistry: LiAl_1.00_(P_1.00_O_4_)(F_0.73_(OH)_0.27_)_Î£=1_; Li assumed by stoichiometry; OH estimated by charge balance
Pin_id: l00485
Orientation: Laser parallel to -a* (-1 0 0). Fiducial mark perpendicular to laser is parallel to -b [0 -1 0]
Raman shift (cm-1)	intensity
110.603	0
114.78	310.496
118.956	1166.77
123.129	2178.73
127.3	3596.31
131.469	3770.44
135.636	2319.03
139.801	1143.64
143.964	615.561
148.125	461.044
152.284	322.091
156.441	205.229
160.596	421.12
164.749	580.742
168.9	415.028
173.049	352.978
177.195	383.366
181.34	384.447
185.483	412.823
189.624	415.904
193.762	298.604
197.899	210.002
202.034	7.527
206.166	122.849
210.297	96.292
214.425	11.996
218.552	4.118
222.676	51.086
226.799	13.518
230.919	4.988
235.038	62.667
239.154	65.554
243.269	1.447
247.381	18.554
251.492	113.86
255.6	238.802
259.707	267.063
263.811	417.293
267.914	679.673
272.014	1032.26
276.113	1079.31
280.209	1196.7
284.304	1654.49
288.396	2601.59
292.487	4316.19
296.575	8470.85
300.662	15075.4
304.746	17089.4
308.829	12743
312.909	9096.01
316.988	6388.72
321.065	4311.13
325.139	3101.89
329.212	2581.18
333.283	2069.95
337.351	1648.54
341.418	1284.83
345.483	1083.88
349.546	1115.05
353.606	1054.35
357.665	1073.78
361.722	1074.32
365.777	1135.91
369.83	1066.88
373.881	920.57
377.93	909.15
381.977	737.405
386.023	570.578
390.066	429.309
394.107	424.932
398.146	435.745
402.184	385.893
406.219	394.67
410.252	599.563
414.284	1034.42
418.313	2254.23
422.341	6634.05
426.367	10944.2
430.39	6054.27
434.412	2134.47
438.432	1014.77
442.45	570.179
446.466	331.548
450.48	443.924
454.492	220.262
458.502	180.591
462.51	348.899
466.517	547.12
470.521	737.259
474.523	1187.29
478.524	1847.22
482.523	2507.05
486.519	2546.78
490.514	2586.44
494.507	2426.03
498.498	2065.57
502.487	1605.04
506.474	1144.45
510.459	803.798
514.442	553.074
518.424	382.276
522.403	201.4
526.381	26.445
530.356	69.584
534.33	18.985
538.302	38.483
542.272	21.69
546.24	7.75
550.206	67.3
554.17	121.321
558.132	32.835
562.093	59.367
566.051	11.933
570.008	215.272
573.963	227.09
577.915	207.894
581.866	118.898
585.815	306.737
589.763	379.717
593.708	521.889
597.651	757.019
601.593	1156.77
605.532	1299.56
609.47	1179.93
613.406	1193.93
617.34	1447.99
621.272	1976.87
625.202	2884.56
629.131	4409.84
633.057	6214.86
636.982	8069.65
640.905	13954.2
644.825	27618.6
648.744	26272.7
652.662	12296.6
656.577	5850.29
660.49	3183.75
664.402	2146.98
668.312	1379.99
672.219	912.771
676.125	725.325
680.03	587.654
683.932	559.392
687.832	361.226
691.731	352.263
695.628	173.262
699.522	318.975
703.415	122.495
707.307	161.736
711.196	175.034
715.083	12.738
718.969	78.156
722.853	88.505
726.735	117.365
730.615	27.639
734.493	114.165
738.37	6.481
742.244	10.914
746.117	59.634
749.988	36.335
753.857	2.594
757.724	48.499
761.59	75.617
765.453	100.906
769.315	60.637
773.175	4.8
777.033	29.446
780.889	143.493
784.744	187.349
788.596	161.06
792.447	204.633
796.296	218.072
800.143	411.383
803.989	554.57
807.832	657.642
811.674	660.604
815.514	673.463
819.352	576.223
823.189	528.894
827.023	411.48
830.856	363.99
834.687	186.426
838.516	18.802
842.343	101.123
846.169	123.398
849.992	145.504
853.814	107.548
857.634	50.613
861.453	111.477
865.269	11.309
869.084	179.678
872.897	254.275
876.708	83.978
880.517	62.392
884.325	115.006
888.13	146.277
891.934	272.583
895.737	96.255
899.537	4.851
903.336	62.698
907.132	6.278
910.928	138.436
914.721	465.824
918.512	155.434
922.302	61.048
926.09	94.527
929.876	147.178
933.66	239.514
937.443	143.833
941.224	378.475
945.003	183.313
948.78	358.353
952.556	253.592
956.33	559.052
960.102	574.723
963.872	880.608
967.64	536.712
971.407	703.079
975.172	1109.75
978.935	1476.66
982.697	1963.81
986.456	3031.22
990.214	4248.92
993.971	6266.88
997.725	9765.14
1001.48	14881.8
1005.23	21451.4
1008.98	27138.6
1012.73	27417.3
1016.47	21623.5
1020.22	15276.4
1023.96	10967.3
1027.7	8711.67
1031.44	8114.16
1035.17	9056.08
1038.91	10621
1042.64	12343.9
1046.37	12927.2
1050.1	13529.1
1053.83	14583.3
1057.56	17008
1061.28	21162.9
1065.01	21006.7
1068.73	13762.3
1072.45	8123.82
1076.16	4870.09
1079.88	3436.64
1083.6	2643.53
1087.31	1880.45
1091.02	1477.93
1094.73	1166.33
1098.44	734.244
1102.14	733.31
1105.85	731.666
1109.55	890.211
1113.25	778.951
1116.95	707.886
1120.65	826.341
1124.34	975.9
1128.04	645.554
1131.73	716.876
1135.42	760.694
1139.11	752.045
1142.79	582.813
1146.48	43.256
1150.16	46.158
1153.84	68.451
1157.52	141.828
1161.2	173.834
1164.88	351.412
1168.56	101.09
1172.23	201.838
1175.9	164.158
1179.57	95.551
1183.24	78.605
1186.9	134.703
1190.57	307.527
1194.23	310.127
1197.89	349.998
1201.55	316.654
1205.21	229.482
1208.87	201.895
1212.52	72.629
1216.18	6.322
1219.83	184.271
1223.48	404.75
1227.13	225.096
1230.77	247.643
1234.42	181.723
1238.06	3.512
1241.7	123.803
1245.34	95.447
1248.98	195.146
1252.62	274.699
1256.25	274.178
1259.88	373.98
1263.51	343.219
1267.14	291.578
1270.77	123.842
1274.4	94.373
1278.02	172.117
1281.65	264.908
1285.27	321.568
1288.89	197.889
1292.51	283.322
1296.12	107.588
1299.74	92.312
1303.35	56.02
1306.96	50.662
1310.57	78.871
1314.18	149.992
1317.79	281.781
1321.39	389.939
1324.99	297.852
1328.59	265.289
1332.19	174.732
1335.79	126.332
1339.39	22.045
1342.98	20.055
1346.58	37.547
1350.17	204.557
1353.76	291.289
1357.35	207.859
1360.93	634.102
1364.52	212.717
1368.1	300.822
1371.68	132.643
1375.26	2.414
1378.84	47.873
1382.42	161.947
1385.99	336.709
1389.57	649.736
1393.14	392.805
1396.71	389.266
1400.28	469.129
1403.85	228.527
1407.41	253.967
1410.98	18.256
1414.54	45.746
1418.1	253.164
1421.66	407.031
1425.21	259.789
1428.77	369.016
1432.33	457.768
1435.88	518.242
1439.43	299.746
1442.98	306.453
1446.53	307.135
1450.07	258.223
1453.62	210.01
1457.16	388.666
1460.7	488.213
1464.24	618.639
1467.78	556.85
1471.32	641.355
1474.85	486.506
1478.38	215.258
1481.91	413.287
1485.44	81.189
1488.97	132.189
1492.5	128.596
1496.03	119.41
1499.55	265.055
1503.07	404.266
1506.59	503.039
