Measurement: Raman, 514 nm, depolarized, Raman Data Processed
Mineral: Amblygonite
Rruff sample: R040006
Ideal chemistry: LiAlPO_4_F
Locality: Pala, San Diego County, California, USA
Source: University of Arizona Mineral Museum
Description: Light gray coarsely crystalline massive
Measured chemistry: LiAl_1.00_(P_1.00_O_4_)(F_0.73_(OH)_0.27_)_Î£=1_; Li assumed by stoichiometry; OH estimated by charge balance
Pin_id: l00314
Orientation: Laser parallel to -c* (0 0 -1). Fiducial mark perpendicular to laser is parallel to -a [-1 0 0]
Raman shift (cm-1)	intensity
118.956	0
123.129	527.287
127.3	1547.44
131.469	1965.43
135.636	1234.2
139.801	434.23
143.964	339.704
148.125	432.639
152.284	812.931
156.441	1512.03
160.596	2661.18
164.749	3545.05
168.9	3264.56
173.049	2322.31
177.195	1583.86
181.34	1127.99
185.483	763.356
189.624	474.344
193.762	93.514
197.899	28.98
202.034	65.126
206.166	19.029
210.297	69.635
214.425	185.572
218.552	121.445
222.676	138.968
226.799	70.769
230.919	86.046
235.038	17.59
239.154	15.598
243.269	50.591
247.381	65.222
251.492	18.231
255.6	241.328
259.707	698.778
263.811	1265.68
267.914	2100.84
272.014	2705.9
276.113	2698.15
280.209	2599.73
284.304	2770.42
288.396	3540.38
292.487	5649.5
296.575	10348.5
300.662	18346.8
304.746	21264.2
308.829	15510.4
312.909	10785.5
316.988	7119.54
321.065	4242.64
325.139	3166.74
329.212	2791.1
333.283	2147.94
337.351	1781.46
341.418	1421.61
345.483	1240.69
349.546	1183.8
353.606	1189.77
357.665	1306.69
361.722	1354.58
365.777	1365.18
369.83	1518.75
373.881	1431.12
377.93	1188.03
381.977	1079.14
386.023	885.683
390.066	756.66
394.107	579.062
398.146	622.154
402.184	609.973
406.219	430.526
410.252	377.049
414.284	487.416
418.313	957.959
422.341	2730.56
426.367	5227.35
430.39	3224.34
434.412	1351.51
438.432	805.846
442.45	595.273
446.466	461.768
450.48	554.201
454.492	553.481
458.502	636.622
462.51	886.627
466.517	1247.46
470.521	1734.11
474.523	2692.61
478.524	3858.94
482.523	4585.13
486.519	4341.19
490.514	3697.15
494.507	3083.02
498.498	2413.53
502.487	1755.5
506.474	1316.11
510.459	878.649
514.442	576.119
518.424	452.526
522.403	259.943
526.381	196.63
530.356	181.613
534.33	40.641
538.302	60.014
542.272	118.025
546.24	25.122
550.206	6.505
554.17	23.664
558.132	51.234
562.093	58.991
566.051	139.552
570.008	165.852
573.963	301.72
577.915	455.04
581.866	462.824
585.815	664.441
589.763	1023.16
593.708	1666.21
597.651	3776.16
601.593	8262.65
605.532	9422.75
609.47	5419.59
613.406	3364.02
617.34	2833.8
621.272	3186.51
625.202	3989.57
629.131	5911.51
633.057	8153.18
636.982	9034.56
640.905	12605.7
644.825	23896.5
648.744	24627
652.662	11887.2
656.577	5607.16
660.49	3136.8
664.402	1966.15
668.312	1285.19
672.219	962.05
676.125	720.377
680.03	523.513
683.932	354.338
687.832	324.846
691.731	288.254
695.628	126.824
699.522	135.216
703.415	41.881
707.307	41.529
711.196	146.7
715.083	88.553
718.969	50.062
722.853	59.48
726.735	65.836
730.615	338.479
734.493	83.582
738.37	69.587
742.244	54.83
746.117	39.963
749.988	106.562
753.857	114.817
757.724	32.76
761.59	46.79
765.453	147.384
769.315	43.832
773.175	135.617
777.033	71.06
780.889	332.235
784.744	438.349
788.596	563.922
792.447	879.227
796.296	1234.27
800.143	1579.06
803.989	1933.6
807.832	2277.91
811.674	2321.98
815.514	2375.83
819.352	2129.46
823.189	1832.89
827.023	1446.12
830.856	1199.17
834.687	772.04
838.516	434.741
842.343	281.823
846.169	239.683
849.992	101.025
853.814	182.043
857.634	21.616
861.453	100.294
865.269	16.646
869.084	45.482
872.897	19.377
876.708	98.435
880.517	156.405
884.325	122.126
888.13	81.321
891.934	12.869
895.737	67.983
899.537	67.735
903.336	81.311
907.132	6.398
910.928	9.169
914.721	44.252
918.512	133.734
922.302	41.563
926.09	67.768
929.876	1.664
933.66	20.038
937.443	111.764
941.224	213.766
945.003	155.974
948.78	298.397
952.556	331.056
956.33	413.954
960.102	557.119
963.872	840.564
967.64	984.286
971.407	1138.37
975.172	1462.9
978.935	1907.82
982.697	2443.04
986.456	3488.61
990.214	4704.48
993.971	6840.86
997.725	10407.7
1001.48	15285.1
1005.23	22232.9
1008.98	28701.2
1012.73	29317.5
1016.47	23602
1020.22	17008
1023.96	11681.7
1027.7	8952.75
1031.44	7936.85
1035.17	8608.99
1038.91	9655.12
1042.64	11154.7
1046.37	12448.4
1050.1	13918.1
1053.83	16489.7
1057.56	22092.5
1061.28	30846.3
1065.01	33113.1
1068.73	22330.2
1072.45	12337.6
1076.16	6785.77
1079.88	4444.26
1083.6	3213.03
1087.31	2572.55
1091.02	2202.49
1094.73	2192.84
1098.44	2183.57
1102.14	2565.32
1105.85	3236.98
1109.55	4161.81
1113.25	5204.03
1116.95	5959.63
1120.65	6387.3
1124.34	6650.56
1128.04	6190.26
1131.73	5672.01
1135.42	4926.34
1139.11	4222.94
1142.79	2920.06
1146.48	1962.25
1150.16	1288.97
1153.84	1191.24
1157.52	1167.85
1161.2	735.84
1164.88	1016.34
1168.56	1064.23
1172.23	1169.4
1175.9	1031.93
1179.57	975.327
1183.24	1075.16
1186.9	1009.98
1190.57	1319.91
1194.23	1519.96
1197.89	1610.05
1201.55	1590.28
1205.21	1530.12
1208.87	1360.55
1212.52	869.605
1216.18	912.468
1219.83	681.771
1223.48	560.419
1227.13	261.673
1230.77	261.466
1234.42	193.312
1238.06	94.454
1241.7	13.69
1245.34	27.203
1248.98	8.139
1252.62	49.906
1256.25	58.42
1259.88	126.44
1263.51	164.516
1267.14	252.647
1270.77	18.754
1274.4	18.883
1278.02	75.872
1281.65	11.367
1285.27	43.284
1288.89	11.132
1292.51	145.056
1296.12	18.415
1299.74	161.493
1303.35	14.054
1306.96	5.972
1310.57	212.627
1314.18	1.374
1317.79	118.953
1321.39	288.822
1324.99	198.179
1328.59	216.971
1332.19	165.254
1335.79	66.925
1339.39	120.348
1342.98	67.182
1346.58	63.763
1350.17	89.739
1353.76	135.312
1357.35	90.511
1360.93	425.419
1364.52	289.881
1368.1	354.052
1371.68	41.589
1375.26	42.512
1378.84	45.076
1382.42	109.786
1385.99	233.307
1389.57	284.059
1393.14	304.216
1396.71	377.636
1400.28	276.126
1403.85	208.184
1407.41	286.223
1410.98	34.616
1414.54	73.296
1418.1	43.88
1421.66	133.039
1425.21	154.749
1428.77	372.444
1432.33	392.42
1435.88	357.681
1439.43	362.664
1442.98	453.25
1446.53	301.787
1450.07	356.885
1453.62	26.719
1457.16	244.531
1460.7	233.156
1464.24	379.885
1467.78	437.082
1471.32	509.555
1474.85	506.537
1478.38	313.828
1481.91	460.74
1485.44	338.418
1488.97	255.119
1492.5	213.527
1496.03	63.58
1499.55	25.164
1503.07	118.27
1506.59	281.994
1510.11	349.273
1513.63	441.863
1517.14	450.85
