Measurement: Raman, 514 nm, depolarized, Raman Data Processed
Mineral: Amblygonite
Rruff sample: R040006
Ideal chemistry: LiAlPO_4_F
Locality: Pala, San Diego County, California, USA
Source: University of Arizona Mineral Museum
Description: Light gray coarsely crystalline massive
Measured chemistry: LiAl_1.00_(P_1.00_O_4_)(F_0.73_(OH)_0.27_)_Î£=1_; Li assumed by stoichiometry; OH estimated by charge balance
Pin_id: l00112
Orientation: Laser parallel to (1 1 0). Fiducial mark perpendicular to laser is parallel to c [0 0 1]
Raman shift (cm-1)	intensity
116.172	0
120.347	139.897
124.519	1074.11
128.69	1506.69
132.858	1219.39
137.025	831.48
141.189	653.67
145.352	416.107
149.512	349.574
153.67	816.136
157.827	730.811
161.981	774.355
166.133	824.781
170.283	684.413
174.431	626.687
178.577	550.642
182.721	851.49
186.863	803.346
191.003	690.354
195.141	768.565
199.277	607.817
203.411	287.54
207.543	28.037
211.673	189.555
215.801	141.791
219.927	4.697
224.051	161.785
228.173	222.288
232.292	176.819
236.41	128.271
240.526	12.975
244.64	243.066
248.752	40.145
252.861	72.854
256.969	55.289
261.075	194.625
265.179	422.701
269.281	591.467
273.38	810.471
277.478	899.701
281.574	716.537
285.668	939.799
289.76	2106.19
293.85	4454.13
297.937	9042.28
302.023	14231.9
306.107	12212
310.189	7892.47
314.269	5343.12
318.347	3513.89
322.423	2364.76
326.497	1565.76
330.569	1096.86
334.639	837.939
338.707	798.637
342.773	849.152
346.837	319.133
350.899	529.137
354.96	509.32
359.018	519.957
363.074	392.707
367.128	342.516
371.181	509.836
375.231	508.109
379.28	280.719
383.326	473.633
387.37	564.311
391.413	473.609
395.454	340.877
399.492	355.75
403.529	336.676
407.564	574.439
411.596	450.234
415.627	1090.89
419.656	3474.96
423.683	9468.06
427.708	9881.14
431.731	3914.24
435.752	1467.33
439.772	760.355
443.789	353.381
447.804	136.48
451.817	179.586
455.829	422.674
459.838	335.633
463.846	208.402
467.852	541.092
471.855	1123.84
475.857	1616.49
479.857	2029
483.855	2271.34
487.851	2683.53
491.845	2215.54
495.837	1647.38
499.828	1049.04
503.816	920.512
507.802	841.809
511.787	482.92
515.77	93.84
519.75	84.826
523.729	425.307
527.706	415.621
531.681	43.268
535.654	26.299
539.625	176.049
543.595	207.867
547.562	3.885
551.527	179.197
555.491	39.348
559.453	209.883
563.412	416.586
567.37	36.49
571.326	286.842
575.28	506.16
579.233	622.352
583.183	691.041
587.131	615.906
591.078	978.111
595.022	1721.78
598.965	3358.03
602.906	4997.8
606.845	3041.16
610.782	2025.77
614.718	1858.82
618.651	1790.49
622.582	1861.17
626.512	2440.85
630.44	3461.95
634.366	4521.23
638.29	7000.1
642.212	15208.6
646.132	23976.7
650.05	16094.4
653.967	7591.63
657.882	3688.48
661.794	1894.92
665.705	1280.95
669.614	1126.58
673.522	1081.53
677.427	566.002
681.331	328.533
685.232	193.424
689.132	455.037
693.03	474.705
696.926	345.33
700.82	163.947
704.713	62.051
708.603	51.43
712.492	371.404
716.379	155.443
720.264	22.309
724.147	79.152
728.028	129.867
731.908	473.08
735.785	548.219
739.661	103.947
743.535	70.65
747.407	224.275
751.278	518.92
755.146	563.246
759.013	167.172
762.878	9.227
766.741	25.756
770.602	367.197
774.461	311.236
778.319	183.744
782.174	164.129
786.028	268.08
789.88	559.488
793.73	794.586
797.579	665.707
801.425	336.695
805.27	607.566
809.113	608.328
812.954	868.996
816.794	819.576
820.631	790.076
824.467	330.512
828.301	170.891
832.133	690.961
835.963	671.041
839.792	630.498
843.618	370.553
847.443	250.789
851.266	260.604
855.088	751.58
858.907	1042.06
862.725	981.834
866.541	413.689
870.355	322.766
874.167	321.883
877.978	894.555
881.787	971.379
885.594	250.666
889.399	122.482
893.202	411.158
897.004	286.441
900.803	709.811
904.601	783.57
908.398	344.605
912.192	162.01
915.985	52.74
919.776	74.242
923.565	671.711
927.352	657.482
931.138	673.35
934.922	51.275
938.704	285.393
942.484	482.402
946.262	689.805
950.039	977.52
953.814	805.648
957.587	204.129
961.359	402.895
965.128	352.004
968.896	1101.47
972.662	1411.3
976.427	1091.51
980.189	1162.11
983.95	1613.12
987.709	2004.52
991.467	3466.34
995.222	6138.58
998.976	9564.21
1002.73	14205
1006.48	18318.7
1010.23	21533.8
1013.97	20029.5
1017.72	16425.4
1021.46	12219.2
1025.2	8696.37
1028.94	6703.95
1032.68	6240.3
1036.42	7062.72
1040.15	9002.34
1043.89	10582.6
1047.62	11243.4
1051.35	11854.9
1055.07	13886.9
1058.8	18548.2
1062.52	22849.6
1066.25	18881.1
1069.97	11483
1073.69	6895.5
1077.4	4547.81
1081.12	3021.12
1084.83	1974.56
1088.55	1769.12
1092.26	1630.36
1095.96	1773.07
1099.67	1964.08
1103.38	1520.63
1107.08	1269.8
1110.78	874.344
1114.48	1019.69
1118.18	1405.88
1121.88	1822.91
1125.57	2010.82
1129.27	1699.42
1132.96	777.949
1136.65	576.828
1140.34	96.223
1144.02	156.391
1147.71	1037.59
1151.39	809.508
1155.07	912.133
1158.75	575.504
1162.43	569.711
1166.11	145.188
1169.78	40.816
1173.45	107.676
1177.12	1115.22
1180.79	1313.59
1184.46	1123.39
1188.13	694.559
1191.79	507.102
1195.45	411.137
1199.11	776.852
1202.77	686.215
1206.43	874.215
1210.09	1026.16
1213.74	1171.65
1217.39	576.082
1221.05	58.582
1224.69	347.633
1228.34	233.371
1231.99	354.238
1235.63	841.961
1239.27	1417.83
1242.91	1158.37
1246.55	761.957
1250.19	186.527
