Measurement: Raman, 514 nm, depolarized, Raman Data Processed
Mineral: Amesite
Rruff sample: R070132
Ideal chemistry: Mg_2_Al(AlSiO_5_)(OH)_4_
Locality: Saranovskii mine, Saranovskaya Village, Gornozavodskii area, Permskaya Oblast', Middle Urals, Russia
Source: Michael Scott
Description: Purple transparent hexagonal prisms, polytype 2H2
Measured chemistry: (Mg_1.87_[box]_0.05_Cr_0.05_Fe^2+^_0.03_)_Σ=2_(Al_0.98_Cr_0.02_)_Σ=1_(Si_1.05_Al_0.95_)O_5_(OH)_4_ ; OH estimated by difference
Pin_id: M00194
Raman shift (cm-1)	intensity
121.596	0
126.533	275.514
131.467	1665.19
136.399	1937.78
141.328	796.972
146.254	393.094
151.178	442.668
156.098	180.496
161.017	257.874
165.932	185.566
170.845	74.7773
175.755	208.714
180.662	656.532
185.567	2147.08
190.469	5008.61
195.368	9581.19
200.264	12758.2
205.158	13148.3
210.049	8196.42
214.937	3116.76
219.823	1036.81
224.706	342.42
229.586	1010.02
234.464	3729.88
239.339	12772.1
244.211	37841.6
249.081	19706.4
253.947	7479.23
258.812	8612.12
263.673	12250.9
268.532	25583.5
273.388	44861.4
278.241	40450.7
283.092	32660.1
287.94	20401.7
292.785	7532.93
297.628	1648.86
302.468	292.124
307.305	386.632
312.14	749.047
316.972	2007.86
321.801	3144.45
326.628	7271.94
331.451	6386.37
336.273	3806.52
341.091	5618.07
345.907	5547.53
350.72	3556.73
355.531	433.549
360.339	279.356
365.144	1355.67
369.947	4376.98
374.746	12016.2
379.544	18976.3
384.338	13196.1
389.13	11778.5
393.919	12136.5
398.706	14432
403.49	29956.8
408.271	47281
413.05	43663.3
417.826	22479
422.599	7543.19
427.37	3040.73
432.138	1536.69
436.903	1879.11
441.666	2550.99
446.426	3190.95
451.183	3716.26
455.938	3560.9
460.69	4042.16
465.44	4125.28
470.187	7660.99
474.931	15188.3
479.672	16376.7
484.411	11632.3
489.148	9276.96
493.881	7617.78
498.612	3886.58
503.341	1708.32
508.066	1519.81
512.789	1925.29
517.51	3119.26
522.228	6187.84
526.943	11211
531.656	13548.5
536.365	10488.5
541.073	7178.77
545.778	5258.31
550.48	4694.04
555.179	3916.9
559.876	2701.81
564.57	2178.72
569.262	2056.55
573.951	1544.23
578.637	676.695
583.321	483.878
588.002	214.731
592.68	41.4844
597.356	97.3965
602.03	290.357
606.7	269.688
611.368	268.659
616.034	207.542
620.697	152.874
625.357	125.101
630.014	1.54346
634.67	40.0459
639.322	86.6533
643.972	251.683
648.619	397.653
653.264	559.604
657.906	828.521
662.545	1130.39
667.182	1671.18
671.816	2897.89
676.448	5182.5
681.077	9425.98
685.703	11625.3
690.327	8505.56
694.948	8693.63
699.567	12670.5
704.183	20737.3
708.797	23784.9
713.407	15307.3
718.016	8385.6
722.621	4741.71
727.225	2792.67
731.825	1938.44
736.423	1334.58
741.019	960.6
745.611	793.377
750.202	625.305
754.789	435.307
759.374	329.616
763.957	349.753
768.537	331.235
773.114	645.852
777.689	893.965
782.261	1357.09
786.831	1410.48
791.398	1367.67
795.963	1326.65
800.524	1244.27
805.084	1761.54
809.641	2501.48
814.195	3801.14
818.747	5004.52
823.296	6540.65
827.842	6082.57
832.386	4243.29
836.928	2751.68
841.467	1926.31
846.003	1623.7
850.537	789.055
855.068	387.379
859.597	299.709
864.123	209.036
868.646	97.4326
873.167	161.261
877.686	397.147
882.202	301.62
886.715	125.756
891.226	18.5874
895.734	95.0762
900.24	105.82
904.743	69.0601
909.244	1.2085
913.742	27.8667
918.238	55.582
922.731	166.85
927.221	201.566
931.709	401.581
936.195	736.9
940.678	1099.54
945.158	2183.48
949.636	5013.71
954.111	8650.2
958.584	7843.98
963.054	6607.02
967.522	6245.85
971.987	5826.47
976.45	6120.85
980.91	6474.24
985.368	4954.32
989.823	2771.95
994.275	1770.01
998.725	1695.04
1003.17	2446.94
1007.62	3839.41
1012.06	4559.74
1016.5	3500.47
1020.94	1987.54
1025.37	1113.46
1029.81	799.038
1034.23	792.688
1038.66	912.384
1043.09	967.042
1047.51	769.379
1051.93	608.211
1056.35	514.648
1060.76	389.366
1065.17	412.544
1069.58	494.26
1073.99	605.281
1078.4	603.896
1082.8	417.088
1087.2	303.34
1091.6	184.343
1095.99	23.48
1100.38	137.862
1104.77	46.751
1109.16	14.9937
1113.55	23.8931
1117.93	25.6055
1122.31	5.63232
1126.68	63.4961
1131.06	3.22119
1135.43	25.7637
1139.8	82.2339
1144.17	7.59326
1148.54	19.332
1152.9	33.5645
1157.26	9.68701
1161.62	36.7349
1165.97	2.84473
1170.32	52.3364
1174.67	23.3071
1179.02	33.001
1183.37	20.5366
1187.71	3.96728
1192.05	79.0332
1196.39	19.2739
1200.72	30.5483
1205.05	69.8721
1209.38	78.5161
1213.71	91.4404
1218.04	144.529
1222.36	140.532
1226.68	124.483
1231	179.376
1235.31	121.828
1239.63	138.209
1243.94	251.393
1248.25	139.565
1252.55	211.85
1256.86	161.446
1261.15	190.882
1265.45	119.582
1269.75	164.956
1274.04	33.7266
1278.33	174.127
1282.62	188.977
1286.91	35.6221
1291.19	82.1025
1295.47	116.936
1299.75	80.228
1304.03	133.532
1308.3	108.408
1312.57	59.3491
1316.84	188.539
1321.11	111.31
1325.37	120.298
1329.63	132.663
1333.89	107.634
1338.15	59.2466
1342.4	94.5425
1346.65	208.978
1350.9	161.87
1355.15	207.779
1359.4	114.994
1363.64	133.994
1367.88	116.223
1372.12	185.005
1376.35	73.4375
1380.58	90.3545
1384.81	93.1128
1389.04	61.272
1393.26	25.7163
1397.49	9.47021
1401.71	113.112
1405.92	85.5996
1410.14	42.1592
1414.35	88.4189
1418.56	68.2466
1422.77	22.481
1426.98	93.625
1431.18	7.53223
1435.38	39.0254
1439.58	62.2207
1443.78	41.8237
1447.97	103.903
1452.16	40.0986
1456.35	62.9038
1460.54	74.4834
1464.72	120.857
1468.9	56.1704
1473.08	54.271
1477.26	99.2065
1481.43	70.439
1485.6	76.2671
1489.77	96.6206
1493.94	82.4648
1498.1	84.6582
1502.27	129.571
1506.43	80.27
1510.58	23.8247
1514.74	16.707
1518.89	13.3369
1523.04	34.2598
1527.19	2.04834
1531.34	39.9932
1535.48	154.611
1539.62	162.605
1543.76	175.172
1547.89	69.0825
1552.03	142.576
1556.16	12.3584
1560.29	30.1382
1564.41	0
