Measurement: Raman, 514 nm, depolarized, Raman Data Processed
Mineral: Amesite
Rruff sample: R070132
Ideal chemistry: Mg_2_Al(AlSiO_5_)(OH)_4_
Locality: Saranovskii mine, Saranovskaya Village, Gornozavodskii area, Permskaya Oblast', Middle Urals, Russia
Source: Michael Scott
Description: Purple transparent hexagonal prisms, polytype 2H2
Measured chemistry: (Mg_1.87_[box]_0.05_Cr_0.05_Fe^2+^_0.03_)_Σ=2_(Al_0.98_Cr_0.02_)_Σ=1_(Si_1.05_Al_0.95_)O_5_(OH)_4_ ; OH estimated by difference
Pin_id: M00364
Raman shift (cm-1)	intensity
147.485	0
152.408	72.7266
157.328	77.9873
162.246	51.707
167.16	9.28125
172.073	84.0606
176.982	351.666
181.888	931.023
186.792	2492.84
191.694	5080.95
196.592	8840.43
201.488	15219.4
206.381	25628.4
211.271	42323.3
216.159	43595.7
221.044	18062
225.926	6444.85
230.806	3255.37
235.683	2231.9
240.557	2190.09
245.429	2337.9
250.298	2207.17
255.164	3159.78
260.027	2914.61
264.888	1473.35
269.746	1192.82
274.601	1464.03
279.454	1542.95
284.304	1892.56
289.151	2255.82
293.996	1052.44
298.838	158.432
303.677	387.702
308.514	361.247
313.348	251.985
318.179	820.303
323.008	1473.66
327.834	2563.35
332.657	2880.69
337.478	5614.98
342.295	2795.09
347.111	1323.1
351.923	550.045
356.733	398.938
361.54	429.791
366.345	749.574
371.147	672.411
375.946	1369.11
380.743	2792.65
385.537	3120.31
390.328	3432.06
395.116	3595.85
399.902	3892.65
404.686	7886.4
409.466	12068.1
414.244	12952.7
419.019	19958.1
423.792	13382.4
428.562	5348.51
433.329	4073.38
438.094	5090.43
442.856	4340.35
447.616	3425.66
452.372	3641.11
457.126	3692.54
461.878	2736.63
466.627	2482.04
471.373	4696.22
476.116	8497.96
480.857	11481.4
485.596	13922.5
490.331	15814.1
495.064	13010.3
499.795	5462.37
504.522	2592.35
509.247	2060.57
513.97	2128.11
518.69	3304.99
523.407	5611.21
528.121	9409.74
532.833	13477.6
537.543	14174.7
542.249	11014
546.953	8173.52
551.655	5759.24
556.354	3828.13
561.05	2314.15
565.743	1365.3
570.434	783.538
575.123	306.85
579.808	309.213
584.491	38.6484
589.172	26.4336
593.85	176.006
598.525	181.822
603.197	343.069
607.868	92.8809
612.535	215.398
617.2	1147.15
621.862	2357.19
626.522	1512.02
631.178	510.89
635.833	273.413
640.485	175.703
645.134	351.871
649.78	538.041
654.424	473.041
659.066	567.786
663.704	1002.52
668.341	1383.48
672.974	2868.41
677.605	5023.05
682.234	7489.4
686.859	7179.45
691.483	5305.19
696.103	6623.63
700.721	12008.8
705.337	18230.6
709.949	14320.1
714.56	7652.25
719.167	3712.11
723.772	2203.29
728.375	1365.35
732.975	878.974
737.572	574.53
742.167	212.253
746.759	61.999
751.349	59.9482
755.936	15.4717
760.52	74.626
765.102	28.1387
769.681	122.174
774.258	101.025
778.832	165.161
783.404	624.88
787.973	763.877
792.539	834.511
797.103	773.051
801.665	980.544
806.223	1106
810.779	1390.42
815.333	1371.81
819.884	1751.19
824.433	1859.57
828.979	1475.94
833.522	1359.36
838.063	1207.91
842.601	836.519
847.137	461.169
851.67	112.861
856.2	314.648
860.729	124.531
865.254	141.67
869.777	148.3
874.297	58.0762
878.815	407.21
883.33	649.244
887.843	762.789
892.353	319.85
896.861	222.44
901.366	64.9131
905.869	56.9688
910.369	45.1045
914.866	138.281
919.361	43.9248
923.854	0.230469
928.344	359.456
932.831	951.081
937.316	1639.81
941.798	1374.73
946.278	1223.86
950.755	1745.2
955.23	2389.74
959.702	2518.45
964.171	3745.33
968.638	6032
973.103	6392.65
977.565	6032.01
982.025	5958.55
986.482	4153.49
990.936	2272.4
995.388	1531.91
999.837	1665.08
1004.28	2360.12
1008.73	3526.76
1013.17	5518.06
1017.61	4736.41
1022.05	2542.71
1026.48	1039.6
1030.91	612.339
1035.34	333.538
1039.77	268.246
1044.19	325.013
1048.62	256.238
1053.03	219.155
1057.45	120.711
1061.87	222.915
1066.28	204.703
1070.69	99.7383
1075.09	92.0068
1079.5	321.022
1083.9	207.113
1088.3	185.782
1092.69	126.091
1097.09	58.2578
1101.48	138.76
1105.87	111.99
1110.26	52.3652
1114.64	159.753
1119.02	20.624
1123.4	127.709
1127.78	27.8193
1132.15	50.7266
1136.53	19.5576
1140.89	183.707
1145.26	13.7666
1149.63	26.624
1153.99	75.1602
1158.35	148.323
1162.7	172.226
1167.06	153.833
1171.41	63.6006
1175.76	46.8164
1180.11	98.8047
1184.45	9.78906
1188.79	15.623
1193.13	135.023
1197.47	101.111
1201.81	67.8603
1206.14	16.6875
1210.47	20.5156
1214.79	67.1943
1219.12	77.6231
1223.44	143.988
1227.76	209.195
1232.08	134.495
1236.39	170.599
1240.7	279.94
1245.02	170.989
1249.32	302.416
1253.63	258.007
1257.93	414.618
1262.23	109.894
1266.53	312.978
1270.82	327.859
1275.12	317.844
1279.41	333.021
1283.69	111.762
1287.98	360.755
1292.26	178.62
1296.54	201.907
1300.82	204.367
1305.1	208.135
1309.37	388.337
1313.64	527.107
1317.91	406.465
1322.17	393.512
1326.44	313.853
1330.7	267.758
1334.96	239.101
1339.21	152.531
1343.47	100.43
1347.72	133.081
1351.97	50.1221
1356.21	112.825
1360.46	13.0576
1364.7	110.29
1368.94	179.875
1373.17	125.624
1377.41	173.473
1381.64	238.541
1385.87	92.3682
1390.1	113.716
1394.32	216.889
1398.54	135.97
1402.76	107.66
1406.98	132.415
1411.19	120.56
1415.41	40.6562
1419.62	61.0547
1423.82	155.877
1428.03	143.265
1432.23	250.445
1436.43	251.481
1440.63	405.217
1444.82	402.842
1449.02	644.52
1453.21	777.372
1457.4	625.563
1461.58	592.25
1465.77	430.817
1469.95	340.7
1474.12	348.672
1478.3	329.426
1482.47	208.54
1486.64	91.7295
1490.81	105.558
1494.98	190.094
1499.14	55.1133
1503.31	42.5635
1507.47	166.056
1511.62	89.4522
1515.78	18.4111
1519.93	95.3672
1524.08	160.234
1528.23	189.886
1532.37	114.881
1536.51	213.991
1540.65	136.952
1544.79	210.494
1548.93	88.7051
1553.06	353.615
1557.19	130.545
1561.32	130.242
