Measurement: Raman, 514 nm, depolarized, Raman Data Processed
Mineral: Analcime
Rruff sample: R050094
Ideal chemistry: NaAlSi_2_O_6_H_2_O
Locality: Springfield, Oregon, USA
Source: Rock Currier
Description: Clear colorless single crystals associated with gmelinite
Measured chemistry: (Na_0.99_[box]_0.01_)_Σ=1_(Si_2.01_Al_0.99_)O_6_·H_2_O
Pin_id: M00117
Orientation: Laser parallel to a* (1 0 0). Fiducial mark perpendicular to laser is parallel to -c [0 0 -1]
Raman shift (cm-1)	intensity
169.765	0
174.7	88.1304
179.631	178.477
184.56	386.762
189.484	649.636
194.406	905.686
199.325	1322.3
204.24	1420.86
209.153	1331.53
214.062	1216.48
218.968	1308.38
223.87	1400.53
228.77	1165.1
233.666	905.023
238.56	604.697
243.45	515.774
248.337	251.242
253.221	124.574
258.102	33.3931
262.979	58.6714
267.854	170.06
272.726	108.463
277.594	19.2192
282.459	198.542
287.321	953.948
292.18	2558.92
297.036	4449.15
301.889	3892.75
306.739	1977.47
311.586	1016.2
316.43	799.372
321.271	794.721
326.108	819.562
330.943	1008.4
335.774	1201.68
340.603	1442.3
345.428	1713.73
350.251	1976.39
355.07	2218.7
359.887	2439.82
364.7	3152.76
369.511	3611.44
374.318	4533.39
379.123	5575.78
383.924	6770.79
388.723	7249.48
393.518	7048.72
398.311	5531.97
403.1	3774.64
407.887	2624.7
412.671	1892.32
417.451	1414.17
422.229	1143.71
427.004	947.7
431.776	986.439
436.545	1307.23
441.311	1691.75
446.074	2097.96
450.834	3247.98
455.591	4667.83
460.346	7432.44
465.097	12116.9
469.846	20536
474.591	33245.3
479.334	48632
484.074	54495.7
488.811	44650.7
493.545	29088.8
498.276	17844.1
503.005	11175.6
507.73	7265.43
512.453	5088.63
517.173	3597.26
521.89	2636.32
526.604	2003.8
531.315	1380.73
536.024	944.423
540.729	718.192
545.432	494.043
550.132	312.04
554.83	112.769
559.524	4.02979
564.216	121.132
568.904	41.2759
573.59	21.2871
578.274	4.88379
582.954	38.1382
587.632	200.949
592.307	95.375
596.979	117.153
601.648	17.9834
606.315	167.656
610.979	372.062
615.64	469.665
620.298	590.254
624.954	781.283
629.607	615.231
634.257	411.535
638.904	366.833
643.549	486.118
648.191	698.132
652.83	640.113
657.467	694.963
662.101	740.606
666.732	843.013
671.36	909.142
675.986	836.001
680.609	582.562
685.23	363.776
689.847	197.61
694.462	75.2617
699.075	57.1182
703.685	33.5063
708.292	7.70752
712.896	11.8721
717.498	24.6797
722.097	81.9609
726.694	6.46826
731.287	38.0986
735.879	25.7983
740.467	59.9092
745.053	4.19336
749.637	0.412598
754.217	91.4175
758.795	114.019
763.371	213.553
767.944	159.089
772.514	269.948
777.082	237.582
781.647	438.831
786.21	357.357
790.77	468.69
795.327	389.901
799.882	327.539
804.434	378.292
808.984	400.839
813.531	328.102
818.076	291.838
822.618	404.995
827.158	237.191
831.695	300.651
836.229	407.741
840.761	415.61
845.291	436.777
849.817	415.211
854.342	502.168
858.864	660.3
863.383	517.39
867.9	314.205
872.414	258.888
876.926	177.424
881.436	113.596
885.942	103.564
890.447	157.141
894.949	33.5918
899.448	135.184
903.945	117.638
908.44	29.4995
912.932	84.4985
917.421	34.3013
921.909	12.2065
926.393	8.24805
930.876	19.4072
935.355	56.8911
939.833	64.2607
944.308	29.3843
948.78	21.064
953.25	81.2358
957.718	76.4917
962.183	122.697
966.646	107.94
971.107	155.297
975.565	268.701
980.02	303.259
984.474	458.996
988.925	504.985
993.373	631.22
997.819	836.697
1002.26	1157.44
1006.7	1048.49
1011.14	928.85
1015.58	857.307
1020.01	1010.12
1024.45	1217.34
1028.88	1099.98
1033.3	1187.52
1037.73	1325.28
1042.15	1460
1046.57	1526.79
1050.99	1515.18
1055.4	1736.23
1059.82	1823.97
1064.23	1990.02
1068.64	2404.41
1073.04	2659.91
1077.45	3083.5
1081.85	3576.97
1086.25	3780.32
1090.64	3961.09
1095.04	4059.59
1099.43	4159.28
1103.82	4253.94
1108.21	4127.73
1112.6	3861.64
1116.98	3605.68
1121.36	3285.84
1125.74	3041.13
1130.12	2738.53
1134.49	2208.06
1138.86	1816.7
1143.23	1512.45
1147.6	1267.31
1151.96	1037.27
1156.33	980.341
1160.69	673.517
1165.05	510.791
1169.4	497.158
1173.76	393.593
1178.11	254.171
1182.46	196.877
1186.81	73.7422
1191.15	30.1426
1195.49	11.9712
1199.84	61.189
1204.17	104.713
1208.51	32.876
1212.84	41.772
1217.18	12.707
1221.51	10.2764
1225.83	3.51221
1230.16	15.1435
1234.48	121.412
1238.8	97.7632
1243.12	73.2378
1247.44	57.8892
1251.76	99.7241
1256.07	91.6733
1260.38	118.797
1264.69	290.022
1268.99	270.342
1273.3	264.744
1277.6	243.225
1281.9	281.78
1286.2	232.402
1290.49	402.075
1294.79	491.797
1299.08	491.555
1303.37	414.342
1307.65	434.146
1311.94	508.959
1316.22	540.78
1320.5	423.068
1324.78	470.307
1329.06	350.791
1333.33	229.737
1337.6	240.664
1341.87	188.909
1346.14	216.01
1350.41	190.07
1354.67	154.859
1358.93	189.648
1363.19	181.388
1367.45	149.091
1371.71	297.523
1375.96	283.065
1380.21	288.435
1384.46	180.814
1388.71	304.322
1392.96	244.645
1397.2	141.898
1401.44	240.808
1405.68	277.817
1409.92	176.387
1414.16	274.392
1418.39	100.78
1422.62	83.3413
1426.85	218.046
1431.08	303.347
1435.3	344.004
1439.53	572.67
1443.75	699.744
1447.97	960.25
1452.19	1005.28
1456.4	1036.09
1460.62	845.561
1464.83	805.527
1469.04	503.649
1473.24	473.517
1477.45	255.451
1481.65	322.728
1485.86	283.353
1490.06	112.1
1494.26	13.1016
1498.45	40.5
1502.64	13.499
1506.84	106.202
1511.03	55.4165
1515.22	33.0283
1519.4	69.9531
1523.59	195.308
1527.77	166.269
1531.95	103.698
1536.13	87.5205
1540.31	84.4424
1544.48	3.88769
1548.65	135.582
1552.82	69.6455
1556.99	162.186
1561.16	58.7559
1565.33	0
