Measurement: Raman, 514 nm, ccw, Raman Data Processed
Mineral: Analcime
Rruff sample: R040128
Ideal chemistry: NaAlSi_2_O_6_H_2_O
Locality: Mont Saint-Hilaire, Rouville County, Quebec, Canada
Source: Bob Downs
Description: White trapezohedra associated with black arfvedsonite, R040127
Measured chemistry: Na_0.93_(Si_2.04_Al_0.99_)O_6_Â·H_2_O
Pin_id: L00925
Orientation: Laser parallel to c* (0 0 1). Fiducial mark perpendicular to laser is parallel to a [1 0 0]
Raman shift (cm-1)	intensity
105.226	0
110.19	1082.24
115.152	2939.11
120.111	4001.72
125.066	4701.13
130.018	5329.77
134.968	5759.57
139.914	6264.37
144.857	5632.63
149.797	4430.56
154.734	3243.98
159.668	2213.7
164.599	1564.09
169.527	938.92
174.451	707.932
179.373	907.518
184.292	1384.97
189.207	1598.14
194.12	1807.93
199.029	1553.82
203.936	1373.84
208.839	1195.09
213.74	1076.78
218.637	1147.12
223.531	763.829
228.423	854.214
233.311	641.193
238.196	449.771
243.078	46.9336
247.958	305.357
252.834	318.603
257.707	491.248
262.577	286.685
267.445	217.378
272.309	232.975
277.17	168.422
282.029	61.3291
286.884	624.163
291.736	2828.2
296.586	5767.59
301.432	5745.68
306.275	3472.42
311.116	1648.02
315.953	1407.71
320.788	910.596
325.62	1202.23
330.448	1392.94
335.274	1602.69
340.097	1972.76
344.917	2514.51
349.733	2808.79
354.547	3564.54
359.358	4030.68
364.166	4896.16
368.972	6079.96
373.774	7479.06
378.573	8742.46
383.37	9929.14
388.163	10540.6
392.954	10403.3
397.742	9400.59
402.526	8048.11
407.308	6262.74
412.087	4671.93
416.863	3467.77
421.637	2708.08
426.407	2392.11
431.174	2457.04
435.939	2846.84
440.701	3351.46
445.46	4269.96
450.216	5237.88
454.969	7354.08
459.719	11010.8
464.466	17747.7
469.211	30315.9
473.953	52594.5
478.692	83397.8
483.428	100799
488.161	83119.1
492.891	52398.9
497.619	31117.1
502.343	19128.7
507.065	12212.5
511.784	8180.72
516.5	5739.21
521.214	4025.1
525.924	3185.02
530.632	2282.37
535.337	1715.46
540.039	1241.12
544.738	755.791
549.435	496.619
554.129	240.039
558.82	39.1309
563.508	1.65625
568.193	46.2266
572.876	116.512
577.555	86.0742
582.232	82.5352
586.907	60.0703
591.578	343.025
596.247	531.055
600.913	887.996
605.576	1022.19
610.236	1274.8
614.894	1582.69
619.549	1405.78
624.201	1310.82
628.851	1238.25
633.497	1232
638.141	1292.88
642.782	1097
647.421	859.822
652.057	1004.34
656.69	1039.67
661.32	1004.72
665.947	1188.75
670.572	1537.62
675.194	1451.48
679.814	1123.06
684.43	989.031
689.044	654.17
693.656	252.445
698.264	133.801
702.87	215.736
707.473	222.072
712.074	363.127
716.672	95.9707
721.267	294.094
725.859	141.894
730.449	0.695313
735.036	74.2109
739.62	29.5117
744.202	26.4141
748.781	89.457
753.358	97.9727
757.931	18.8535
762.502	225.287
767.071	170.115
771.637	421.096
776.2	418.322
780.76	388.928
785.318	433.852
789.873	548.801
794.426	369.106
798.976	488.178
803.523	209.211
808.068	311.225
812.61	265.832
817.149	302.815
821.686	231.789
826.22	327.742
830.751	256.539
835.28	233.66
839.807	299.242
844.33	205.701
848.852	254.193
853.37	234.891
857.886	289.113
862.399	288.674
866.91	423.74
871.418	219.764
875.924	214.682
880.427	109.828
884.927	64.5449
889.425	35.3516
893.92	86.3691
898.413	64.8398
902.903	4.27539
907.391	10.2266
911.875	16.2812
916.358	124.115
920.838	243.981
925.315	111.541
929.79	116.662
934.262	61.6387
938.732	302.033
943.199	83.8965
947.663	353.621
952.125	84.0293
956.585	824.992
961.042	359.758
965.496	303.805
969.948	452.121
974.398	585.365
978.844	798.918
983.289	1134.16
987.731	1160.09
992.17	1508.81
996.607	2037.09
1001.04	2448.94
1005.47	2258.28
1009.9	2162.89
1014.33	2171.65
1018.75	2148.95
1023.17	2279.55
1027.59	1965.9
1032.01	2175.92
1036.43	2358.55
1040.84	2329.7
1045.25	2673.14
1049.65	3182.5
1054.06	3501.57
1058.46	3747.54
1062.86	4210.23
1067.26	4675.12
1071.65	5366.62
1076.04	6496.46
1080.43	7680.68
1084.82	8933.21
1089.2	10338.6
1093.59	11290.6
1097.97	11208.1
1102.34	11120.5
1106.72	10630.6
1111.09	9557.82
1115.46	8805.72
1119.83	7877.27
1124.19	6870.84
1128.56	5964.58
1132.92	4955.24
1137.28	4299.22
1141.63	3506.43
1145.98	2881.86
1150.34	2436.77
1154.68	2164.01
1159.03	1600.9
1163.37	1264.47
1167.71	839.51
1172.05	836.664
1176.39	619.223
1180.72	478.402
1185.05	214.26
1189.38	89.7285
1193.71	192.545
1198.03	154.478
1202.36	130.846
1206.67	70.5879
1210.99	42.9902
1215.31	193.443
1219.62	130.519
1223.93	15.3516
1228.24	64.1035
1232.54	109.322
1236.85	38.1133
1241.15	19.0977
1245.44	2.56445
1249.74	16.541
1254.03	19.9883
1258.33	8.40234
1262.61	28.6758
1266.9	262.053
1271.18	15.6055
1275.47	89.1953
1279.74	247.383
1284.02	467.123
1288.3	599.402
1292.57	874.561
1296.84	253.578
1301.11	515.373
1305.37	63.9375
1309.64	218.312
1313.9	206.445
1318.16	11.6406
1322.41	133.918
1326.67	108.242
1330.92	66.2461
1335.17	264.957
1339.41	43.0977
1343.66	307.621
1347.9	170.578
1352.14	20.1582
1356.38	251.797
1360.61	194.719
1364.85	321.481
1369.08	216.951
1373.31	124.459
1377.53	55.9707
1381.76	189.678
1385.98	170.361
1390.2	244.43
1394.42	318.315
1398.63	167.242
1402.84	221.088
1407.05	63.3711
1411.26	354.248
1415.47	357.879
1419.67	208.967
1423.87	325.625
1428.07	251.287
1432.27	577.977
1436.46	623.269
1440.66	689.519
1444.85	684.85
1449.04	654.693
1453.22	498.738
1457.4	598.408
1461.59	317.129
1465.77	455.16
1469.94	376.082
1474.12	286.236
1478.29	297.519
1482.46	130.594
1486.63	136.844
1490.79	157.834
1494.96	167.758
1499.12	312.812
1503.28	381.59
1507.43	231.315
1511.59	309.973
1515.74	368.777
1519.89	183.795
1524.04	13.6562
1528.18	69.3144
1532.33	282.797
1536.47	168.481
1540.61	304.129
1544.75	213.5
1548.88	184.127
1553.02	266.238
1557.15	191.58
1561.27	200.143
1565.4	149.113
1569.53	183.492
1573.65	320.578
1577.77	0.691406
