Measurement: Raman, 514 nm, depolarized, Raman Data Processed
Mineral: Analcime
Rruff sample: R050094
Ideal chemistry: NaAlSi_2_O_6_H_2_O
Locality: Springfield, Oregon, USA
Source: Rock Currier
Description: Clear colorless single crystals associated with gmelinite
Measured chemistry: (Na_0.99_[box]_0.01_)_Σ=1_(Si_2.01_Al_0.99_)O_6_·H_2_O
Pin_id: M00434
Orientation: Laser parallel to c* (0 0 1). Fiducial mark perpendicular to laser is parallel to [1 1 0]
Raman shift (cm-1)	intensity
169.765	0
174.7	122.448
179.631	267.367
184.56	358.133
189.484	540.027
194.406	892.889
199.325	1083.74
204.24	1198.12
209.153	1009.54
214.062	1138.15
218.968	1333.58
223.87	1268.09
228.77	1207.26
233.666	1008.12
238.56	806.246
243.45	564.899
248.337	303.745
253.221	85.1748
258.102	66.167
262.979	33.2002
267.854	193.633
272.726	98.0068
277.594	23.3755
282.459	232.509
287.321	1051.67
292.18	2505.52
297.036	4409.54
301.889	3785.14
306.739	1966.14
311.586	1014.09
316.43	821.301
321.271	790.757
326.108	868.79
330.943	1045.73
335.774	1215.46
340.603	1414.9
345.428	1620.46
350.251	1961.56
355.07	2168.74
359.887	2491.3
364.7	3042.84
369.511	3767.96
374.318	4660.72
379.123	5579.97
383.924	6288.77
388.723	6723.26
393.518	6369.72
398.311	5081.82
403.1	3746.58
407.887	2639.94
412.671	1913.59
417.451	1467.41
422.229	1151.32
427.004	987.357
431.776	1015.08
436.545	1264.78
441.311	1504.72
446.074	1953.41
450.834	2730.91
455.591	4141.09
460.346	6787.92
465.097	11164
469.846	19023.4
474.591	31767.1
479.334	47035.1
484.074	52499.3
488.811	41495.6
493.545	26172.2
498.276	15760.9
503.005	9668.89
507.73	6351.14
512.453	4357.77
517.173	3112.81
521.89	2229.26
526.604	1753.12
531.315	1165.37
536.024	949.075
540.729	734.312
545.432	494.255
550.132	249.949
554.83	113.088
559.524	51.1719
564.216	48.4487
568.904	132.921
573.59	90.7695
578.274	40.7812
582.954	44.8677
587.632	81.439
592.307	254.251
596.979	252.115
601.648	220.331
606.315	252.413
610.979	367.442
615.64	489.684
620.298	542.034
624.954	587.13
629.607	627.415
634.257	493.182
638.904	433.123
643.549	507.525
648.191	579.261
652.83	501.981
657.467	623.12
662.101	633.099
666.732	770.877
671.36	718.421
675.986	674.733
680.609	443.764
685.23	263.101
689.847	162.787
694.462	32.021
699.075	38.654
703.685	33.873
708.292	18.1274
712.896	27.8689
717.498	57.1545
722.097	48.554
726.694	2.57861
731.287	7.6687
735.879	32.9512
740.467	34.3303
745.053	12.9644
749.637	17.9277
754.217	50.2932
758.795	40.2102
763.371	74.105
767.944	85.5811
772.514	181.189
777.082	279.592
781.647	348.2
786.21	398.734
790.77	448.134
795.327	483.549
799.882	420.16
804.434	313.781
808.984	328.335
813.531	306.827
818.076	206.769
822.618	199.162
827.158	268.983
831.695	294.294
836.229	201.704
840.761	290.475
845.291	358.946
849.817	385.473
854.342	241.516
858.864	310.476
863.383	324.386
867.9	224.63
872.414	244.334
876.926	174.35
881.436	101.714
885.942	41.9414
890.447	100.872
894.949	44.4385
899.448	1.74023
903.945	24.8555
908.44	11.4824
912.932	7.38086
917.421	21.3008
921.909	78.9829
926.393	15.2437
930.876	9.14551
935.355	26.1523
939.833	18.4121
944.308	49.8648
948.78	15.292
953.25	48.4453
957.718	80.3135
962.183	91.5142
966.646	107.744
971.107	68.147
975.565	176.593
980.02	280.296
984.474	309.16
988.925	485.229
993.373	487.466
997.819	729.976
1002.26	860.934
1006.7	724.58
1011.14	729.738
1015.58	723.835
1020.01	845.738
1024.45	920.684
1028.88	867.699
1033.3	1006.74
1037.73	1085.94
1042.15	1222.37
1046.57	1345.59
1050.99	1408.23
1055.4	1428.93
1059.82	1636.33
1064.23	1829.21
1068.64	2256.43
1073.04	2342.34
1077.45	2951.11
1081.85	3298.26
1086.25	3505.54
1090.64	3897.98
1095.04	4012.2
1099.43	4231.38
1103.82	4109.57
1108.21	4091.89
1112.6	3722.02
1116.98	3494.59
1121.36	3159.46
1125.74	2979.49
1130.12	2479.35
1134.49	2114.3
1138.86	1851.33
1143.23	1484.45
1147.6	1260.65
1151.96	1094.94
1156.33	813.421
1160.69	659.889
1165.05	492.425
1169.4	500.029
1173.76	416.694
1178.11	249.423
1182.46	216.209
1186.81	141.077
1191.15	16.1626
1195.49	58.3301
1199.84	9.47754
1204.17	6.31006
1208.51	41.1826
1212.84	1.71484
1217.18	12.5508
1221.51	10.6733
1225.83	54.9648
1230.16	6.5957
1234.48	34.227
1238.8	2.91797
1243.12	19.4326
1247.44	34.7617
1251.76	71.1875
1256.07	86.6724
1260.38	108.197
1264.69	149.788
1268.99	203.43
1273.3	162.096
1277.6	235.787
1281.9	208.504
1286.2	102.241
1290.49	137.974
1294.79	223.698
1299.08	217.47
1303.37	296.156
1307.65	293.811
1311.94	366.425
1316.22	374.005
1320.5	352.578
1324.78	233.7
1329.06	225.406
1333.33	68.6001
1337.6	158.398
1341.87	130.879
1346.14	153.077
1350.41	173.497
1354.67	73.7271
1358.93	110.895
1363.19	63.081
1367.45	104.891
1371.71	93.2485
1375.96	178.918
1380.21	198.997
1384.46	195.454
1388.71	203.574
1392.96	150.205
1397.2	94.6118
1401.44	84.9356
1405.68	204.751
1409.92	77.4927
1414.16	128.971
1418.39	152.059
1422.62	12.7788
1426.85	99.1367
1431.08	99.957
1435.3	265.36
1439.53	367.804
1443.75	483.567
1447.97	673.415
1452.19	768.428
1456.4	723.875
1460.62	607.626
1464.83	518.882
1469.04	431.335
1473.24	251.761
1477.45	216.039
1481.65	131.181
1485.86	117.314
1490.06	75.4585
1494.26	65.7456
1498.45	22.8023
1502.64	54.7915
1506.84	61.7158
1511.03	45.5601
1515.22	15.2944
1519.4	77.085
1523.59	91.7466
1527.77	54.7881
1531.95	54.2739
1536.13	106.802
1540.31	80.4185
1544.48	88.4834
1548.65	71.0249
1552.82	60.4185
1556.99	106.174
1561.16	98.9414
1565.33	0
