Measurement: Raman, 514 nm, depolarized, Raman Data Processed
Mineral: Analcime
Rruff sample: R060023
Ideal chemistry: NaAlSi_2_O_6_H_2_O
Locality: Dallas, Oregon, USA
Source: Bob Downs
Description: White trapezohedral crystal associated with levyne-Na, R060021
Measured chemistry: (Na_0.98_[box]_0.02_)_Σ=1_(Si_2.02_Al_0.98_)O_6_·H_2_O
Pin_id: M00322
Orientation: Laser parallel to a* (1 0 0). Fiducial mark perpendicular to laser is parallel to c [0 0 1]
Raman shift (cm-1)	intensity
181.598	0
186.5	32.0586
191.399	347.441
196.296	495.389
201.19	557.029
206.082	451.741
210.971	585.173
215.858	614.188
220.742	749.346
225.624	859.916
230.503	751.095
235.38	552.038
240.254	363.724
245.125	280.992
249.994	65.8179
254.861	32.6235
259.725	101.516
264.586	97.4898
269.445	99.5752
274.302	21.5366
279.155	66.8589
284.007	490.141
288.855	1265.08
293.702	2383.74
298.545	2356.48
303.386	1400.31
308.225	732.006
313.061	442.715
317.894	420.123
322.725	544.18
327.554	576.41
332.38	726.84
337.203	873.606
342.024	1020.51
346.842	1168.96
351.658	1385.87
356.471	1664.4
361.281	1925.82
366.09	2251.11
370.895	3011.86
375.698	3700.57
380.498	4475.14
385.296	4825.67
390.092	4707.22
394.884	4193.94
399.675	3213.65
404.462	2268.12
409.248	1650.74
414.03	1265.52
418.81	957.981
423.588	810.439
428.363	821.553
433.135	967.102
437.905	1084.93
442.672	1356.89
447.437	1927.97
452.199	2825.61
456.959	4318.85
461.716	7298.63
466.47	12572
471.222	21507.7
475.972	32333.7
480.719	37539.6
485.463	31612.5
490.205	20108.5
494.944	12044.4
499.681	7481.51
504.415	4775.71
509.146	3279.08
513.875	2249.68
518.602	1719.56
523.326	1278.31
528.047	845.224
532.766	571.043
537.482	521.248
542.196	376
546.907	163.373
551.616	181.776
556.322	44.6143
561.025	65.0879
565.726	130.801
570.424	93.2422
575.12	8.7793
579.813	10.0923
584.504	34.4614
589.192	104.075
593.877	84.4394
598.56	155.744
603.241	111.025
607.919	277.481
612.594	201.61
617.267	353.39
621.937	290.772
626.604	222.304
631.269	251.194
635.932	217.481
640.592	318.35
645.249	286.057
649.904	252.745
654.556	264.336
659.206	311.816
663.853	429.172
668.497	583.674
673.139	508.857
677.779	405.247
682.416	248.158
687.05	157.044
691.682	69.4746
696.311	121.671
700.937	4.43848
705.561	68.7022
710.183	113.553
714.802	33.3897
719.418	17.8291
724.032	88.7505
728.643	32.7622
733.251	20.0181
737.857	48.9961
742.461	2.44238
747.062	0.344727
751.66	22.3916
756.256	106.865
760.849	117.999
765.44	131.636
770.028	104.255
774.613	132.372
779.196	275.538
783.777	350.911
788.354	399.926
792.93	364.479
797.502	291.527
802.072	254.199
806.64	165.296
811.205	114.954
815.767	179.165
820.327	183.94
824.884	151.284
829.439	191.018
833.991	161.277
838.541	236.038
843.087	94.918
847.632	244.926
852.174	143.549
856.713	101.628
861.25	93.854
865.784	104.216
870.315	49.8716
874.844	49.1523
879.371	29.7686
883.894	2.68506
888.416	37.8823
892.934	45.0527
897.45	53.5542
901.964	68.2373
906.475	92.1397
910.983	21.5659
915.489	117.793
919.992	63.3355
924.493	48.2217
928.991	74.9219
933.486	9.44922
937.979	66.8144
942.47	119.649
946.957	57.4004
951.443	162.126
955.925	107.841
960.405	49.1699
964.883	41.9043
969.358	203.311
973.83	183.896
978.3	280.016
982.767	254.457
987.232	484.986
991.694	406.268
996.153	583.115
1000.61	536.619
1005.06	610.713
1009.52	639.807
1013.97	679.27
1018.41	678.445
1022.86	715.939
1027.3	696.855
1031.74	780.032
1036.17	810.815
1040.61	933.519
1045.04	1057.16
1049.47	1056.41
1053.89	1139.71
1058.32	1271.64
1062.74	1384.77
1067.15	1542.2
1071.57	1724.94
1075.98	1982.56
1080.39	2341.29
1084.8	2775.75
1089.21	2945.85
1093.61	3118.95
1098.01	3232.42
1102.41	3350.84
1106.8	3250.19
1111.19	3022.43
1115.59	2967.2
1119.97	2700.97
1124.36	2412.32
1128.74	2117.9
1133.12	1884.7
1137.5	1487.02
1141.87	1313.57
1146.24	1082.24
1150.61	920.695
1154.98	798.396
1159.34	671.081
1163.7	606.856
1168.06	495.353
1172.42	367.21
1176.77	269.606
1181.12	183.544
1185.47	207.663
1189.82	102.789
1194.16	47.9404
1198.5	10.9263
1202.84	57.915
1207.18	59.0562
1211.51	12.2139
1215.84	5.04639
1220.17	44.8911
1224.5	11.7178
1228.82	35.5742
1233.14	67.7935
1237.46	45.4062
1241.77	35.957
1246.09	27.8301
1250.39	34.4258
1254.7	16.7979
1259.01	4.21436
1263.31	24.1582
1267.61	35.4419
1271.91	3.77881
1276.2	53.4043
1280.49	13.7744
1284.78	49.6367
1289.07	68.4834
1293.35	68.1836
1297.64	118.976
1301.91	67.459
1306.19	133.826
1310.46	32.0659
1314.74	83.1728
1319.01	14.8765
1323.27	129.917
1327.54	83.333
1331.8	139.674
1336.06	122.302
1340.31	72.6504
1344.57	147.519
1348.82	61.5185
1353.06	137.734
1357.31	15.4395
1361.55	85.0532
1365.79	99.8003
1370.03	23.5977
1374.27	132.143
1378.5	161.467
1382.73	61.23
1386.96	80.5093
1391.18	80.6309
1395.4	103.102
1399.62	35.5996
1403.84	74.7998
1408.06	65.0757
1412.27	115.207
1416.48	94.2554
1420.69	155.181
1424.89	74.499
1429.09	133.575
1433.29	150.2
1437.49	149.502
1441.68	224.032
1445.87	128.148
1450.06	158.427
1454.25	76.2949
1458.43	144.18
1462.62	158.26
1466.79	217.983
1470.97	117.088
1475.14	26.772
1479.31	124.233
1483.48	5.74463
1487.65	71.9785
1491.81	3.00098
1495.97	68.4326
1500.13	81.2236
1504.29	127.14
1508.44	74.272
1512.59	91.3877
1516.74	133.147
1520.88	12.1514
1525.03	86.1977
1529.17	111.897
1533.3	94.8652
1537.44	117.814
1541.57	41.0938
1545.7	120.028
1549.83	102.935
1553.95	102.477
1558.08	139.128
1562.19	0.695801
