Measurement: Raman, 514 nm, depolarized, Raman Data Processed
Mineral: Analcime
Rruff sample: R060023
Ideal chemistry: NaAlSi_2_O_6_H_2_O
Locality: Dallas, Oregon, USA
Source: Bob Downs
Description: White trapezohedral crystal associated with levyne-Na, R060021
Measured chemistry: (Na_0.98_[box]_0.02_)_Σ=1_(Si_2.02_Al_0.98_)O_6_·H_2_O
Pin_id: M00414
Orientation: Laser parallel to c* (0 0 1). Fiducial mark perpendicular to laser is parallel to a [1 0 0]
Raman shift (cm-1)	intensity
181.598	0
186.5	89.8423
191.399	221.971
196.296	371.188
201.19	468.781
206.082	451.153
210.971	446.496
215.858	557.572
220.742	748.896
225.624	895.562
230.503	956.608
235.38	645.034
240.254	454.391
245.125	332.382
249.994	238.949
254.861	47.2695
259.725	177.843
264.586	2.8833
269.445	87.3789
274.302	68.6021
279.155	95.5742
284.007	431.706
288.855	1259.7
293.702	1918.82
298.545	2373.26
303.386	1452.8
308.225	630.87
313.061	484.985
317.894	567.072
322.725	445.732
327.554	639.725
332.38	599.308
337.203	774.388
342.024	898.055
346.842	974.054
351.658	1253.45
356.471	1389.99
361.281	1685.37
366.09	2173.43
370.895	2626.32
375.698	3223.02
380.498	3818.66
385.296	4014.55
390.092	3921.71
394.884	3416.05
399.675	2880.05
404.462	2192.44
409.248	1506.39
414.03	1140.63
418.81	872.476
423.588	730.156
428.363	612.333
433.135	779.468
437.905	956.268
442.672	1195.09
447.437	1572.51
452.199	2168.56
456.959	3318.96
461.716	5343.7
466.47	9306.88
471.222	15974.4
475.972	24303
480.719	29776.6
485.463	26971.1
490.205	17816.6
494.944	10667.2
499.681	6248.75
504.415	4117.39
509.146	2852.12
513.875	1984
518.602	1454.07
523.326	1041.36
528.047	787.854
532.766	548.562
537.482	531.52
542.196	262.84
546.907	284.789
551.616	68.7808
556.322	10.6372
561.025	71.8535
565.726	19.5278
570.424	14.4898
575.12	54.5659
579.813	73.6851
584.504	68.5044
589.192	89.6479
593.877	74.5107
598.56	216.001
603.241	336.272
607.919	488.959
612.594	362.82
617.267	220.824
621.937	249.78
626.604	245.776
631.269	323.656
635.932	318.05
640.592	325.425
645.249	253.642
649.904	186.852
654.556	306.95
659.206	245.967
663.853	383.15
668.497	433.364
673.139	434.073
677.779	390.01
682.416	306.536
687.05	129.956
691.682	144.818
696.311	61.9102
700.937	29.1348
705.561	55.3584
710.183	80.7695
714.802	74.0801
719.418	80.9453
724.032	73.2373
728.643	105.203
733.251	2.02246
737.857	140.307
742.461	18.0127
747.062	194.043
751.66	119.439
756.256	124.069
760.849	29.0693
765.44	93.6748
770.028	186.309
774.613	183.095
779.196	305.513
783.777	270.902
788.354	383.37
792.93	327.695
797.502	296.919
802.072	245.84
806.64	303.289
811.205	265.46
815.767	225.625
820.327	199.41
824.884	127.333
829.439	280.446
833.991	176.754
838.541	149.398
843.087	286.173
847.632	125.703
852.174	243.397
856.713	192.331
861.25	156.244
865.784	113.44
870.315	140.782
874.844	28.4648
879.371	22.8125
883.894	88.2051
888.416	11.334
892.934	31.6074
897.45	1.63086
901.964	46.0898
906.475	101.815
910.983	34.4277
915.489	42.7861
919.992	23.1699
924.493	66.8486
928.991	80.3545
933.486	111.99
937.979	128.078
942.47	2.04004
946.957	109.631
951.443	186.036
955.925	21.7012
960.405	82.5283
964.883	142.524
969.358	176.223
973.83	220.008
978.3	254.564
982.767	224.031
987.232	292.695
991.694	406.616
996.153	336.01
1000.61	684.898
1005.06	554.572
1009.52	461.657
1013.97	541.118
1018.41	537.783
1022.86	649.446
1027.3	662.837
1031.74	590.057
1036.17	677.077
1040.61	720.42
1045.04	797.704
1049.47	947.35
1053.89	1005.87
1058.32	805.302
1062.74	1075.64
1067.15	1206.98
1071.57	1645.02
1075.98	1630.53
1080.39	1755.09
1084.8	2174.7
1089.21	2459.74
1093.61	2691.48
1098.01	2746.48
1102.41	2569.3
1106.8	2577.08
1111.19	2423.2
1115.59	2453.03
1119.97	1933.01
1124.36	1769.46
1128.74	1742.1
1133.12	1552.73
1137.5	1179.24
1141.87	1070.16
1146.24	803.907
1150.61	723.159
1154.98	718.746
1159.34	438.949
1163.7	456.312
1168.06	243.427
1172.42	271.841
1176.77	281.461
1181.12	72.4502
1185.47	104.989
1189.82	203.428
1194.16	68.8193
1198.5	103.243
1202.84	19.376
1207.18	64.1064
1211.51	187.936
1215.84	56.8623
1220.17	130.094
1224.5	42.417
1228.82	14.5518
1233.14	93.8213
1237.46	180.893
1241.77	96.8096
1246.09	153.88
1250.39	67.0693
1254.7	71.583
1259.01	39.2373
1263.31	107.404
1267.61	91.8496
1271.91	95.8047
1276.2	222.106
1280.49	2.95898
1284.78	200.522
1289.07	219.012
1293.35	268.16
1297.64	151.058
1301.91	8.29883
1306.19	10.6826
1310.46	141.792
1314.74	154.93
1319.01	114.769
1323.27	219.307
1327.54	274.159
1331.8	125.636
1336.06	157.449
1340.31	59.1299
1344.57	85.4346
1348.82	71.6416
1353.06	189.465
1357.31	228.81
1361.55	2.66211
1365.79	109.272
1370.03	159.969
1374.27	184.137
1378.5	87.4141
1382.73	224.299
1386.96	166.423
1391.18	109.317
1395.4	17.5322
1399.62	225.55
1403.84	259.751
1408.06	130.704
1412.27	63.4434
1416.48	179.753
1420.69	162.007
1424.89	250.204
1429.09	40.0762
1433.29	133.975
1437.49	75.2832
1441.68	179.156
1445.87	90.626
1450.06	5.84375
1454.25	90.5947
1458.43	164.136
1462.62	42.7373
1466.79	186.331
1470.97	148.155
1475.14	51.9082
1479.31	69.5518
1483.48	162.96
1487.65	137.172
1491.81	128.568
1495.97	175.213
1500.13	164.265
1504.29	123.188
1508.44	107.605
1512.59	107.484
1516.74	38.3418
1520.88	154.086
1525.03	52.5801
1529.17	179.441
1533.3	150.232
1537.44	110.059
1541.57	45.709
1545.7	92.9473
1549.83	203.84
1553.95	116.312
1558.08	227.711
1562.19	237.281
