Measurement: Raman, 514 nm, depolarized, Raman Data Processed
Mineral: Analcime
Rruff sample: R040128
Ideal chemistry: NaAlSi_2_O_6_H_2_O
Locality: Mont Saint-Hilaire, Rouville County, Quebec, Canada
Source: Bob Downs
Description: White trapezohedra associated with black arfvedsonite, R040127
Measured chemistry: Na_0.93_(Si_2.04_Al_0.99_)O_6_Â·H_2_O
Pin_id: L00542
Orientation: Laser parallel to -a [-1 0 0]. Fiducial mark perpendicular to laser is parallel to -b* (0 -1 0)
Raman shift (cm-1)	intensity
104.6	0
108.781	584.677
112.959	1837.84
117.136	1639.21
121.31	1674.36
125.482	1808.8
129.653	1972.33
133.821	2200.41
137.987	2450.61
142.152	2517.4
146.314	2376.78
150.474	2164.95
154.633	1640.88
158.789	1527.52
162.943	1367.31
167.095	1081.93
171.246	942.546
175.394	989.925
179.54	984.837
183.684	1330.92
187.826	1643.88
191.967	2153.2
196.105	2090.28
200.241	1823.03
204.375	1507.74
208.507	1284.22
212.638	1132.26
216.766	1021.59
220.892	1022.03
225.016	1183.42
229.139	1045.57
233.259	978.111
237.377	820.834
241.493	683.742
245.608	327.849
249.72	229.17
253.83	20.723
257.939	114.284
262.045	275.7
266.15	221.892
270.252	275.39
274.353	264.064
278.451	322.459
282.548	204.646
286.642	204.041
290.735	911.137
294.826	2236.14
298.914	2961.62
303.001	1887.35
307.086	1053.21
311.168	738.985
315.249	594.256
319.328	628.898
323.405	663.034
327.48	726.763
331.553	870.155
335.624	973.271
339.693	1326.15
343.76	1338.78
347.826	1739.93
351.889	1908.7
355.95	2225.08
360.01	2579.6
364.067	2994.08
368.123	3578.78
372.176	4253.7
376.228	4868.81
380.277	5634.14
384.325	6049.75
388.371	6215.64
392.415	6191.8
396.457	6028.2
400.497	5284.84
404.535	4613.65
408.571	3615.08
412.605	2936.59
416.638	2339.53
420.668	1884.5
424.697	1407.96
428.723	1262.98
432.748	1328.91
436.77	1358.27
440.791	1582.82
444.81	1698.64
448.827	2124.59
452.842	2863.83
456.855	4033.08
460.867	5732.31
464.876	8431.49
468.883	13230.6
472.889	21562.9
476.892	33768.7
480.894	45297.6
484.894	44626.5
488.892	32205.4
492.888	20834.2
496.882	13663
500.874	9161.68
504.865	6470.36
508.853	4439.01
512.84	3267.66
516.824	2566.32
520.807	2215.04
524.788	1573.81
528.767	1142.68
532.744	923.027
536.719	791.67
540.693	631.973
544.664	436.841
548.634	252.902
552.601	214.087
556.567	132.234
560.531	10.183
564.493	162.643
568.453	2.117
572.412	21.524
576.368	24.781
580.323	70.008
584.275	2.958
588.226	235.724
592.175	295.964
596.122	354.543
600.068	418.732
604.011	563.691
607.952	655.634
611.892	531.001
615.83	583.51
619.766	524.952
623.7	596.135
627.632	876.765
631.563	667.128
635.491	597.282
639.418	667.236
643.343	556.974
647.266	706.487
651.187	595.774
655.106	465.188
659.024	424.35
662.939	443.286
666.853	562.246
670.765	530.958
674.675	338.792
678.583	346.695
682.49	284.667
686.394	121.985
690.297	79.07
694.198	95.806
698.097	27.573
701.995	107.747
705.89	32.543
709.784	3.223
713.675	19.301
717.565	43.999
721.453	53.072
725.34	32.339
729.224	18.646
733.107	121.136
736.988	20.206
740.867	48.174
744.744	73.053
748.62	11.341
752.493	119.796
756.365	32.787
760.235	56.154
764.103	11.112
767.969	67.81
771.834	167.051
775.697	142.786
779.558	227.867
783.417	383.559
787.274	597.272
791.13	591.735
794.983	444.739
798.835	377.394
802.686	529.699
806.534	401.66
810.38	343.273
814.225	144.538
818.068	255.457
821.909	156.035
825.749	236.269
829.586	196.172
833.422	225.751
837.256	215.004
841.088	123.565
844.919	650.409
848.748	166.223
852.575	211.414
856.4	207.512
860.223	136.609
864.045	199.735
867.864	166.354
871.682	57.045
875.499	290.246
879.313	281.608
883.126	40.402
886.937	71.673
890.746	3.046
894.553	56.411
898.359	33.606
902.163	23.587
905.965	4.685
909.765	51.797
913.564	38.441
917.361	40.222
921.156	82.12
924.949	34.161
928.74	30.397
932.53	26.168
936.318	108.076
940.104	182.262
943.889	146.409
947.672	100.514
951.453	184.602
955.232	48.679
959.01	162.76
962.785	156.488
966.559	329.883
970.332	343.99
974.102	67.227
977.871	261.089
981.638	425.243
985.404	479.405
989.167	583.282
992.929	577.29
996.689	692.129
1000.45	876.645
1004.2	921.34
1007.96	946.883
1011.71	912.619
1015.46	1108.81
1019.21	1034.87
1022.96	1230.91
1026.71	1017.38
1030.45	1189.43
1034.19	1310.62
1037.94	1608.1
1041.68	1836.3
1045.41	1802.46
1049.15	1969.95
1052.88	1908.47
1056.62	2257.56
1060.35	2376.95
1064.08	2587.04
1067.8	2555.23
1071.53	2835.36
1075.25	3071.16
1078.97	3351.42
1082.7	4172.27
1086.41	4802.03
1090.13	5373.61
1093.85	5663.94
1097.56	5575.58
1101.27	5397.13
1104.98	5189.53
1108.69	4951.87
1112.4	4733.77
1116.1	4295.61
1119.81	3927.76
1123.51	3703.76
1127.21	2995.71
1130.91	2289.85
1134.61	2094.72
1138.3	1842.46
1141.99	1506.08
1145.68	1602.12
1149.38	1230.44
1153.06	975.205
1156.75	757.129
1160.43	707.604
1164.12	552.461
1167.8	605.156
1171.48	357.527
1175.16	360.82
1178.83	223.744
1182.51	147.457
1186.18	34.484
1189.85	124.668
1193.52	67.574
1197.19	283.074
1200.86	217.117
1204.52	241.854
1208.19	120.406
1211.85	27.713
1215.51	240.598
1219.17	44.719
1222.82	277.43
1226.48	277.832
1230.13	404.674
1233.78	257.41
1237.43	452.949
1241.08	313.277
1244.73	113.131
1248.37	135.367
1252.01	115.395
1255.66	204.893
1259.3	354.111
1262.93	194.055
1266.57	262.633
1270.21	341.588
1273.84	229.84
1277.47	172.949
1281.1	42.699
1284.73	24.566
1288.36	131
1291.98	236.561
1295.6	512.037
1299.23	276.104
1302.85	280.137
1306.46	62.99
1310.08	185.215
1313.7	277.029
1317.31	128.43
1320.92	369.4
1324.53	199.918
1328.14	219.953
1331.75	278.609
1335.35	327.473
1338.96	145.732
1342.56	41.844
1346.16	28.604
1349.76	24.736
1353.36	1.438
1356.95	276.455
1360.55	321.635
1364.14	421.367
1367.73	516.061
1371.32	219.826
1374.91	101.992
1378.49	16.08
1382.08	158.605
1385.66	251.672
1389.24	303.635
1392.82	425.674
1396.4	692.82
1399.97	692.217
1403.55	452.699
1407.12	357.074
1410.69	352.141
1414.26	127.041
1417.83	270.416
1421.4	15.957
1424.96	178.65
1428.53	205.184
1432.09	500.412
1435.65	505.477
1439.21	698.289
1442.76	799.762
1446.32	585.111
1449.87	915.506
1453.43	569.188
1456.98	363.641
1460.53	499.172
1464.07	465.691
1467.62	512.6
1471.16	700.188
1474.71	876.395
1478.25	1000.31
1481.79	783.121
1485.32	518.645
1488.86	617.555
1492.39	406.223
1495.93	265.117
1499.46	75.547
1502.99	61.291
1506.52	74.752
1510.05	294.322
1513.57	317.449
1517.09	155.277
1520.62	370.426
