Measurement: Raman, 514 nm, ccw, Raman Data Processed
Mineral: Analcime
Rruff sample: R040128
Ideal chemistry: NaAlSi_2_O_6_H_2_O
Locality: Mont Saint-Hilaire, Rouville County, Quebec, Canada
Source: Bob Downs
Description: White trapezohedra associated with black arfvedsonite, R040127
Measured chemistry: Na_0.93_(Si_2.04_Al_0.99_)O_6_Â·H_2_O
Pin_id: L00925
Orientation: Laser parallel to c* (0 0 1). Fiducial mark perpendicular to laser is parallel to a [1 0 0]
Raman shift (cm-1)	intensity
105.226	0
110.19	852.215
115.152	2935.26
120.111	4432.09
125.066	5537.56
130.018	5838.15
134.968	6197.99
139.914	6667.65
144.857	5710.5
149.797	4796.93
154.734	3785.09
159.668	2806.67
164.599	2122.47
169.527	1709.87
174.451	1646.34
179.373	1538.21
184.292	2188.39
189.207	2922.46
194.12	3218.45
199.029	2971.34
203.936	2500.48
208.839	1823.82
213.74	1358.32
218.637	1260.07
223.531	1223.57
228.423	1087.63
233.311	750.129
238.196	533.107
243.078	263.588
247.958	219.422
252.834	332.764
257.707	413.586
262.577	398.301
267.445	420.098
272.309	319.223
277.17	517.209
282.029	328.391
286.884	406.029
291.736	2901.79
296.586	6383.31
301.432	6745.46
306.275	3926.48
311.116	2142.78
315.953	1484.68
320.788	1439.43
325.62	1290.25
330.448	1644.32
335.274	1784.49
340.097	2231.65
344.917	2606.58
349.733	3179.16
354.547	3686.31
359.358	4620.97
364.166	5442.07
368.972	7219.59
373.774	8660.52
378.573	10641.9
383.37	12289.6
388.163	13660.7
392.954	14030.1
397.742	13563.3
402.526	11851.6
407.308	9323.71
412.087	6677.75
416.863	4408.86
421.637	2917.65
426.407	2539.3
431.174	2476.09
435.939	3131.14
440.701	3757.13
445.46	4891.14
450.216	6643.72
454.969	9439.78
459.719	14547.7
464.466	23338.4
469.211	40257.9
473.953	70105.4
478.692	111747
483.428	135211
488.161	111418
492.891	69861.4
497.619	41139.2
502.343	25182.6
507.065	16037.7
511.784	10952.5
516.5	7799.96
521.214	5548.09
525.924	4127.88
530.632	3225.31
535.337	2333.64
540.039	1472.62
544.738	1258.02
549.435	827.223
554.129	180.102
558.82	165.221
563.508	199.273
568.193	63.918
572.876	114.359
577.555	186.287
582.232	3.47266
586.907	318.082
591.578	450.506
596.247	896.127
600.913	1104.2
605.576	1452.8
610.236	2099.25
614.894	2562.23
619.549	1478.44
624.201	1421.74
628.851	1308.21
633.497	1487.17
638.141	1592.35
642.782	1441.39
647.421	1040.36
652.057	878.119
656.69	1101.65
661.32	1044.91
665.947	1395.07
670.572	1488.32
675.194	1247.92
679.814	1039.55
684.43	669.904
689.044	521.434
693.656	268.356
698.264	88.8164
702.87	17.0664
707.473	101.566
712.074	439.795
716.672	208.353
721.267	140.652
725.859	265.312
730.449	100.799
735.036	23.7695
739.62	200.32
744.202	180.109
748.781	118.746
753.358	68.3613
757.931	64.9961
762.502	414.342
767.071	526.981
771.637	465.193
776.2	687.121
780.76	525.529
785.318	820.234
789.873	538.201
794.426	726
798.976	485.438
803.523	462.824
808.068	283.9
812.61	411.635
817.149	229.078
821.686	402.185
826.22	367.039
830.751	353.672
835.28	517.768
839.807	310.629
844.33	155.475
848.852	258.682
853.37	383.148
857.886	330.121
862.399	352.926
866.91	442.322
871.418	370.69
875.924	296.094
880.427	124.568
884.927	68.5312
889.425	65.8027
893.92	108.061
898.413	254.269
902.903	19.5938
907.391	24.8125
911.875	56.2793
916.358	289.037
920.838	246.148
925.315	55.7695
929.79	123.867
934.262	27.4785
938.732	210.457
943.199	200.611
947.663	283.553
952.125	108.746
956.585	198.008
961.042	243.935
965.496	336.84
969.948	559.027
974.398	541.394
978.844	634.979
983.289	947.578
987.731	1198.88
992.17	1759.96
996.607	1939.82
1001.04	2595.14
1005.47	2636.86
1009.9	2024.68
1014.33	2029.31
1018.75	2030.25
1023.17	2162.18
1027.59	2556.55
1032.01	2840.47
1036.43	2722.07
1040.84	2994.48
1045.25	3359.19
1049.65	3971.64
1054.06	4278.68
1058.46	4689.55
1062.86	5062.32
1067.26	5895.82
1071.65	6657.82
1076.04	7924.38
1080.43	9160.66
1084.82	10926.4
1089.2	12568.8
1093.59	13649.5
1097.97	13810.8
1102.34	13799.4
1106.72	12566.2
1111.09	11878.5
1115.46	11070.5
1119.83	9461.61
1124.19	8025.34
1128.56	6744.03
1132.92	5642.2
1137.28	4822.72
1141.63	3809.38
1145.98	3155.35
1150.34	2438.7
1154.68	2080.67
1159.03	1578.04
1163.37	1407.12
1167.71	841.775
1172.05	705.588
1176.39	451.307
1180.72	520.404
1185.05	283.756
1189.38	229.291
1193.71	163.059
1198.03	298.006
1202.36	113.514
1206.67	90.1738
1210.99	339.353
1215.31	33.3906
1219.62	270.621
1223.93	121.781
1228.24	28.5703
1232.54	74.168
1236.85	60.6289
1241.15	114.338
1245.44	4.17969
1249.74	102.975
1254.03	129.039
1258.33	47.8965
1262.61	123.643
1266.9	0.363281
1271.18	83.1309
1275.47	199.037
1279.74	430.014
1284.02	510.732
1288.3	799.111
1292.57	625.098
1296.84	588.568
1301.11	568.104
1305.37	322.453
1309.64	212.6
1313.9	317.522
1318.16	475.215
1322.41	172.732
1326.67	189.981
1330.92	150.918
1335.17	187.574
1339.41	166.619
1343.66	97.457
1347.9	107.592
1352.14	126.793
1356.38	180.26
1360.61	100.812
1364.85	296.883
1369.08	136.473
1373.31	290.74
1377.53	86.4766
1381.76	133.324
1385.98	229.219
1390.2	56.4961
1394.42	361.897
1398.63	56.0117
1402.84	72.5625
1407.05	206.002
1411.26	379.494
1415.47	110.791
1419.67	117.379
1423.87	404.199
1428.07	528.994
1432.27	702.854
1436.46	592.875
1440.66	871.377
1444.85	954.963
1449.04	743.625
1453.22	777.574
1457.4	553.367
1461.59	551.207
1465.77	438.176
1469.94	439.045
1474.12	469.246
1478.29	278.322
1482.46	278.81
1486.63	99.8867
1490.79	157.779
1494.96	238.629
1499.12	81.1309
1503.28	260.82
1507.43	13.5977
1511.59	212.816
1515.74	304.891
1519.89	99.1113
1524.04	367.734
1528.18	11.3457
1532.33	62.5469
1536.47	357.266
1540.61	380.09
1544.75	83.1856
1548.88	59.9883
1553.02	356.506
1557.15	255.887
1561.27	313.416
1565.4	84.2598
1569.53	197.352
1573.65	230.539
1577.77	132.586
