Measurement: Raman, 514 nm, depolarized, Raman Data Processed
Mineral: Anatase
Rruff sample: R060277
Ideal chemistry: Ti^4+^O_2_
Locality: Taftan, near Dalbandi, Baluchistan Province, Pakistan
Source: Herb Obodda
Description: Dark brown tetragonal tabular crystals
Measured chemistry: Ti_1.00_O_2_
Pin_id: L01956
Orientation: Laser parallel to -a* (-1 0 0). Fiducial mark perpendicular to laser is parallel to -c [0 0 -1]
Raman shift (cm-1)	intensity
50.724	0
55.708	15.6388
60.69	0.822266
65.668	2.70941
70.644	30.9256
75.617	119.106
80.588	192.415
85.555	324.212
90.52	461.278
95.482	636
100.441	806.612
105.398	1087.98
110.351	1409.96
115.302	1895.23
120.25	2895.78
125.195	4991.77
130.138	11431.3
135.078	24775.6
140.015	45082.7
144.949	53222.2
149.88	22108.4
154.809	7613.65
159.735	3552.85
164.658	2079.34
169.578	1343.12
174.496	902.615
179.411	672.175
184.323	526.805
189.232	578.57
194.138	808.347
199.042	970.361
203.943	370.8
208.841	154.128
213.737	116.465
218.63	70.7488
223.52	69.2425
228.407	61.8795
233.291	21.6034
238.173	2.62787
243.052	2.12921
247.928	5.86157
252.802	10.5102
257.672	19.0488
262.54	18.7606
267.406	24.6115
272.268	29.603
277.128	14.7054
281.985	13.1461
286.839	57.9803
291.691	63.7953
296.54	90.4825
301.386	103.1
306.229	100.493
311.07	154.613
315.908	150.124
320.743	140.201
325.575	125.477
330.405	137.589
335.232	96.773
340.056	128.032
344.878	135.371
349.697	167.787
354.513	198.284
359.326	303.865
364.137	397.519
368.945	583.241
373.75	897.03
378.552	1404.89
383.352	2200.3
388.149	3400.19
392.944	4408.74
397.735	4427.75
402.524	3267.86
407.311	1968.28
412.094	1068.12
416.875	622.829
421.653	373.447
426.429	228.825
431.202	124.218
435.972	68.3384
440.739	41.6024
445.504	6.18689
450.266	11.5822
455.025	7.66449
459.782	34.7643
464.535	4.70557
469.287	14.5857
474.035	37.1352
478.781	73.9606
483.524	172.071
488.265	246.391
493.003	423.897
497.738	714.586
502.47	1324.46
507.2	2200.51
511.927	3027.75
516.651	3270.17
521.373	2751.77
526.092	1926.58
530.808	1314.63
535.522	911.912
540.233	672.488
544.942	485.355
549.647	340.522
554.35	270.972
559.051	190.722
563.748	148.727
568.443	141.942
573.136	114.35
577.825	116.935
582.513	133.695
587.197	138.344
591.879	177.279
596.558	222.419
601.234	346.005
605.908	439.105
610.579	673.826
615.248	1064.33
619.913	1615.36
624.577	2623.11
629.237	4160.68
633.895	5991.08
638.55	6802.59
643.203	5697.21
647.853	3884.94
652.5	2626.78
657.145	1818.71
661.787	1291.74
666.426	981.869
671.063	650.091
675.697	495.404
680.329	408.792
684.957	345.252
689.584	255.781
694.207	235.361
698.828	181.986
703.447	128.65
708.062	83.3468
712.675	38.08
717.286	57.8378
721.894	17.6192
726.499	2.58295
731.102	14.8013
735.702	6.90308
740.299	4.43359
744.894	8.84442
749.486	8.53931
754.075	4.73303
758.662	25.0983
763.247	41.934
767.828	37.1079
772.407	45.9963
776.984	72.7725
781.558	77.6659
786.129	128.777
790.698	151.333
795.264	155.877
799.827	153.753
804.388	167.517
808.946	135.32
813.502	134.282
818.055	123.674
822.605	90.8508
827.153	99.0337
831.699	81.224
836.241	100.249
840.781	92.1858
845.319	82.6497
849.854	94.4278
854.386	72.3447
858.916	69.3156
863.443	72.404
867.968	70.1903
872.49	57.3617
877.009	62.5132
881.526	39.079
886.04	28.1806
890.552	6.49783
895.061	27.7203
899.567	17.9889
904.071	17.5142
908.573	16.7458
913.071	20.3742
917.568	11.9629
922.061	35.4911
926.552	12.9065
931.041	22.2592
935.527	13.4221
940.01	10.7739
944.491	4.90616
948.969	11.0484
953.445	7.10968
957.918	5.96713
962.389	17.0951
966.857	38.8433
971.322	9.7319
975.785	6.32303
980.246	10.8185
984.703	0.758301
989.159	3.06018
993.611	19.2469
998.062	17.5265
1002.51	14.9923
1006.95	22.3145
1011.4	2.51382
1015.84	3.25809
1020.27	15.9599
1024.71	4.95987
1029.14	12.2803
1033.57	7.61096
1038	11.755
1042.42	14.2651
1046.85	23.4536
1051.27	31.4004
1055.68	44.0566
1060.1	26.1282
1064.51	14.3107
1068.92	11.7864
1073.33	3.95606
1077.73	8.18808
1082.13	1.76743
1086.53	18.2123
1090.93	19.0355
1095.32	6.86441
1099.71	4.72968
1104.1	8.35806
1108.49	22.8985
1112.88	14.0958
1117.26	17.5606
1121.64	24.8144
1126.01	17.4071
1130.39	15.0526
1134.76	2.6684
1139.13	7.15466
1143.49	2.55215
1147.86	9.46509
1152.22	13.9328
1156.58	9.29245
1160.94	0.240143
1165.29	0.767731
1169.64	13.6825
1173.99	0.077606
1178.34	3.52258
1182.68	9.9137
1187.02	0.444122
1191.36	18.8359
1195.7	10.2396
1200.03	27.5782
1204.37	2.89099
1208.69	6.24368
1213.02	2.67837
1217.35	7.96655
1221.67	13.3278
1225.99	17.3449
1230.3	17.6486
1234.62	15.7695
1238.93	14.1082
1243.24	15.4632
1247.55	23.8171
1251.85	16.8296
1256.15	18.6496
1260.45	11.4895
1264.75	22.5389
1269.04	19.7717
1273.34	32.3828
1277.62	10.7
1281.91	15.0688
1286.2	15.4224
1290.48	21.7063
1294.76	15.2941
1299.03	7.3848
1303.31	12.2279
1307.58	26.5306
1311.85	2.21735
1316.12	11.0984
1320.38	9.3866
1324.64	18.8476
1328.9	11.0982
1333.16	8.09598
1337.42	13.7307
1341.67	6.09137
1345.92	22.3838
1350.17	6.69437
1354.41	11.9961
1358.66	6.03552
1362.9	9.3158
1367.13	6.62659
1371.37	6.96054
1375.6	7.28668
1379.83	7.57599
1384.06	2.87427
1388.29	21.5678
1392.51	12.4191
1396.73	9.6441
1400.95	3.92349
1405.16	4.31506
1409.38	13.5899
1413.59	9.78006
1417.8	15.0953
1422	16.2761
1426.21	21.5109
1430.41	3.22781
1434.61	17.3788
1438.8	2.52667
1443	11.574
1447.19	8.26807
1451.38	10.5456
1455.56	14.8701
1459.75	13.9301
1463.93	0.802338
1468.11	13.4987
1472.29	9.80743
1476.46	7.11322
1480.63	18.3838
1484.8	14.688
1488.97	23.4825
1493.13	1.69629
1497.3	8.27664
1501.46	7.4519
1505.61	13.537
1509.77	19.7564
1513.92	13.3842
1518.07	39.5551
1522.22	9.5545
1526.37	2.51776
1530.51	23.5221
1534.65	18.16
1538.79	25.8067
1542.92	17.4142
1547.06	7.23541
1551.19	4.84045
1555.32	33.019
1559.44	0.353668
1563.57	9.83423
1567.69	7.4726
