Measurement: Raman, 514 nm, depolarized, Raman Data Processed
Mineral: Anatase
Rruff sample: R060277
Ideal chemistry: Ti^4+^O_2_
Locality: Taftan, near Dalbandi, Baluchistan Province, Pakistan
Source: Herb Obodda
Description: Dark brown tetragonal tabular crystals
Measured chemistry: Ti_1.00_O_2_
Pin_id: L01480
Orientation: Laser parallel to c* (0 0 1). Fiducial mark perpendicular to laser is parallel to [1 1 0]
Raman shift (cm-1)	intensity
50.724	0
55.708	21.0734
60.69	2.24881
65.668	4.24435
70.644	29.9952
75.617	105.391
80.588	218.545
85.555	403.909
90.52	573.796
95.482	771.421
100.441	953.359
105.398	1202.22
110.351	1510.16
115.302	1864.1
120.25	2483.97
125.195	3944.73
130.138	7836.19
135.078	17331.3
140.015	39313.4
144.949	50037
149.88	17467.3
154.809	6362.84
159.735	3354.24
164.658	2115.93
169.578	1451.89
174.496	1108.75
179.411	876.365
184.323	729.632
189.232	673.654
194.138	837.501
199.042	979.557
203.943	380.516
208.841	228.715
213.737	165.097
218.63	118.376
223.52	100.711
228.407	81.7786
233.291	10.4537
238.173	1.41827
243.052	29.8727
247.928	58.0406
252.802	111.112
257.672	76.2251
262.54	28.2543
267.406	56.9553
272.268	48.2398
277.128	7.91418
281.985	74.2406
286.839	233.263
291.691	392.807
296.54	663.337
301.386	749.618
306.229	871.946
311.07	984.794
315.908	1002
320.743	970.371
325.575	935.783
330.405	833.279
335.232	799.309
340.056	824.903
344.878	895.07
349.697	1031.67
354.513	1210.68
359.326	1559.14
364.137	2002.02
368.945	2838.57
373.75	4205.52
378.552	6724.02
383.352	11172.9
388.149	17722.2
392.944	25869.2
397.735	30111.2
402.524	23657.3
407.311	14095.4
412.094	7719.35
416.875	4530.3
421.653	2862.38
426.429	1837.51
431.202	1113.61
435.972	746.694
440.739	368.82
445.504	281.129
450.266	144.953
455.025	12.5996
459.782	18.4573
464.535	49.6331
469.287	137.824
474.035	374.842
478.781	571.402
483.524	1061.26
488.265	1624.32
493.003	2549.55
497.738	4295.95
502.47	7406.53
507.2	13273.3
511.927	22204.2
516.651	26917.4
521.373	23941.9
526.092	17550.8
530.808	11927.1
535.522	8245.13
540.233	5818.74
544.942	4136.99
549.647	3099.84
554.35	2242.16
559.051	1707.93
563.748	1262.98
568.443	1010.85
573.136	780.382
577.825	630.793
582.513	520.536
587.197	411.787
591.879	370.217
596.558	339.531
601.234	442.968
605.908	512.431
610.579	750.581
615.248	998.861
619.913	1496.97
624.577	2405.99
629.237	3630.09
633.895	5282.74
638.55	6206.92
643.203	5094.61
647.853	3446.78
652.5	2170.39
657.145	1480.43
661.787	950.87
666.426	697.671
671.063	547.815
675.697	399.264
680.329	346.972
684.957	298.904
689.584	325.012
694.207	366.255
698.828	375.615
703.447	280.047
708.062	216.522
712.675	136.022
717.286	37.4989
721.894	22.1212
726.499	72.1956
731.102	129.253
735.702	42.4819
740.299	121.922
744.894	84.6361
749.486	2.52454
754.075	37.3807
758.662	90.825
763.247	126.612
767.828	259.124
772.407	375.463
776.984	563.74
781.558	781.973
786.129	922.719
790.698	1061.08
795.264	1172.32
799.827	1144.23
804.388	1062.34
808.946	1047.06
813.502	945.257
818.055	884.587
822.605	779.718
827.153	737.591
831.699	700.564
836.241	666.562
840.781	661.253
845.319	596.963
849.854	599.621
854.386	582.118
858.916	570.778
863.443	485.869
867.968	465.743
872.49	381.762
877.009	358.888
881.526	290.918
886.04	185.99
890.552	173.684
895.061	121.882
899.567	84.5123
904.071	131.048
908.573	55.3997
913.071	87.2253
917.568	80.798
922.061	50.2012
926.552	49.0974
931.041	44.6773
935.527	56.1208
940.01	38.0676
944.491	76.7325
948.969	59.1402
953.445	45.3579
957.918	65.313
962.389	64.8844
966.857	12.4111
971.322	38.6323
975.785	38.5264
980.246	52.2432
984.703	4.76538
989.159	1.59326
993.611	0.227905
998.062	41.4048
1002.51	19.3466
1006.95	21.6169
1011.4	15.4429
1015.84	34.9454
1020.27	47.1747
1024.71	57.088
1029.14	54.6074
1033.57	28.1642
1038	33.7032
1042.42	47.9054
1046.85	26.9739
1051.27	71.921
1055.68	46.0065
1060.1	43.9429
1064.51	30.4875
1068.92	45.179
1073.33	53.7645
1077.73	29.5979
1082.13	33.0377
1086.53	13.6661
1090.93	3.20239
1095.32	31.2423
1099.71	9.03174
1104.1	19.305
1108.49	28.8549
1112.88	5.90741
1117.26	17.8561
1121.64	20.7232
1126.01	29.1513
1130.39	38.5547
1134.76	5.39471
1139.13	18.1018
1143.49	16.0235
1147.86	9.51343
1152.22	34.3617
1156.58	3.58813
1160.94	5.26312
1165.29	16.7543
1169.64	3.22211
1173.99	18.5048
1178.34	5.76813
1182.68	32.082
1187.02	29.071
1191.36	23.1859
1195.7	0.798096
1200.03	13.0751
1204.37	17.0942
1208.69	21.8754
1213.02	37.6345
1217.35	46.1447
1221.67	44.5784
1225.99	46.282
1230.3	33.4771
1234.62	50.76
1238.93	38.1093
1243.24	53.1697
1247.55	58.145
1251.85	79.8523
1256.15	74.8652
1260.45	93.35
1264.75	83.5732
1269.04	90.0709
1273.34	92.8887
1277.62	108.558
1281.91	84.3534
1286.2	62.8666
1290.48	55.1531
1294.76	70.3456
1299.03	61.4623
1303.31	54.8391
1307.58	77.7126
1311.85	40.6599
1316.12	46.6701
1320.38	48.0465
1324.64	37.8685
1328.9	47.6833
1333.16	18.7499
1337.42	50.7052
1341.67	50.6804
1345.92	34.1393
1350.17	34.1252
1354.41	36.0067
1358.66	39.0579
1362.9	46.0248
1367.13	43.988
1371.37	51.9261
1375.6	34.9286
1379.83	19.6275
1384.06	17.8655
1388.29	37.5587
1392.51	16.3027
1396.73	49.0501
1400.95	42.5956
1405.16	18.1379
1409.38	13.73
1413.59	35.221
1417.8	8.59802
1422	5.94721
1426.21	17.3202
1430.41	22.5169
1434.61	12.6787
1438.8	27.6709
1443	4.18054
1447.19	16.8944
1451.38	2.8634
1455.56	15.745
1459.75	25.6512
1463.93	34.5255
1468.11	2.38586
1472.29	14.2116
1476.46	43.6124
1480.63	45.5017
1484.8	11.0116
1488.97	45.3105
1493.13	19.6945
1497.3	38.8831
1501.46	16.4996
1505.61	1.33148
1509.77	27.0208
1513.92	9.04755
1518.07	26.2927
1522.22	30.7398
1526.37	23.0453
1530.51	28.1971
1534.65	22.1912
1538.79	34.853
1542.92	25.4327
1547.06	12.9434
1551.19	16.6414
1555.32	13.6029
1559.44	14.8689
1563.57	21.2889
1567.69	10.2028
