Measurement: Raman, 514 nm, depolarized, Raman Data Processed
Mineral: Andalusite
Rruff sample: R060197
Ideal chemistry: Al_2_SiO_5_
Locality: Brazil
Source: Marcus Origlieri
Description: Green colored water worn pebble
Measured chemistry: (Al_1.97_Mn^3+^_0.03_)_Î£=2_Si_1.00_O_5_
Pin_id: M00466
Orientation: Laser parallel to a* (1 0 0). Fiducial mark perpendicular to laser is parallel to -b [0 -1 0]
Raman shift (cm-1)	intensity
91.012	0
95.948	190.381
100.883	274.577
105.815	648.106
110.744	1925.99
115.671	1140.25
120.596	584.769
125.519	788.506
130.439	941.28
135.356	898.093
140.271	1611.82
145.184	1611.06
150.094	1083.61
155.002	819.06
159.908	724.42
164.811	904.541
169.711	1005.59
174.61	813.101
179.505	735.488
184.399	763.271
189.29	1395.44
194.178	2220.97
199.064	1725.37
203.948	1281.53
208.829	142.388
213.708	343.917
218.585	5.91894
223.459	55.0674
228.33	153.051
233.199	132.24
238.066	346.847
242.93	554.11
247.792	270.014
252.651	430.303
257.508	849.301
262.363	2541.1
267.215	1576.27
272.064	2502.01
276.912	4489.48
281.756	8737.52
286.598	16897.6
291.438	18486.9
296.276	8719.19
301.111	3692.33
305.943	2382.19
310.773	3674.38
315.601	8746.62
320.426	11069.9
325.248	5451.24
330.068	2701.55
334.886	2318.8
339.701	2278.95
344.514	2960.93
349.324	5920.86
354.132	10595.7
358.938	11167.4
363.741	5564.92
368.541	2508.32
373.339	1359.41
378.135	780.316
382.928	736.326
387.718	617.57
392.506	248.318
397.292	179.543
402.075	80.4082
406.856	109.074
411.634	115.24
416.41	605.135
421.183	335.738
425.954	64.0352
430.722	78.0371
435.488	139.123
440.251	9.99609
445.012	278.16
449.77	696.967
454.526	136.607
459.28	165.973
464.03	489.978
468.779	964.584
473.525	1197.77
478.268	1582.52
483.009	1093.82
487.747	314.557
492.483	112.803
497.217	15.1719
501.948	70.5547
506.676	1.39648
511.402	558.293
516.125	446.777
520.846	187.555
525.565	171.779
530.281	36.4004
534.994	236.338
539.705	955.629
544.413	2426.51
549.119	3507.95
553.822	2371.17
558.523	886.545
563.222	737.467
567.917	1289.18
572.611	1176.86
577.302	683
581.99	476.82
586.676	592.377
591.359	488.533
596.04	976.955
600.718	778.867
605.394	675.769
610.067	446.838
614.737	394.303
619.406	110.594
624.071	156.906
628.734	130.547
633.395	22.6973
638.053	19.1445
642.708	272.484
647.361	231.879
652.012	11.9082
656.66	149.853
661.305	600.814
665.948	406.766
670.588	511.397
675.226	781.137
679.861	948.562
684.494	1144.27
689.124	1272.03
693.752	1543.61
698.377	1984.28
702.999	2691
707.619	3035.57
712.237	2544.55
716.852	2074.34
721.464	879.356
726.074	397.469
730.681	7.48242
735.286	150.701
739.888	374.328
744.488	634.521
749.085	949.285
753.68	799.201
758.272	717.5
762.861	755.982
767.448	538.936
772.033	642.055
776.614	895.981
781.194	1533.75
785.77	2793.44
790.345	3761.15
794.916	2923.6
799.485	1807.48
804.052	1158.49
808.616	407.068
813.177	482.213
817.736	325.898
822.292	21.9355
826.846	87.7754
831.397	147.619
835.945	13.5605
840.491	61.5469
845.035	52.2891
849.576	108.228
854.114	5.17188
858.65	394.764
863.183	389.191
867.713	525.773
872.241	628.106
876.767	672.037
881.29	393.455
885.81	568.631
890.328	749.729
894.843	824.74
899.356	1611.77
903.866	2533.78
908.373	6209.02
912.878	15446.5
917.38	28501.9
921.88	20181
926.377	11763.9
930.872	7760.39
935.364	4806.5
939.853	4247.2
944.34	5718.49
948.824	7121.36
953.306	5633.23
957.785	3447.75
962.261	2405.68
966.735	2034.42
971.207	1502.78
975.675	1401.91
980.141	837.768
984.605	439.465
989.066	474.307
993.524	285.5
997.98	217.182
1002.43	420.488
1006.88	577.648
1011.33	1479.77
1015.78	2925.11
1020.22	3045.79
1024.66	1874.27
1029.1	1570.54
1033.53	873.365
1037.97	888.93
1042.4	815.428
1046.82	1080.36
1051.25	1382.97
1055.67	2797.77
1060.09	4590.3
1064.51	3411.22
1068.92	1703.13
1073.33	1384.21
1077.74	1281.34
1082.15	1169.15
1086.55	1396.66
1090.95	931.922
1095.35	1206.21
1099.75	1466.45
1104.14	1934.68
1108.53	2050.98
1112.92	1224.73
1117.31	957.062
1121.69	1063.82
1126.07	846.508
1130.45	685.887
1134.82	150.141
1139.19	146.113
1143.57	244.805
1147.93	66.9102
1152.3	11.4766
1156.66	131.941
1161.02	89.5039
1165.38	29.7617
1169.73	52.8828
1174.08	90.8555
1178.43	71.8789
1182.78	14.9336
1187.12	218.035
1191.46	21.2305
1195.8	266.652
1200.14	204.301
1204.47	200.734
1208.8	262.977
1213.13	585.066
1217.46	774.004
1221.78	1295.82
1226.1	2391.53
1230.42	3387.14
1234.73	3704.76
1239.04	4187.35
1243.35	5147.13
1247.66	5329.96
1251.97	5647.83
1256.27	5011.83
1260.57	4690.8
1264.86	3957.3
1269.16	3398.23
1273.45	2781.33
1277.74	2100.03
1282.03	1446.24
1286.31	1503.42
1290.59	1310.81
1294.87	1142.96
1299.14	983.301
1303.42	817.957
1307.69	727.504
1311.95	804.535
1316.22	890.039
1320.48	622.617
1324.74	814.621
1329	539.453
1333.26	896.004
1337.51	689.172
1341.76	1017.85
1346	903.848
1350.25	725.785
1354.49	913.969
1358.73	922.644
1362.96	961.973
1367.2	1037.4
1371.43	602.539
1375.66	501.707
1379.88	462.078
1384.11	630.43
1388.33	974.984
1392.54	634.094
1396.76	897.723
1400.97	1140.32
1405.18	1034.43
1409.39	1015.4
1413.59	934.586
1417.8	899.152
1421.99	937.356
1426.19	786.352
1430.38	880.258
1434.58	874.457
1438.77	441.496
1442.95	819.469
1447.13	269.121
1451.32	693.238
1455.49	500.074
1459.67	139.606
1463.84	216.777
1468.01	257.394
1472.18	111.91
1476.35	98.5234
1480.51	55.082
1484.67	108.598
1488.83	197.262
1492.98	119.203
1497.13	210.035
1501.28	42.293
1505.43	131.711
1509.57	72.8672
1513.71	229.773
1517.85	337.996
1521.99	345.231
1526.12	776.414
1530.25	575.75
1534.38	382.891
1538.5	425.195
1542.62	310.035
1546.74	411.234
1550.86	285.559
1554.98	761.648
1559.09	282.703
1563.2	318.887
1567.31	251.926
