Measurement: Raman, 514 nm, depolarized, Raman Data Processed
Mineral: Andalusite
Rruff sample: R060197
Ideal chemistry: Al_2_SiO_5_
Locality: Brazil
Source: Marcus Origlieri
Description: Green colored water worn pebble
Measured chemistry: (Al_1.97_Mn^3+^_0.03_)_Î£=2_Si_1.00_O_5_
Pin_id: L01138
Orientation: Laser parallel to -b* (0 -1 0). Fiducial mark perpendicular to laser is parallel to -c [0 0 -1]
Raman shift (cm-1)	intensity
123.058	0
127.979	111.017
132.898	195.904
137.814	331.177
142.728	398.082
147.639	408.167
152.549	448.768
157.455	356.388
162.359	502.986
167.261	465.039
172.161	536.365
177.058	659.872
181.952	416.861
186.845	767.187
191.734	1479.81
196.622	1600.59
201.507	1072.08
206.389	415.83
211.269	309.959
216.147	374.012
221.022	39.6543
225.895	64.2012
230.765	153.668
235.633	96.2695
240.498	348.887
245.361	379.775
250.222	151.506
255.08	791.773
259.936	2857.53
264.789	2038.36
269.64	1847.58
274.488	3351.79
279.334	5665.62
284.178	10672
289.019	14756.3
293.857	9629.56
298.693	4547.07
303.527	2529.51
308.358	2201.16
313.187	4884.04
318.013	8169.16
322.837	5216.66
327.659	2841.57
332.478	2150.88
337.294	2057.58
342.108	2265.64
346.92	3490.05
351.729	5891.06
356.535	7558.5
361.34	5146.53
366.141	2693.09
370.94	1519.31
375.737	811.475
380.531	828.363
385.323	651.619
390.113	560.121
394.9	370.865
399.684	12.1348
404.466	257.107
409.245	18.5957
414.022	229.334
418.797	234.385
423.569	252.728
428.338	71.2383
433.105	7.01367
437.87	23.293
442.632	111.977
447.391	402.877
452.149	575.09
456.903	153.717
461.655	391.666
466.405	801.889
471.152	861.404
475.897	1048.21
480.639	972.285
485.378	552.643
490.116	205.272
494.85	141.865
499.582	29.0781
504.312	43.3496
509.039	321.221
513.764	538.523
518.486	283.99
523.206	118.904
527.923	371.019
532.638	183.328
537.35	732.822
542.059	1614.9
546.766	2552.03
551.471	2247.55
556.173	1093.31
560.873	523.262
565.57	770.682
570.264	936.965
574.957	751.42
579.646	555.992
584.333	340.443
589.018	529.309
593.7	888.92
598.379	925.156
603.056	475.353
607.73	821.637
612.402	414.012
617.072	362.469
621.739	365.981
626.403	251.541
631.065	70.1348
635.724	67.125
640.381	200.705
645.035	206.451
649.687	188.019
654.336	87.0019
658.983	312.758
663.627	385.406
668.268	40.041
672.907	379.668
677.544	675.268
682.178	602.856
686.809	877.484
691.438	1151.97
696.065	1300.56
700.688	1687.95
705.31	2424.76
709.929	2410.14
714.545	1596.75
719.158	1215.42
723.77	533.586
728.378	14.8887
732.984	39.7031
737.588	470.148
742.189	897.734
746.787	889.269
751.383	1040.71
755.976	810.551
760.567	763.148
765.155	900.496
769.741	697.598
774.324	640.519
778.904	1070.21
783.482	1910.14
788.058	3206.84
792.631	3085.26
797.201	1894.63
801.769	1436.9
806.334	762.008
810.897	382.945
815.457	478.719
820.014	101.551
824.569	252.965
829.122	47.7539
833.671	204.176
838.219	44.1641
842.763	102.648
847.306	285.164
851.845	15.793
856.382	117.602
860.917	18.5938
865.448	224.332
869.978	554.891
874.505	283.402
879.029	386.738
883.55	336.957
888.069	471.019
892.586	508.992
897.1	566.109
901.611	1298.45
906.12	2650.22
910.626	6444.73
915.129	15317.3
919.63	15757.5
924.129	8760.22
928.625	5634.61
933.118	3307.28
937.609	2592.93
942.097	2532.54
946.582	3422.09
951.065	3262.59
955.546	2406.97
960.023	1722.38
964.499	1614.59
968.971	1306.98
973.441	1363.5
977.909	1252.05
982.374	747.644
986.836	639.754
991.295	62.3438
995.753	51.2383
1000.21	272.019
1004.66	272.945
1009.11	783.141
1013.55	1830.45
1018	2256.7
1022.44	1916.91
1026.88	1066.95
1031.32	672.07
1035.75	798.555
1040.18	561.406
1044.61	715.449
1049.04	1020.67
1053.46	2254.67
1057.88	3664.1
1062.3	2973.89
1066.71	1651.58
1071.13	1478.19
1075.54	1159.71
1079.94	896.137
1084.35	1238.49
1088.75	1179.85
1093.15	1019.47
1097.55	1387.1
1101.94	1672.72
1106.34	1935.39
1110.73	1420.32
1115.11	1088.5
1119.5	1288.46
1123.88	1137.61
1128.26	964.797
1132.63	744.102
1137.01	456.16
1141.38	555.129
1145.75	346.004
1150.12	321.793
1154.48	347.519
1158.84	66.0508
1163.2	90.9375
1167.55	167.871
1171.91	355.898
1176.26	237.981
1180.61	148.172
1184.95	339.379
1189.29	397.633
1193.63	633.769
1197.97	370.801
1202.31	470.781
1206.64	738.902
1210.97	689.012
1215.29	936.324
1219.62	1395.11
1223.94	1682.98
1228.26	2359.4
1232.57	2344.78
1236.89	2951.15
1241.2	3394.48
1245.51	3311.79
1249.81	3617.02
1254.12	3732.18
1258.42	3583.3
1262.72	3051.39
1267.01	2667.44
1271.3	2026.73
1275.59	1576.08
1279.88	1441.35
1284.17	1172.51
1288.45	1281.79
1292.73	1262.3
1297.01	814.691
1301.28	1170.73
1305.55	886.781
1309.82	891.859
1314.09	993.59
1318.35	1131.81
1322.61	1072.29
1326.87	882.043
1331.13	825.227
1335.38	853.867
1339.63	974.148
1343.88	937.269
1348.12	929.832
1352.37	1065.83
1356.61	1018.16
1360.85	574.18
1365.08	770.43
1369.31	784.602
1373.54	645.164
1377.77	725.938
1381.99	490.402
1386.22	763.398
1390.43	509.445
1394.65	61.4297
1398.87	436.285
1403.08	670.438
1407.29	762.023
1411.49	461.711
1415.69	538.504
1419.89	348.926
1424.09	536.949
1428.29	665.492
1432.48	379.301
1436.67	667.758
1440.86	528.297
1445.04	246.184
1449.23	147.606
1453.4	147.062
1457.58	41.7227
1461.76	403.301
1465.93	2.14844
1470.1	43.1445
1474.26	52.6758
1478.43	60.793
1482.59	300.441
1486.75	550.477
1490.9	151.523
1495.06	113.082
1499.21	353.234
1503.35	279.957
1507.5	290.125
1511.64	312.047
1515.78	430.797
1519.92	199.688
1524.05	403.394
1528.18	272.406
1532.31	250.559
1536.44	298.391
1540.56	350.457
1544.69	367.367
1548.8	121.945
1552.92	419.731
1557.03	275.031
1561.14	5.32422
1565.25	118.852
1569.36	51.2617
