Measurement: Raman, 514 nm, depolarized, Raman Data Processed
Mineral: Andalusite
Rruff sample: R060212
Ideal chemistry: Al_2_SiO_5_
Locality: Brazil
Source: Marcus Origlieri
Description: Transparent yellow-green water-worn pebble
Measured chemistry: (Al_1.98_Fe^3+^_0.02_)_Î£=2_Si_1.00_O_5_
Pin_id: M00061
Orientation: Laser parallel to -a* (-1 0 0). Fiducial mark perpendicular to laser is parallel to -b [0 -1 0]
Raman shift (cm-1)	intensity
99.649	0
104.582	286.389
109.512	503.033
114.44	133.132
119.365	137.075
124.288	166.192
129.209	107.929
134.127	7.24316
139.043	116.432
143.956	57.1836
148.867	123.664
153.775	318.286
158.681	144.856
163.585	278.897
168.486	285.829
173.385	251.461
178.282	349.787
183.176	281.896
188.067	515.811
192.956	451.599
197.843	399.116
202.727	264.872
207.609	66.0156
212.489	47.4404
217.366	26.2393
222.24	63.6543
227.112	206.731
231.982	388.504
236.849	1176.98
241.714	1432.77
246.577	941.967
251.437	523.318
256.294	746.809
261.149	725.561
266.002	709.176
270.852	1232.44
275.7	2651.2
280.545	5339.31
285.388	12117.2
290.229	20230.9
295.067	10804.7
299.902	3170.42
304.735	1627.31
309.566	2499.06
314.394	6686.93
319.22	14526.6
324.043	7439.06
328.864	2635.56
333.682	1358.15
338.498	1350.9
343.311	1834.77
348.122	4798.74
352.931	11163.5
357.737	16565.8
362.54	9340.28
367.341	3980.83
372.14	2130.15
376.936	1040.45
381.73	1000.14
386.521	749.455
391.31	908.396
396.096	411.551
400.88	101.191
405.661	203.867
410.44	186.557
415.216	318.238
419.99	304.898
424.761	51.5273
429.53	68.1055
434.297	47.793
439.061	3.21484
443.822	416.353
448.581	1615.31
453.337	1037.93
458.091	121.777
462.843	237.207
467.592	122.971
472.338	192.006
477.082	503.072
481.824	658.143
486.563	463.383
491.3	356.846
496.034	17.6758
500.765	19.9219
505.494	201.201
510.221	214.144
514.945	9.17188
519.666	110.775
524.385	75.5527
529.102	149.055
533.816	273.565
538.527	211.492
543.236	1217.08
547.943	2066.44
552.647	2415.6
557.348	1028.49
562.047	493.102
566.744	644.441
571.438	983.16
576.129	718.707
580.818	292.742
585.504	467.982
590.188	369.432
594.87	244.607
599.549	217.008
604.225	446.029
608.899	459.217
613.57	361.217
618.239	346.141
622.905	816.449
627.569	808.893
632.23	630.543
636.889	342.272
641.545	764.992
646.198	654.109
650.849	480.705
655.498	321.799
660.144	457.272
664.787	365.316
669.428	255.111
674.067	311.394
678.703	576.34
683.336	509.002
687.967	627.406
692.595	493.752
697.221	644.109
701.844	748.508
706.465	1073.95
711.083	1707.81
715.698	1692.99
720.311	954.957
724.922	391.473
729.53	273.668
734.135	207.566
738.738	301.68
743.338	14.457
747.936	128.637
752.531	103.039
757.124	41.1055
761.714	23.8535
766.302	83.3457
770.887	202.281
775.469	87.7617
780.049	128.002
784.626	269.125
789.201	242.754
793.773	379.986
798.343	506.266
802.91	430.184
807.475	565.131
812.037	474.904
816.596	102.356
821.153	242.352
825.707	31.877
830.259	543.914
834.808	353.559
839.355	127.824
843.899	150.674
848.441	428.541
852.98	369.217
857.516	440.742
862.05	554.971
866.581	632.672
871.11	248.56
875.636	503.131
880.159	490.94
884.68	404.152
889.199	638.359
893.714	806.445
898.228	1393.67
902.738	2245.57
907.246	4545.45
911.752	11550.7
916.255	26010
920.755	21548
925.253	8564.17
929.748	4345.34
934.241	3250.34
938.731	3199.41
943.218	4923.34
947.703	8953.18
952.186	8254.84
956.665	3964.38
961.142	1740.94
965.617	815.291
970.089	464.613
974.558	133.738
979.025	323.047
983.489	74.3008
987.951	121.496
992.41	43.4258
996.866	9.52539
1001.32	301.256
1005.77	187.297
1010.22	256.113
1014.67	827.008
1019.11	1087.67
1023.55	845.871
1027.99	496.086
1032.42	156.695
1036.86	135.531
1041.29	132.481
1045.72	105.66
1050.14	402.492
1054.56	578.215
1058.98	1542.91
1063.4	2693.75
1067.82	1394.09
1072.23	576.207
1076.64	408.797
1081.05	539.051
1085.45	322.238
1089.85	293.789
1094.25	40.3477
1098.65	241.906
1103.04	385.434
1107.43	570.949
1111.82	424.387
1116.21	454.543
1120.59	389.441
1124.97	261.418
1129.35	213.176
1133.73	241.723
1138.1	85.1328
1142.47	139.262
1146.84	174.637
1151.21	126.125
1155.57	260.629
1159.93	502.164
1164.29	354.484
1168.64	98.7539
1172.99	66.1211
1177.34	63.3086
1181.69	185.727
1186.04	134.945
1190.38	3.875
1194.72	25.2305
1199.05	16.2891
1203.39	207.254
1207.72	16.8086
1212.05	374.019
1216.37	183.785
1220.7	478.289
1225.02	137.559
1229.34	515.211
1233.65	794.84
1237.97	325.449
1242.28	631.219
1246.59	734.203
1250.89	993.215
1255.19	503.246
1259.49	626.664
1263.79	615.742
1268.09	919.465
1272.38	616.57
1276.67	580.156
1280.95	527.723
1285.24	401.609
1289.52	675.312
1293.8	725.703
1298.08	527.914
1302.35	669.996
1306.62	887.023
1310.89	918.613
1315.15	811.438
1319.42	913.504
1323.68	617.656
1327.94	534.668
1332.19	582.16
1336.44	564.586
1340.69	575.141
1344.94	285.398
1349.19	598.637
1353.43	443.363
1357.67	280.394
1361.9	232.32
1366.14	619.203
1370.37	366.512
1374.6	212.922
1378.83	269.938
1383.05	241.422
1387.27	346.984
1391.49	304.797
1395.7	53.2617
1399.92	206.625
1404.13	325.758
1408.34	43.4102
1412.54	65.5156
1416.74	88.0156
1420.94	69.7031
1425.14	183.5
1429.34	329.074
1433.53	376.371
1437.72	372.394
1441.9	467.121
1446.09	641.731
1450.27	985.664
1454.45	656.981
1458.63	931.481
1462.8	703.156
1466.97	363.918
1471.14	258.664
1475.31	541.465
1479.47	645.918
1483.63	322.824
1487.79	255.562
1491.94	221.234
1496.09	38.7734
1500.24	189.457
1504.39	107.742
1508.54	289.75
1512.68	38.1797
1516.82	395.285
1520.95	134.906
1525.09	266.438
1529.22	257.176
1533.35	172.777
1537.47	364.242
1541.6	408.883
1545.72	352.297
1549.83	567.566
1553.95	267.457
1558.06	111.379
1562.17	150.184
1566.28	117.973
1570.38	0
