Measurement: Raman, 514 nm, depolarized, Raman Data Processed
Mineral: Andalusite
Rruff sample: R050258
Ideal chemistry: Al_2_SiO_5_
Locality: Bautista Canyon, near Hemet, Riverside County, California, USA
Source: Marcus Origlieri
Description: Brown fragment
Measured chemistry: Al_2.00_Si_1.00_O_5_
Pin_id: L01170
Orientation: Laser parallel to a* (1 0 0). Fiducial mark perpendicular to laser is parallel to -b [0 -1 0]
Raman shift (cm-1)	intensity
113.208	0
118.134	318.473
123.058	145.984
127.979	228.43
132.898	214.647
137.814	268.43
142.728	448.611
147.639	394.211
152.549	108.312
157.455	351.076
162.359	259.387
167.261	404.824
172.161	452.707
177.058	512.84
181.952	452.969
186.845	494.779
191.734	645.455
196.622	783.725
201.507	619.106
206.389	414.543
211.269	514.795
216.147	256.367
221.022	212.639
225.895	299.336
230.765	192.4
235.633	568.066
240.498	1150.11
245.361	1000.34
250.222	629.791
255.08	635.156
259.936	880.916
264.789	873.029
269.64	1104.57
274.488	2037.51
279.334	3211.62
284.178	8144.52
289.019	17161.3
293.857	22162.2
298.693	9271.57
303.527	3110.6
308.358	1816.61
313.187	2692.53
318.013	6564.1
322.837	10654.9
327.659	4936.31
332.478	2434.7
337.294	1926.03
342.108	1581.71
346.92	1865.03
351.729	4065.58
356.535	8680.84
361.34	9384.13
366.141	4839.3
370.94	2053.71
375.737	1244.28
380.531	909.281
385.323	666.291
390.113	403.68
394.9	412.461
399.684	2.72266
404.466	217.629
409.245	249.109
414.022	421.217
418.797	625.986
423.569	367.275
428.338	147.016
433.105	75.8477
437.87	213.551
442.632	166.562
447.391	226.92
452.149	931.594
456.903	259.566
461.655	41.2695
466.405	157.955
471.152	48.3262
475.897	263.904
480.639	51.8359
485.378	273.815
490.116	11.8867
494.85	32.4727
499.582	182.916
504.312	80.5078
509.039	104.543
513.764	165.266
518.486	15.584
523.206	221.248
527.923	296.912
532.638	255.434
537.35	160.742
542.059	659.414
546.766	1958.58
551.471	3232.25
556.173	2304.21
560.873	917.998
565.57	817.125
570.264	1116.96
574.957	737.236
579.646	368.227
584.333	423.885
589.018	255.176
593.7	274.435
598.379	102.488
603.056	337.981
607.73	366.029
612.402	195.445
617.072	16.9805
621.739	280.705
626.403	562.055
631.065	580.644
635.724	568.881
640.381	401.5
645.035	245.43
649.687	410.65
654.336	250.547
658.983	317.338
663.627	330.514
668.268	331.381
672.907	245.965
677.544	56.623
682.178	123.535
686.809	194.775
691.438	209.82
696.065	70.7207
700.688	73.0078
705.31	75.8906
709.929	292.117
714.545	801.238
719.158	608.039
723.77	687.231
728.378	203.047
732.984	220.356
737.588	218.336
742.189	191.863
746.787	68.5156
751.383	100.094
755.976	60.7188
760.567	79
765.155	29.457
769.741	73.9688
774.324	300.816
778.904	128.004
783.482	190.5
788.058	13.9492
792.631	200.344
797.201	198.57
801.769	270.894
806.334	407.715
810.897	226.031
815.457	408.914
820.014	456.949
824.569	559.496
829.122	237.031
833.671	418.703
838.219	403.723
842.763	74.3281
847.306	203.828
851.845	27.0352
856.382	338.445
860.917	1.56641
865.448	20.207
869.978	210.773
874.505	199.93
879.029	47.1992
883.55	203.676
888.069	345.981
892.586	690.32
897.1	808.652
901.611	1251.47
906.12	1782.78
910.626	4555.41
915.129	12066.8
919.63	22281.2
924.129	14585.4
928.625	7102.17
933.118	4038.44
937.609	2969.19
942.097	3402.2
946.582	6304.91
951.065	9438.61
955.546	6343.86
960.023	2649.06
964.499	1184.51
968.971	637.449
973.441	538.359
977.909	198.867
982.374	303.543
986.836	358.523
991.295	87.2188
995.753	354.406
1000.21	254.305
1004.66	437.207
1009.11	671.34
1013.55	1642.11
1018	2491.91
1022.44	2534.74
1026.88	1278.46
1031.32	719.344
1035.75	331.965
1040.18	340.684
1044.61	483.723
1049.04	447.266
1053.46	475.125
1057.88	1488.7
1062.3	3809.26
1066.71	5329.79
1071.13	2710.81
1075.54	1223.53
1079.94	720.434
1084.35	151.434
1088.75	186.164
1093.15	13.668
1097.55	464.211
1101.94	438.43
1106.34	818.18
1110.73	1286.76
1115.11	935.699
1119.5	709.32
1123.88	316.371
1128.26	196.094
1132.63	96.1836
1137.01	147.93
1141.38	203.394
1145.75	16.25
1150.12	155.426
1154.48	9.76953
1158.84	106.449
1163.2	15.4141
1167.55	296.918
1171.91	109.812
1176.26	90.3008
1180.61	72.1797
1184.95	145.977
1189.29	65.168
1193.63	292.547
1197.97	202.137
1202.31	186.481
1206.64	193.191
1210.97	460.875
1215.29	362.57
1219.62	332.602
1223.94	363.082
1228.26	290.856
1232.57	41.8164
1236.89	103.207
1241.2	4.57812
1245.51	240.516
1249.81	240.387
1254.12	80.8516
1258.42	463.32
1262.72	285.16
1267.01	380.383
1271.3	41.3516
1275.59	289.938
1279.88	214.59
1284.17	360.465
1288.45	416.211
1292.73	447.117
1297.01	513.758
1301.28	210.508
1305.55	87.2422
1309.82	156.148
1314.09	541.863
1318.35	411.394
1322.61	444.809
1326.87	209.055
1331.13	284.508
1335.38	76.3047
1339.63	148.289
1343.88	327.188
1348.12	217.965
1352.37	486.09
1356.61	443.465
1360.85	269.184
1365.08	571.223
1369.31	294.824
1373.54	447.582
1377.77	409.227
1381.99	361.762
1386.22	336.047
1390.43	434.363
1394.65	387.039
1398.87	300.379
1403.08	128.809
1407.29	252.606
1411.49	23.1523
1415.69	201.922
1419.89	286.727
1424.09	211.356
1428.29	80.9336
1432.48	21.3281
1436.67	160.543
1440.86	197.703
1445.04	411.449
1449.23	211.879
1453.4	127.176
1457.58	108.254
1461.76	237.266
1465.93	220.777
1470.1	216.684
1474.26	104.426
1478.43	236.336
1482.59	324.844
1486.75	227.801
1490.9	324.574
1495.06	367.961
1499.21	216.531
1503.35	241.281
1507.5	651.387
1511.64	352.137
1515.78	468.902
1519.92	561.305
1524.05	394.391
1528.18	239.707
1532.31	274.473
1536.44	37.8672
1540.56	177.269
1544.69	242.039
1548.8	170.543
1552.92	561.957
1557.03	525.113
1561.14	299.527
1565.25	205.117
1569.36	5.61719
