Measurement: Raman, 514 nm, depolarized, Raman Data Processed
Mineral: Andalusite
Rruff sample: R050449
Ideal chemistry: Al_2_SiO_5_
Locality: Itinga, Minas Gerais, Brazil
Source: Marcus Origlieri
Description: Green fragment
Measured chemistry: Al_2.00_Fe^3+^_0.01_Si_0.99_O_5_
Pin_id: L00608
Orientation: Laser parallel to b* (0 1 0). Fiducial mark perpendicular to laser is parallel to -c [0 0 -1]
Raman shift (cm-1)	intensity
123.058	0
127.979	200.297
132.898	823.773
137.814	2732.64
142.728	4933.43
147.639	1901.53
152.549	981.924
157.455	82.8101
162.359	39.019
167.261	359.169
172.161	411.322
177.058	316.63
181.952	522.982
186.845	1093.64
191.734	2090.25
196.622	2545.51
201.507	2848.39
206.389	1003.65
211.269	268.91
216.147	132.705
221.022	90.6856
225.895	93.9463
230.765	94.5776
235.633	62.5029
240.498	82.4639
245.361	106.177
250.222	242.418
255.08	395.669
259.936	1678.94
264.789	825.048
269.64	1378.52
274.488	2507.2
279.334	6322.43
284.178	16093.1
289.019	28003.7
293.857	43726.2
298.693	20711.4
303.527	5787.48
308.358	2817.92
313.187	6026.86
318.013	10777.4
322.837	20745
327.659	10509.5
332.478	3465.01
337.294	2120.29
342.108	1692.93
346.92	2009.86
351.729	3812.19
356.535	6920.48
361.34	9575.44
366.141	5958.96
370.94	3316.27
375.737	2450.12
380.531	2037.65
385.323	2026.07
390.113	1886.42
394.9	1736.81
399.684	1445.81
404.466	1278.48
409.245	1514.97
414.022	1844.08
418.797	2233.78
423.569	1738.09
428.338	902.001
433.105	573.526
437.87	465.704
442.632	1314.54
447.391	2022.05
452.149	3703.47
456.903	2054.72
461.655	233.66
466.405	58.2563
471.152	152.697
475.897	109.407
480.639	182.949
485.378	100.302
490.116	11.0288
494.85	213.279
499.582	508.718
504.312	1078.98
509.039	1761.91
513.764	1992.46
518.486	2039.64
523.206	1765.56
527.923	2091.38
532.638	2542.96
537.35	3592.09
542.059	5450.83
546.766	8217.43
551.471	11070
556.173	10116.1
560.873	6275.79
565.57	4875.88
570.264	4621.4
574.957	4170.33
579.646	3757.89
584.333	2914.37
589.018	2308.21
593.7	1991.24
598.379	2059.23
603.056	2270.68
607.73	2831.18
612.402	3442.15
617.072	4265.77
621.739	4653.33
626.403	5077.93
631.065	5544.5
635.724	5423.15
640.381	4766.57
645.035	4346.97
649.687	3979.15
654.336	3060.32
658.983	2163.46
663.627	1615.56
668.268	602.572
672.907	203.483
677.544	91.2681
682.178	26.9033
686.809	60.8496
691.438	50.9077
696.065	213.438
700.688	288.743
705.31	499.805
709.929	939.607
714.545	1595.79
719.158	1660.38
723.77	727.519
728.378	243.185
732.984	160.98
737.588	187.7
742.189	136.448
746.787	52.5605
751.383	134.315
755.976	198.509
760.567	42.2129
765.155	41.8477
769.741	15.2305
774.324	22.7109
778.904	193.206
783.482	367.835
788.058	471.816
792.631	815.169
797.201	1263.89
801.769	1994
806.334	3107.47
810.897	4465.33
815.457	6291.58
820.014	7581.15
824.569	7008.59
829.122	5299.38
833.671	4133.26
838.219	2851.58
842.763	1332.34
847.306	435.566
851.845	112.214
856.382	404.692
860.917	194.569
865.448	206.333
869.978	81.1763
874.505	127.566
879.029	6.4624
883.55	347.785
888.069	685.85
892.586	1258.19
897.1	2180.58
901.611	4034.71
906.12	7161.17
910.626	15082.3
915.129	32790.6
919.63	52546.9
924.129	35669.4
928.625	18271.9
933.118	10303.4
937.609	5527.85
942.097	3941.39
946.582	4245.01
951.065	4589.74
955.546	3282.6
960.023	1774.78
964.499	1300.24
968.971	1202.91
973.441	1243.82
977.909	1237.98
982.374	1271.42
986.836	1593.4
991.295	1537.44
995.753	2198.18
1000.21	4249.15
1004.66	6865.86
1009.11	6358.98
1013.55	4277.34
1018	3935.1
1022.44	3474.7
1026.88	2307.51
1031.32	1832.52
1035.75	1571.72
1040.18	1293.47
1044.61	1330.77
1049.04	1477.39
1053.46	2385.26
1057.88	5331.15
1062.3	11505
1066.71	13962.8
1071.13	6680.53
1075.54	2892.08
1079.94	1586.4
1084.35	1080.5
1088.75	760.368
1093.15	522.986
1097.55	419.348
1101.94	417.448
1106.34	664.012
1110.73	669.574
1115.11	392.095
1119.5	228.306
1123.88	119.472
1128.26	38.8975
1132.63	126.693
1137.01	44.1904
1141.38	58.751
1145.75	76.6191
1150.12	36.0938
1154.48	102.647
1158.84	20.582
1163.2	9.76465
1167.55	111.303
1171.91	305.899
1176.26	92.9502
1180.61	187.155
1184.95	304.941
1189.29	326.222
1193.63	340.11
1197.97	256.714
1202.31	307.31
1206.64	231.517
1210.97	303.935
1215.29	225.584
1219.62	171.636
1223.94	44.79
1228.26	95.9746
1232.57	10.8091
1236.89	73.3931
1241.2	85.5977
1245.51	23.6929
1249.81	105.631
1254.12	34.5098
1258.42	135.807
1262.72	169.706
1267.01	87.3755
1271.3	202.926
1275.59	101.42
1279.88	157.049
1284.17	21.9453
1288.45	76.021
1292.73	88.791
1297.01	23.2529
1301.28	42.6548
1305.55	49.0713
1309.82	79.5322
1314.09	73.8623
1318.35	70.624
1322.61	34.7305
1326.87	51.1665
1331.13	180.026
1335.38	211.363
1339.63	175.186
1343.88	289.466
1348.12	312.182
1352.37	385.322
1356.61	331.015
1360.85	513.283
1365.08	384.145
1369.31	507.072
1373.54	508.86
1377.77	474.845
1381.99	499.248
1386.22	503.662
1390.43	553.665
1394.65	435.846
1398.87	459.2
1403.08	405.189
1407.29	405.875
1411.49	384.517
1415.69	293.611
1419.89	362.295
1424.09	271.322
1428.29	396.759
1432.48	484.998
1436.67	442.915
1440.86	510.975
1445.04	551.635
1449.23	603.871
1453.4	554.097
1457.58	519.191
1461.76	570.279
1465.93	485.992
1470.1	293.352
1474.26	304.14
1478.43	225.722
1482.59	207.082
1486.75	59.4375
1490.9	120.373
1495.06	88.1357
1499.21	45.6348
1503.35	76.1787
1507.5	49.0205
1511.64	102.681
1515.78	97.5019
1519.92	153.235
1524.05	55.7988
1528.18	109.444
1532.31	40.7471
1536.44	70.0166
1540.56	94.8047
