Measurement: Raman, 514 nm, depolarized, Raman Data Processed
Mineral: Andalusite
Rruff sample: R050258
Ideal chemistry: Al_2_SiO_5_
Locality: Bautista Canyon, near Hemet, Riverside County, California, USA
Source: Marcus Origlieri
Description: Brown fragment
Measured chemistry: Al_2.00_Si_1.00_O_5_
Pin_id: M00208
Orientation: Laser parallel to -c* (0 0 -1). Fiducial mark perpendicular to laser is parallel to a [1 0 0]
Raman shift (cm-1)	intensity
99.649	0
104.582	21.9043
109.512	377.983
114.44	148.241
119.365	319.423
124.288	266.002
129.209	105.301
134.127	314.087
139.043	391.413
143.956	290.673
148.867	198.226
153.775	205.215
158.681	137.231
163.585	298.212
168.486	290.565
173.385	302.771
178.282	155.991
183.176	487.019
188.067	823.263
192.956	872.898
197.843	816.062
202.727	686.241
207.609	239.086
212.489	109.346
217.366	74.957
222.24	17.6475
227.112	25.5566
231.982	418.397
236.849	1163.18
241.714	1651.97
246.577	1076.21
251.437	681.791
256.294	634.714
261.149	879.347
266.002	892.125
270.852	1522.7
275.7	3178.85
280.545	6652.36
285.388	16237.1
290.229	30353
295.067	18147.3
299.902	5359.36
304.735	1924.26
309.566	2363.87
314.394	7107.36
319.22	17698.4
324.043	11278.3
328.864	3960.44
333.682	2343.17
338.498	1969.64
343.311	2169.85
348.122	4521.87
352.931	11814.6
357.737	20178.5
362.54	12548.1
367.341	5225.24
372.14	2619.06
376.936	1554.67
381.73	1373.81
386.521	1021.46
391.31	1234.65
396.096	679.612
400.88	480.577
405.661	344.437
410.44	587.189
415.216	1101.75
419.99	1005.95
424.761	202.74
429.53	213.094
434.297	35.0147
439.061	126.317
443.822	565.092
448.581	1518.38
453.337	1324.16
458.091	137.434
462.843	51.9238
467.592	288.553
472.338	43.1289
477.082	37.0898
481.824	451.537
486.563	186.693
491.3	145.262
496.034	65.9824
500.765	185.19
505.494	281.853
510.221	442.914
514.945	550.281
519.666	423.943
524.385	537.881
529.102	683.078
533.816	1027.02
538.527	1536.48
543.236	2987.35
547.943	4727.48
552.647	4843.98
557.348	3072.45
562.047	2410.85
566.744	2211.32
571.438	2523.85
576.129	1873.94
580.818	1330.61
585.504	1125.44
590.188	1093.53
594.87	1032.68
599.549	947.965
604.225	1247.61
608.899	1484.57
613.57	1478.81
618.239	1900.16
622.905	2000.69
627.569	2335.9
632.23	1971.27
636.889	1872.01
641.545	1891.36
646.198	1617.31
650.849	1503.47
655.498	867.408
660.144	972.102
664.787	557.539
669.428	292.709
674.067	139.588
678.703	192.844
683.336	106.777
687.967	131.826
692.595	5.87305
697.221	288.795
701.844	385.102
706.465	612.057
711.083	1075.29
715.698	1845.35
720.311	1469.83
724.922	797.734
729.53	362.193
734.135	221.338
738.738	230.092
743.338	53.4883
747.936	180.037
752.531	53.4004
757.124	133.162
761.714	6.27539
766.302	179.045
770.887	95.3106
775.469	61.3359
780.049	226.025
784.626	347.742
789.201	475.945
793.773	514.654
798.343	681.877
802.91	972.607
807.475	1315.86
812.037	1919.13
816.596	2543.54
821.153	2543.49
825.707	2079.01
830.259	1305.98
834.808	807.92
839.355	501.115
843.899	347.926
848.441	61.6504
852.98	1.16797
857.516	55.2227
862.05	22.4512
866.581	115.568
871.11	116.842
875.636	113.084
880.159	287.508
884.68	369.986
889.199	619.535
893.714	962.004
898.228	1572.05
902.738	3048.2
907.246	5253.02
911.752	13197.8
916.255	31242
920.755	32247.3
925.253	15223.4
929.748	8646.45
934.241	5622.44
938.731	4939.37
943.218	7215.28
947.703	12901.2
952.186	12809.3
956.665	6114.58
961.142	2864.05
965.617	1378.76
970.089	879.644
974.558	618.625
979.025	710.85
983.489	610.119
987.951	609.779
992.41	469.643
996.866	1020.3
1001.32	2082.29
1005.77	2786.61
1010.22	2521.33
1014.67	2867.05
1019.11	4114.47
1023.55	2803.6
1027.99	1362.38
1032.42	862.596
1036.86	758.766
1041.29	675.85
1045.72	447.641
1050.14	448.234
1054.56	1058.85
1058.98	2257.18
1063.4	4843.2
1067.82	3929.46
1072.23	1675.69
1076.64	582.961
1081.05	408.519
1085.45	193.438
1089.85	407.84
1094.25	86.7676
1098.65	136.033
1103.04	716.973
1107.43	1255.51
1111.82	1416.02
1116.21	830.83
1120.59	631.703
1124.97	588.717
1129.35	321.154
1133.73	63.8203
1138.1	26.5977
1142.47	20.0527
1146.84	159.682
1151.21	110.34
1155.57	5.08008
1159.93	87.8281
1164.29	3.38477
1168.64	214.113
1172.99	243.578
1177.34	136.129
1181.69	37.5527
1186.04	45.959
1190.38	320.875
1194.72	115.055
1199.05	108.289
1203.39	94.4961
1207.72	102.258
1212.05	5.19727
1216.37	88.3867
1220.7	237.998
1225.02	291.994
1229.34	143.088
1233.65	158.307
1237.97	201.99
1242.28	105.555
1246.59	100.728
1250.89	186.475
1255.19	148.865
1259.49	144.803
1263.79	363.756
1268.09	127.324
1272.38	148.141
1276.67	259.277
1280.95	198.328
1285.24	418.555
1289.52	34.3418
1293.8	84.6309
1298.08	196.453
1302.35	19.3809
1306.62	343.092
1310.89	254.537
1315.15	147.041
1319.42	132.053
1323.68	161.994
1327.94	117.885
1332.19	294.693
1336.44	203.828
1340.69	164.935
1344.94	368.969
1349.19	191.891
1353.43	301.172
1357.67	333.633
1361.9	272.506
1366.14	203.383
1370.37	286.129
1374.6	571.777
1378.83	356.148
1383.05	342.578
1387.27	279.25
1391.49	299.438
1395.7	87.2422
1399.92	82.0508
1404.13	105.383
1408.34	305.559
1412.54	86.6211
1416.74	58.8281
1420.94	115.184
1425.14	210.453
1429.34	342.289
1433.53	204.336
1437.72	120.832
1441.9	251.078
1446.09	285.406
1450.27	422.672
1454.45	326.16
1458.63	9.92578
1462.8	267.398
1466.97	522.793
1471.14	277.488
1475.31	385.262
1479.47	76.707
1483.63	294.754
1487.79	225.68
1491.94	385.078
1496.09	195.996
1500.24	86.0586
1504.39	352.754
1508.54	176.098
1512.68	409.438
1516.82	275.262
1520.95	142.297
1525.09	288.289
1529.22	147.914
1533.35	288.449
1537.47	246.453
1541.6	141.336
1545.72	7.27344
1549.83	112.957
1553.95	142.266
1558.06	6.41016
1562.17	221.414
1566.28	103.711
1570.38	0
