Measurement: Raman, 514 nm, depolarized, Raman Data Processed
Mineral: Andalusite
Rruff sample: R050626
Ideal chemistry: Al_2_SiO_5_
Locality: Minas Gerais, Brazil
Source: Gemological Center
Description: Grayish brown fragment
Measured chemistry: (Al_1.99_Fe^3+^_0.01_)_Î£=1_Si_1.00_O_5_
Pin_id: L01690
Orientation: Laser parallel to b* (0 1 0). Fiducial mark perpendicular to laser is parallel to c [0 0 1]
Raman shift (cm-1)	intensity
123.058	0
127.979	9.72607
132.898	168.421
137.814	128.7
142.728	236.994
147.639	248.209
152.549	148.891
157.455	28.5322
162.359	6.48804
167.261	141.373
172.161	126.541
177.058	77.7637
181.952	63.21
186.845	308.659
191.734	443.933
196.622	659.894
201.507	827.972
206.389	565.826
211.269	252.316
216.147	56.1392
221.022	115.513
225.895	5.66602
230.765	105.671
235.633	210.498
240.498	180.062
245.361	210.388
250.222	279.495
255.08	253.396
259.936	446.095
264.789	578.596
269.64	1011.77
274.488	2188.84
279.334	5004.18
284.178	14409.5
289.019	27288.5
293.857	32833.4
298.693	15083.4
303.527	4247.44
308.358	2437.8
313.187	6631.9
318.013	13772.4
322.837	17943.1
327.659	9270.46
332.478	3461.07
337.294	2325.22
342.108	1797.26
346.92	2326.94
351.729	5442.26
356.535	9395.23
361.34	10348.8
366.141	6141.1
370.94	3075
375.737	1998.49
380.531	1589.56
385.323	1366.2
390.113	1168.39
394.9	1028.14
399.684	719.445
404.466	702.441
409.245	973.211
414.022	1622.55
418.797	2112.47
423.569	1357
428.338	554.129
433.105	342.867
437.87	357.227
442.632	695.203
447.391	2066.83
452.149	2865.16
456.903	1196.18
461.655	4.21289
466.405	208.102
471.152	134.387
475.897	17.8442
480.639	19.2124
485.378	7.09863
490.116	29.7178
494.85	101.23
499.582	300.572
504.312	497.513
509.039	714.943
513.764	844.818
518.486	815.124
523.206	749.847
527.923	1127.97
532.638	1371.49
537.35	2112.39
542.059	3637.16
546.766	6254.08
551.471	8149.64
556.173	6636.14
560.873	3853.64
565.57	2811.4
570.264	2609.4
574.957	2368.64
579.646	1921.4
584.333	1567.78
589.018	1282.62
593.7	1340.02
598.379	1268.69
603.056	1501.27
607.73	1833.11
612.402	2139.71
617.072	2205.58
621.739	2577.91
626.403	2897.13
631.065	2941.55
635.724	2660.92
640.381	2478.75
645.035	2419.24
649.687	2106.33
654.336	1638.31
658.983	1313.18
663.627	1077.9
668.268	452.483
672.907	171.9
677.544	39.1397
682.178	61.8818
686.809	2.48096
691.438	24.2524
696.065	195.742
700.688	246.991
705.31	468.994
709.929	1050.74
714.545	1812.93
719.158	2030.01
723.77	1063.18
728.378	346.264
732.984	286.094
737.588	175.92
742.189	153.311
746.787	92.3032
751.383	7.74805
755.976	24.8364
760.567	16.3071
765.155	18.5469
769.741	85.4746
774.324	54.7563
778.904	112.953
783.482	163.108
788.058	204.488
792.631	502.164
797.201	555.11
801.769	944.678
806.334	1652.87
810.897	2562.7
815.457	3549.17
820.014	3985.3
824.569	3607.45
829.122	2803.89
833.671	2515.96
838.219	1478.86
842.763	717.785
847.306	142.842
851.845	113.108
856.382	53.0815
860.917	10.9834
865.448	46.7764
869.978	10.5576
874.505	97.5591
879.029	223.39
883.55	346.434
888.069	557.049
892.586	1082.66
897.1	1814.54
901.611	3248.35
906.12	5842.14
910.626	12490.6
915.129	31644.6
919.63	47855.2
924.129	32172.1
928.625	16975
933.118	9438.17
937.609	4744.46
942.097	3491.94
946.582	3704.61
951.065	4059.51
955.546	2830.75
960.023	1304.51
964.499	673.692
968.971	703.467
973.441	452.119
977.909	503.328
982.374	456.893
986.836	524.118
991.295	746.571
995.753	1022.97
1000.21	2198.64
1004.66	3712.3
1009.11	3294.63
1013.55	2887.21
1018	3427.55
1022.44	3084.1
1026.88	1870.21
1031.32	1122.02
1035.75	830.692
1040.18	838.605
1044.61	815.49
1049.04	780.81
1053.46	1342.01
1057.88	3341.8
1062.3	8439.18
1066.71	10979.2
1071.13	5506.69
1075.54	2248.77
1079.94	1048.51
1084.35	573.782
1088.75	433.532
1093.15	421.78
1097.55	213.642
1101.94	513.552
1106.34	837.68
1110.73	1110.98
1115.11	766.425
1119.5	453.774
1123.88	223.244
1128.26	226.431
1132.63	14.1143
1137.01	55.9463
1141.38	19.4248
1145.75	3.8418
1150.12	54.5137
1154.48	65.1191
1158.84	0.952148
1163.2	131.591
1167.55	48.4658
1171.91	69.7217
1176.26	35.6543
1180.61	1.32715
1184.95	103.394
1189.29	33.3105
1193.63	146.762
1197.97	89.8115
1202.31	208.933
1206.64	91.5059
1210.97	87.9736
1215.29	30.4014
1219.62	32.2051
1223.94	31.2275
1228.26	37.707
1232.57	2.6709
1236.89	56.9512
1241.2	27.8193
1245.51	82.2334
1249.81	9.83887
1254.12	70.9356
1258.42	133.534
1262.72	24.9492
1267.01	90.7256
1271.3	41.3486
1275.59	135.622
1279.88	133.371
1284.17	9.09961
1288.45	8.23242
1292.73	165.453
1297.01	44.291
1301.28	9.10742
1305.55	76.46
1309.82	0.918945
1314.09	113.369
1318.35	24.6289
1322.61	64.4053
1326.87	122.805
1331.13	170.76
1335.38	74.3057
1339.63	89.4941
1343.88	120.272
1348.12	74.1631
1352.37	304.977
1356.61	239.699
1360.85	247.397
1365.08	317.753
1369.31	275.498
1373.54	295.085
1377.77	216.858
1381.99	309.712
1386.22	312.653
1390.43	251.64
1394.65	237.879
1398.87	162.725
1403.08	189.419
1407.29	254.029
1411.49	179.933
1415.69	215.956
1419.89	98.6641
1424.09	79.9902
1428.29	218.17
1432.48	316.106
1436.67	232.038
1440.86	198.608
1445.04	225.214
1449.23	312.671
1453.4	166.531
1457.58	284.664
1461.76	111.962
1465.93	125.868
1470.1	179.179
1474.26	138.006
1478.43	203.326
1482.59	249.212
1486.75	134.566
1490.9	45.5762
1495.06	24.6934
1499.21	113.281
1503.35	172.567
1507.5	77.4727
1511.64	83.7861
1515.78	190.565
1519.92	45.6103
1524.05	145.715
1528.18	66.8174
1532.31	135.361
1536.44	102.456
1540.56	224.07
1544.69	164.185
1548.8	221.846
1552.92	271.545
1557.03	258.185
1561.14	166.542
1565.25	161.157
1569.36	96.4023
