Measurement: Raman, 514 nm, depolarized, Raman Data Processed
Mineral: Andalusite
Rruff sample: R050626
Ideal chemistry: Al_2_SiO_5_
Locality: Minas Gerais, Brazil
Source: Gemological Center
Description: Grayish brown fragment
Measured chemistry: (Al_1.99_Fe^3+^_0.01_)_Î£=1_Si_1.00_O_5_
Pin_id: L00621
Orientation: Laser parallel to -c* (0 0 -1). Fiducial mark perpendicular to laser is parallel to -a [-1 0 0]
Raman shift (cm-1)	intensity
123.058	0
127.979	99.5254
132.898	1452.26
137.814	4248.11
142.728	11882.9
147.639	6835.83
152.549	2657.28
157.455	962.787
162.359	127.59
167.261	777.165
172.161	1192.92
177.058	1094.39
181.952	1064.74
186.845	1691
191.734	2693.09
196.622	3058.67
201.507	2933.27
206.389	693.857
211.269	32.0859
216.147	87.3252
221.022	216.371
225.895	143.609
230.765	60.0488
235.633	615.36
240.498	1681.13
245.361	1082.34
250.222	667.854
255.08	388.426
259.936	529.073
264.789	376.173
269.64	705.738
274.488	1418.78
279.334	3549.06
284.178	8666.41
289.019	18978
293.857	19848.7
298.693	6856.61
303.527	2412.28
308.358	1104.96
313.187	3265.73
318.013	9334.55
322.837	11341.4
327.659	3807.42
332.478	1319.66
337.294	799.627
342.108	1183.42
346.92	2721.07
351.729	7513.78
356.535	16028.4
361.34	14870.3
366.141	6586.38
370.94	3398.35
375.737	2213.8
380.531	2191.72
385.323	2396.7
390.113	3057.57
394.9	3187.46
399.684	2994.64
404.466	2808.61
409.245	2258.66
414.022	1730.33
418.797	1533.55
423.569	963.648
428.338	604.887
433.105	432.174
437.87	248.709
442.632	632.84
447.391	1222.64
452.149	1564.98
456.903	265.574
461.655	419.205
466.405	438.904
471.152	65.4922
475.897	757.791
480.639	979.037
485.378	640.848
490.116	328.445
494.85	214.168
499.582	474.078
504.312	648.41
509.039	1157.83
513.764	1379.16
518.486	1149.65
523.206	1049.35
527.923	1285.96
532.638	1727.43
537.35	1976.73
542.059	2929.84
546.766	4231.89
551.471	5457.54
556.173	4651.9
560.873	3583.93
565.57	3497.6
570.264	3986.91
574.957	3922.83
579.646	2700.35
584.333	1960.47
589.018	1327.48
593.7	1152.49
598.379	1320.38
603.056	1160.1
607.73	1896.15
612.402	2192.9
617.072	3103.43
621.739	3420.79
626.403	4064.55
631.065	4701.34
635.724	4751.13
640.381	4509.23
645.035	4218.15
649.687	3687.72
654.336	2516.11
658.983	1494.7
663.627	887.711
668.268	581.189
672.907	445.107
677.544	249.434
682.178	56.1348
686.809	275.728
691.438	270.514
696.065	411.137
700.688	478.008
705.31	703.783
709.929	1242.4
714.545	1503.9
719.158	1396.79
723.77	550.564
728.378	160.279
732.984	103.728
737.588	328.549
742.189	237.578
746.787	78.1914
751.383	81.2656
755.976	224
760.567	3.46484
765.155	126.109
769.741	217.43
774.324	51.127
778.904	85.4473
783.482	6.5
788.058	225.279
792.631	371.822
797.201	499.258
801.769	1188.64
806.334	1772
810.897	2710.33
815.457	4140.6
820.014	5130.86
824.569	4360.23
829.122	2969.28
833.671	1763.15
838.219	1343.73
842.763	761.393
847.306	179.262
851.845	198.228
856.382	60.3145
860.917	188.512
865.448	127.106
869.978	319.572
874.505	47.9199
879.029	22.3984
883.55	132.916
888.069	333.168
892.586	402.719
897.1	1145.45
901.611	1959.14
906.12	3728.99
910.626	7999.82
915.129	18913.7
919.63	29383.7
924.129	14919.9
928.625	7870.72
933.118	4974.72
937.609	4508.22
942.097	5859.9
946.582	10641.7
951.065	14655.9
955.546	8454.36
960.023	3814.07
964.499	1816.4
968.971	921.336
973.441	662.723
977.909	502.014
982.374	398.541
986.836	634.768
991.295	488.449
995.753	1186.85
1000.21	2750
1004.66	5016.38
1009.11	4221.06
1013.55	2334.86
1018	2007.41
1022.44	1832.62
1026.88	1351.01
1031.32	1183.68
1035.75	1639.44
1040.18	2600.79
1044.61	4016.65
1049.04	4751.85
1053.46	3678.06
1057.88	3352.73
1062.3	5011.18
1066.71	3663.35
1071.13	1941.83
1075.54	1072.03
1079.94	1387.11
1084.35	2336.42
1088.75	2330.7
1093.15	675.481
1097.55	544.098
1101.94	724.508
1106.34	966.316
1110.73	720.564
1115.11	896.195
1119.5	794.186
1123.88	1089.6
1128.26	973.418
1132.63	777.635
1137.01	566.229
1141.38	603.182
1145.75	489.545
1150.12	469.332
1154.48	664.086
1158.84	636.592
1163.2	331.346
1167.55	4.66992
1171.91	25.5059
1176.26	33.2539
1180.61	214.225
1184.95	119.893
1189.29	152.19
1193.63	141.887
1197.97	125.66
1202.31	36.9453
1206.64	56.4863
1210.97	52.1504
1215.29	137.842
1219.62	11.252
1223.94	209.732
1228.26	53.8242
1232.57	220.451
1236.89	111.076
1241.2	247.207
1245.51	282.359
1249.81	353.674
1254.12	324.332
1258.42	377.144
1262.72	356.199
1267.01	342.221
1271.3	420.211
1275.59	563.156
1279.88	323.022
1284.17	301.742
1288.45	283.315
1292.73	452.713
1297.01	271.772
1301.28	295.705
1305.55	456.334
1309.82	377.43
1314.09	455.328
1318.35	632.859
1322.61	840.106
1326.87	715.602
1331.13	785.66
1335.38	1100.3
1339.63	1124.03
1343.88	1126.01
1348.12	1221.52
1352.37	951.981
1356.61	833.809
1360.85	813.414
1365.08	836.383
1369.31	856.34
1373.54	836.973
1377.77	857.231
1381.99	983.543
1386.22	1074.75
1390.43	1068.04
1394.65	757.551
1398.87	679.918
1403.08	950.523
1407.29	794.457
1411.49	626.418
1415.69	783.43
1419.89	810.902
1424.09	395.906
1428.29	543.363
1432.48	637.098
1436.67	761.547
1440.86	939.387
1445.04	621.223
1449.23	1047.85
1453.4	1279.48
1457.58	1496.56
1461.76	1135.25
1465.93	1017.51
1470.1	890.273
1474.26	573.828
1478.43	260.078
1482.59	350.137
1486.75	453.824
1490.9	79.3555
1495.06	10.0039
1499.21	31.7852
1503.35	169.492
1507.5	245.352
1511.64	19.1406
1515.78	318.766
1519.92	497.883
1524.05	356.332
1528.18	521.805
1532.31	398.527
1536.44	700.258
1540.56	582.84
1544.69	510.883
1548.8	461.176
1552.92	608.789
1557.03	368.191
1561.14	359.641
1565.25	362.949
1569.36	54.4102
