Measurement: Raman, 514 nm, depolarized, Raman Data Processed
Mineral: Andalusite
Rruff sample: R050258
Ideal chemistry: Al_2_SiO_5_
Locality: Bautista Canyon, near Hemet, Riverside County, California, USA
Source: Marcus Origlieri
Description: Brown fragment
Measured chemistry: Al_2.00_Si_1.00_O_5_
Pin_id: M00252
Orientation: Laser parallel to b* (0 1 0). Fiducial mark perpendicular to laser is parallel to c [0 0 1]
Raman shift (cm-1)	intensity
111.976	0
116.903	117.519
121.827	174.084
126.749	47
131.668	133.281
136.585	265.772
141.5	284.742
146.412	305.481
151.321	240.303
156.229	249.728
161.134	173.822
166.036	354.095
170.936	279.398
175.834	280.517
180.729	249.166
185.622	361.044
190.512	435.615
195.4	371.733
200.286	454.945
205.169	263.335
210.049	234.891
214.928	198.603
219.803	184.826
224.677	85.584
229.548	141.572
234.416	244.06
239.282	423.457
244.146	276.666
249.007	373.676
253.866	260.467
258.722	338.65
263.576	233.363
268.427	553.057
273.276	761.805
278.123	1475.56
282.967	3557.55
287.809	6636.79
292.648	6355.47
297.485	2176.79
302.319	752.434
307.151	540.955
311.98	1209.72
316.807	3569.23
321.631	3775.06
326.454	1587.25
331.273	724.309
336.09	578.027
340.905	638.889
345.717	863.896
350.527	2048.72
355.334	4251.85
360.139	3747.44
364.941	1831.55
369.741	1028.13
374.538	518.178
379.333	472.66
384.126	519.564
388.916	474.34
393.703	524.635
398.488	341.938
403.271	343.654
408.051	337.996
412.828	153.94
417.603	280.494
422.376	171.721
427.146	71.6113
431.914	199.41
436.679	182.881
441.442	103.748
446.202	493.029
450.96	667.771
455.715	292.924
460.467	237.519
465.218	96.5742
469.965	50.7695
474.711	147.096
479.454	23.9004
484.194	108.135
488.932	62.1895
493.667	17.5645
498.4	180.309
503.13	329.682
507.858	338.303
512.583	407.109
517.306	326.168
522.026	522.467
526.744	420.004
531.459	606.768
536.172	730.396
540.882	1103.49
545.59	1853.68
550.295	2236.28
554.998	1506.36
559.698	1283.21
564.396	1190.14
569.091	1374.72
573.784	1354.96
578.474	870.553
583.162	785.102
587.847	735.389
592.529	600.025
597.209	487.502
601.887	494.59
606.562	928.244
611.235	814.262
615.905	1055.57
620.572	983.658
625.237	1386.4
629.9	1222.89
634.56	1246.34
639.217	1348.44
643.872	980.481
648.524	1112.08
653.174	841.391
657.821	587.59
662.466	269.674
667.108	191.629
671.748	140.449
676.385	8.94531
681.02	142.037
685.652	32.9336
690.281	85.6172
694.908	404.115
699.533	101.219
704.155	273.225
708.774	517.322
713.391	584.023
718.005	753.205
722.617	219.785
727.226	1.27148
731.833	399.033
736.437	7.10547
741.039	197.693
745.638	249.533
750.234	299.723
754.828	201.447
759.419	319.779
764.008	140.363
768.595	56.2559
773.178	225.754
777.759	57.9219
782.338	130.762
786.914	276.31
791.488	377.516
796.059	438.381
800.627	509.902
805.193	603.082
809.756	1119.92
814.317	1490.59
818.875	1862
823.431	1310.52
827.984	970.098
832.534	764.381
837.082	569.307
841.627	673.957
846.17	10.2949
850.71	118.981
855.248	109.26
859.783	44.7422
864.316	72.791
868.846	47.8008
873.373	60.207
877.898	147.574
882.42	76.6367
886.94	41.3828
891.457	238.305
895.971	241.16
900.483	710.543
904.993	1218.64
909.5	2445.83
914.004	6530.39
918.505	10185.4
923.004	5342.35
927.501	2940.17
931.995	1558.82
936.486	1124.31
940.975	1869.63
945.461	2473.8
949.945	3196.08
954.426	1653.37
958.904	914.039
963.38	496.5
967.853	294.371
972.324	337.363
976.792	387.348
981.258	196.523
985.72	273.113
990.181	305.477
994.639	427.641
999.094	949.871
1003.55	1652.57
1008	1163.79
1012.44	1082.18
1016.89	1607.96
1021.33	1529.53
1025.77	682.629
1030.21	673.519
1034.64	207.738
1039.07	97.6055
1043.5	239.406
1047.93	136.695
1052.35	501.41
1056.78	566.156
1061.19	1112.93
1065.61	1571.11
1070.02	741.863
1074.43	336.137
1078.84	112.062
1083.25	128.344
1087.65	136.188
1092.05	175.383
1096.45	122.457
1100.85	224.172
1105.24	386.055
1109.63	524.734
1114.02	330.672
1118.4	252.613
1122.78	30.9297
1127.16	192.969
1131.54	234.441
1135.92	134.023
1140.29	26.4727
1144.66	201.387
1149.02	57.2812
1153.39	90.4062
1157.75	22.6641
1162.11	282.16
1166.46	119.652
1170.82	428.316
1175.17	113.715
1179.52	237.027
1183.86	75.6992
1188.21	340.469
1192.55	66.2031
1196.89	181.176
1201.22	390.316
1205.55	289.082
1209.88	290.297
1214.21	189.144
1218.54	387.172
1222.86	158.102
1227.18	185.465
1231.5	211.359
1235.81	19.5078
1240.12	151.043
1244.43	272.43
1248.74	259.508
1253.04	185.008
1257.34	220.094
1261.64	241.574
1265.94	293.297
1270.23	245.242
1274.52	155.406
1278.81	228.555
1283.1	182.719
1287.38	488.832
1291.66	297.055
1295.94	426.133
1300.21	20.6992
1304.48	216.941
1308.75	138.215
1313.02	430.305
1317.29	586.121
1321.55	305.352
1325.81	158.844
1330.06	444.156
1334.32	98.4023
1338.57	317.719
1342.82	396.894
1347.06	215.367
1351.31	272.621
1355.55	553.535
1359.79	375.852
1364.02	548.066
1368.26	102.34
1372.49	258.117
1376.71	176.336
1380.94	331.199
1385.16	134.035
1389.38	327.273
1393.6	243.102
1397.81	299.012
1402.02	121.996
1406.23	43.6602
1410.44	173.269
1414.64	131.641
1418.85	211.512
1423.04	102.195
1427.24	276.961
1431.43	105.723
1435.62	95.0117
1439.81	277.555
1444	201.273
1448.18	60.7773
1452.36	402.172
1456.54	238.894
1460.71	273.918
1464.89	185.781
1469.06	281.914
1473.22	215.148
1477.39	278.316
1481.55	403.644
1485.71	499.293
1489.86	240.148
1494.02	438.41
1498.17	438.582
1502.32	295.668
1506.46	265.602
1510.61	293.312
1514.75	287.5
1518.88	468.672
1523.02	30.0859
1527.15	40.5234
1531.28	184.258
1535.41	512.75
1539.53	331.258
1543.66	540.977
1547.78	549.121
1551.89	414.449
1556.01	269.488
1560.12	264.402
1564.23	191.656
1568.33	324.66
