Measurement: Raman, 514 nm, depolarized, Raman Data Processed
Mineral: Andalusite
Rruff sample: R050626
Ideal chemistry: Al_2_SiO_5_
Locality: Minas Gerais, Brazil
Source: Gemological Center
Description: Grayish brown fragment
Measured chemistry: (Al_1.99_Fe^3+^_0.01_)_Î£=1_Si_1.00_O_5_
Pin_id: L00923
Orientation: Laser parallel to a* (1 0 0). Fiducial mark perpendicular to laser is parallel to -b [0 -1 0]
Raman shift (cm-1)	intensity
123.058	0
127.979	0.762207
132.898	228.685
137.814	114.118
142.728	331.166
147.639	259.331
152.549	227.002
157.455	171.575
162.359	30.7571
167.261	494.216
172.161	715.351
177.058	523.504
181.952	517.35
186.845	822.112
191.734	1710.83
196.622	2279.47
201.507	2021.62
206.389	1312.08
211.269	442.469
216.147	123.421
221.022	69.4651
225.895	65.1174
230.765	96.0112
235.633	302.484
240.498	1836.34
245.361	3161.38
250.222	1582.45
255.08	1004.44
259.936	1178.09
264.789	866.407
269.64	1135.15
274.488	1827.66
279.334	3712.93
284.178	6730.65
289.019	17537.5
293.857	47278.2
298.693	28336.7
303.527	6987.09
308.358	2473.43
313.187	2121.82
318.013	5699.57
322.837	23003.2
327.659	16429.5
332.478	4768.92
337.294	2496.12
342.108	2116.84
346.92	2328.08
351.729	4611.81
356.535	13850
361.34	30160.8
366.141	17755
370.94	6998.84
375.737	3587.19
380.531	1986.72
385.323	1708.87
390.113	1418.5
394.9	1441.63
399.684	910.268
404.466	553.452
409.245	638.389
414.022	846.269
418.797	1766.74
423.569	2115.68
428.338	637.047
433.105	189.826
437.87	83.0459
442.632	69.7075
447.391	368.821
452.149	1046.51
456.903	1083.8
461.655	16.5493
466.405	212.292
471.152	95.353
475.897	94.5791
480.639	117.97
485.378	375.938
490.116	277.553
494.85	110.929
499.582	172.128
504.312	160.942
509.039	328.42
513.764	534.713
518.486	633.717
523.206	607.276
527.923	666.217
532.638	741.526
537.35	991.189
542.059	1663.32
546.766	2769.7
551.471	5425.11
556.173	6513.17
560.873	4241.15
565.57	2659.16
570.264	2858.71
574.957	3670.45
579.646	2717.43
584.333	1604.32
589.018	1197.51
593.7	974.077
598.379	980.931
603.056	998.883
607.73	1260.58
612.402	1403.3
617.072	1584.09
621.739	1858.4
626.403	2201.92
631.065	2517.5
635.724	2361
640.381	1975.5
645.035	1824.07
649.687	1818.93
654.336	1564.86
658.983	1034.56
663.627	1060.1
668.268	760.444
672.907	156.59
677.544	27.4004
682.178	45.2012
686.809	78.4648
691.438	66.1006
696.065	23.5395
700.688	89.8354
705.31	133.12
709.929	431.082
714.545	872.183
719.158	1701.72
723.77	1287.03
728.378	373.356
732.984	186.05
737.588	234.325
742.189	118.838
746.787	101.019
751.383	145.084
755.976	30.1675
760.567	127.989
765.155	41.4434
769.741	5.24707
774.324	83.085
778.904	23.4507
783.482	121.337
788.058	123.755
792.631	171.756
797.201	238.367
801.769	491.595
806.334	1016.45
810.897	1337.93
815.457	1823.06
820.014	2670.72
824.569	2802.38
829.122	2122.39
833.671	1413.68
838.219	1012.94
842.763	490.655
847.306	119.812
851.845	27.7568
856.382	124.757
860.917	95.3838
865.448	77.1074
869.978	30.4082
874.505	79.8989
879.029	219.066
883.55	200.448
888.069	405.486
892.586	773.826
897.1	1344.98
901.611	2225.66
906.12	3745.82
910.626	7002.14
915.129	16177.6
919.63	42862.9
924.129	40816.6
928.625	19347.2
933.118	12840
937.609	7710.08
942.097	7174.33
946.582	11204.8
951.065	22137.6
955.546	20590.6
960.023	9029.08
964.499	4174.35
968.971	2180.34
973.441	1571.8
977.909	1138.63
982.374	997.804
986.836	852.365
991.295	763.898
995.753	764.084
1000.21	1130.68
1004.66	2308.78
1009.11	3125.69
1013.55	2284.98
1018	2693.71
1022.44	3689.25
1026.88	2260.55
1031.32	1303.95
1035.75	889.668
1040.18	746.806
1044.61	691.562
1049.04	722.93
1053.46	894.347
1057.88	1477.19
1062.3	3568.25
1066.71	7552.92
1071.13	4699.13
1075.54	1729.97
1079.94	806.44
1084.35	510.357
1088.75	326.521
1093.15	212.961
1097.55	178.264
1101.94	349.556
1106.34	582.569
1110.73	999.062
1115.11	1069.32
1119.5	732.954
1123.88	826.674
1128.26	642.581
1132.63	135.722
1137.01	88.2686
1141.38	11.2705
1145.75	20.4448
1150.12	38.3169
1154.48	66.2886
1158.84	8.68506
1163.2	54.3013
1167.55	97.6309
1171.91	17.4873
1176.26	15.0703
1180.61	26.7334
1184.95	56.5796
1189.29	50.6826
1193.63	43.7163
1197.97	91.7368
1202.31	0.225098
1206.64	96.6733
1210.97	54.5288
1215.29	43.9316
1219.62	6.5293
1223.94	53.6313
1228.26	41.7734
1232.57	51.1611
1236.89	92.6812
1241.2	59.7183
1245.51	75.6821
1249.81	22.5483
1254.12	4.22656
1258.42	40.7402
1262.72	29.917
1267.01	37.0469
1271.3	48.377
1275.59	151.942
1279.88	92.8633
1284.17	28.3608
1288.45	6.46338
1292.73	27.1816
1297.01	33.2759
1301.28	22.3184
1305.55	112.542
1309.82	74.5674
1314.09	46.2334
1318.35	69.436
1322.61	25.0371
1326.87	112.505
1331.13	93.542
1335.38	132.241
1339.63	65.6411
1343.88	3.53125
1348.12	27.646
1352.37	36.6626
1356.61	182.403
1360.85	129.982
1365.08	162.388
1369.31	288.602
1373.54	307.158
1377.77	181.23
1381.99	163.419
1386.22	190.421
1390.43	228.068
1394.65	96.9727
1398.87	111.168
1403.08	207.215
1407.29	35.6855
1411.49	65.5034
1415.69	80.9233
1419.89	59.2476
1424.09	129.185
1428.29	260.949
1432.48	108.291
1436.67	152.711
1440.86	226.471
1445.04	158.731
1449.23	199.513
1453.4	156.996
1457.58	250.083
1461.76	72.188
1465.93	233.665
1470.1	202.935
1474.26	122.269
1478.43	14.2344
1482.59	130.001
1486.75	12.1699
1490.9	22.0376
1495.06	82.9453
1499.21	123.022
1503.35	112.258
1507.5	80.481
1511.64	76.7676
1515.78	151.37
1519.92	193.826
1524.05	128.445
1528.18	72.1269
1532.31	21.9961
1536.44	171.246
1540.56	258.71
1544.69	100.924
1548.8	187.405
1552.92	479.302
1557.03	345.378
1561.14	259.348
1565.25	55.5073
1569.36	0.147949
