Measurement: Raman, 514 nm, depolarized, Raman Data Processed
Mineral: Andalusite
Rruff sample: R050449
Ideal chemistry: Al_2_SiO_5_
Locality: Itinga, Minas Gerais, Brazil
Source: Marcus Origlieri
Description: Green fragment
Measured chemistry: Al_2.00_Fe^3+^_0.01_Si_0.99_O_5_
Pin_id: L01352
Orientation: Laser parallel to -c* (0 0 -1). Fiducial mark perpendicular to laser is parallel to a [1 0 0]
Raman shift (cm-1)	intensity
92.246	0
97.182	128.091
102.116	172.152
107.047	429.389
111.976	889.171
116.903	599.053
121.827	213.703
126.749	318.321
131.668	362.535
136.585	335.032
141.5	364.603
146.412	237.133
151.321	10.3374
156.229	33.9468
161.134	26.8355
166.036	54.3784
170.936	93.0273
175.834	56.5483
180.729	85.0166
185.622	340.414
190.512	701.694
195.4	641.864
200.286	637.788
205.169	855.27
210.049	80.4424
214.928	8.75146
219.803	114.16
224.677	17.852
229.548	61.4536
234.416	100.439
239.282	452.338
244.146	579.631
249.007	422.272
253.866	381.31
258.722	502.194
263.576	598.753
268.427	1362.98
273.276	2372.63
278.123	4664.49
282.967	11100
287.809	25143.2
292.648	35770.1
297.485	15959
302.319	4935.99
307.151	2337.1
311.98	3904.04
316.807	10188.5
321.631	19032.8
326.454	9371.86
331.273	4277.97
336.09	3139.07
340.905	2657.81
345.717	2463.17
350.527	4314.18
355.334	9735.84
360.139	12374.8
364.941	6585.91
369.741	3319.65
374.538	1992.21
379.333	1486.36
384.126	1290.51
388.916	1315.32
393.703	1045.81
398.488	703.126
403.271	445.402
408.051	681.571
412.828	1038.51
417.603	1774.08
422.376	993.271
427.146	353.067
431.914	106.463
436.679	76.4473
441.442	406.019
446.202	1074.18
450.96	2099.01
455.715	799.493
460.467	33.5801
465.218	150.946
469.965	133.768
474.711	40.4746
479.454	148.306
484.194	189.934
488.932	57.4307
493.667	36.5713
498.4	136.405
503.13	217.141
507.858	693.462
512.583	936.431
517.306	938.891
522.026	958.335
526.744	986.018
531.459	1301.63
536.172	1951.59
540.882	3044.39
545.59	5711.33
550.295	8053.95
554.998	6562.09
559.698	4037.53
564.396	3194.95
569.091	2873.53
573.784	2767.27
578.474	2229.27
583.162	1812.93
587.847	1632.9
592.529	1470.8
597.209	1481.27
601.887	1731.49
606.562	1994.97
611.235	2195.57
615.905	2533.26
620.572	2857.7
625.237	3233.38
629.9	3410.64
634.56	3010.4
639.217	2691.16
643.872	2662.32
648.524	2744.93
653.174	2192.26
657.821	1454.29
662.466	1265.05
667.108	404.531
671.748	165.709
676.385	179.425
681.02	8.52441
685.652	14.4053
690.281	31.8037
694.908	96.4434
699.533	252.696
704.155	476.569
708.774	708.058
713.391	1386.25
718.005	1786.34
722.617	991.485
727.226	271.182
731.833	625.858
736.437	43.7695
741.039	196.213
745.638	77.1641
750.234	43.9434
754.828	66.1397
759.419	23.6064
764.008	16.0537
768.595	8.07324
773.178	39.6895
777.759	53.624
782.338	61.3584
786.914	42.1934
791.488	463.589
796.059	731.929
800.627	1038.84
805.193	1670.32
809.756	2417.39
814.317	3392.14
818.875	4363.53
823.431	4284.62
827.984	3132.49
832.534	2420.4
837.082	1782.23
841.627	878.995
846.17	376.501
850.71	49.2324
855.248	167.707
859.783	98.5488
864.316	13.3516
868.846	65.1426
873.373	4.12793
877.898	48.2383
882.42	266.152
886.94	469.87
891.457	766.01
895.971	1395.53
900.483	2613.9
904.993	4631.46
909.5	9639.98
914.004	22547.6
918.505	43949.6
923.004	29926.2
927.501	15678.1
931.995	8790.2
936.486	5008.52
940.975	4081.07
945.461	5101.88
949.945	6703.02
954.426	4882.75
958.904	2397.1
963.38	1074.12
967.853	731.595
972.324	719.512
976.792	534.861
981.258	477.619
985.72	446.05
990.181	634.109
994.639	1191.28
999.094	2153.99
1003.55	4495.3
1008	4647.15
1012.44	4338.49
1016.89	6013.57
1021.33	6497.01
1025.77	3883.37
1030.21	2188.2
1034.64	1415.87
1039.07	1227.78
1043.5	997.276
1047.93	1171.55
1052.35	1509.85
1056.78	2913.83
1061.19	7292.43
1065.61	10114.9
1070.02	4966.53
1074.43	2276.68
1078.84	1190.42
1083.25	754.033
1087.65	618.929
1092.05	590.206
1096.45	627.572
1100.85	937.256
1105.24	1584.7
1109.63	2359.5
1114.02	1771.81
1118.4	996.577
1122.78	681.481
1127.16	595.03
1131.54	160.225
1135.92	9.17676
1140.29	201.764
1144.66	0.080078
1149.02	97.1416
1153.39	3.25488
1157.75	91.541
1162.11	226.464
1166.46	47.0693
1170.82	109.922
1175.17	135.357
1179.52	99.417
1183.86	177.882
1188.21	54.957
1192.55	48.1465
1196.89	53.8027
1201.22	69.8769
1205.55	99.7695
1209.88	75.6797
1214.21	93.626
1218.54	32.6397
1222.86	65.6523
1227.18	27.6758
1231.5	21.6523
1235.81	74.1865
1240.12	54.4824
1244.43	226.758
1248.74	63.6807
1253.04	169.483
1257.34	124.183
1261.64	142.905
1265.94	117.9
1270.23	256.665
1274.52	262.401
1278.81	67.3262
1283.1	79.043
1287.38	209.934
1291.66	65.0254
1295.94	136.869
1300.21	62.416
1304.48	104.592
1308.75	26.3848
1313.02	91.582
1317.29	134.418
1321.55	109.315
1325.81	77.0147
1330.06	128.608
1334.32	2.17481
1338.57	46.0889
1342.82	36.7402
1347.06	58.8848
1351.31	81.9746
1355.55	71
1359.79	92.5518
1364.02	271.281
1368.26	80.8047
1372.49	266.07
1376.71	183.802
1380.94	305.541
1385.16	90.5478
1389.38	168.085
1393.6	151.003
1397.81	148.092
1402.02	243.43
1406.23	191.527
1410.44	78.3897
1414.64	32.2285
1418.85	176.112
1423.04	168.273
1427.24	86.1963
1431.43	268.37
1435.62	285.599
1439.81	339.399
1444	494.664
1448.18	351.965
1452.36	561.352
1456.54	590.438
1460.71	548.834
1464.89	515.378
1469.06	263.868
1473.22	305.376
1477.39	25.876
1481.55	211.827
1485.71	131.575
1489.86	226.436
1494.02	103.846
1498.17	113.175
1502.32	114.734
1506.46	66.4258
1510.61	81.0273
1514.75	145.424
1518.88	8.38379
1523.02	229.31
1527.15	102.395
1531.28	37.248
1535.41	4.51856
1539.53	172.928
1543.66	151.48
1547.78	199.324
1551.89	190.273
1556.01	195.334
1560.12	140.03
1564.23	199.991
1568.33	302.962
