Measurement: Raman, 514 nm, depolarized, Raman Data Processed
Mineral: Andalusite
Rruff sample: R050449
Ideal chemistry: Al_2_SiO_5_
Locality: Itinga, Minas Gerais, Brazil
Source: Marcus Origlieri
Description: Green fragment
Measured chemistry: Al_2.00_Fe^3+^_0.01_Si_0.99_O_5_
Pin_id: L00614
Orientation: Laser parallel to a* (1 0 0). Fiducial mark perpendicular to laser is parallel to b [0 1 0]
Raman shift (cm-1)	intensity
121.827	0
126.749	89.7671
131.668	385.122
136.585	555.759
141.5	815.067
146.412	475.9
151.321	239.964
156.229	62.0166
161.134	71.0352
166.036	250.552
170.936	300.296
175.834	137.652
180.729	406.194
185.622	791.274
190.512	1296.59
195.4	1418.92
200.286	1266.35
205.169	605.281
210.049	22.4502
214.928	2.47119
219.803	68.7666
224.677	163.693
229.548	623.774
234.416	1649.97
239.282	3358.77
244.146	3238.93
249.007	1685.43
253.866	1157.45
258.722	1213.02
263.576	1167.16
268.427	1837.03
273.276	3313.61
278.123	7520.88
282.967	20475.2
287.809	35190.1
292.648	41515.6
297.485	19504.8
302.319	4797.32
307.151	2380.87
311.98	7368.75
316.807	15748.2
321.631	19100.6
326.454	8788.29
331.273	2587.67
336.09	1827.21
340.905	2284.55
345.717	5921.56
350.527	16090.1
355.334	27843.8
360.139	30534.6
364.941	16300.8
369.741	7057.69
374.538	3936.37
379.333	2725.18
384.126	2810.1
388.916	2888.12
393.703	2331.24
398.488	1683.59
403.271	1489.42
408.051	1507.8
412.828	1506.49
417.603	1420.34
422.376	1218.38
427.146	639.589
431.914	480.989
436.679	770.606
441.442	1315.44
446.202	2340.5
450.96	2641.03
455.715	1351.93
460.467	36.0273
465.218	147.926
469.965	299.677
474.711	50.5547
479.454	131.171
484.194	113.072
488.932	29.2285
493.667	455.081
498.4	994.911
503.13	1555.02
507.858	2075.15
512.583	2496.29
517.306	2422.36
522.026	2474.35
526.744	2693.22
531.459	3648.09
536.172	4933.23
540.882	6781.72
545.59	8885.67
550.295	10263.6
554.998	9642.7
559.698	7408.87
564.396	7455.65
569.091	8111.99
573.784	8012.93
578.474	6102.96
583.162	4589.7
587.847	3796.14
592.529	3437.82
597.209	3364.3
601.887	3717.28
606.562	4399.06
611.235	5458.52
615.905	6455.3
620.572	6930.35
625.237	7828.42
629.9	8290.73
634.56	7681.72
639.217	6816.81
643.872	6346.81
648.524	5328.45
653.174	3655.03
657.821	2293.52
662.466	1191.88
667.108	468.09
671.748	77.1103
676.385	20.1006
681.02	106.038
685.652	76.1553
690.281	1.51856
694.908	246.417
699.533	270.982
704.155	557.165
708.774	835.939
713.391	1312.05
718.005	1155.81
722.617	390.316
727.226	351.815
731.833	332.164
736.437	418.224
741.039	308.281
745.638	174.097
750.234	170.454
754.828	228.37
759.419	140.448
764.008	32.1728
768.595	21.3193
773.178	181.551
777.759	276.459
782.338	536.391
786.914	859.438
791.488	1350.6
796.059	1971.88
800.627	2977.27
805.193	4504.78
809.756	6707.42
814.317	9454.85
818.875	10563.6
823.431	8644.44
827.984	5766.82
832.534	3642.77
837.082	2233.55
841.627	1134.59
846.17	224.906
850.71	127.674
855.248	124.527
859.783	187.547
864.316	86.335
868.846	50.5586
873.373	86.1367
877.898	139.095
882.42	568.298
886.94	860.488
891.457	1524.94
895.971	2817.89
900.483	4883.2
904.993	8237.13
909.5	15934.1
914.004	35819.8
918.505	49530.1
923.004	31051.3
927.501	15006.4
931.995	9588.33
936.486	8507.25
940.975	11513.2
945.461	21355.1
949.945	30647.1
954.426	23307.5
958.904	10869.5
963.38	5554.14
967.853	3601.03
972.324	2968.16
976.792	2620.51
981.258	2419.8
985.72	2149.88
990.181	2456.71
994.639	3532.12
999.094	6907.91
1003.55	10158.8
1008	7329.73
1012.44	4123.91
1016.89	3162.92
1021.33	2476.82
1025.77	1998.61
1030.21	1694.85
1034.64	1602.79
1039.07	1355.7
1043.5	835.39
1047.93	828.672
1052.35	1115.27
1056.78	2389.03
1061.19	5555
1065.61	6189.13
1070.02	3102.38
1074.43	1278.63
1078.84	729.852
1083.25	459.048
1087.65	397.209
1092.05	119.291
1096.45	650.283
1100.85	45.1768
1105.24	146.97
1109.63	135.658
1114.02	46.2305
1118.4	23.7979
1122.78	80.6875
1127.16	6.83984
1131.54	70.2432
1135.92	125.963
1140.29	119.828
1144.66	169.475
1149.02	28.8047
1153.39	203.153
1157.75	213.907
1162.11	276.786
1166.46	272.704
1170.82	255.231
1175.17	362.708
1179.52	526.701
1183.86	390.49
1188.21	447.546
1192.55	565.39
1196.89	491.665
1201.22	467.604
1205.55	482.127
1209.88	425.896
1214.21	260.832
1218.54	241.157
1222.86	110.623
1227.18	139.081
1231.5	275.662
1235.81	135.319
1240.12	114.169
1244.43	84.4531
1248.74	207.858
1253.04	197.846
1257.34	206.587
1261.64	279.883
1265.94	138.466
1270.23	213.992
1274.52	324.335
1278.81	115.419
1283.1	172.184
1287.38	45.4043
1291.66	21.0762
1295.94	95.9277
1300.21	64.4873
1304.48	29.167
1308.75	43.7022
1313.02	2.80762
1317.29	100.135
1321.55	21.6514
1325.81	124.773
1330.06	110.608
1334.32	170.869
1338.57	159.567
1342.82	237.66
1347.06	287.136
1351.31	481.983
1355.55	357.209
1359.79	542.273
1364.02	428.987
1368.26	714.803
1372.49	572.949
1376.71	604.193
1380.94	531.829
1385.16	569.712
1389.38	545.318
1393.6	552.41
1397.81	384.315
1402.02	405.729
1406.23	478.261
1410.44	553.503
1414.64	370.65
1418.85	467.888
1423.04	432.526
1427.24	376.44
1431.43	469.435
1435.62	495.193
1439.81	574.576
1444	638.994
1448.18	693.535
1452.36	734.524
1456.54	744.491
1460.71	450.834
1464.89	614.591
1469.06	429.636
1473.22	357.985
1477.39	183.67
1481.55	189.726
1485.71	75.0557
1489.86	53.4775
1494.02	33.9375
1498.17	54.6465
1502.32	63.8096
1506.46	59.2822
1510.61	62.5879
1514.75	164.435
1518.88	211.112
1523.02	56.9404
1527.15	106.89
1531.28	171.068
1535.41	13.8096
1539.53	33.207
1543.66	120.165
1547.78	0
