Measurement: Raman, 514 nm, depolarized, Raman Data Processed
Mineral: Andalusite
Rruff sample: R060197
Ideal chemistry: Al_2_SiO_5_
Locality: Brazil
Source: Marcus Origlieri
Description: Green colored water worn pebble
Measured chemistry: (Al_1.97_Mn^3+^_0.03_)_Î£=2_Si_1.00_O_5_
Pin_id: M00401
Orientation: Laser parallel to c* (0 0 1). Fiducial mark perpendicular to laser is parallel to a [1 0 0]
Raman shift (cm-1)	intensity
91.012	0
95.948	138.002
100.883	301.363
105.815	934.626
110.744	1778.95
115.671	1119.17
120.596	451.71
125.519	325.732
130.439	568.486
135.356	576.583
140.271	794.084
145.184	560.064
150.094	532.494
155.002	626.466
159.908	561.266
164.811	894.193
169.711	1022.33
174.61	932.812
179.505	868.327
184.399	1005.87
189.29	1538.82
194.178	1935.27
199.064	1845.01
203.948	1274.23
208.829	103.849
213.708	50.8486
218.585	47.1982
223.459	185.898
228.33	188.792
233.199	196.361
238.066	413.278
242.93	578.921
247.792	426.335
252.651	989.158
257.508	1489.42
262.363	2507.99
267.215	2699.84
272.064	3318.08
276.912	6487.37
281.756	11750.7
286.598	16846.2
291.438	17885.3
296.276	10760.4
301.111	4742.36
305.943	3788.54
310.773	7102.71
315.601	10244.7
320.426	11774.6
325.248	6956.38
330.068	3792.93
334.886	3194.28
339.701	3375.39
344.514	5020.25
349.324	8846.85
354.132	12344.1
358.938	12830.3
363.741	7851.42
368.541	3586.59
373.339	2206.77
378.135	1223.13
382.928	915.58
387.718	829.394
392.506	640.793
397.292	140.199
402.075	0.757813
406.856	24.8281
411.634	20.9502
416.41	295.601
421.183	270.835
425.954	81.6738
430.722	113.114
435.488	48.1318
440.251	425.715
445.012	1198.92
449.77	1374.76
454.526	998.227
459.28	230.324
464.03	523.043
468.779	865.367
473.525	1166.29
478.268	1316.8
483.009	1033.88
487.747	282.535
492.483	16.0996
497.217	195.301
501.948	183.641
506.676	240.725
511.402	278.676
516.125	41.4297
520.846	50.9902
525.565	14.9609
530.281	103.783
534.994	161.043
539.705	892.332
544.413	2470.3
549.119	3273.21
553.822	2289.3
558.523	1280.67
563.222	999.484
567.917	1225.02
572.611	1391.59
577.302	1368.73
581.99	997.164
586.676	1274.44
591.359	1267.17
596.04	1423.23
600.718	1396.59
605.394	1136.23
610.067	997.131
614.737	718.277
619.406	310.644
624.071	142.221
628.734	6.01367
633.395	12.4648
638.053	85.6035
642.708	181.227
647.361	40.8828
652.012	240.221
656.66	397.926
661.305	367.756
665.948	931.58
670.588	1164.8
675.226	1760.3
679.861	2140.31
684.494	2870.88
689.124	3174.69
693.752	3600.39
698.377	3712.25
702.999	4778.43
707.619	4917.9
712.237	4447.86
716.852	3177.08
721.464	1769.35
726.074	876.436
730.681	440.943
735.286	548.588
739.888	719.824
744.488	965.643
749.085	1372.03
753.68	1491.96
758.272	1267.44
762.861	1062.45
767.448	817.641
772.033	868.709
776.614	1235.39
781.194	2560.43
785.77	5144.25
790.345	5045.56
794.916	4379.35
799.485	2777.61
804.052	1625.35
808.616	789.854
813.177	448.027
817.736	126.621
822.292	219.381
826.846	288
831.397	55.5449
835.945	97.7266
840.491	113.338
845.035	187.205
849.576	91.6836
854.114	271.195
858.65	44.4629
863.183	174.121
867.713	672.215
872.241	469.094
876.767	525.357
881.29	465.404
885.81	598.314
890.328	1008.12
894.843	1194.72
899.356	2093.11
903.866	3792.26
908.373	8520.86
912.878	20531
917.38	29787.7
921.88	22292.3
926.377	11713.5
930.872	7510.12
935.364	5367.16
939.853	4804.62
944.34	6125.48
948.824	7053.76
953.306	5929.62
957.785	3835.7
962.261	2731.61
966.735	2276.87
971.207	1867.73
975.675	1277.83
980.141	1097.44
984.605	396.65
989.066	283.832
993.524	314.344
997.98	151.522
1002.43	291.133
1006.88	956.582
1011.33	1723.07
1015.78	3246.61
1020.22	3415.92
1024.66	2533.27
1029.1	1689.55
1033.53	1628.86
1037.97	844.184
1042.4	819.615
1046.82	1199.68
1051.25	1678.63
1055.67	3113.32
1060.09	3993.77
1064.51	2913.68
1068.92	1869.58
1073.33	1456.54
1077.74	1401.13
1082.15	1437.11
1086.55	1555.55
1090.95	1524.9
1095.35	1573.37
1099.75	1998.75
1104.14	2373.99
1108.53	2455.42
1112.92	1407.5
1117.31	1049.47
1121.69	550.223
1126.07	443.611
1130.45	279.943
1134.82	196.346
1139.19	47.248
1143.57	163.818
1147.93	12.1543
1152.3	171.621
1156.66	175.93
1161.02	235.332
1165.38	13.9707
1169.73	363.621
1174.08	501.875
1178.43	78.4277
1182.78	25.7324
1187.12	57.875
1191.46	37.9043
1195.8	203.453
1200.14	185.576
1204.47	178.713
1208.8	204.721
1213.13	662.047
1217.46	1234.19
1221.78	2252.2
1226.1	3590.05
1230.42	4932.72
1234.73	5773.96
1239.04	6787.14
1243.35	7555.11
1247.66	8156.91
1251.97	8026.35
1256.27	7550.71
1260.57	6966.24
1264.86	6225.73
1269.16	5106.56
1273.45	4218.85
1277.74	3226.44
1282.03	2573.35
1286.31	1648.4
1290.59	1158.56
1294.87	888.789
1299.14	691.176
1303.42	569.434
1307.69	431.754
1311.95	309.637
1316.22	363.59
1320.48	364.555
1324.74	124.269
1329	394.773
1333.26	246.785
1337.51	262.938
1341.76	304.207
1346	2.69922
1350.25	14.0039
1354.49	144.652
1358.73	308.676
1362.96	174.594
1367.2	181.519
1371.43	55.6758
1375.66	75.2617
1379.88	160.164
1384.11	92.9219
1388.33	259.82
1392.54	337.176
1396.76	538.582
1400.97	797.184
1405.18	930.652
1409.39	1018.31
1413.59	1207.5
1417.8	1212.96
1421.99	1443.8
1426.19	1108.41
1430.38	1247.98
1434.58	929.125
1438.77	945.066
1442.95	899.84
1447.13	906.434
1451.32	585.488
1455.49	433.543
1459.67	631.312
1463.84	346.227
1468.01	347.039
1472.18	298.324
1476.35	327.297
1480.51	297.934
1484.67	261.973
1488.83	436.141
1492.98	381.805
1497.13	171.34
1501.28	355.777
1505.43	295.332
1509.57	383.18
1513.71	44.832
1517.85	82.8555
1521.99	223.402
1526.12	306.504
1530.25	146.18
1534.38	82.6172
1538.5	167.672
1542.62	257.519
1546.74	343.863
1550.86	209.836
1554.98	429.977
1559.09	239.613
1563.2	155.777
1567.31	4.39844
