Measurement: Raman, 514 nm, depolarized, Raman Data Processed
Mineral: Andalusite
Rruff sample: R060212
Ideal chemistry: Al_2_SiO_5_
Locality: Brazil
Source: Marcus Origlieri
Description: Transparent yellow-green water-worn pebble
Measured chemistry: (Al_1.98_Fe^3+^_0.02_)_Î£=2_Si_1.00_O_5_
Pin_id: L00827
Orientation: Laser parallel to -b* (0 -1 0). Fiducial mark perpendicular to laser is parallel to c [0 0 1]
Raman shift (cm-1)	intensity
99.649	0
104.582	54.0254
109.512	1047.22
114.44	311.584
119.365	457.326
124.288	263.393
129.209	456.228
134.127	664.745
139.043	1367.83
143.956	1317.75
148.867	702.88
153.775	617.2
158.681	325.166
163.585	379.473
168.486	596.913
173.385	456.431
178.282	351.415
183.176	312.11
188.067	786.898
192.956	984.955
197.843	1050.87
202.727	1043.95
207.609	337.005
212.489	45.8467
217.366	128.304
222.24	11.3213
227.112	110.805
231.982	8.24805
236.849	296.107
241.714	635.394
246.577	311.158
251.437	196.454
256.294	405.244
261.149	723.689
266.002	504.1
270.852	1086.07
275.7	2503.34
280.545	4902.7
285.388	11383.7
290.229	22733.4
295.067	14706.8
299.902	4866.93
304.735	2012.21
309.566	2225.04
314.394	5588.25
319.22	13646.8
324.043	10221
328.864	3846.94
333.682	2327.35
338.498	1861.27
343.311	1704.67
348.122	2536.25
352.931	5772.38
357.737	10268.4
362.54	6948.28
367.341	3045.16
372.14	1706.56
376.936	974.798
381.73	778.687
386.521	516.523
391.31	665.663
396.096	341.347
400.88	244.56
405.661	177.239
410.44	461.349
415.216	1009.85
419.99	1302.73
424.761	285.961
429.53	1.46289
434.297	265.242
439.061	25.6855
443.822	258.978
448.581	847.84
453.337	988.019
458.091	46.6191
462.843	7.44141
467.592	32.3887
472.338	294.557
477.082	574.012
481.824	598.795
486.563	753.947
491.3	168.529
496.034	69.6973
500.765	12.4531
505.494	6.66406
510.221	200.99
514.945	318.606
519.666	337.643
524.385	173.356
529.102	155.408
533.816	251.949
538.527	476.769
543.236	1422.09
547.943	3112.5
552.647	3409.99
557.348	1739.53
562.047	642.113
566.744	431.732
571.438	372.318
576.129	217.473
580.818	44.0371
585.504	49.7988
590.188	319.18
594.87	105.076
599.549	235.822
604.225	369.494
608.899	445.602
613.57	232.15
618.239	227.279
622.905	336.898
627.569	191.057
632.23	305.26
636.889	182.232
641.545	132.174
646.198	268.973
650.849	73.3008
655.498	281.496
660.144	583.553
664.787	513.461
669.428	276.185
674.067	353.779
678.703	358.682
683.336	427.172
687.967	567.744
692.595	517.637
697.221	517.346
701.844	527.859
706.465	820.846
711.083	1010.95
715.698	1632.53
720.311	1181.09
724.922	580.115
729.53	317.435
734.135	90.4941
738.738	165.022
743.338	284.098
747.936	170.965
752.531	205.539
757.124	143.705
761.714	54.6172
766.302	77.5723
770.887	99.5898
775.469	110.356
780.049	34.5176
784.626	209.246
789.201	283.734
793.773	345.018
798.343	214.055
802.91	413.85
807.475	526.412
812.037	410.75
816.596	110.846
821.153	244.688
825.707	213.291
830.259	439.629
834.808	644.744
839.355	147.644
843.899	85.2637
848.441	88.3106
852.98	92.8477
857.516	85.8789
862.05	118.408
866.581	316.783
871.11	81.8613
875.636	227.281
880.159	184.111
884.68	317.898
889.199	339.221
893.714	775.873
898.228	1279.92
902.738	2081
907.246	4042.6
911.752	10698.3
916.255	26428.1
920.755	28353
925.253	13878.4
929.748	8924.73
934.241	4450
938.731	2719.23
943.218	2471.44
947.703	3016.69
952.186	2571.4
956.665	1463.61
961.142	663.498
965.617	293.885
970.089	286.262
974.558	278.641
979.025	192.16
983.489	167.668
987.951	216.481
992.41	59.375
996.866	207.213
1001.32	293.588
1005.77	331.887
1010.22	782.854
1014.67	2107.42
1019.11	3207.48
1023.55	2208.41
1027.99	1072.74
1032.42	681.867
1036.86	404.883
1041.29	394.981
1045.72	354.877
1050.14	601.402
1054.56	1321.09
1058.98	2981.34
1063.4	5974.2
1067.82	4051.14
1072.23	1633.17
1076.64	954.361
1081.05	562.576
1085.45	857.83
1089.85	506.236
1094.25	293.066
1098.65	450.662
1103.04	790.162
1107.43	1071.11
1111.82	1126.04
1116.21	705.234
1120.59	671.684
1124.97	846.709
1129.35	339.326
1133.73	113.344
1138.1	290.738
1142.47	287.152
1146.84	244.016
1151.21	12.9023
1155.57	100.141
1159.93	85.6348
1164.29	80.2051
1168.64	205.783
1172.99	6.58008
1177.34	277.141
1181.69	148.922
1186.04	4.25
1190.38	208.594
1194.72	225.481
1199.05	55.4199
1203.39	40.5234
1207.72	253.65
1212.05	46.291
1216.37	142.307
1220.7	26.4023
1225.02	275.176
1229.34	393.012
1233.65	321.99
1237.97	228.016
1242.28	245.184
1246.59	518.383
1250.89	575.602
1255.19	492.824
1259.49	345.047
1263.79	552.898
1268.09	393.574
1272.38	311.344
1276.67	291.844
1280.95	452.863
1285.24	247.883
1289.52	337.785
1293.8	266.961
1298.08	260.613
1302.35	513.375
1306.62	402.527
1310.89	303.504
1315.15	439.606
1319.42	464.516
1323.68	312.965
1327.94	615.606
1332.19	617.004
1336.44	416.059
1340.69	754.644
1344.94	672.731
1349.19	576.66
1353.43	511.578
1357.67	320.348
1361.9	369.836
1366.14	550.731
1370.37	262.59
1374.6	414.559
1378.83	254.09
1383.05	42.9961
1387.27	301.644
1391.49	33.5586
1395.7	218.594
1399.92	166.07
1404.13	185.977
1408.34	326.945
1412.54	164.312
1416.74	36.8594
1420.94	40.2305
1425.14	176.492
1429.34	78.9805
1433.53	188.918
1437.72	226.789
1441.9	177.867
1446.09	244.949
1450.27	101.828
1454.45	50.3672
1458.63	277.965
1462.8	173.871
1466.97	271.469
1471.14	175.656
1475.31	181.543
1479.47	109.625
1483.63	99.6445
1487.79	476.324
1491.94	335.402
1496.09	234.051
1500.24	350.824
1504.39	100.113
1508.54	197.742
1512.68	284.219
1516.82	406.844
1520.95	211.082
1525.09	215.305
1529.22	383.769
1533.35	329.172
1537.47	472.789
1541.6	271.762
1545.72	254.887
1549.83	406.082
1553.95	499.176
1558.06	352.441
1562.17	181.914
1566.28	142.844
1570.38	0
