Measurement: Raman, 514 nm, depolarized, Raman Data Processed
Mineral: Andalusite
Rruff sample: R050561
Ideal chemistry: Al_2_SiO_5_
Locality: Cargo Muchacho Mountain, Imperial County, California
Source: Dave Bunk Minerals
Description: Brown coarsely crystalline massive
Measured chemistry: (Al_1.98_Fe^3+^_0.02_)_Î£=2_Si_1.00_O_5_
Pin_id: M00245
Orientation: Laser parallel to -b* (0 -1 0). Fiducial mark perpendicular to laser is parallel to -c [0 0 -1]
Raman shift (cm-1)	intensity
157.455	0
162.359	35.0273
167.261	289.464
172.161	98.168
177.058	58.29
181.952	137.737
186.845	326.391
191.734	962.991
196.622	1035.13
201.507	1374.77
206.389	611.707
211.269	130.894
216.147	110.253
221.022	1.37695
225.895	37.0488
230.765	101.898
235.633	175.406
240.498	114.649
245.361	277.994
250.222	134.137
255.08	116.404
259.936	441.215
264.789	748.618
269.64	1687.29
274.488	3523.89
279.334	8459.65
284.178	18622.6
289.019	28316.7
293.857	28685.1
298.693	12436.6
303.527	4426.41
308.358	3782.12
313.187	8516.57
318.013	13756.5
322.837	15705.3
327.659	7176.74
332.478	3045.36
337.294	2243.93
342.108	2249.99
346.92	4012.08
351.729	7621.93
356.535	10963.8
361.34	9973.91
366.141	4880.18
370.94	2547.22
375.737	1540.98
380.531	1104.05
385.323	861.737
390.113	500.414
394.9	415.069
399.684	195.694
404.466	258.25
409.245	555.687
414.022	1103
418.797	1312.2
423.569	620.259
428.338	283.183
433.105	385.958
437.87	693.58
442.632	1197.05
447.391	1364.37
452.149	2050.74
456.903	1074.54
461.655	614.388
466.405	704.227
471.152	601.039
475.897	642.806
480.639	823.546
485.378	566.433
490.116	64.8662
494.85	263.394
499.582	255.601
504.312	49.1377
509.039	323.672
513.764	546.106
518.486	412.448
523.206	305.718
527.923	259.789
532.638	384.631
537.35	1016.23
542.059	2296.56
546.766	4243.61
551.471	5370.35
556.173	3684.78
560.873	1980.87
565.57	1241.61
570.264	1068.99
574.957	828.259
579.646	594.689
584.333	537.295
589.018	388.673
593.7	526.839
598.379	573.72
603.056	985.756
607.73	1368.21
612.402	1355.06
617.072	1358.85
621.739	1478.35
626.403	1592.22
631.065	1527.44
635.724	1385.31
640.381	1116.49
645.035	1077.28
649.687	808.319
654.336	591.707
658.983	552.714
663.627	805.783
668.268	443.894
672.907	405.019
677.544	538.138
682.178	508.231
686.809	707.27
691.438	762.237
696.065	934.11
700.688	984.868
705.31	1354.6
709.929	1441.32
714.545	1548.58
719.158	1329.99
723.77	368.996
728.378	21.8828
732.984	66.1758
737.588	235.182
742.189	400.543
746.787	429.506
751.383	251.053
755.976	83.1709
760.567	18.7686
765.155	12.7646
769.741	183.93
774.324	30.6191
778.904	20.9492
783.482	103.148
788.058	89.7275
792.631	490.803
797.201	923.394
801.769	1693.5
806.334	2362.11
810.897	2169.24
815.457	1952.88
820.014	1961.04
824.569	1621.7
829.122	1566.88
833.671	1416.58
838.219	817.798
842.763	113.535
847.306	62.2832
851.845	174.345
856.382	29.1006
860.917	89.6494
865.448	1.51269
869.978	61.3594
874.505	223.216
879.029	403.617
883.55	510.434
888.069	954.419
892.586	1233.06
897.1	2056.49
901.611	3526.43
906.12	6884.16
910.626	17242.6
915.129	36924.9
919.63	44312.2
924.129	25986
928.625	15035.1
933.118	8130.18
937.609	4509.18
942.097	3076.19
946.582	3185.14
951.065	2956.1
955.546	1814
960.023	1030.92
964.499	543.854
968.971	519.807
973.441	544.809
977.909	752.327
982.374	487.623
986.836	609.492
991.295	462.225
995.753	702.533
1000.21	1369.9
1004.66	2611.94
1009.11	4104.6
1013.55	4237.16
1018	4754.88
1022.44	3768.46
1026.88	2584.23
1031.32	1601.8
1035.75	1094.73
1040.18	986.288
1044.61	927.624
1049.04	1370.96
1053.46	2273.71
1057.88	5737.59
1062.3	10275.3
1066.71	8326.63
1071.13	3527.91
1075.54	1823.01
1079.94	1210.35
1084.35	957.765
1088.75	916.459
1093.15	695.571
1097.55	805.739
1101.94	984.145
1106.34	1052.83
1110.73	1076.9
1115.11	605.173
1119.5	331.702
1123.88	298.413
1128.26	93.7578
1132.63	46.6152
1137.01	75.668
1141.38	63.6143
1145.75	30.4824
1150.12	27.9375
1154.48	22.3184
1158.84	51.249
1163.2	11.2578
1167.55	66.4834
1171.91	72.9951
1176.26	27.6035
1180.61	162.537
1184.95	6.53613
1189.29	77.5342
1193.63	103.629
1197.97	49.6338
1202.31	36.8828
1206.64	146.527
1210.97	24.2012
1215.29	58.8506
1219.62	26.7285
1223.94	1.61328
1228.26	100.913
1232.57	2.62598
1236.89	146.219
1241.2	59.0879
1245.51	117.509
1249.81	76.8516
1254.12	189.692
1258.42	7.70996
1262.72	95.3086
1267.01	45.6201
1271.3	225.059
1275.59	164.19
1279.88	112.791
1284.17	139.907
1288.45	89.8047
1292.73	194.15
1297.01	160.072
1301.28	28.1963
1305.55	248.699
1309.82	296.566
1314.09	106.44
1318.35	77.7188
1322.61	203.138
1326.87	143.036
1331.13	161.691
1335.38	74.9668
1339.63	173.154
1343.88	21.2773
1348.12	169.168
1352.37	77.167
1356.61	125.41
1360.85	132.621
1365.08	173.974
1369.31	255.876
1373.54	192.053
1377.77	206.482
1381.99	316.353
1386.22	273.707
1390.43	278.444
1394.65	107.237
1398.87	114.474
1403.08	156.15
1407.29	162.856
1411.49	42.1494
1415.69	141.725
1419.89	123.426
1424.09	134.317
1428.29	138.894
1432.48	127.61
1436.67	65.2607
1440.86	142.056
1445.04	327.923
1449.23	264.539
1453.4	157.719
1457.58	284.501
1461.76	199.488
1465.93	153.9
1470.1	117.8
1474.26	156.277
1478.43	215.087
1482.59	161.914
1486.75	79.6719
1490.9	230.269
1495.06	210.073
1499.21	88.126
1503.35	166.59
1507.5	168.275
1511.64	67.4561
1515.78	192.958
1519.92	46.8008
1524.05	137.588
1528.18	208.557
1532.31	156.435
1536.44	173.768
1540.56	161.036
1544.69	186.481
1548.8	183.349
1552.92	342.037
1557.03	230.826
1561.14	182.631
1565.25	124.387
1569.36	0.365234
