Measurement: Raman, 514 nm, depolarized, Raman Data Processed
Mineral: Andalusite
Rruff sample: R060212
Ideal chemistry: Al_2_SiO_5_
Locality: Brazil
Source: Marcus Origlieri
Description: Transparent yellow-green water-worn pebble
Measured chemistry: (Al_1.98_Fe^3+^_0.02_)_Î£=2_Si_1.00_O_5_
Pin_id: M00278
Orientation: Laser parallel to c* (0 0 1). Fiducial mark perpendicular to laser is parallel to -a [-1 0 0]
Raman shift (cm-1)	intensity
99.649	0
104.582	90.1367
109.512	1318.39
114.44	276.719
119.365	99.7549
124.288	164.535
129.209	7.12939
134.127	142.604
139.043	462.54
143.956	318.41
148.867	215.292
153.775	153.214
158.681	94.1338
163.585	404.112
168.486	632.812
173.385	467.323
178.282	465.859
183.176	512.587
188.067	1142.2
192.956	1469.74
197.843	1412.83
202.727	1753.62
207.609	238.296
212.489	71.9004
217.366	39.5063
222.24	87.603
227.112	46.1733
231.982	177.451
236.849	811.28
241.714	1181.45
246.577	694.155
251.437	555.898
256.294	532.661
261.149	1054.04
266.002	1212
270.852	2136.67
275.7	4614.37
280.545	9446.05
285.388	20465.4
290.229	33226.7
295.067	18432.1
299.902	6312.37
304.735	3361.68
309.566	4727.21
314.394	11693.3
319.22	23599.6
324.043	14299.2
328.864	5650.1
333.682	3655.2
338.498	3046.55
343.311	3202.12
348.122	5996.9
352.931	12584
357.737	18002.1
362.54	10835.5
367.341	5109.48
372.14	2881.64
376.936	1652.66
381.73	1216.41
386.521	924.494
391.31	960.893
396.096	451.5
400.88	239.287
405.661	551.266
410.44	1040.45
415.216	2174.84
419.99	1862.48
424.761	579.364
429.53	18.5049
434.297	180.232
439.061	1.58838
443.822	474.856
448.581	1498
453.337	1066.11
458.091	28.1079
462.843	90.4995
467.592	192.251
472.338	596.361
477.082	1230.83
481.824	1271.68
486.563	830.069
491.3	383.591
496.034	6.31641
500.765	19.564
505.494	202.259
510.221	231.765
514.945	284.182
519.666	310.13
524.385	110.392
529.102	130.959
533.816	262.825
538.527	887.984
543.236	2465.49
547.943	5007.36
552.647	4552.52
557.348	1894.94
562.047	837.641
566.744	501.602
571.438	610.393
576.129	403.817
580.818	175.548
585.504	18.4854
590.188	23.8369
594.87	116.705
599.549	320.445
604.225	653.299
608.899	543.366
613.57	275.634
618.239	321.104
622.905	8.97949
627.569	132.94
632.23	60.9058
636.889	53.2246
641.545	162.898
646.198	178.737
650.849	5.63086
655.498	197.536
660.144	862.472
664.787	555.431
669.428	245.404
674.067	329.383
678.703	428.362
683.336	577.597
687.967	655.545
692.595	759.463
697.221	825.347
701.844	1019.19
706.465	1359.7
711.083	2106.79
715.698	2602.72
720.311	1632.47
724.922	412.68
729.53	154.394
734.135	56.0244
738.738	173.352
743.338	310.506
747.936	245.512
752.531	161.367
757.124	108.065
761.714	2.47754
766.302	17.6973
770.887	13.4639
775.469	34.915
780.049	72.9697
784.626	264.704
789.201	480.363
793.773	500.829
798.343	515.168
802.91	762.385
807.475	689.484
812.037	388.474
816.596	9.35791
821.153	107.958
825.707	213.369
830.259	505.688
834.808	509.917
839.355	30.0625
843.899	42.8809
848.441	89.165
852.98	88.5391
857.516	58.3242
862.05	69.9853
866.581	270.646
871.11	307.11
875.636	367.618
880.159	291.19
884.68	649.744
889.199	826.313
893.714	1384.86
898.228	2357.28
902.738	4113.46
907.246	8146
911.752	21353.4
916.255	46799.3
920.755	41285
925.253	22287
929.748	13713.1
934.241	7344.6
938.731	4574.29
943.218	4380.27
947.703	5719.61
952.186	4602.72
956.665	2323.72
961.142	1165.61
965.617	661.644
970.089	373.828
974.558	342.157
979.025	258.462
983.489	218.28
987.951	175.14
992.41	132.258
996.866	220.525
1001.32	477.018
1005.77	751.973
1010.22	1784.03
1014.67	3663.32
1019.11	4980.97
1023.55	3261.7
1027.99	1798.67
1032.42	1037.96
1036.86	871.972
1041.29	705.851
1045.72	842.808
1050.14	1154
1054.56	1932.3
1058.98	4805.76
1063.4	7974.33
1067.82	4527.82
1072.23	1999.59
1076.64	1111.29
1081.05	1027.94
1085.45	966.164
1089.85	970.594
1094.25	804.118
1098.65	1104.72
1103.04	1452.39
1107.43	1952.14
1111.82	1644.98
1116.21	1101.13
1120.59	1235.76
1124.97	1122.06
1129.35	570.843
1133.73	155.962
1138.1	137.887
1142.47	140.206
1146.84	185.338
1151.21	224.435
1155.57	162.495
1159.93	77.5478
1164.29	33.5879
1168.64	9.51562
1172.99	59.2158
1177.34	216.106
1181.69	146.008
1186.04	28.207
1190.38	20.2803
1194.72	31.9004
1199.05	14.4502
1203.39	19.4844
1207.72	127.852
1212.05	80.1494
1216.37	171.929
1220.7	182.622
1225.02	325.227
1229.34	529.747
1233.65	683.19
1237.97	650.153
1242.28	598.421
1246.59	857.606
1250.89	978.715
1255.19	716.789
1259.49	613.908
1263.79	742.043
1268.09	599.586
1272.38	549.221
1276.67	393.75
1280.95	228.044
1285.24	294.373
1289.52	388.6
1293.8	397.725
1298.08	293.494
1302.35	343.83
1306.62	341.376
1310.89	370.343
1315.15	519.905
1319.42	239.617
1323.68	409.391
1327.94	223.965
1332.19	91.6182
1336.44	211.653
1340.69	87.9102
1344.94	69.5049
1349.19	55.1211
1353.43	19.7637
1357.67	57.0576
1361.9	26.3633
1366.14	95.3643
1370.37	53.1934
1374.6	14.9551
1378.83	102.526
1383.05	94.501
1387.27	15.4463
1391.49	147.259
1395.7	117.051
1399.92	171.576
1404.13	178.042
1408.34	193.946
1412.54	202.648
1416.74	98.1103
1420.94	124.781
1425.14	44.5185
1429.34	153.435
1433.53	209.553
1437.72	267.513
1441.9	296.785
1446.09	502.86
1450.27	471.263
1454.45	531.81
1458.63	367.34
1462.8	291.134
1466.97	378.103
1471.14	134.52
1475.31	245.073
1479.47	211.934
1483.63	198.099
1487.79	132.907
1491.94	48.9883
1496.09	23.6143
1500.24	21.1514
1504.39	163.305
1508.54	160.668
1512.68	106.536
1516.82	179.902
1520.95	209.753
1525.09	91.1699
1529.22	241.825
1533.35	150.029
1537.47	91.8496
1541.6	44.334
1545.72	129.113
1549.83	171.93
1553.95	309.614
1558.06	231.036
1562.17	12.2861
1566.28	260.334
1570.38	0
