Measurement: Raman, 514 nm, depolarized, Raman Data Processed
Mineral: Andalusite
Rruff sample: R050561
Ideal chemistry: Al_2_SiO_5_
Locality: Cargo Muchacho Mountain, Imperial County, California
Source: Dave Bunk Minerals
Description: Brown coarsely crystalline massive
Measured chemistry: (Al_1.98_Fe^3+^_0.02_)_Î£=2_Si_1.00_O_5_
Pin_id: M00417
Orientation: Laser parallel to a* (1 0 0). Fiducial mark perpendicular to laser is parallel to b [0 1 0]
Raman shift (cm-1)	intensity
99.649	0
104.582	27.1682
109.512	856.023
114.44	170.194
119.365	246.662
124.288	178.087
129.209	319.37
134.127	411.519
139.043	587.06
143.956	363.614
148.867	213.511
153.775	204.65
158.681	13.7124
163.585	357.31
168.486	435.241
173.385	342.173
178.282	173.895
183.176	415.193
188.067	1022.24
192.956	1214.04
197.843	977.86
202.727	911.373
207.609	205.497
212.489	22.023
217.366	125.946
222.24	177.371
227.112	92.4463
231.982	660.962
236.849	2327.5
241.714	3243.91
246.577	1882.62
251.437	1036.7
256.294	909.667
261.149	1059.26
266.002	1584.44
270.852	2504.64
275.7	4922.15
280.545	11534.7
285.388	25484.2
290.229	37247.7
295.067	23332.3
299.902	7670.15
304.735	2892.05
309.566	4794.16
314.394	13284
319.22	23335.2
324.043	13788.6
328.864	4291.25
333.682	2061.2
338.498	2014.39
343.311	3614.84
348.122	9840.32
352.931	21956.8
357.737	29615.2
362.54	18470.3
367.341	7740.53
372.14	3746.64
376.936	1967.6
381.73	1373.72
386.521	1306
391.31	1494.46
396.096	701.244
400.88	317.375
405.661	504.82
410.44	433.563
415.216	727.597
419.99	492.914
424.761	156.509
429.53	75.6157
434.297	69.394
439.061	447.572
443.822	1420.05
448.581	2918.85
453.337	2243
458.091	557.531
462.843	462.409
467.592	412.625
472.338	302.168
477.082	543.079
481.824	638.351
486.563	229.114
491.3	224.789
496.034	400.584
500.765	4.28662
505.494	341.083
510.221	818.148
514.945	700.826
519.666	567.773
524.385	389.882
529.102	770.136
533.816	1094.52
538.527	1959
543.236	3690.56
547.943	6014.18
552.647	6025.83
557.348	4004.49
562.047	3238.14
566.744	3666.74
571.438	4231.69
576.129	3493.49
580.818	2478.26
585.504	1905.88
590.188	1666.02
594.87	1639.4
599.549	1915.43
604.225	2349.2
608.899	2750.65
613.57	3090.97
618.239	3486.76
622.905	3513.09
627.569	3664.11
632.23	3414.37
636.889	3060.97
641.545	3005.41
646.198	2756.61
650.849	1828.31
655.498	1009.26
660.144	836.41
664.787	622.731
669.428	585.187
674.067	923.746
678.703	1260.37
683.336	1281.04
687.967	1486.4
692.595	1506.35
697.221	1507.93
701.844	1624.41
706.465	1923.86
711.083	2332.83
715.698	2139.99
720.311	1098.56
724.922	335.31
729.53	130.086
734.135	161.598
738.738	204.246
743.338	297.791
747.936	300.787
752.531	76.1997
757.124	1090.86
761.714	183.846
766.302	251.652
770.887	98.1069
775.469	77.4106
780.049	29.1514
784.626	292.764
789.201	451.653
793.773	921.828
798.343	1695.28
802.91	3037
807.475	3777.99
812.037	3880.24
816.596	4267.73
821.153	4069.48
825.707	3152.48
830.259	2184.73
834.808	1443.22
839.355	572.964
843.899	202.954
848.441	20.1148
852.98	150.077
857.516	137.707
862.05	29.9575
866.581	67.9336
871.11	130.566
875.636	404.771
880.159	559.441
884.68	865.476
889.199	1213.45
893.714	1864.45
898.228	3143.65
902.738	5101.64
907.246	10254.7
911.752	26155.8
916.255	52510.5
920.755	41923.4
925.253	19223.1
929.748	10808.7
934.241	7766.9
938.731	7522.88
943.218	11575.6
947.703	19942.2
952.186	20328.5
956.665	10394.8
961.142	4914.96
965.617	2681.97
970.089	1929.89
974.558	1384.74
979.025	1356.89
983.489	1180.82
987.951	948.557
992.41	1109.75
996.866	1926.7
1001.32	3585.01
1005.77	4057.44
1010.22	2975.62
1014.67	2480.61
1019.11	2798.55
1023.55	2176.48
1027.99	1468.28
1032.42	1056.59
1036.86	983.619
1041.29	705.04
1045.72	651.28
1050.14	689.543
1054.56	1320.38
1058.98	3569.65
1063.4	5592.4
1067.82	3027.74
1072.23	1279.58
1076.64	715.918
1081.05	635.734
1085.45	400.356
1089.85	263.06
1094.25	211.325
1098.65	152.882
1103.04	342.861
1107.43	396.807
1111.82	333.627
1116.21	196.499
1120.59	558.078
1124.97	719.91
1129.35	343.095
1133.73	22.2329
1138.1	128.418
1142.47	22.5923
1146.84	0.910156
1151.21	22.0523
1155.57	10.0039
1159.93	33.353
1164.29	71.3931
1168.64	94.7949
1172.99	97.6743
1177.34	7.25977
1181.69	33.7363
1186.04	28.3227
1190.38	134.51
1194.72	44.5327
1199.05	235.413
1203.39	162.772
1207.72	131.557
1212.05	35.771
1216.37	30.4561
1220.7	8.59082
1225.02	89.2104
1229.34	98.4248
1233.65	2.79834
1237.97	161.829
1242.28	2.29932
1246.59	52.6836
1250.89	13.9463
1255.19	32.0781
1259.49	38.7295
1263.79	150.098
1268.09	42.4111
1272.38	86.0952
1276.67	122.644
1280.95	64.9414
1285.24	66.0303
1289.52	97.7344
1293.8	78.7358
1298.08	28.5366
1302.35	58.0342
1306.62	11.7173
1310.89	63.0566
1315.15	119.41
1319.42	5.59766
1323.68	23.27
1327.94	2.62256
1332.19	120.49
1336.44	150.172
1340.69	102.466
1344.94	76.0459
1349.19	139.542
1353.43	149.169
1357.67	274.469
1361.9	294.764
1366.14	214.688
1370.37	306.964
1374.6	354.577
1378.83	402.275
1383.05	269.952
1387.27	215.406
1391.49	286.638
1395.7	267.515
1399.92	262.651
1404.13	147.144
1408.34	186.165
1412.54	255.666
1416.74	163.055
1420.94	256.564
1425.14	164.623
1429.34	159.211
1433.53	251.575
1437.72	229.326
1441.9	258.281
1446.09	352.535
1450.27	257.857
1454.45	215.538
1458.63	233.945
1462.8	138.068
1466.97	182.728
1471.14	137.654
1475.31	172.949
1479.47	93.7085
1483.63	89.2852
1487.79	161.246
1491.94	87.4111
1496.09	45.438
1500.24	4.41016
1504.39	24.4717
1508.54	122.494
1512.68	124.523
1516.82	84.2124
1520.95	19.8135
1525.09	147.113
1529.22	169.616
1533.35	171.377
1537.47	103.432
1541.6	117.288
1545.72	128.707
1549.83	250.048
1553.95	281.013
1558.06	80.7676
1562.17	141.148
1566.28	22.7188
1570.38	0
