Measurement: Raman, 514 nm, depolarized, Raman Data Processed
Mineral: Andalusite
Rruff sample: R050561
Ideal chemistry: Al_2_SiO_5_
Locality: Cargo Muchacho Mountain, Imperial County, California
Source: Dave Bunk Minerals
Description: Brown coarsely crystalline massive
Measured chemistry: (Al_1.98_Fe^3+^_0.02_)_Î£=2_Si_1.00_O_5_
Pin_id: M00237
Orientation: Laser parallel to c* (0 0 1). Fiducial mark perpendicular to laser is parallel to 1 0 0
Raman shift (cm-1)	intensity
157.455	0
162.359	41.3154
167.261	316.296
172.161	318.078
177.058	162.343
181.952	221.582
186.845	458.589
191.734	849.154
196.622	834.255
201.507	1027.97
206.389	223.759
211.269	2.5874
216.147	52.1533
221.022	16.8242
225.895	1.18506
230.765	215.388
235.633	975.1
240.498	1794.07
245.361	1839.59
250.222	1224.57
255.08	1247.08
259.936	1771.32
264.789	2409.59
269.64	4182.35
274.488	7485.59
279.334	14706.3
284.178	28585.6
289.019	43532.3
293.857	43772.6
298.693	19082.5
303.527	7681.81
308.358	6133.42
313.187	11138.3
318.013	17927.8
322.837	20392.4
327.659	10213.4
332.478	6268.23
337.294	5398.75
342.108	5203.85
346.92	7246.57
351.729	12180.9
356.535	17893.4
361.34	16640.5
366.141	7954.36
370.94	4028.01
375.737	2485.94
380.531	2079.31
385.323	1354.1
390.113	993.36
394.9	571.072
399.684	250.192
404.466	211.705
409.245	434.582
414.022	775.82
418.797	819.412
423.569	301.353
428.338	58.6372
433.105	0.23877
437.87	35.9873
442.632	395.872
447.391	1254.94
452.149	2056.41
456.903	949.34
461.655	529.741
466.405	588.53
471.152	593.704
475.897	556.753
480.639	606.243
485.378	458.742
490.116	111.984
494.85	88.8755
499.582	196.485
504.312	105.353
509.039	228.759
513.764	373.226
518.486	313.672
523.206	262.747
527.923	369.11
532.638	493.38
537.35	1169.28
542.059	2803.44
546.766	5587.84
551.471	6689.47
556.173	3983.33
560.873	1951.41
565.57	1544.69
570.264	1749.17
574.957	1513.69
579.646	1064.8
584.333	563.878
589.018	611.528
593.7	579.052
598.379	766.3
603.056	1000.54
607.73	847.903
612.402	644.367
617.072	621.202
621.739	570.519
626.403	783.206
631.065	673.963
635.724	265.12
640.381	294.652
645.035	192.399
649.687	151.544
654.336	53.8911
658.983	25.4727
663.627	128.76
668.268	44.9692
672.907	111.963
677.544	245.817
682.178	359.568
686.809	444.206
691.438	536.723
696.065	492.113
700.688	767.367
705.31	893.479
709.929	1229.89
714.545	1530.68
719.158	1253.58
723.77	608.827
728.378	143.922
732.984	49.6172
737.588	286.364
742.189	249.6
746.787	229.82
751.383	146.629
755.976	90.1416
760.567	15.6934
765.155	17.7642
769.741	108.899
774.324	68.8877
778.904	35.5151
783.482	96.834
788.058	262.996
792.631	451.869
797.201	837.882
801.769	1662.29
806.334	2190.47
810.897	1580.8
815.457	791.535
820.014	479.062
824.569	530.385
829.122	975.682
833.671	967.456
838.219	537.219
842.763	49.8105
847.306	86.7773
851.845	114.18
856.382	110.486
860.917	53.8169
865.448	68.0127
869.978	55.3945
874.505	226.277
879.029	346.614
883.55	552.874
888.069	741.068
892.586	1250.91
897.1	2118.64
901.611	3666.86
906.12	7237.23
910.626	18441.7
915.129	39659.2
919.63	47739.9
924.129	24666
928.625	12410.5
933.118	7700.28
937.609	6338.38
942.097	8603.71
946.582	13767.3
951.065	16562.1
955.546	10317.1
960.023	4615.38
964.499	2662.97
968.971	1980.84
973.441	1394.9
977.909	841.827
982.374	704.312
986.836	547.651
991.295	549.118
995.753	523.712
1000.21	680.24
1004.66	1469.79
1009.11	3101.29
1013.55	6552.16
1018	9836.36
1022.44	8216.9
1026.88	4544.3
1031.32	2727.84
1035.75	1712.96
1040.18	1380.19
1044.61	1375.94
1049.04	1782.78
1053.46	3146.95
1057.88	7878.5
1062.3	13596.5
1066.71	10747.1
1071.13	4386.54
1075.54	2150.39
1079.94	1467.81
1084.35	1129.66
1088.75	1256.43
1093.15	1253.52
1097.55	1554.17
1101.94	2487.56
1106.34	3551.67
1110.73	3467.23
1115.11	1955.72
1119.5	933.286
1123.88	398.041
1128.26	281.607
1132.63	236.931
1137.01	66.3037
1141.38	208.467
1145.75	136.579
1150.12	123.544
1154.48	45.8008
1158.84	12.3506
1163.2	37.2246
1167.55	91.209
1171.91	4.97461
1176.26	86.6709
1180.61	45.0928
1184.95	15.2656
1189.29	16.1064
1193.63	5.32422
1197.97	24.2969
1202.31	64.7998
1206.64	49.5938
1210.97	57.3652
1215.29	62.0254
1219.62	4.46973
1223.94	13.5742
1228.26	38.9912
1232.57	87.7002
1236.89	97.5664
1241.2	115.161
1245.51	168.696
1249.81	253.898
1254.12	141.807
1258.42	100.397
1262.72	66.6494
1267.01	69.2061
1271.3	110.875
1275.59	200.272
1279.88	192.585
1284.17	176.46
1288.45	170.422
1292.73	186.643
1297.01	214.288
1301.28	119.46
1305.55	68.9111
1309.82	145.932
1314.09	121.102
1318.35	106.238
1322.61	46.6016
1326.87	79.6934
1331.13	135.781
1335.38	110.684
1339.63	130.674
1343.88	228.43
1348.12	164.579
1352.37	90.0107
1356.61	11.665
1360.85	168.548
1365.08	152.809
1369.31	89.0967
1373.54	162.296
1377.77	197.852
1381.99	120.295
1386.22	64.4551
1390.43	197.543
1394.65	178.939
1398.87	159.93
1403.08	112.217
1407.29	95.8447
1411.49	160.866
1415.69	60.2432
1419.89	99.083
1424.09	75.1943
1428.29	94.3311
1432.48	145.356
1436.67	164.028
1440.86	101.872
1445.04	65.5801
1449.23	118.065
1453.4	171.954
1457.58	161.852
1461.76	145.761
1465.93	65.1709
1470.1	215.39
1474.26	158.131
1478.43	115.231
1482.59	119.945
1486.75	56.4873
1490.9	118.467
1495.06	182.419
1499.21	160.227
1503.35	256.218
1507.5	152.413
1511.64	137.099
1515.78	90.7656
1519.92	179.249
1524.05	57.6465
1528.18	132.412
1532.31	24.6963
1536.44	7.10254
1540.56	174.377
1544.69	134.634
1548.8	121.086
1552.92	329.017
1557.03	111.421
1561.14	73.6152
1565.25	89.8184
1569.36	6.45117
