Measurement: Raman, 514 nm, depolarized, Raman Data Processed
Mineral: Andradite
Rruff sample: R060423
Ideal chemistry: Ca_3_Fe^3+^_2_(SiO_4_)_3_
Locality: Mali
Source: Greg Schmidt
Description: Black dodecahedron
Measured chemistry: (Ca_2.93_Mg_0.04_Mn_0.03_)_Σ=3_(Fe^3+^_0.99_Al_0.95_Ti_0.06_)_Σ=2_((Si_0.98_Fe^3+^_0.02_)_Σ=1_O_4_)_3_
Pin_id: L01089
Orientation: Laser parallel to a* (1 0 0). Fiducial mark perpendicular to laser is parallel to c [0 0 1]
Raman shift (cm-1)	intensity
91.012	0
95.948	57.4509
100.883	79.6144
105.815	244.964
110.744	519.903
115.671	214.085
120.596	36.459
125.519	2.06616
130.439	31.3823
135.356	2.42822
140.271	139.518
145.184	25.2004
150.094	1.21558
155.002	65.1921
159.908	72.8916
164.811	459.112
169.711	1319.23
174.61	2284.09
179.505	1607.27
184.399	699.793
189.29	620.738
194.178	616.708
199.064	534.401
203.948	469.884
208.829	91.2273
213.708	188.488
218.585	391.705
223.459	1221.9
228.33	2621.08
233.199	4318.76
238.066	5830.37
242.93	4451.76
247.792	1721.1
252.651	747.079
257.508	792.393
262.363	1179.55
267.215	2142.78
272.064	2702.23
276.912	2064.42
281.756	1513.17
286.598	970.99
291.438	898.893
296.276	884.645
301.111	994.143
305.943	1337.32
310.773	2152.43
315.601	3868.59
320.426	4774.65
325.248	3684.31
330.068	3175.58
334.886	3427.41
339.701	3287.75
344.514	3969.57
349.324	6279.87
354.132	11874.2
358.938	20380.8
363.741	31295.4
368.541	49030.4
373.339	45497.8
378.135	23932.5
382.928	11402.6
387.718	6539.19
392.506	4243.4
397.292	3189.19
402.075	2237.55
406.856	1024.56
411.634	164.677
416.41	188.622
421.183	190.873
425.954	194.721
430.722	115.826
435.488	177.248
440.251	619.482
445.012	695.612
449.77	826.322
454.526	896.339
459.28	887.546
464.03	758.904
468.779	577.379
473.525	477.935
478.268	920.536
483.009	1862.15
487.747	2342.73
492.483	2673.26
497.217	2265.69
501.948	1643.99
506.676	1316.12
511.402	1151.05
516.125	1718.75
520.846	3225.17
525.565	7250.29
530.281	13905.1
534.994	14114.5
539.705	5829.43
544.413	2133.96
549.119	1317.49
553.822	1456.13
558.523	1539.78
563.222	1439.8
567.917	915.409
572.611	636.445
577.302	328.6
581.99	165.432
586.676	374.164
591.359	844.942
596.04	1309.99
600.718	1716.44
605.394	1957.59
610.067	2101.4
614.737	2231.84
619.406	2028.9
624.071	1427.53
628.734	723.995
633.395	321.422
638.053	287.635
642.708	306.332
647.361	415.493
652.012	607.102
656.66	425.144
661.305	396.609
665.948	257.484
670.588	469.757
675.226	415.419
679.861	291.459
684.494	136.847
689.124	103.742
693.752	165.452
698.377	161.009
702.999	124.064
707.619	201.398
712.237	198.632
716.852	111.753
721.464	43.1321
726.074	17.75
730.681	172.478
735.286	366.48
739.888	696.863
744.488	953.639
749.085	1304.82
753.68	1645.43
758.272	2233.47
762.861	2888.96
767.448	3020.93
772.033	2509.38
776.614	2165.43
781.194	1951.19
785.77	2109.71
790.345	2599.14
794.916	3464.54
799.485	4975.87
804.052	7437.17
808.616	10487.4
813.177	14476.6
817.736	17848.8
822.292	17272.3
826.846	14519.3
831.397	11446
835.945	9465.47
840.491	9003.49
845.035	8767.26
849.576	8526.73
854.114	8298.83
858.65	8981.75
863.183	11295.3
867.713	14956.4
872.241	19300.2
876.767	20216.3
881.29	15845.7
885.81	10852.4
890.328	7248.56
894.843	5357.07
899.356	3965.97
903.866	3170.26
908.373	2695.78
912.878	2410.18
917.38	2545.03
921.88	2555.27
926.377	2727.48
930.872	3087.13
935.364	3442.18
939.853	3503.8
944.34	3148.82
948.824	2252.44
953.306	1648.47
957.785	1656.46
962.261	2050.86
966.735	2826.11
971.207	3265.19
975.675	3876.54
980.141	4187.3
984.605	4194.69
989.066	4233.41
993.524	4260.11
997.98	4275.55
1002.43	3705.41
1006.88	2363.52
1011.33	1244.88
1015.78	801.475
1020.22	909.284
1024.66	1033.31
1029.1	559.5
1033.53	252.822
1037.97	2.68433
1042.4	69.074
1046.82	21.7398
1051.25	5.70508
1055.67	104.081
1060.09	102.215
1064.51	37.1145
1068.92	26.7102
1073.33	86.9824
1077.74	16.0125
1082.15	27.6243
1086.55	11.9045
1090.95	24.6765
1095.35	45.05
1099.75	66.0195
1104.14	182.9
1108.53	169.058
1112.92	216
1117.31	369.69
1121.69	507.095
1126.07	578.341
1130.45	421.907
1134.82	345.409
1139.19	301.394
1143.57	312.938
1147.93	307.446
1152.3	276.344
1156.66	273.128
1161.02	244.872
1165.38	185.15
1169.73	205.402
1174.08	252.706
1178.43	217.877
1182.78	253.343
1187.12	235.204
1191.46	235.791
1195.8	222.35
1200.14	242.106
1204.47	221.893
1208.8	201.741
1213.13	241.998
1217.46	186.677
1221.78	283.1
1226.1	267.041
1230.42	255.777
1234.73	236.868
1239.04	252.679
1243.35	130.296
1247.66	156.585
1251.97	70.6206
1256.27	65.5083
1260.57	48.0395
1264.86	8.31885
1269.16	9.32178
1273.45	6.99805
1277.74	19.3635
1282.03	21.4302
1286.31	23.179
1290.59	39.6946
1294.87	25.9688
1299.14	5.05933
1303.42	39.4634
1307.69	22.8398
1311.95	33.7734
1316.22	8.12378
1320.48	65.1775
1324.74	95.769
1329	70.5488
1333.26	24.6692
1337.51	5.83325
1341.76	78.5381
1346	16.916
1350.25	104.727
1354.49	55.4868
1358.73	23.2803
1362.96	33.9023
1367.2	69.4326
1371.43	58.9128
1375.66	53.1418
1379.88	85.7515
1384.11	40.9634
1388.33	111.44
1392.54	95.2044
1396.76	127.672
1400.97	133.985
1405.18	123.446
1409.39	95.7781
1413.59	106.76
1417.8	142.514
1421.99	95.0071
1426.19	123.196
1430.38	117.272
1434.58	66.3296
1438.77	64.425
1442.95	90.6279
1447.13	41.1677
1451.32	58.783
1455.49	1.06885
1459.67	23.0469
1463.84	65.2432
1468.01	61.2529
1472.18	58.3098
1476.35	15.4067
1480.51	20.3193
1484.67	8.54639
1488.83	25.6577
1492.98	21.2127
1497.13	34.9009
1501.28	86.7222
1505.43	53.6133
1509.57	115.485
1513.71	78.2266
1517.85	49.6777
1521.99	109.808
1526.12	0.713867
1530.25	36.415
1534.38	60.6448
1538.5	14.8994
1542.62	17.1611
1546.74	83.6907
1550.86	74.2366
1554.98	121.095
1559.09	51.3496
1563.2	19.2144
1567.31	91.1179
