Measurement: Raman, 514 nm, ccw, Raman Data Processed
Mineral: Andradite
Rruff sample: R040001
Ideal chemistry: Ca_3_Fe^3+^_2_(SiO_4_)_3_
Locality: Stanley Butte, Graham County, Arizona, USA
Source: University of Arizona Mineral Museum
Description: Brownish-orange dodecahedra
Measured chemistry: Ca_3.00_(Fe_1.96_Al_0.04_)_Î£=2_(SiO_4_)_3_ ; trace amounts of Mn
Pin_id: M00033
Orientation: Laser parallel to c* (0 0 1). Fiducial mark perpendicular to laser is parallel to a [1 0 0]
Raman shift (cm-1)	intensity
96.98	0
101.941	1.55591
106.9	91.4174
111.855	99.613
116.808	192.744
121.758	140.929
126.705	22.0577
131.649	69.4672
136.591	27.3643
141.529	41.2382
146.465	11.1936
151.398	21.5962
156.328	31.038
161.256	155.824
166.18	491.136
171.102	2013.13
176.021	1684.79
180.937	348.659
185.85	200.337
190.76	177.355
195.668	139.027
200.572	75.7059
205.474	3.41113
210.374	10.3175
215.27	54.9824
220.163	159.467
225.054	485.109
229.942	1317.78
234.827	3030.63
239.709	1988.71
244.589	434.788
249.465	54.3409
254.339	21.7069
259.21	164.332
264.079	590.502
268.944	333.754
273.807	8.91235
278.667	87.0232
283.524	91.9906
288.378	23.3806
293.23	241.281
298.079	401.465
302.925	538.356
307.768	1638.33
312.609	3620.42
317.446	1619.64
322.281	1224.97
327.113	1477.38
331.943	1000.93
336.769	1122.24
341.593	2001.39
346.414	4611.85
351.233	9052.11
356.048	8446.68
360.861	11134.7
365.671	25705
370.478	39729.6
375.283	21910.4
380.084	8449.35
384.883	3940.66
389.68	1995.29
394.473	1151.09
399.264	799.592
404.052	607.809
408.837	385.404
413.62	266.218
418.4	154.259
423.177	76.2057
427.951	35.6892
432.722	24.283
437.491	89.9779
442.257	150.866
447.021	580.932
451.781	978.166
456.539	454.567
461.294	217.131
466.047	159.855
470.797	263.748
475.544	287.763
480.288	501.564
485.03	950.912
489.768	2170.54
494.504	2963.3
499.238	2030.43
503.969	2168.51
508.697	4920.42
513.422	15016.4
518.144	14822
522.864	5604.64
527.582	2472.89
532.296	1506.6
537.008	1135.02
541.717	1017.58
546.423	1028.68
551.127	1459.25
555.828	1336.84
560.526	734.576
565.222	478.7
569.915	468.048
574.605	743.115
579.292	735.626
583.977	343.124
588.659	243.604
593.339	225.06
598.016	176.488
602.69	117.892
607.361	55.2822
612.03	102.079
616.696	52.4204
621.359	37.5394
626.02	6.87964
630.678	14.8048
635.333	22.5447
639.986	0.04248
644.636	25.3527
649.284	20.4835
653.928	7.4884
658.57	13.3617
663.21	33.4808
667.846	14.6633
672.481	22.8915
677.112	39.8152
681.741	35.3268
686.367	19.8369
690.99	40.7364
695.611	12.5875
700.229	76.8595
704.845	91.195
709.458	116.42
714.068	147.537
718.676	124.543
723.281	202.436
727.883	186.216
732.483	106.883
737.08	84.4383
741.674	40.8833
746.266	75.224
750.855	30.4235
755.442	41.5416
760.025	11.9235
764.607	36.2789
769.185	4.50964
773.761	67.1608
778.335	89.3057
782.906	101.263
787.474	219.195
792.039	339.574
796.602	604.62
801.162	1060.42
805.72	1957.45
810.275	3957.41
814.828	7429.04
819.378	5783.99
823.925	3311.05
828.47	2710.85
833.012	3330.1
837.551	5395.22
842.088	7428.6
846.622	5739.98
851.154	3798.38
855.683	3105.49
860.209	3460.21
864.733	4955.65
869.254	9018.12
873.773	16642.6
878.289	12647.1
882.803	5065.02
887.314	2237.13
891.822	1163.68
896.328	701.28
900.831	502.961
905.332	368.306
909.83	281.863
914.325	259.734
918.818	184.524
923.308	176.262
927.796	203.881
932.281	167.069
936.764	115.671
941.244	98.4098
945.721	157.251
950.196	109.173
954.668	140.29
959.138	137.539
963.605	159.922
968.07	193.414
972.532	235.993
976.991	244.619
981.448	293.3
985.903	426.047
990.355	943.846
994.804	1868.72
999.251	902.673
1003.7	326.676
1008.14	164.746
1012.58	11.1135
1017.01	34.0505
1021.45	9.30335
1025.88	5.62573
1030.31	31.0165
1034.73	57.6645
1039.16	23.5901
1043.58	52.1302
1048	12.9984
1052.41	7.00366
1056.83	17.9095
1061.24	27.2321
1065.65	53.4993
1070.05	133.258
1074.46	104.023
1078.86	110.793
1083.26	167.564
1087.65	110.334
1092.05	198.099
1096.44	206.856
1100.83	240.602
1105.21	236.335
1109.6	240.313
1113.98	176.058
1118.36	166.349
1122.73	63.5281
1127.1	145.129
1131.47	52.5983
1135.84	148.229
1140.21	57.0286
1144.57	64.2141
1148.93	104.686
1153.29	61.3152
1157.65	112.059
1162	139.498
1166.35	127.247
1170.7	203.002
1175.05	203.099
1179.39	186.91
1183.73	178.237
1188.07	140.811
1192.41	127.835
1196.74	153.599
1201.07	146.024
1205.4	164.879
1209.72	165.819
1214.05	120.727
1218.37	97.6013
1222.69	89.4421
1227.01	64.249
1231.32	45.0221
1235.63	92.7612
1239.94	30.4608
1244.24	0.898193
1248.55	34.6696
1252.85	62.181
1257.15	23.4034
1261.44	6.90796
1265.74	16.8169
1270.03	14.3469
1274.32	47.4528
1278.61	15.5276
1282.89	21.4968
1287.17	12.4081
1291.45	6.70996
1295.73	52.1831
1300	46.1011
1304.27	35.0085
1308.54	73.9764
1312.81	31.9929
1317.08	71.0356
1321.34	26.0527
1325.6	4.89429
1329.85	34.1129
1334.11	79.0996
1338.36	50.0659
1342.61	58.0126
1346.86	56.9393
1351.1	35.8471
1355.35	100.737
1359.59	106.613
1363.82	130.476
1368.06	107.071
1372.29	73.2064
1376.52	99.4104
1380.75	114.44
1384.97	100.8
1389.2	122.271
1393.42	60.7819
1397.64	156.749
1401.85	133.624
1406.07	163.543
1410.28	111.301
1414.49	121.918
1418.69	117.966
1422.9	100.666
1427.1	71.7972
1431.3	63.527
1435.49	109.799
1439.69	83.1841
1443.88	110.591
1448.07	89.014
1452.26	59.6658
1456.44	62.4556
1460.62	51.282
1464.8	68.0892
1468.98	87.8787
1473.15	65.6517
1477.33	46.4571
1481.5	81.3381
1485.66	92.3542
1489.83	68.5031
1493.99	52.7477
1498.15	14.1506
1502.31	51.6409
1506.47	96.1942
1510.62	22.7777
1514.77	39.5477
1518.92	39.4274
1523.07	57.4471
1527.21	85.6415
1531.35	89.0483
1535.49	32.6847
1539.63	95.5669
1543.76	14.7257
1547.9	60.2275
1552.03	84.1454
1556.15	48.5747
1560.28	47.6411
1564.4	28.938
1568.52	52.8292
1572.64	1.4668
1576.75	0.907471
