Measurement: Raman, 514 nm, depolarized, Raman Data Processed
Mineral: Andradite
Rruff sample: R060358
Ideal chemistry: Ca_3_Fe^3+^_2_(SiO_4_)_3_
Locality: Soghan, near Jiroft, Kerman, Iran
Source: Herb Obodda
Description: Green dodecahedron
Measured chemistry: Ca_3.00_(Fe^3+^_1.89_Cr_0.11_)_Î£=2_(Si_1.00_O_4_)_3_
Pin_id: L01104
Orientation: Laser parallel to -b* (0 -1 0). Fiducial mark perpendicular to laser is parallel to c [0 0 1]
Raman shift (cm-1)	intensity
51.431	0
56.387	7.84528
61.341	11.4496
66.292	15.3873
71.241	83.3281
76.187	75.6305
81.131	75.6331
86.072	95.7092
91.012	170.438
95.948	151.856
100.883	148.957
105.815	156.792
110.744	227.617
115.671	185.369
120.596	90.7387
125.519	70.8635
130.439	93.3004
135.356	80.6464
140.271	114.14
145.184	46.786
150.094	79.5945
155.002	99.2753
159.908	85.728
164.811	276.099
169.711	719.678
174.61	3084.4
179.505	908.314
184.399	192.42
189.29	150.72
194.178	148.234
199.064	145.134
203.948	98.0751
208.829	41.8707
213.708	25.9341
218.585	13.8377
223.459	85.3314
228.33	467.004
233.199	1638.84
238.066	4033.82
242.93	594.912
247.792	11.116
252.651	51.5891
257.508	12.6859
262.363	267.028
267.215	770.491
272.064	71.0858
276.912	11.209
281.756	24.7166
286.598	0.800476
291.438	124.486
296.276	475.352
301.111	472.236
305.943	622.214
310.773	1944.39
315.601	3005.65
320.426	1091.08
325.248	1694.86
330.068	1184.81
334.886	1028.86
339.701	1518.12
344.514	3323.59
349.324	8617.28
354.132	15566.8
358.938	9453.49
363.741	14764.2
368.541	40181.8
373.339	45555.7
378.135	15064.9
382.928	6178.24
387.718	2921.9
392.506	1430.8
397.292	916.581
402.075	598.043
406.856	415.795
411.634	250.8
416.41	113.06
421.183	93.0456
425.954	45.4976
430.722	40.665
435.488	37.7573
440.251	44.2802
445.012	153.053
449.77	554.067
454.526	806.302
459.28	210.758
464.03	20.4246
468.779	11.7001
473.525	45.3656
478.268	124.739
483.009	465.678
487.747	1096.32
492.483	2844.3
497.217	2785.08
501.948	1891.13
506.676	2555.18
511.402	7447.45
516.125	20334.9
520.846	11405.9
525.565	3543.7
530.281	1709.69
534.994	1076.19
539.705	802.623
544.413	784.049
549.119	882.216
553.822	1142.35
558.523	713.714
563.222	412.348
567.917	383.873
572.611	658.482
577.302	1170.45
581.99	578.287
586.676	325.458
591.359	243.766
596.04	208.78
600.718	115.509
605.394	128.473
610.067	106.814
614.737	44.4065
619.406	7.99103
624.071	8.54529
628.734	24.8131
633.395	9.78143
638.053	4.57526
642.708	21.7949
647.361	30.9139
652.012	0.979797
656.66	16.4194
661.305	2.12152
665.948	32.3588
670.588	8.22278
675.226	17.3212
679.861	19.0672
684.494	9.01276
689.124	7.84192
693.752	4.57581
698.377	5.13477
702.999	13.471
707.619	10.2645
712.237	19.8014
716.852	12.7793
721.464	23.326
726.074	8.40753
730.681	28.0369
735.286	29.5801
739.888	15.0356
744.488	25.4135
749.085	32.7175
753.68	69.9584
758.272	68.0223
762.861	19.65
767.448	26.2812
772.033	5.92969
776.614	50.7354
781.194	79.9762
785.77	93.5118
790.345	222.867
794.916	352.578
799.485	619.254
804.052	1068.77
808.616	2118.28
813.177	4584.81
817.736	6981.77
822.292	4654.66
826.846	2733.19
831.397	2551.89
835.945	3462.57
840.491	5903.99
845.035	6997.9
849.576	4636.75
854.114	3098.17
858.65	2977.04
863.183	3925.22
867.713	7079.72
872.241	16977.4
876.767	25596.5
881.29	10690.4
885.81	3739.69
890.328	1691.06
894.843	968.497
899.356	583.377
903.866	423.155
908.373	316.203
912.878	280.544
917.38	207.889
921.88	173.728
926.377	157.88
930.872	148.93
935.364	128.158
939.853	89.4994
944.34	54.9546
948.824	108.517
953.306	77.2185
957.785	102.054
962.261	135.016
966.735	148.066
971.207	226.248
975.675	284.548
980.141	291.988
984.605	356.53
989.066	620.163
993.524	1330.9
997.98	1650.76
1002.43	620.742
1006.88	240.82
1011.33	129.995
1015.78	104.281
1020.22	52.649
1024.66	38.0792
1029.1	29.5674
1033.53	3.89746
1037.97	26.6725
1042.4	11.3052
1046.82	40.059
1051.25	21.5519
1055.67	36.179
1060.09	5.03204
1064.51	6.20355
1068.92	58.3991
1073.33	68.6244
1077.74	76.8768
1082.15	88.1536
1086.55	170.452
1090.95	181.768
1095.35	193.1
1099.75	227.444
1104.14	239.797
1108.53	224.429
1112.92	227.009
1117.31	242.711
1121.69	229.739
1126.07	176.54
1130.45	103.552
1134.82	79.5608
1139.19	72.2529
1143.57	67.3548
1147.93	80.1034
1152.3	72.7715
1156.66	75.2506
1161.02	115.62
1165.38	119.279
1169.73	186.684
1174.08	175.796
1178.43	159.953
1182.78	193.601
1187.12	216.745
1191.46	144.583
1195.8	166.52
1200.14	149.337
1204.47	174.231
1208.8	138.873
1213.13	133.589
1217.46	84.1028
1221.78	90.9136
1226.1	64.5192
1230.42	67.0859
1234.73	3.38702
1239.04	19.067
1243.35	6.53839
1247.66	27.7756
1251.97	2.97955
1256.27	0.831238
1260.57	2.20856
1264.86	0.13623
1269.16	18.0221
1273.45	3.31232
1277.74	7.28125
1282.03	10.7988
1286.31	26.2646
1290.59	8.68365
1294.87	24.0679
1299.14	13.4124
1303.42	11.2845
1307.69	20.0029
1311.95	15.3472
1316.22	40.7596
1320.48	31.2357
1324.74	32.7007
1329	27.7935
1333.26	38.5237
1337.51	38.7732
1341.76	57.2374
1346	56.5223
1350.25	39.7723
1354.49	79.9893
1358.73	108.177
1362.96	71.8343
1367.2	119.206
1371.43	95.4044
1375.66	98.8737
1379.88	90.8143
1384.11	77.5806
1388.33	82.1535
1392.54	96.4272
1396.76	91.9674
1400.97	102.148
1405.18	66.1323
1409.39	80.7943
1413.59	79.6304
1417.8	40.5007
1421.99	76.6555
1426.19	44.34
1430.38	40.663
1434.58	41.9903
1438.77	45.4791
1442.95	46.3067
1447.13	23.6642
1451.32	20.1446
1455.49	26.014
1459.67	18.837
1463.84	29.6157
1468.01	32.3533
1472.18	32.106
1476.35	50.9
1480.51	53.8093
1484.67	30.8704
1488.83	37.1521
1492.98	41.5484
1497.13	44.9898
1501.28	47.4902
1505.43	50.5527
1509.57	37.5909
1513.71	34.1991
1517.85	51.9132
1521.99	16.686
1526.12	18.722
1530.25	13.9433
1534.38	6.33435
1538.5	48.9195
1542.62	20.7596
1546.74	16.9468
1550.86	25.5305
1554.98	44.6811
1559.09	4.59589
1563.2	16.1522
1567.31	16.2209
