Measurement: Raman, 514 nm, depolarized, Raman Data Processed
Mineral: Andradite
Rruff sample: R060326
Ideal chemistry: Ca_3_Fe^3+^_2_(SiO_4_)_3_
Locality: Ultevis, Sweden
Source: Marcus Origlieri
Description: Reddish-brown colored druse of crystals associated with white svabite R050180
Measured chemistry: (Ca_2.98_Mn_0.02_)_Σ=3_(Fe^3+^_1.75_Al_0.21_Ti_0.04_)_Σ=2_(Si_1.00_O_4_)_3_
Pin_id: M00248
Orientation: Laser parallel to (0 -1 -1). Fiducial mark perpendicular to laser is parallel to a [1 0 0]
Raman shift (cm-1)	intensity
99.649	0
104.582	162.977
109.512	344.856
114.44	260.829
119.365	30.9258
124.288	76.7012
129.209	40.1435
134.127	110.873
139.043	591.258
143.956	448.59
148.867	204.883
153.775	266.926
158.681	343.816
163.585	748.42
168.486	1569.45
173.385	1782.88
178.282	811.948
183.176	149.064
188.067	267.769
192.956	133.165
197.843	152.432
202.727	127.14
207.609	95.8545
212.489	94.4981
217.366	4.24219
222.24	343.289
227.112	1246.56
231.982	2420.32
236.849	2369.31
241.714	728.725
246.577	26.1826
251.437	38.9688
256.294	57.5859
261.149	499.205
266.002	668.927
270.852	374.529
275.7	180.712
280.545	83.7481
285.388	203.611
290.229	403.215
295.067	557.105
299.902	866.771
304.735	1732.87
309.566	2690.71
314.394	2378.09
319.22	1879.79
324.043	1980.08
328.864	1928.24
333.682	2103.5
338.498	3334.07
343.311	6999.95
348.122	12764.1
352.931	15096
357.737	17037.5
362.54	29922.5
367.341	43253.8
372.14	31276.4
376.936	13911.4
381.73	6466.71
386.521	3260.43
391.31	1646.48
396.096	1002.91
400.88	697.972
405.661	278.7
410.44	145.108
415.216	6.24707
419.99	56.0185
424.761	90.1123
429.53	58.4053
434.297	14.2305
439.061	143.336
443.822	300.11
448.581	586.102
453.337	431.308
458.091	238.722
462.843	33.333
467.592	11.9297
472.338	401.947
477.082	638.001
481.824	1261.55
486.563	1987.93
491.3	3049.45
496.034	2562.22
500.765	2118.38
505.494	3476.78
510.221	8943.1
514.945	16483.2
519.666	13257.1
524.385	6013.79
529.102	2586.54
533.816	1660.08
538.527	1256.32
543.236	1185.36
547.943	1176.31
552.647	1311.15
557.348	1052.13
562.047	588.806
566.744	563.508
571.438	941.139
576.129	1094.6
580.818	910.869
585.504	633.971
590.188	675.896
594.87	718.64
599.549	631.194
604.225	571.552
608.899	455.878
613.57	83.8291
618.239	272.569
622.905	236.085
627.569	149.373
632.23	130.439
636.889	146.278
641.545	325.89
646.198	5.27051
650.849	212.352
655.498	66.1738
660.144	53.2695
664.787	45.1758
669.428	3.49414
674.067	30.8252
678.703	38.3867
683.336	78.6523
687.967	67.0195
692.595	149.501
697.221	36.7568
701.844	47.7002
706.465	59.2432
711.083	142.986
715.698	206.546
720.311	164.852
724.922	335.967
729.53	407.892
734.135	395.637
738.738	478.206
743.338	545.68
747.936	541.9
752.531	472.05
757.124	481.055
761.714	395.592
766.302	511.384
770.887	485.285
775.469	599.266
780.049	596.384
784.626	733.082
789.201	960.442
793.773	1288.72
798.343	1911.2
802.91	3126.64
807.475	4839.63
812.037	7167.91
816.596	7141.73
821.153	5598.1
825.707	4260.86
830.259	4303.85
834.808	5345.88
839.355	7022.43
843.899	6777.67
848.441	5254.53
852.98	4767.52
857.516	5324.12
862.05	7074.89
866.581	12019.8
871.11	19339.9
875.636	18456.2
880.159	10359.7
884.68	4810.35
889.199	2461.21
893.714	1579.34
898.228	881.453
902.738	665.467
907.246	540.907
911.752	318.818
916.255	301.383
920.755	292.42
925.253	523.138
929.748	627.606
934.241	459.527
938.731	522.994
943.218	299.042
947.703	215.815
952.186	456.878
956.665	512.291
961.142	484.81
965.617	426.907
970.089	750.579
974.558	614.659
979.025	731.041
983.489	1182.74
987.951	1242.31
992.41	1757.16
996.866	1942.06
1001.32	779.154
1005.77	390.422
1010.22	286.097
1014.67	88.6016
1019.11	138.727
1023.55	88.2969
1027.99	50.7978
1032.42	108.26
1036.86	65.3457
1041.29	53.6435
1045.72	5.63184
1050.14	151.676
1054.56	69.3125
1058.98	97.3496
1063.4	30.1289
1067.82	45.3613
1072.23	222.43
1076.64	88.3769
1081.05	278.357
1085.45	395.16
1089.85	192.109
1094.25	346.504
1098.65	346.307
1103.04	314.779
1107.43	439.049
1111.82	159.607
1116.21	302.818
1120.59	424.316
1124.97	394.035
1129.35	347.394
1133.73	366.248
1138.1	228.068
1142.47	273.562
1146.84	240.254
1151.21	316.768
1155.57	402.33
1159.93	328.49
1164.29	189.537
1168.64	213.059
1172.99	414.967
1177.34	331.361
1181.69	260.332
1186.04	249.047
1190.38	333.305
1194.72	322.383
1199.05	264.865
1203.39	356.477
1207.72	393.838
1212.05	327.857
1216.37	73.7305
1220.7	270.301
1225.02	206.545
1229.34	101.242
1233.65	111.045
1237.97	104.062
1242.28	133.797
1246.59	111.16
1250.89	54.1152
1255.19	272.74
1259.49	69.8281
1263.79	49.9453
1268.09	9.62695
1272.38	121.947
1276.67	0.324219
1280.95	68.332
1285.24	123.371
1289.52	71.4473
1293.8	231.08
1298.08	4.13672
1302.35	123.727
1306.62	119.264
1310.89	135.969
1315.15	102.721
1319.42	279.715
1323.68	149.803
1327.94	100.947
1332.19	342.772
1336.44	216.557
1340.69	290.961
1344.94	288.008
1349.19	276.049
1353.43	37.9414
1357.67	106.154
1361.9	269.191
1366.14	164.094
1370.37	393.166
1374.6	273.188
1378.83	344.363
1383.05	78.0078
1387.27	344.975
1391.49	128.611
1395.7	236.133
1399.92	31.2715
1404.13	231.168
1408.34	65.8652
1412.54	336.518
1416.74	222.172
1420.94	155.488
1425.14	172.131
1429.34	124.867
1433.53	237.443
1437.72	113.74
1441.9	180.25
1446.09	217.621
1450.27	233.621
1454.45	300.154
1458.63	128.709
1462.8	97.1699
1466.97	198.315
1471.14	281.986
1475.31	345.889
1479.47	278.859
1483.63	253.295
1487.79	113.113
1491.94	194.357
1496.09	59.5488
1500.24	212.674
1504.39	71.1719
1508.54	71.7754
1512.68	130.711
1516.82	127.178
1520.95	128.336
1525.09	276.562
1529.22	242.291
1533.35	156.213
1537.47	149.631
1541.6	192.793
1545.72	298.916
1549.83	132.131
1553.95	247.816
1558.06	174.672
1562.17	38.3145
1566.28	3.80078
1570.38	0
