Measurement: Raman, 514 nm, ccw, Raman Data Processed
Mineral: Andradite
Rruff sample: R040001
Ideal chemistry: Ca_3_Fe^3+^_2_(SiO_4_)_3_
Locality: Stanley Butte, Graham County, Arizona, USA
Source: University of Arizona Mineral Museum
Description: Brownish-orange dodecahedra
Measured chemistry: Ca_3.00_(Fe_1.96_Al_0.04_)_Î£=2_(SiO_4_)_3_ ; trace amounts of Mn
Pin_id: M00033
Orientation: Laser parallel to c* (0 0 1). Fiducial mark perpendicular to laser is parallel to a [1 0 0]
Raman shift (cm-1)	intensity
96.98	0
101.941	13.6793
106.9	28.7605
111.855	107.446
116.808	203.942
121.758	97.4183
126.705	72.0133
131.649	72.485
136.591	56.3635
141.529	92.3265
146.465	62.7906
151.398	56.3969
156.328	105.7
161.256	167.073
166.18	338.385
171.102	1960.06
176.021	2144.5
180.937	546.061
185.85	337.571
190.76	264.646
195.668	266.684
200.572	182.894
205.474	68.2222
210.374	29.649
215.27	23.0819
220.163	66.5049
225.054	73.9443
229.942	228.288
234.827	534.48
239.709	301.705
244.589	2.78857
249.465	58.5949
254.339	92.1782
259.21	40.3376
264.079	81.3494
268.944	66.8117
273.807	44.035
278.667	41.0393
283.524	71.8678
288.378	323.119
293.23	1018.32
298.079	1212.89
302.925	460.609
307.768	561.136
312.609	957.661
317.446	749.217
322.281	1073.13
327.113	1549.2
331.943	1919.37
336.769	3256.69
341.593	6690.19
346.414	16606.9
351.233	36115.8
356.048	24625
360.861	18095.5
365.671	35067.9
370.478	54676.1
375.283	29727.8
380.084	12618.9
384.883	6782.23
389.68	3223.01
394.473	1871.75
399.264	1233.47
404.052	862.496
408.837	704.814
413.62	427.533
418.4	277.394
423.177	184.468
427.951	59.525
432.722	58.9122
437.491	74.4609
442.257	23.1771
447.021	125.065
451.781	235.128
456.539	81.3645
461.294	116.775
466.047	177.369
470.797	286.177
475.544	396.376
480.288	648.915
485.03	1364.07
489.768	3873.55
494.504	4550.73
499.238	2401.23
503.969	2739.24
508.697	6322.9
513.422	19706.8
518.144	19203.7
522.864	7097.79
527.582	3161.77
532.296	1901.22
537.008	1360.05
541.717	1301.19
546.423	1073.19
551.127	1107.25
555.828	968.884
560.526	818.525
565.222	864.54
569.915	1156.57
574.605	2461.65
579.292	2062.78
583.977	872.939
588.659	495.132
593.339	327.352
598.016	213.592
602.69	205.867
607.361	138.689
612.03	74.0985
616.696	37.3867
621.359	30.7199
626.02	18.1177
630.678	21.6399
635.333	10.4727
639.986	31.4056
644.636	2.11487
649.284	62.7656
653.928	19.637
658.57	23.7728
663.21	49.0065
667.846	24.932
672.481	24.2211
677.112	41.5332
681.741	40.1934
686.367	3.31238
690.99	46.7427
695.611	0.474609
700.229	42.5961
704.845	111.541
709.458	121.382
714.068	85.1158
718.676	84.7433
723.281	216.263
727.883	185.675
732.483	108.979
737.08	41.1741
741.674	68.2616
746.266	57.2295
750.855	34.0383
755.442	1.44897
760.025	1.20337
764.607	45.7601
769.185	45.9043
773.761	27.7783
778.335	68.4993
782.906	69.0969
787.474	151.117
792.039	194.538
796.602	359.099
801.162	646.616
805.72	929.118
810.275	1664.81
814.828	2755.17
819.378	2430.81
823.925	1987.29
828.47	2226.7
833.012	2486.29
837.551	3096.79
842.088	4098.23
846.622	4176.69
851.154	4361.15
855.683	5786.61
860.209	8734.08
864.733	14947.5
869.254	30495
873.773	58667.5
878.289	41161.1
882.803	15318.1
887.314	6604.61
891.822	3674.77
896.328	2196.16
900.831	1448.15
905.332	1092.65
909.83	792.41
914.325	698.224
918.818	528.336
923.308	452.993
927.796	486.084
932.281	387.292
936.764	293.604
941.244	281.05
945.721	220.548
950.196	269.14
954.668	207.937
959.138	262.942
963.605	240.101
968.07	258.385
972.532	226.761
976.991	200.186
981.448	214.685
985.903	228.296
990.355	510.004
994.804	824.795
999.251	407.684
1003.7	114.646
1008.14	68.6948
1012.58	49.8174
1017.01	79.9916
1021.45	30.2478
1025.88	10.5161
1030.31	41.1867
1034.73	34.8959
1039.16	2.33899
1043.58	31.5435
1048	17.5739
1052.41	26.3119
1056.83	36.1517
1061.24	74.9413
1065.65	74.7523
1070.05	99.5764
1074.46	171.414
1078.86	196.259
1083.26	236.11
1087.65	302.961
1092.05	308.809
1096.44	326.649
1100.83	335.478
1105.21	269.293
1109.6	358.816
1113.98	242.284
1118.36	233.895
1122.73	159.393
1127.1	133.073
1131.47	101.151
1135.84	82.0237
1140.21	143.843
1144.57	108.134
1148.93	131.714
1153.29	114.13
1157.65	134.982
1162	117.133
1166.35	224.299
1170.7	213.404
1175.05	270.646
1179.39	278.681
1183.73	291.546
1188.07	210.955
1192.41	210.521
1196.74	195.433
1201.07	225.3
1205.4	201.313
1209.72	234.089
1214.05	115.817
1218.37	125.497
1222.69	96.1293
1227.01	156.713
1231.32	59.2476
1235.63	11.7334
1239.94	65.1636
1244.24	4.45557
1248.55	0.57666
1252.85	10.5432
1257.15	21.3866
1261.44	2.91174
1265.74	30.3158
1270.03	8.87256
1274.32	6.47949
1278.61	14.2128
1282.89	45.0195
1287.17	70.2437
1291.45	14.4608
1295.73	12.7177
1300	4.11511
1304.27	30.3252
1308.54	48.6711
1312.81	2.02539
1317.08	6.39905
1321.34	72.7706
1325.6	43.1357
1329.85	5.50854
1334.11	109.813
1338.36	83.1055
1342.61	97.3689
1346.86	93.6042
1351.1	61.813
1355.35	95.0002
1359.59	98.1719
1363.82	164.295
1368.06	126.211
1372.29	122.051
1376.52	144.176
1380.75	109.907
1384.97	119.15
1389.2	134.419
1393.42	112.704
1397.64	116.096
1401.85	171.355
1406.07	122.528
1410.28	172.925
1414.49	131.382
1418.69	114.906
1422.9	153.506
1427.1	71.6508
1431.3	102.833
1435.49	93.7438
1439.69	151.95
1443.88	96.1893
1448.07	116.757
1452.26	86.3352
1456.44	97.8966
1460.62	84.0951
1464.8	50.2832
1468.98	54.4645
1473.15	96.6429
1477.33	61.9702
1481.5	80.577
1485.66	91.4529
1489.83	50.6047
1493.99	80.9241
1498.15	9.36804
1502.31	25.8997
1506.47	87.6099
1510.62	24.4811
1514.77	59.4241
1518.92	44.4296
1523.07	66.6863
1527.21	60.2666
1531.35	68.2156
1535.49	68.5311
1539.63	68.2327
1543.76	21.3932
1547.9	24.1128
1552.03	63.5782
1556.15	28.9769
1560.28	77.5751
1564.4	30.853
1568.52	33.6393
1572.64	84.6475
1576.75	28.1446
