Measurement: Raman, 514 nm, depolarized, Raman Data Processed
Mineral: Andradite
Rruff sample: R050256
Ideal chemistry: Ca_3_Fe^3+^_2_(SiO_4_)_3_
Locality: Franklin, Sussex County, New Jersey, USA
Source: Marcus Origlieri
Description: Reddish brown fragments
Measured chemistry: (Ca_2.27_Mn_0.73_)_Σ=3_(Fe^3+^_1.35_Al_0.65_)_Σ=2_(Si_1.00_O_4_)_3_
Pin_id: M00458
Orientation: Laser parallel to -c* (0 0 -1). Fiducial mark perpendicular to laser is parallel to a [1 0 0]
Raman shift (cm-1)	intensity
123.058	0
127.979	19.2598
132.898	59.1895
137.814	146.913
142.728	11.7041
147.639	10.5767
152.549	98.783
157.455	124.688
162.359	340.254
167.261	824.327
172.161	920.139
177.058	906.928
181.952	799.038
186.845	589.003
191.734	369.889
196.622	406.856
201.507	507.393
206.389	309.941
211.269	613.019
216.147	1102.37
221.022	1689.44
225.895	2512.39
230.765	3390.31
235.633	3726.26
240.498	2811.23
245.361	1611.26
250.222	901.394
255.08	560.713
259.936	1234.27
264.789	525.067
269.64	369.711
274.488	305.782
279.334	259.155
284.178	215.623
289.019	267.083
293.857	646.043
298.693	1191.37
303.527	2037.48
308.358	2947.42
313.187	3842.05
318.013	3929.26
322.837	3830.96
327.659	4234.08
332.478	5229.53
337.294	6524.24
342.108	8457.15
346.92	11992.2
351.729	17688.3
356.535	27078.6
361.34	42006.9
366.141	54499.6
370.94	55591.9
375.737	37613.9
380.531	19601.5
385.323	9978.52
390.113	5200.95
394.9	2763.6
399.684	1290.57
404.466	485.854
409.245	51.2822
414.022	165.172
418.797	155.45
423.569	31.3789
428.338	281.438
433.105	423.61
437.87	607.849
442.632	798.933
447.391	972.696
452.149	988.077
456.903	926.989
461.655	624.155
466.405	356.177
471.152	479.337
475.897	1399.8
480.639	2480.51
485.378	3571.41
490.116	4404.46
494.85	4771.58
499.582	4600.73
504.312	4368.51
509.039	5285.21
513.764	8539.86
518.486	14743
523.206	23041.1
527.923	26099.2
532.638	18632.9
537.35	8610.95
542.059	4420.54
546.766	2995.62
551.471	2635.51
556.173	2427.25
560.873	2106.79
565.57	1564.33
570.264	1222.23
574.957	1177.72
579.646	1340.27
584.333	1488.9
589.018	1498.27
593.7	1818.76
598.379	1972.6
603.056	2271.89
607.73	2281.61
612.402	2174.65
617.072	1722.78
621.739	1190.62
626.403	670.475
631.065	351.52
635.724	136.72
640.381	63.6418
645.035	47.6692
649.687	113.122
654.336	91.8579
658.983	91.9924
663.627	19.3706
668.268	51.8738
672.907	70.4831
677.544	42.0767
682.178	18.9343
686.809	42.0518
691.438	11.3225
696.065	73.7266
700.688	40.2002
705.31	83.3591
709.929	82.1812
714.545	110.398
719.158	236.331
723.77	199.971
728.378	236.594
732.984	290.128
737.588	281.62
742.189	263.085
746.787	361.534
751.383	335.986
755.976	454.456
760.567	475.963
765.155	508.526
769.741	543.167
774.324	705.951
778.904	745.949
783.482	1014.24
788.058	1256.58
792.631	1764.82
797.201	2732.66
801.769	4289.48
806.334	6228.93
810.897	8851.99
815.457	11856.8
820.014	14414.6
824.569	15042
829.122	13291.9
833.671	10675.3
838.219	9048.34
842.763	9184.73
847.306	10379.6
851.845	10861.6
856.382	10008
860.917	9027.24
865.448	9379.93
869.978	11099
874.505	14923.2
879.029	21439.5
883.55	25700
888.069	21373.7
892.586	12777.6
897.1	7497.75
901.611	4895.17
906.12	3352.94
910.626	2640.61
915.129	2175.7
919.63	1913.39
924.129	1723.67
928.625	1806.22
933.118	2089.09
937.609	2573.64
942.097	2580.16
946.582	2166.49
951.065	1541.22
955.546	1301.54
960.023	1476.12
964.499	1879.94
968.971	2386.02
973.441	2859.01
977.909	3303.88
982.374	3641.41
986.836	3774.58
991.295	3935.21
995.753	4462.25
1000.21	4590.71
1004.66	4224.6
1009.11	2682.55
1013.55	1324.65
1018	882.937
1022.44	525.639
1026.88	261.793
1031.32	76.3433
1035.75	8.27612
1040.18	63.4148
1044.61	18.9377
1049.04	43.3188
1053.46	28.6799
1057.88	91.1331
1062.3	30.0169
1066.71	37.3281
1071.13	71.0413
1075.54	34.1868
1079.94	35.2463
1084.35	81.5977
1088.75	138.023
1093.15	174.503
1097.55	207.018
1101.94	331.543
1106.34	314.058
1110.73	377.539
1115.11	401.967
1119.5	675.446
1123.88	761.884
1128.26	465.486
1132.63	290.222
1137.01	227.649
1141.38	229.416
1145.75	284.889
1150.12	195.508
1154.48	197.58
1158.84	170.231
1163.2	178.387
1167.55	197.129
1171.91	234.588
1176.26	233.536
1180.61	299.168
1184.95	275.128
1189.29	304.849
1193.63	346.572
1197.97	381.468
1202.31	338.49
1206.64	363.893
1210.97	291.832
1215.29	311.192
1219.62	278.776
1223.94	320.077
1228.26	320.103
1232.57	228.844
1236.89	194.315
1241.2	137.529
1245.51	144.484
1249.81	106.178
1254.12	44.606
1258.42	73.7224
1262.72	7.49805
1267.01	29.8721
1271.3	1.14111
1275.59	26.6343
1279.88	17.2454
1284.17	31.282
1288.45	27.6553
1292.73	16.7761
1297.01	8.63477
1301.28	3.13818
1305.55	42.686
1309.82	11.9832
1314.09	80.154
1318.35	62.2771
1322.61	18.4851
1326.87	46.7722
1331.13	98.0945
1335.38	43.7419
1339.63	84.9082
1343.88	73.1553
1348.12	92.187
1352.37	135.002
1356.61	72.6033
1360.85	156.995
1365.08	132.204
1369.31	212.213
1373.54	161.052
1377.77	145.611
1381.99	187.8
1386.22	226.7
1390.43	169.509
1394.65	195.785
1398.87	184.87
1403.08	131.236
1407.29	167.573
1411.49	184.899
1415.69	209.871
1419.89	191.897
1424.09	162.527
1428.29	193.796
1432.48	173.216
1436.67	127.006
1440.86	170.082
1445.04	168.741
1449.23	155.176
1453.4	84.686
1457.58	75.7485
1461.76	163.288
1465.93	91.5376
1470.1	98.6728
1474.26	77.5203
1478.43	105.103
1482.59	28.5933
1486.75	14.1892
1490.9	49.3757
1495.06	79.0271
1499.21	49.0723
1503.35	55.3462
1507.5	51.8716
1511.64	58.4062
1515.78	97.0747
1519.92	48.905
1524.05	106.002
1528.18	88.5396
1532.31	74.5618
1536.44	66.1333
1540.56	66.3906
1544.69	73.9766
1548.8	85.6455
1552.92	134.903
1557.03	39.8362
1561.14	58.759
1565.25	3.38257
1569.36	0.323975
