Measurement: Raman, 514 nm, depolarized, Raman Data Processed
Mineral: Andradite
Rruff sample: R050377
Ideal chemistry: Ca_3_Fe^3+^_2_(SiO_4_)_3_
Locality: Zlatoust District, South Urals, Russia
Source: University of Arizona Mineral Museum
Description: Dark red cubes
Measured chemistry: Ca_3.00_(Fe^3+^_1.48_Ti_0.31_Mg_0.14_Zr_0.07_)_Σ=2_(Si_2.73_Al_0.24_Ti_0.03_)_Σ=3_O_12_
Pin_id: M00110
Orientation: Laser parallel to a* (1 0 0). Fiducial mark perpendicular to laser is parallel to c [0 0 1]
Raman shift (cm-1)	intensity
99.649	0
104.582	19.5488
109.512	1056.02
114.44	219.029
119.365	96.7373
124.288	424.938
129.209	506.53
134.127	645.298
139.043	928.208
143.956	1101.14
148.867	623.403
153.775	578.754
158.681	605.61
163.585	1473.68
168.486	2467.04
173.385	1748.86
178.282	1016.8
183.176	581.337
188.067	546.606
192.956	1090.12
197.843	1099.03
202.727	893.916
207.609	351.608
212.489	492.435
217.366	786.386
222.24	1322.98
227.112	1725.16
231.982	1950
236.849	1967.13
241.714	1556.8
246.577	1816.65
251.437	1791.69
256.294	2346.25
261.149	3037.84
266.002	2602.12
270.852	2480.51
275.7	2104.07
280.545	2177.8
285.388	2887.91
290.229	3615.62
295.067	4294.59
299.902	4610.79
304.735	5050.41
309.566	5081.31
314.394	5243
319.22	5220.18
324.043	5646.74
328.864	6822.05
333.682	9579.83
338.498	14911.4
343.311	21833.8
348.122	24871.8
352.931	25075.4
357.737	30522.6
362.54	35485.2
367.341	30361.2
372.14	20426.5
376.936	12501.9
381.73	7567.95
386.521	4285.03
391.31	2132.34
396.096	1250.46
400.88	662.41
405.661	135.191
410.44	198.148
415.216	46.0391
419.99	108.988
424.761	22.8086
429.53	133.215
434.297	17.9492
439.061	91.9922
443.822	418.09
448.581	508.256
453.337	47.4434
458.091	334.537
462.843	223.316
467.592	314.17
472.338	283.223
477.082	587.375
481.824	1202.3
486.563	2168.95
491.3	2373.3
496.034	2145.3
500.765	2915.94
505.494	6076.18
510.221	13443
514.945	17895.3
519.666	11855.2
524.385	6559.53
529.102	3707.34
533.816	2417.59
538.527	1749.25
543.236	1487.91
547.943	1252.89
552.647	1079.15
557.348	576.482
562.047	104.607
566.744	416.805
571.438	613.281
576.129	1274.15
580.818	1394.34
585.504	1188.53
590.188	1174.39
594.87	1083.89
599.549	974.611
604.225	906.35
608.899	698.961
613.57	885.777
618.239	1082.68
622.905	1615.31
627.569	2046.66
632.23	2658.75
636.889	2818.58
641.545	2702.16
646.198	3050.49
650.849	2998.59
655.498	3131.45
660.144	2869.09
664.787	2395.51
669.428	1610.73
674.067	1004.74
678.703	453.547
683.336	70.1387
687.967	128.906
692.595	252.773
697.221	338.836
701.844	378.147
706.465	328.121
711.083	138.185
715.698	330.981
720.311	831.18
724.922	1891.34
729.53	2896.47
734.135	3755.59
738.738	4683.96
743.338	4788.32
747.936	4542.82
752.531	4538.93
757.124	4209.23
761.714	3987.16
766.302	3407.07
770.887	3268.08
775.469	3418.03
780.049	3931.55
784.626	3687.63
789.201	4364.69
793.773	4920.69
798.343	5449.46
802.91	6326.96
807.475	7351.87
812.037	8044.13
816.596	7762.74
821.153	7062.45
825.707	6497.6
830.259	6622.2
834.808	7090.9
839.355	7358.26
843.899	7461.22
848.441	8172.79
852.98	9017.85
857.516	10081.3
862.05	11477.7
866.581	12937
871.11	14074.1
875.636	13610.3
880.159	11463.3
884.68	8486.3
889.199	5923.19
893.714	4229.55
898.228	3496.09
902.738	3305.65
907.246	2937.73
911.752	3090.48
916.255	2945.39
920.755	3290.74
925.253	3422.44
929.748	3149.5
934.241	2862.59
938.731	2583.54
943.218	2337.61
947.703	2435.57
952.186	2667.35
956.665	2913.25
961.142	2868.61
965.617	3061.94
970.089	3091.59
974.558	2938.05
979.025	2600.39
983.489	2949.57
987.951	2639.46
992.41	2192.48
996.866	1414.78
1001.32	897.771
1005.77	1310.03
1010.22	1749.88
1014.67	1055.72
1019.11	646.756
1023.55	228.228
1027.99	213.147
1032.42	196.498
1036.86	251.426
1041.29	93.0254
1045.72	38.7324
1050.14	24.4551
1054.56	29.334
1058.98	44.043
1063.4	85.1523
1067.82	16.8711
1072.23	144.715
1076.64	157.365
1081.05	158.195
1085.45	160.607
1089.85	241.828
1094.25	472.066
1098.65	96.5176
1103.04	426.59
1107.43	483.762
1111.82	399.707
1116.21	589.252
1120.59	865.768
1124.97	777.356
1129.35	479.978
1133.73	402.838
1138.1	268.856
1142.47	407.959
1146.84	338.217
1151.21	449.272
1155.57	120.6
1159.93	595.725
1164.29	389.56
1168.64	338.158
1172.99	329.856
1177.34	483.748
1181.69	377.121
1186.04	276.129
1190.38	419.863
1194.72	270.139
1199.05	222.356
1203.39	292.957
1207.72	249.223
1212.05	210.828
1216.37	217.137
1220.7	211.209
1225.02	54.9922
1229.34	161.035
1233.65	274.172
1237.97	152.275
1242.28	137.785
1246.59	24.4395
1250.89	96.2481
1255.19	15.2969
1259.49	129.438
1263.79	2.38086
1268.09	65.4023
1272.38	132.615
1276.67	49.4844
1280.95	125.197
1285.24	378.029
1289.52	179.982
1293.8	125.738
1298.08	4.19727
1302.35	221.955
1306.62	0.988281
1310.89	91.8731
1315.15	230.268
1319.42	2.81445
1323.68	124.137
1327.94	165.678
1332.19	241.938
1336.44	57.1582
1340.69	56.2578
1344.94	7.97461
1349.19	6.91016
1353.43	261.815
1357.67	298.816
1361.9	158.488
1366.14	86.666
1370.37	316.473
1374.6	2.26172
1378.83	277.244
1383.05	329.752
1387.27	355.322
1391.49	79.0176
1395.7	293.279
1399.92	306.977
1404.13	152.912
1408.34	339.381
1412.54	101.035
1416.74	92.9844
1420.94	263.24
1425.14	126.266
1429.34	345
1433.53	277.815
1437.72	153.264
1441.9	434.566
1446.09	581.309
1450.27	469.305
1454.45	491.34
1458.63	765.264
1462.8	758.164
1466.97	812.18
1471.14	726.887
1475.31	1195.65
1479.47	903.635
1483.63	923.994
1487.79	933.658
1491.94	720.039
1496.09	914.699
1500.24	974.42
1504.39	648.184
1508.54	686.637
1512.68	702.955
1516.82	548.238
1520.95	385.522
1525.09	359.656
1529.22	252.695
1533.35	335.748
1537.47	169.973
1541.6	307.777
1545.72	9.41797
1549.83	179.725
1553.95	261.908
1558.06	400.596
1562.17	14.0391
1566.28	279.906
1570.38	0
