Measurement: Raman, 514 nm, ccw, Raman Data Processed
Mineral: Andradite
Rruff sample: R040001
Ideal chemistry: Ca_3_Fe^3+^_2_(SiO_4_)_3_
Locality: Stanley Butte, Graham County, Arizona, USA
Source: University of Arizona Mineral Museum
Description: Brownish-orange dodecahedra
Measured chemistry: Ca_3.00_(Fe_1.96_Al_0.04_)_Î£=2_(SiO_4_)_3_ ; trace amounts of Mn
Pin_id: M00033
Orientation: Laser parallel to c* (0 0 1). Fiducial mark perpendicular to laser is parallel to a [1 0 0]
Raman shift (cm-1)	intensity
96.98	0
101.941	1.98157
106.9	47.3389
111.855	104.265
116.808	305.245
121.758	136.902
126.705	10.0297
131.649	66.4604
136.591	36.9209
141.529	59.8519
146.465	77.853
151.398	32.4781
156.328	92.3066
161.256	113.197
166.18	277.197
171.102	1377.88
176.021	1743.47
180.937	440.912
185.85	257.351
190.76	160.926
195.668	138.807
200.572	116.969
205.474	86.3817
210.374	10.032
215.27	18.4354
220.163	9.86267
225.054	51.0527
229.942	96.4094
234.827	408.975
239.709	238.788
244.589	44.2148
249.465	30.1946
254.339	26.149
259.21	54.0591
264.079	51.0767
268.944	43.3458
273.807	35.7257
278.667	37.2019
283.524	39.4851
288.378	275.386
293.23	746.03
298.079	895.847
302.925	455.602
307.768	448.45
312.609	833.432
317.446	681.56
322.281	878.447
327.113	1280.9
331.943	1622.52
336.769	2586.35
341.593	5136.46
346.414	12222.8
351.233	26003.3
356.048	19749.2
360.861	14952
365.671	28028.2
370.478	43028.8
375.283	24681.6
380.084	10222.8
384.883	5580.19
389.68	2609.85
394.473	1524.74
399.264	1070.2
404.052	760.328
408.837	529.352
413.62	364.569
418.4	211.918
423.177	141.597
427.951	93.4917
432.722	16.6003
437.491	12.0758
442.257	27.4578
447.021	133.206
451.781	158.169
456.539	110.344
461.294	132.73
466.047	165.327
470.797	255.151
475.544	310.234
480.288	546.041
485.03	1024.74
489.768	2880.9
494.504	3448.79
499.238	1956.77
503.969	2233.62
508.697	4930.08
513.422	15405.5
518.144	16265.7
522.864	6276.77
527.582	2733.45
532.296	1603.36
537.008	1102.32
541.717	901.754
546.423	876.127
551.127	813.765
555.828	748.83
560.526	613.586
565.222	603.416
569.915	852.314
574.605	1735.28
579.292	1656.19
583.977	773.256
588.659	426.368
593.339	337.518
598.016	230.702
602.69	190.913
607.361	133.176
612.03	144.19
616.696	35.532
621.359	42.0897
626.02	36.0785
630.678	8.48047
635.333	29.3511
639.986	19.7719
644.636	26.1523
649.284	67.8558
653.928	54.4398
658.57	23.1081
663.21	11.8036
667.846	10.6305
672.481	23.627
677.112	14.8962
681.741	26.5449
686.367	20.7329
690.99	29.6743
695.611	56.3391
700.229	102.887
704.845	114.349
709.458	169.725
714.068	233.012
718.676	240.21
723.281	235.319
727.883	281.338
732.483	201.264
737.08	111.098
741.674	31.8406
746.266	53.4883
750.855	20.0415
755.442	3.53198
760.025	73.1821
764.607	22.2523
769.185	33.1622
773.761	94.8059
778.335	17.6104
782.906	42.2727
787.474	94.2007
792.039	175.383
796.602	363.989
801.162	529.353
805.72	846.536
810.275	1372.68
814.828	2287.32
819.378	2181.79
823.925	1574.08
828.47	1752.3
833.012	2054.15
837.551	2658.37
842.088	3471.59
846.622	3338.8
851.154	3578.01
855.683	4485.22
860.209	6732.43
864.733	11187.6
869.254	22206.9
873.773	42315.1
878.289	33092.4
882.803	12841.5
887.314	5677.06
891.822	2997.24
896.328	1774.79
900.831	1186.22
905.332	887.622
909.83	672.488
914.325	498.616
918.818	377.9
923.308	400.683
927.796	311.163
932.281	280.106
936.764	278.122
941.244	214.223
945.721	193.433
950.196	216.793
954.668	260.299
959.138	139.952
963.605	177.718
968.07	222.625
972.532	229.577
976.991	210.578
981.448	183.631
985.903	214.786
990.355	365.031
994.804	570.334
999.251	378.699
1003.7	79.1864
1008.14	23.7351
1012.58	27.3279
1017.01	2.02185
1021.45	6.70203
1025.88	0.569214
1030.31	16.1836
1034.73	5.02454
1039.16	11.0627
1043.58	25.7605
1048	28.4562
1052.41	3.75452
1056.83	10.1392
1061.24	49.3926
1065.65	57.9448
1070.05	80.5253
1074.46	52.1316
1078.86	195.753
1083.26	194.386
1087.65	189.028
1092.05	213.675
1096.44	271.332
1100.83	241.981
1105.21	223.626
1109.6	258.534
1113.98	219.28
1118.36	189.112
1122.73	150.011
1127.1	67.6509
1131.47	114.951
1135.84	69.9761
1140.21	59.8627
1144.57	132.388
1148.93	106.679
1153.29	149.018
1157.65	57.5973
1162	123.753
1166.35	197.035
1170.7	154.833
1175.05	214.223
1179.39	201.255
1183.73	201.182
1188.07	192.945
1192.41	219.083
1196.74	157.184
1201.07	171.171
1205.4	162.199
1209.72	140.195
1214.05	136.159
1218.37	124.09
1222.69	57.9878
1227.01	106.852
1231.32	29.6813
1235.63	34.4769
1239.94	34.2306
1244.24	8.08227
1248.55	14.4503
1252.85	21.8737
1257.15	7.75134
1261.44	51.5151
1265.74	0.374023
1270.03	10.6785
1274.32	85.6995
1278.61	30.6029
1282.89	8.4137
1287.17	61.2296
1291.45	15.0453
1295.73	12.8481
1300	51.656
1304.27	34.5126
1308.54	58.3721
1312.81	26.2653
1317.08	4.21899
1321.34	75.1882
1325.6	45.1432
1329.85	34.0588
1334.11	100.945
1338.36	53.8096
1342.61	96.6519
1346.86	42.4727
1351.1	109.273
1355.35	91.0486
1359.59	78.8178
1363.82	131.577
1368.06	142.065
1372.29	87.8132
1376.52	158.278
1380.75	150.766
1384.97	123.645
1389.2	158.928
1393.42	145.899
1397.64	125.692
1401.85	150.542
1406.07	146.655
1410.28	159.531
1414.49	91.4105
1418.69	99.4214
1422.9	152.433
1427.1	123.533
1431.3	63.7197
1435.49	113.388
1439.69	113.723
1443.88	69.0745
1448.07	146.303
1452.26	100.501
1456.44	134.553
1460.62	59.2731
1464.8	121.025
1468.98	49.7384
1473.15	109.441
1477.33	84.2184
1481.5	71.192
1485.66	50.3356
1489.83	16.6514
1493.99	102.185
1498.15	3.11035
1502.31	100.655
1506.47	20.5155
1510.62	78.4216
1514.77	33.3774
1518.92	77.4672
1523.07	87.7473
1527.21	76.2566
1531.35	108.033
1535.49	60.0807
1539.63	93.3019
1543.76	19.9169
1547.9	45.4165
1552.03	88.6815
1556.15	20.5392
1560.28	63.8525
1564.4	12.2535
1568.52	25.352
1572.64	66.582
1576.75	35.1841
