Measurement: Raman, 514 nm, depolarized, Raman Data Processed
Mineral: Andradite
Rruff sample: R050311
Ideal chemistry: Ca_3_Fe^3+^_2_(SiO_4_)_3_
Locality: Calaveras County, California, USA
Source: Eugene Schlepp
Description: Deep red crystals
Measured chemistry: (Ca_2.88_Mn_0.07_Fe^2+^_0.05_)_Σ=3_(Fe^3+^_1.39_Al_0.59_Ti_0.02_)_Σ=2_((Si_0.99_Al_0.01_)_Σ=1_O_4_)_3_
Pin_id: M00304
Orientation: Laser parallel to c* (0 0 1). Fiducial mark perpendicular to laser is parallel to a [1 0 0]
Raman shift (cm-1)	intensity
123.058	0
127.979	62.9868
132.898	194.956
137.814	230.655
142.728	119.34
147.639	8.09033
152.549	284.523
157.455	1.56348
162.359	265.276
167.261	1015.93
172.161	1349.94
177.058	1687.53
181.952	928.423
186.845	444.436
191.734	383.461
196.622	425.404
201.507	535.569
206.389	90.3315
211.269	26.02
216.147	162.929
221.022	654.375
225.895	1507.45
230.765	2840.21
235.633	3375.69
240.498	3373.88
245.361	1448.78
250.222	311.426
255.08	176.852
259.936	854.292
264.789	648.06
269.64	981.554
274.488	778.144
279.334	454.735
284.178	149.326
289.019	195.912
293.857	367.344
298.693	537.279
303.527	1032.96
308.358	1940.77
313.187	3065.14
318.013	3585.43
322.837	3105.19
327.659	2624.35
332.478	2923.88
337.294	3109.74
342.108	4176.87
346.92	7145.25
351.729	11503.9
356.535	18004.1
361.34	29165.2
366.141	40375.4
370.94	48035.9
375.737	35648.7
380.531	16653.8
385.323	7900
390.113	4234.48
394.9	2378.23
399.684	1174.37
404.466	518.144
409.245	191.553
414.022	102.507
418.797	98.9678
423.569	73.2168
428.338	56.7676
433.105	321.849
437.87	456.798
442.632	457.523
447.391	720.444
452.149	811.346
456.903	554.152
461.655	371.817
466.405	176.31
471.152	285.592
475.897	767.632
480.639	1340.4
485.378	2151.85
490.116	2756.96
494.85	2936.7
499.582	2474.04
504.312	2242.02
509.039	2775.8
513.764	5333.75
518.486	10792.5
523.206	15494.1
527.923	15336.1
532.638	7649.65
537.35	3140.1
542.059	1790.12
546.766	1644.92
551.471	1637.19
556.173	1705.36
560.873	1543.05
565.57	970.221
570.264	792.529
574.957	645.123
579.646	825.345
584.333	852.778
589.018	1012.76
593.7	1157.09
598.379	1314.55
603.056	1375.81
607.73	1402.28
612.402	1229.49
617.072	887.243
621.739	617.5
626.403	309.243
631.065	202.448
635.724	141.096
640.381	45.168
645.035	55.6362
649.687	5.55078
654.336	60.6016
658.983	74.7417
663.627	24.3696
668.268	28.5454
672.907	34.2612
677.544	118.305
682.178	67.9224
686.809	40.5747
691.438	90.2129
696.065	217.812
700.688	3.32129
705.31	1.91064
709.929	53.8066
714.545	72.4956
719.158	38.1621
723.77	98.854
728.378	150.608
732.984	243.606
737.588	337.09
742.189	363.574
746.787	337.579
751.383	381.944
755.976	613.688
760.567	646.821
765.155	696.363
769.741	765.39
774.324	707.956
778.904	748.03
783.482	804.523
788.058	1315.83
792.631	1706.73
797.201	2677.95
801.769	4421.7
806.334	6567.59
810.897	9580.29
815.457	12503.5
820.014	13896.8
824.569	11736.5
829.122	8687.1
833.671	7474.93
838.219	7761.62
842.763	8863.88
847.306	9150.79
851.845	7925.74
856.382	6871.93
860.917	7027.85
865.448	8418.22
869.978	11361.7
874.505	15528.7
879.029	16792.9
883.55	12536.3
888.069	7234.97
892.586	4313.88
897.1	2616.14
901.611	1764.71
906.12	1357.91
910.626	1127.33
915.129	995.411
919.63	1006.32
924.129	1010.28
928.625	1378.54
933.118	1770.54
937.609	1767.52
942.097	1582.28
946.582	994.725
951.065	819.325
955.546	868.581
960.023	1111.85
964.499	1203.1
968.971	1699.39
973.441	1938.6
977.909	2382.56
982.374	2288.23
986.836	2642.49
991.295	2713.3
995.753	3059.68
1000.21	3045.59
1004.66	1944.91
1009.11	889.672
1013.55	664.632
1018	527.602
1022.44	605.22
1026.88	98.5996
1031.32	104.106
1035.75	5.66894
1040.18	36.6592
1044.61	22.8955
1049.04	21.5488
1053.46	28.543
1057.88	38.3516
1062.3	106.85
1066.71	93.9932
1071.13	53.793
1075.54	35.376
1079.94	59.6592
1084.35	39.0244
1088.75	168.539
1093.15	91.2051
1097.55	248.059
1101.94	281.891
1106.34	355.875
1110.73	209.289
1115.11	354.519
1119.5	705.644
1123.88	881.935
1128.26	366.37
1132.63	179.09
1137.01	98.2842
1141.38	97.5293
1145.75	8.08887
1150.12	153.864
1154.48	102.443
1158.84	27.3633
1163.2	105.453
1167.55	49.4141
1171.91	171.752
1176.26	50.585
1180.61	201.106
1184.95	286.862
1189.29	185.12
1193.63	173.107
1197.97	110.758
1202.31	195.69
1206.64	264.158
1210.97	163.26
1215.29	208.068
1219.62	238.484
1223.94	190.317
1228.26	184.694
1232.57	206.31
1236.89	24.2871
1241.2	154.02
1245.51	83.7275
1249.81	22.9521
1254.12	2.10254
1258.42	24.4619
1262.72	48.6934
1267.01	25.5879
1271.3	122.918
1275.59	44.7949
1279.88	123.408
1284.17	182.055
1288.45	0.020508
1292.73	163.893
1297.01	87.7568
1301.28	49.2969
1305.55	77.5635
1309.82	67.6289
1314.09	97.6055
1318.35	89.8359
1322.61	98.1299
1326.87	80.4307
1331.13	80.6299
1335.38	157.848
1339.63	60.1602
1343.88	197.539
1348.12	141.342
1352.37	144.003
1356.61	114.371
1360.85	156.47
1365.08	151.312
1369.31	133.27
1373.54	148.758
1377.77	111.056
1381.99	164.586
1386.22	225.4
1390.43	166.27
1394.65	132.606
1398.87	268.481
1403.08	170.244
1407.29	140.868
1411.49	182.094
1415.69	206.676
1419.89	198.952
1424.09	231.816
1428.29	59.416
1432.48	156.106
1436.67	129.699
1440.86	126.8
1445.04	155.899
1449.23	178.872
1453.4	139.176
1457.58	204.949
1461.76	16.9688
1465.93	1.94629
1470.1	95.3379
1474.26	94.6728
1478.43	154.179
1482.59	11.7803
1486.75	39.7891
1490.9	83.3633
1495.06	138.007
1499.21	94.4424
1503.35	101.6
1507.5	163.102
1511.64	185.677
1515.78	137.442
1519.92	189.911
1524.05	280.013
1528.18	146.269
1532.31	149.926
1536.44	142.279
1540.56	32.3076
1544.69	176.721
1548.8	0.269531
1552.92	242.347
1557.03	189.345
1561.14	208.92
1565.25	52.8926
1569.36	134.832
