Measurement: Raman, 514 nm, depolarized, Raman Data Processed
Mineral: Andradite
Rruff sample: R040001
Ideal chemistry: Ca_3_Fe^3+^_2_(SiO_4_)_3_
Locality: Stanley Butte, Graham County, Arizona, USA
Source: University of Arizona Mineral Museum
Description: Brownish-orange dodecahedra
Measured chemistry: Ca_3.00_(Fe_1.96_Al_0.04_)_Î£=2_(SiO_4_)_3_ ; trace amounts of Mn
Pin_id: M00033
Orientation: Laser parallel to c* (0 0 1). Fiducial mark perpendicular to laser is parallel to a [1 0 0]
Raman shift (cm-1)	intensity
96.98	0
101.941	20.1262
106.9	48.8547
111.855	103.282
116.808	227.138
121.758	65.9985
126.705	73.8503
131.649	35.074
136.591	30.9319
141.529	74.0867
146.465	35.8245
151.398	18.998
156.328	94.6475
161.256	178.495
166.18	397.31
171.102	2090.06
176.021	1848.83
180.937	441.913
185.85	234.22
190.76	208.863
195.668	147.811
200.572	85.844
205.474	13.7065
210.374	38.3198
215.27	33.469
220.163	78.4951
225.054	321.752
229.942	810.954
234.827	1877.27
239.709	1261.89
244.589	303.978
249.465	19.6892
254.339	17.2459
259.21	10.0938
264.079	356.647
268.944	138.377
273.807	7.25171
278.667	15.8223
283.524	21.7669
288.378	126.236
293.23	561.226
298.079	736.314
302.925	523.144
307.768	1262.96
312.609	2548.99
317.446	1261.21
322.281	1242.57
327.113	1596.94
331.943	1505.55
336.769	2254.22
341.593	4321.9
346.414	10418.9
351.233	21051.8
356.048	15893
360.861	15154.6
365.671	31835.6
370.478	47814
375.283	26123.7
380.084	10626.7
384.883	5435
389.68	2732.6
394.473	1608.56
399.264	1009.46
404.052	682.018
408.837	472.168
413.62	312.688
418.4	221.455
423.177	119.674
427.951	66.0571
432.722	6.23901
437.491	6.92065
442.257	96.8445
447.021	298.012
451.781	612.428
456.539	272.089
461.294	175.992
466.047	220.133
470.797	227.514
475.544	299.188
480.288	580.6
485.03	1183.4
489.768	3515.64
494.504	3661.53
499.238	2295.78
503.969	2491.36
508.697	5795.63
513.422	17972.9
518.144	17565.1
522.864	6590.4
527.582	2775.43
532.296	1760.31
537.008	1215.76
541.717	1007.76
546.423	1071.65
551.127	1331.15
555.828	1130.24
560.526	727.704
565.222	530.008
569.915	787.946
574.605	1476.84
579.292	1288.82
583.977	599.85
588.659	353.915
593.339	270.012
598.016	199.135
602.69	148.277
607.361	66.4626
612.03	95.6501
616.696	10.8874
621.359	7.23731
626.02	23.6265
630.678	59.8394
635.333	75.9973
639.986	61.6072
644.636	17.8396
649.284	15.4023
653.928	29.9087
658.57	66.9595
663.21	10.7293
667.846	58.2034
672.481	11.9004
677.112	74.6768
681.741	91.6777
686.367	3.88525
690.99	27.0474
695.611	45.9292
700.229	104.697
704.845	109.362
709.458	253.921
714.068	63.3921
718.676	150.76
723.281	221.018
727.883	295.167
732.483	165.207
737.08	65.1367
741.674	100.958
746.266	105.685
750.855	1.62353
755.442	34.1621
760.025	36.4048
764.607	68.9702
769.185	76.1631
773.761	39.5205
778.335	43.9473
782.906	98.9853
787.474	219.154
792.039	411.799
796.602	538.268
801.162	909.336
805.72	1583.47
810.275	3142.3
814.828	5479.56
819.378	4382.63
823.925	2745.04
828.47	2538.6
833.012	3118.07
837.551	4654.18
842.088	6256.19
846.622	5211.3
851.154	4198.43
855.683	4517.56
860.209	6134.7
864.733	9836.86
869.254	19148
873.773	35988.3
878.289	26069.3
882.803	10230.2
887.314	4360.38
891.822	2408.84
896.328	1334.63
900.831	1056.5
905.332	776.531
909.83	579.542
914.325	438.59
918.818	356.931
923.308	359.501
927.796	338.535
932.281	258.984
936.764	247.186
941.244	241.526
945.721	143.026
950.196	237.693
954.668	137.596
959.138	244.723
963.605	250.088
968.07	239.576
972.532	305.137
976.991	259.771
981.448	301.493
985.903	449.382
990.355	798.375
994.804	1407.44
999.251	702.57
1003.7	286.826
1008.14	85.2031
1012.58	48.6401
1017.01	39.8901
1021.45	74.5312
1025.88	50.9087
1030.31	22.7002
1034.73	71.4731
1039.16	4.48682
1043.58	38.4316
1048	13.5137
1052.41	59.8154
1056.83	13.7007
1061.24	21.7612
1065.65	115.618
1070.05	126.375
1074.46	161.025
1078.86	169.718
1083.26	283.453
1087.65	207.227
1092.05	221.029
1096.44	234.857
1100.83	304.707
1105.21	239.576
1109.6	343.464
1113.98	197.459
1118.36	243.334
1122.73	186.254
1127.1	161.177
1131.47	190.102
1135.84	140.21
1140.21	121.077
1144.57	133.184
1148.93	236.022
1153.29	102.171
1157.65	128.108
1162	111.481
1166.35	264.975
1170.7	191.686
1175.05	302.955
1179.39	271.84
1183.73	247.323
1188.07	198.083
1192.41	183.557
1196.74	255.986
1201.07	185.319
1205.4	144.434
1209.72	208.139
1214.05	165.2
1218.37	85.519
1222.69	96.5347
1227.01	171.178
1231.32	77.8047
1235.63	62.4131
1239.94	33.0039
1244.24	70.4805
1248.55	52.7978
1252.85	62.044
1257.15	15.2744
1261.44	31.4873
1265.74	49.5269
1270.03	106.498
1274.32	70.4648
1278.61	2.41699
1282.89	101.034
1287.17	56.3408
1291.45	54.3726
1295.73	40.6685
1300	63.0234
1304.27	5.27246
1308.54	12.4819
1312.81	57.3418
1317.08	26.2764
1321.34	93.2471
1325.6	51.2305
1329.85	104.185
1334.11	103.13
1338.36	76.0562
1342.61	28.9648
1346.86	146.861
1351.1	69.7471
1355.35	158.648
1359.59	149.076
1363.82	139.4
1368.06	161.279
1372.29	117.806
1376.52	290.006
1380.75	150.016
1384.97	156.958
1389.2	184.932
1393.42	136.807
1397.64	251.92
1401.85	156.012
1406.07	177.341
1410.28	100.54
1414.49	101.804
1418.69	223.141
1422.9	96.0483
1427.1	96.5596
1431.3	136.651
1435.49	202.938
1439.69	177.018
1443.88	218.379
1448.07	224.667
1452.26	149.82
1456.44	98.3369
1460.62	174
1464.8	170.027
1468.98	134.044
1473.15	164.05
1477.33	86.2065
1481.5	111.561
1485.66	70.9951
1489.83	41.6582
1493.99	99.6123
1498.15	110.241
1502.31	47.3872
1506.47	50.9145
1510.62	55.7441
1514.77	49.5991
1518.92	6.39502
1523.07	123.876
1527.21	173.466
1531.35	128.363
1535.49	114.717
1539.63	82.543
1543.76	192.56
1547.9	50.8135
1552.03	127.74
1556.15	75.207
1560.28	63.7998
1564.4	5.02441
1568.52	33.5903
1572.64	1.83398
1576.75	85.4438
