Measurement: Raman, 514 nm, depolarized, Raman Data Processed
Mineral: Andradite
Rruff sample: R060449
Ideal chemistry: Ca_3_Fe^3+^_2_(SiO_4_)_3_
Locality: Namibia
Source: Gemological Institute of America
Description: Blue fragment, variety demantoid
Measured chemistry: Ca_3.00_(Fe^3+^_1.93_Al_0.07_)_Î£=2_(Si_1.00_O_4_)_3__
Pin_id: L01084
Orientation: Laser parallel to a* (1 0 0). Fiducial mark perpendicular to laser is parallel to c [0 0 1]
Raman shift (cm-1)	intensity
51.431	0
56.387	14.5012
61.341	19.0447
66.292	1.60846
71.241	47.467
76.187	64.2719
81.131	57.8349
86.072	101.528
91.012	100.345
95.948	127.121
100.883	91.8796
105.815	128.054
110.744	148.897
115.671	109.015
120.596	89.4229
125.519	93.8795
130.439	94.2852
135.356	126.879
140.271	116.001
145.184	103.306
150.094	80.8024
155.002	74.0356
159.908	218.795
164.811	1269.82
169.711	2588.12
174.61	4096.34
179.505	1328.79
184.399	214.487
189.29	72.4142
194.178	28.5888
199.064	11.4377
203.948	0.121521
208.829	28.5384
213.708	19.754
218.585	95.3298
223.459	620.146
228.33	2686.16
233.199	4963.35
238.066	6085.7
242.93	1024.17
247.792	51.7425
252.651	5.56488
257.508	290.235
262.363	880.158
267.215	977.223
272.064	51.4421
276.912	79.3697
281.756	39.7002
286.598	65.2322
291.438	295.171
296.276	626.349
301.111	1110.72
305.943	2725.34
310.773	5482.12
315.601	4530.8
320.426	2231.7
325.248	2733.88
330.068	1475.33
334.886	1241.06
339.701	2650.1
344.514	7557.16
349.324	14796.3
354.132	18042.8
358.938	16664.1
363.741	35851.7
368.541	60445.7
373.339	52274.1
378.135	19375.7
382.928	7638.65
387.718	3506.03
392.506	1867.73
397.292	1190.99
402.075	811.386
406.856	526.135
411.634	341.305
416.41	201.875
421.183	125.659
425.954	29.9795
430.722	26.3554
435.488	42.2105
440.251	195.378
445.012	657.84
449.77	1429.66
454.526	1300.79
459.28	322.231
464.03	57.9911
468.779	28.0491
473.525	128.4
478.268	422.041
483.009	1123.82
487.747	2909.1
492.483	4909.16
497.217	3846.52
501.948	2985.59
506.676	7267.12
511.402	17555.8
516.125	24716.2
520.846	12378.5
525.565	4277.2
530.281	2133.68
534.994	1513.05
539.705	1225.16
544.413	1367.54
549.119	1816.69
553.822	2057.96
558.523	1116.32
563.222	627.957
567.917	699.251
572.611	1008.53
577.302	1134.12
581.99	531.103
586.676	311.348
591.359	283.475
596.04	164.162
600.718	126.989
605.394	128.016
610.067	30.062
614.737	44.1519
619.406	16.637
624.071	27.1329
628.734	8.13086
633.395	10.0901
638.053	4.5968
642.708	12.8215
647.361	9.32752
652.012	5.08557
656.66	5.46387
661.305	21.2338
665.948	3.80994
670.588	3.65369
675.226	6.62549
679.861	10.0797
684.494	6.68457
689.124	23.4755
693.752	26.6067
698.377	9.97009
702.999	3.45831
707.619	31.9336
712.237	33.2524
716.852	24.4949
721.464	52.6517
726.074	15.7093
730.681	20.657
735.286	47.4789
739.888	29.1993
744.488	39.813
749.085	29.3454
753.68	47.0096
758.272	6.52618
762.861	32.7938
767.448	59.6069
772.033	89.4813
776.614	137.671
781.194	165.142
785.77	313.59
790.345	585.751
794.916	919.654
799.485	1521.3
804.052	2744.67
808.616	6292.97
813.177	11861
817.736	12539.8
822.292	6698.88
826.846	4408.18
831.397	5277.32
835.945	9094.68
840.491	14357.4
845.035	12521.3
849.576	6750.3
854.114	4343.3
858.65	4321.11
863.183	6587.57
867.713	15334.5
872.241	29564.9
876.767	24817.3
881.29	8119.52
885.81	2933.82
890.328	1481.18
894.843	891.524
899.356	586.198
903.866	462.849
908.373	396.066
912.878	341.394
917.38	217.899
921.88	152.762
926.377	118.869
930.872	87.1146
935.364	36.4503
939.853	33.9653
944.34	68.5951
948.824	76.3264
953.306	69.1786
957.785	56.1365
962.261	129.23
966.735	138.533
971.207	194.954
975.675	271.602
980.141	339.05
984.605	548.748
989.066	1319.55
993.524	2838.47
997.98	2564.49
1002.43	909.633
1006.88	394.879
1011.33	171.255
1015.78	165.724
1020.22	86.2675
1024.66	60.8649
1029.1	48.516
1033.53	35.2421
1037.97	12.9378
1042.4	25.1298
1046.82	34.4723
1051.25	25.0499
1055.67	21.8669
1060.09	21.1665
1064.51	40.2147
1068.92	67.2848
1073.33	109.372
1077.74	186.472
1082.15	233.583
1086.55	270.701
1090.95	292.824
1095.35	362.947
1099.75	392.068
1104.14	389.213
1108.53	362.362
1112.92	340.303
1117.31	249.261
1121.69	225.189
1126.07	157.077
1130.45	140.357
1134.82	105.623
1139.19	95.5876
1143.57	93.311
1147.93	134.457
1152.3	110.68
1156.66	189.426
1161.02	202.192
1165.38	213.804
1169.73	235.766
1174.08	283.577
1178.43	279.742
1182.78	315.484
1187.12	286.014
1191.46	234.667
1195.8	224.004
1200.14	233.468
1204.47	190.174
1208.8	223.435
1213.13	172.484
1217.46	121.485
1221.78	117.436
1226.1	58.3366
1230.42	39.1862
1234.73	41.9833
1239.04	10.7279
1243.35	26.5918
1247.66	4.08936
1251.97	14.7124
1256.27	3.49255
1260.57	12.5711
1264.86	5.8667
1269.16	15.6382
1273.45	6.97821
1277.74	21.5633
1282.03	17.0254
1286.31	22.4352
1290.59	56.7983
1294.87	26.1186
1299.14	10.4021
1303.42	38.6839
1307.69	14.0333
1311.95	30.4804
1316.22	26.0325
1320.48	50.6125
1324.74	49.154
1329	23.653
1333.26	48.1111
1337.51	46.5283
1341.76	67.9045
1346	74.2399
1350.25	129.536
1354.49	111.798
1358.73	119.031
1362.96	153.208
1367.2	143.288
1371.43	154.614
1375.66	92.788
1379.88	120.924
1384.11	100.326
1388.33	133.323
1392.54	109.775
1396.76	124.009
1400.97	132.147
1405.18	134.495
1409.39	110.239
1413.59	130.473
1417.8	90.6471
1421.99	51.0026
1426.19	77.5246
1430.38	40.9171
1434.58	50.3276
1438.77	78.9534
1442.95	57.5785
1447.13	55.0577
1451.32	47.9248
1455.49	24.8456
1459.67	62.7179
1463.84	30.5431
1468.01	29.3219
1472.18	39.0776
1476.35	35.0167
1480.51	50.1865
1484.67	45.556
1488.83	63.2082
1492.98	56.9869
1497.13	79.8123
1501.28	110.668
1505.43	33.9001
1509.57	72.4542
1513.71	28.4379
1517.85	64.5712
1521.99	23.9082
1526.12	55.4866
1530.25	74.29
1534.38	57.294
1538.5	17.5375
1542.62	20.106
1546.74	42.0963
1550.86	1.5874
1554.98	33.7136
1559.09	1.28326
1563.2	20.4406
1567.31	5.18292
