Measurement: Raman, 514 nm, depolarized, Raman Data Processed
Mineral: Andradite
Rruff sample: R060350
Ideal chemistry: Ca_3_Fe^3+^_2_(SiO_4_)_3_
Locality: south of the Gem mine, southern San Benito County, California, USA
Source: Michael Scott
Description: Cluster of black vitreous crystals showing well-developed faces
Measured chemistry: (Ca_2.93_Mg_0.07_)_Σ=3_(Fe^3+^_1.18_Ti_0.77_Al_0.05_)_Σ=2_((Si_0.74_Fe^3+^_0.26_)_Σ=1_O_4_)_3_ ; trace amounts of Mn
Pin_id: M00067
Orientation: Laser parallel to a* (1 0 0). Fiducial mark perpendicular to laser is parallel to c [0 0 1]
Raman shift (cm-1)	intensity
114.44	0
119.365	2.77344
124.288	606.17
129.209	509.764
134.127	901.896
139.043	2859.56
143.956	3239.69
148.867	1354.52
153.775	1167.39
158.681	1289.19
163.585	3288.83
168.486	3838.03
173.385	2732.03
178.282	2109.78
183.176	1975.86
188.067	2589.52
192.956	3255.38
197.843	3007.84
202.727	3428.76
207.609	133
212.489	192.065
217.366	431.631
222.24	677.508
227.112	799.217
231.982	776.951
236.849	758.713
241.714	1016.41
246.577	1010.03
251.437	940.514
256.294	1515.88
261.149	1693
266.002	948.791
270.852	543.857
275.7	92.4648
280.545	85.6621
285.388	583.201
290.229	1255.18
295.067	2366.95
299.902	3615.02
304.735	5549.96
309.566	7192.26
314.394	8796.27
319.22	10613.2
324.043	12983.6
328.864	16721.7
333.682	20936
338.498	24326.2
343.311	27098.4
348.122	31778.1
352.931	35192.5
357.737	34787.1
362.54	30781.8
367.341	25472.3
372.14	19859
376.936	14891
381.73	11107.5
386.521	7374.81
391.31	4761.35
396.096	3039.13
400.88	1947.91
405.661	1466.34
410.44	1087.49
415.216	1196.62
419.99	1092.06
424.761	1471.58
429.53	1752.98
434.297	2380.07
439.061	2435.69
443.822	1512.67
448.581	140.867
453.337	407.993
458.091	323.706
462.843	187.783
467.592	1170.85
472.338	2144.09
477.082	3384.61
481.824	4906.1
486.563	5721.9
491.3	5857.67
496.034	7634.77
500.765	11826.4
505.494	15343.2
510.221	15624.7
514.945	13676.4
519.666	11590.8
524.385	10420.2
529.102	9629.16
533.816	9153.44
538.527	9039.29
543.236	8278.82
547.943	7385.81
552.647	5482.23
557.348	3444.69
562.047	1679.31
566.744	1105
571.438	1322.69
576.129	2207.29
580.818	2386.72
585.504	2346.92
590.188	2018.81
594.87	1651.87
599.549	1331.66
604.225	738.389
608.899	333.545
613.57	18.749
618.239	242.618
622.905	177.279
627.569	118.865
632.23	5.43848
636.889	326.659
641.545	271.892
646.198	223.352
650.849	3.77637
655.498	41.8418
660.144	58.9121
664.787	268.098
669.428	382.42
674.067	273.901
678.703	406.371
683.336	420.781
687.967	15.748
692.595	131.357
697.221	470.353
701.844	964.293
706.465	1220.25
711.083	1493.31
715.698	1733.53
720.311	2117
724.922	2715.81
729.53	3367.78
734.135	4303.9
738.738	5436.77
743.338	6787.53
747.936	8269.08
752.531	9193.36
757.124	9379.25
761.714	9300.43
766.302	10001.5
770.887	11497.5
775.469	14084.9
780.049	17216.2
784.626	21077.3
789.201	25315.2
793.773	30710
798.343	36965.8
802.91	43073.1
807.475	48559.1
812.037	51127.8
816.596	52088.4
821.153	51152.7
825.707	48590.8
830.259	45862.5
834.808	42632.4
839.355	39811.3
843.899	37421.3
848.441	36062.3
852.98	35286.2
857.516	34750.9
862.05	33753.6
866.581	32842.3
871.11	31776
875.636	29713.9
880.159	26781.8
884.68	22931.9
889.199	18596.5
893.714	14643.5
898.228	11443.9
902.738	9113.37
907.246	7711.74
911.752	6653.75
916.255	5969.07
920.755	5489.55
925.253	5675.54
929.748	5461.96
934.241	4767.6
938.731	4506.29
943.218	3834.03
947.703	3565.43
952.186	3559.49
956.665	3523.23
961.142	3872.7
965.617	4104.74
970.089	4488.95
974.558	4420.47
979.025	4274.24
983.489	4497.29
987.951	4276.51
992.41	3468.06
996.866	2270.65
1001.32	2185.78
1005.77	3680.76
1010.22	4890.37
1014.67	3758.96
1019.11	1697.99
1023.55	259.428
1027.99	106.876
1032.42	334.377
1036.86	350.25
1041.29	361.213
1045.72	332.342
1050.14	288.437
1054.56	275.595
1058.98	217.853
1063.4	24.0811
1067.82	30.8945
1072.23	65.3047
1076.64	191.242
1081.05	394.247
1085.45	1014.14
1089.85	592.366
1094.25	483.326
1098.65	489.232
1103.04	568.398
1107.43	579.382
1111.82	632.527
1116.21	642.501
1120.59	589.197
1124.97	529.797
1129.35	593.267
1133.73	596.896
1138.1	574.852
1142.47	593.585
1146.84	611.584
1151.21	631.128
1155.57	672.125
1159.93	818.86
1164.29	696.393
1168.64	682.774
1172.99	737.002
1177.34	773.664
1181.69	594.219
1186.04	741.864
1190.38	507.022
1194.72	362.141
1199.05	449.528
1203.39	475.759
1207.72	271.838
1212.05	273.576
1216.37	240.161
1220.7	205.848
1225.02	48.1572
1229.34	36.0185
1233.65	45.3848
1237.97	53.2871
1242.28	44.4795
1246.59	68.9522
1250.89	46.1807
1255.19	83.8789
1259.49	25.4141
1263.79	88.7656
1268.09	76.5332
1272.38	44.291
1276.67	0.345703
1280.95	45.2549
1285.24	65.2109
1289.52	32.209
1293.8	8.09668
1298.08	41.1973
1302.35	48.9248
1306.62	70.1279
1310.89	171.211
1315.15	51.5869
1319.42	60.5127
1323.68	123.777
1327.94	19.9229
1332.19	110.074
1336.44	62.7647
1340.69	172.07
1344.94	173.816
1349.19	230.626
1353.43	159.363
1357.67	217.902
1361.9	102.319
1366.14	145.071
1370.37	108.418
1374.6	22.9766
1378.83	226.016
1383.05	133.525
1387.27	105.383
1391.49	214.337
1395.7	120.01
1399.92	186.825
1404.13	154.759
1408.34	180.407
1412.54	143.849
1416.74	42.7148
1420.94	0.139648
1425.14	7.24707
1429.34	157.519
1433.53	94.3164
1437.72	99.1191
1441.9	92.2178
1446.09	17.3115
1450.27	106.188
1454.45	57.5654
1458.63	185.972
1462.8	212.014
1466.97	144.684
1471.14	233.254
1475.31	315.001
1479.47	466.704
1483.63	412.16
1487.79	531.792
1491.94	532.988
1496.09	603.906
1500.24	653.986
1504.39	777.236
1508.54	664.797
1512.68	667.304
1516.82	556.883
1520.95	501.16
1525.09	478.328
1529.22	519.396
1533.35	383.433
1537.47	454.858
1541.6	187.332
1545.72	136.072
1549.83	331.373
1553.95	115.303
1558.06	105.859
1562.17	0.613281
1566.28	57.0215
1570.38	0
