Measurement: Raman, 514 nm, ccw, Raman Data Processed
Mineral: Anglesite
Rruff sample: R040004
Ideal chemistry: Pb^2+^S^6+^O_4_
Locality: Erupcion mine, Los Lamentos, Chihuahua, Mexico
Source: University of Arizona Mineral Museum
Description: Tan colored tabular crystal
Measured chemistry: Pb_1.00_S_1.00_O_4_
Pin_id: M00017
Orientation: Laser parallel to c* (0 0 1). Fiducial mark perpendicular to laser is parallel to a [1 0 0]
Raman shift (cm-1)	intensity
95.659	0
100.61	111.229
105.559	53.4788
110.504	8.10938
115.447	102.558
120.387	117.743
125.324	191.737
130.259	90.1272
135.191	46.2683
140.12	78.9763
145.046	168.871
149.97	429.392
154.891	723.181
159.809	645.609
164.724	361.094
169.637	272.661
174.547	240.92
179.454	246.298
184.359	166.129
189.261	275.216
194.16	172.894
199.056	64.6545
203.95	126.591
208.841	118.136
213.729	148.287
218.614	65.3435
223.497	99.9626
228.377	68.3054
233.254	13.0227
238.129	92.7566
243.001	66.4614
247.87	111.054
252.737	86.1494
257.6	48.5981
262.461	40.6138
267.32	22.2236
272.175	28.4724
277.028	4.68042
281.879	67.7151
286.726	57.5618
291.571	40.0911
296.413	21.1633
301.252	28.8027
306.089	82.0469
310.923	89.9043
315.755	44.3174
320.583	94.1963
325.409	80.4917
330.232	63.3227
335.053	64.6807
339.871	53.6797
344.686	124.086
349.498	88.4888
354.308	62.9895
359.115	5.53711
363.92	13.6909
368.721	104.938
373.52	103.626
378.317	116.011
383.111	88.4905
387.902	88.9636
392.69	128.1
397.475	237.315
402.258	157.477
407.039	235.818
411.816	229.447
416.591	393.315
421.364	612.975
426.133	1257.7
430.9	3746.74
435.664	10581.3
440.426	16906.3
445.185	6950.33
449.941	2048.14
454.695	962.433
459.445	622.903
464.194	414.954
468.939	335.296
473.682	282.001
478.423	284.077
483.16	180.09
487.895	202.066
492.627	143.945
497.357	114.907
502.084	106.541
506.808	22.1089
511.53	55.3035
516.249	38.5132
520.965	14.7361
525.679	112.317
530.39	52.8508
535.098	65.6548
539.804	35.5659
544.507	102.732
549.208	95.8005
553.906	19.7495
558.601	3.39722
563.293	9.55371
567.983	29.0295
572.671	96.3987
577.355	92.0483
582.037	135.835
586.717	253.747
591.393	153.725
596.067	507.748
600.739	1124.04
605.408	2166.08
610.074	1546.4
614.737	576.285
619.398	306.062
624.057	222.033
628.712	187.306
633.365	183.488
638.016	285.179
642.664	268.245
647.309	201.01
651.951	115.494
656.591	166.742
661.229	117.541
665.863	182.617
670.495	171.817
675.125	136.721
679.752	114.524
684.376	61.2788
688.998	82.21
693.617	121.264
698.233	18.2534
702.847	92.2183
707.458	138.215
712.066	85.1216
716.672	113.085
721.276	84.353
725.877	91.6873
730.475	146.962
735.07	93.415
739.663	89.6372
744.254	29.7759
748.841	82.0623
753.426	151.581
758.009	8.12354
762.589	29.8657
767.166	51.3608
771.741	62.7087
776.313	52.959
780.883	141.504
785.45	36.4971
790.014	94.8823
794.576	33.9058
799.135	17.5862
803.692	22.0696
808.246	7.75806
812.797	119.292
817.346	24.4307
821.893	16.3806
826.436	41.8901
830.977	23.1724
835.516	11.5747
840.052	85.3215
844.585	36.0007
849.116	43.5972
853.645	28.72
858.17	2.32422
862.693	66.9085
867.214	76.9275
871.732	109.782
876.247	56.2737
880.76	13.4434
885.27	78.2383
889.778	64.8745
894.283	49.6914
898.786	26.4546
903.286	22.6987
907.783	3.69775
912.278	47.0537
916.77	23.9194
921.26	62.6519
925.747	83.4077
930.232	66.6328
934.714	62.6211
939.193	68.3208
943.67	173.84
948.145	326.885
952.617	478.97
957.086	996.762
961.553	1767.74
966.017	3952.11
970.479	10338.6
974.938	29929.7
979.394	48157.8
983.848	25063.6
988.3	9754.01
992.749	4799.83
997.195	2974.43
1001.64	1848.75
1006.08	1415.99
1010.52	970.573
1014.96	893.423
1019.39	539.259
1023.82	649.041
1028.25	577.225
1032.67	689.856
1037.1	848.184
1041.52	1198.55
1045.94	1630.45
1050.35	2260.83
1054.77	3300.45
1059.18	3844.87
1063.59	3741.83
1067.99	2919.3
1072.4	2170.28
1076.8	1518.89
1081.19	1278.29
1085.59	923.856
1089.98	776.95
1094.38	610.513
1098.76	485.573
1103.15	349.288
1107.53	358.37
1111.91	346.26
1116.29	268.912
1120.67	268.164
1125.04	123.259
1129.41	261.774
1133.78	450.404
1138.14	330.61
1142.51	640.025
1146.87	825.452
1151.23	1199.09
1155.58	1546.6
1159.93	1606.95
1164.29	1202.62
1168.63	856.617
1172.98	573.012
1177.32	458.807
1181.66	322.878
1186	215.74
1190.34	169.995
1194.67	97.3564
1199	116.174
1203.33	103.614
1207.65	54.0659
1211.98	42.5508
1216.3	75.3457
1220.62	156.912
1224.93	104.141
1229.24	16.9473
1233.56	44.3857
1237.86	34.7915
1242.17	63.3052
1246.47	73.124
1250.77	3.44482
1255.07	40.48
1259.37	19.9956
1263.66	72.2349
1267.95	58.456
1272.24	62.2837
1276.53	13.3252
1280.81	47.4062
1285.09	18.7129
1289.37	77.8467
1293.64	20.3706
1297.92	64.6826
1302.19	69.4961
1306.46	60.1357
1310.72	11.3975
1314.99	125.912
1319.25	66.0283
1323.51	12.063
1327.76	22.5972
1332.02	76.1006
1336.27	19.21
1340.52	18.7505
1344.76	66.7451
1349.01	62.1318
1353.25	35.3125
1357.49	124.289
1361.72	168.864
1365.96	99.6782
1370.19	140.364
1374.42	62.1645
1378.64	73.6357
1382.87	66.0903
1387.09	180.768
1391.31	73.0947
1395.53	56.2456
1399.74	82.8223
1403.95	82.7026
1408.16	86.8106
1412.37	126.828
1416.58	121.004
1420.78	85.8731
1424.98	47.5244
1429.18	96.3667
1433.37	138.051
1437.56	98.7173
1441.75	141.653
1445.94	145.978
1450.13	134.411
1454.31	177.642
1458.49	97.5859
1462.67	69.0278
1466.84	144.737
1471.02	50.6694
1475.19	130.352
1479.36	145.761
1483.52	163.044
1487.68	9.95361
1491.85	0.704102
1496	99.3491
1500.16	103.566
1504.31	25.5903
1508.46	73.4399
1512.61	139.225
1516.76	69.0698
1520.9	117.889
1525.05	61.4605
1529.18	62.9477
1533.32	81.6616
1537.45	79.1333
1541.59	23.1206
1545.72	76.5244
1549.84	13.3027
1553.97	19.9561
1558.09	127.842
1562.21	81.2563
1566.33	12.7876
1570.44	108.531
1574.56	65.1514
1578.67	0.673828
