Measurement: Raman, 514 nm, depolarized, Raman Data Processed
Mineral: Anglesite
Rruff sample: R040004
Ideal chemistry: Pb^2+^S^6+^O_4_
Locality: Erupcion mine, Los Lamentos, Chihuahua, Mexico
Source: University of Arizona Mineral Museum
Description: Tan colored tabular crystal
Measured chemistry: Pb_1.00_S_1.00_O_4_
Pin_id: M00020
Orientation: Laser parallel to a* (1 0 0). Fiducial mark perpendicular to laser is parallel to b [0 1 0]
Raman shift (cm-1)	intensity
84.51	0
89.467	443.386
94.421	1631.97
99.373	2265.71
104.322	1886.21
109.268	1553.64
114.212	1249.91
119.152	1384.63
124.09	1564.61
129.026	2225.31
133.958	2671.86
138.888	2686.14
143.815	2154.67
148.739	1987.14
153.661	2044.22
158.58	1331.49
163.496	829.747
168.409	524.575
173.32	327.084
178.228	352.046
183.133	222.579
188.035	301.483
192.935	82.0049
197.832	133.289
202.727	233.291
207.618	104.172
212.507	120.234
217.393	373.162
222.277	384.623
227.157	181.105
232.035	38.9102
236.911	36.4023
241.783	8.85645
246.653	2.4834
251.52	11.0928
256.385	16.8984
261.246	70.0137
266.105	57.6738
270.962	142.454
275.815	21.8682
280.666	112.719
285.514	24.666
290.36	49.873
295.203	41.5166
300.043	185.144
304.88	34.206
309.715	65.5039
314.547	24.9902
319.376	47.1641
324.203	5.10352
329.027	149.067
333.848	41.6592
338.667	34.5908
343.482	1.67383
348.296	148.111
353.106	64.0547
357.914	112.637
362.719	132.806
367.521	29.5459
372.321	76.8906
377.118	185.137
381.912	168.857
386.704	161.857
391.493	139.532
396.279	147.536
401.063	399.319
405.844	275.772
410.622	298.95
415.398	461.635
420.171	380.53
424.941	660.372
429.709	1128.69
434.473	3031.59
439.236	6092.92
443.995	5900.24
448.752	7908.18
453.506	7190.06
458.258	2892.01
463.007	1334.27
467.753	954.053
472.497	852.487
477.238	517.137
481.976	425.365
486.712	353.453
491.445	324.505
496.175	295.104
500.902	130.574
505.627	143.793
510.35	156.481
515.069	55.4815
519.786	153.629
524.501	183.061
529.213	126.999
533.922	149.266
538.628	141.908
543.332	135.291
548.033	144.903
552.731	21.5078
557.427	180.554
562.121	129.936
566.811	111.034
571.499	243.64
576.184	258.928
580.867	298.027
585.547	256.46
590.224	324.49
594.899	571.336
599.571	884.062
604.241	1847.64
608.908	1764.88
613.572	1138.28
618.233	977.76
622.892	724.769
627.549	472.963
632.202	390.881
636.853	423.551
641.502	435.964
646.148	374.31
650.791	405.427
655.432	306.934
660.069	218.254
664.705	230.377
669.338	67.7607
673.968	132.786
678.595	72.0576
683.22	251.417
687.842	93.251
692.462	221.826
697.079	198.148
701.694	20.7139
706.305	196.836
710.915	170.148
715.521	201.099
720.125	29.04
724.727	181.32
729.325	176.37
733.922	151.103
738.515	137.514
743.106	189.475
747.695	53.0898
752.28	4.26367
756.864	119.55
761.444	227.879
766.022	98.8272
770.598	43.4785
775.17	227.717
779.741	58.1416
784.308	131.453
788.873	114.329
793.436	238.305
797.996	215.578
802.553	5.74023
807.108	3.78223
811.66	151.282
816.209	49.1338
820.756	69.0127
825.301	43.6416
829.842	53.1006
834.382	61.9316
838.918	21.0361
843.452	139.137
847.984	156.481
852.513	147.959
857.039	151.966
861.563	308.217
866.084	386.062
870.603	132.686
875.119	106.802
879.632	203.001
884.143	12.4336
888.651	175.777
893.157	231.774
897.66	121.89
902.161	150.326
906.659	130.616
911.154	129.362
915.647	11.5801
920.138	111.016
924.626	8.86914
929.111	73.1904
933.594	8.02539
938.074	106.548
942.551	170.359
947.026	277.834
951.499	573.057
955.969	912.596
960.436	1724.58
964.901	3510.64
969.363	8376.58
973.823	23266.9
978.28	45811.2
982.735	30982.8
987.187	11357.6
991.637	5052.66
996.084	2697.04
1000.53	1634.66
1004.97	1387.53
1009.41	780.658
1013.85	445.137
1018.28	444.881
1022.71	458.824
1027.14	340.019
1031.57	173.006
1035.99	181.287
1040.41	89.8848
1044.83	4.04492
1049.25	148.383
1053.66	315.949
1058.08	311.848
1062.48	476.92
1066.89	322.287
1071.3	283.992
1075.7	125.758
1080.1	22.3262
1084.49	61.4668
1088.89	237.154
1093.28	270.299
1097.67	88.209
1102.05	422.754
1106.44	110.809
1110.82	503.445
1115.2	434.635
1119.57	589.68
1123.95	716.164
1128.32	749.91
1132.69	689.91
1137.05	1038.15
1141.42	951.65
1145.78	795.373
1150.14	673.309
1154.49	324.457
1158.85	417.027
1163.2	393.506
1167.55	77.2012
1171.89	121.307
1176.24	213.273
1180.58	206.445
1184.92	92.7832
1189.25	190.18
1193.59	44.7539
1197.92	259.434
1202.25	268.316
1206.57	8.04492
1210.9	222.672
1215.22	199.008
1219.54	62.9531
1223.85	210.566
1228.17	7.92383
1232.48	69.7773
1236.79	54.998
1241.09	59.3887
1245.4	76.3125
1249.7	102.727
1254	81.1504
1258.29	204.26
1262.59	92.6953
1266.88	162.728
1271.17	311.051
1275.45	205.463
1279.74	375.861
1284.02	210.24
1288.3	50.3438
1292.58	272.18
1296.85	87.9805
1301.12	161.719
1305.39	110.418
1309.66	44.0879
1313.92	48.0508
1318.18	163.703
1322.44	170.383
1326.7	240.299
1330.95	296.522
1335.2	139.69
1339.45	174.203
1343.7	59.9219
1347.95	183.221
1352.19	191.172
1356.43	74.8242
1360.66	107.627
1364.9	250.398
1369.13	163.932
1373.36	110.232
1377.59	110.51
1381.81	27.2227
1386.04	202.049
1390.26	84.2285
1394.47	293.365
1398.69	138.453
1402.9	84.5156
1407.11	246.459
1411.32	111.699
1415.53	59.627
1419.73	121.478
1423.93	46.2129
1428.13	227.434
1432.32	250.041
1436.52	225.799
1440.71	409.904
1444.89	469.803
1449.08	633.785
1453.26	491.738
1457.44	529.93
1461.62	518.912
1465.8	343.807
1469.97	169.648
1474.14	311.891
1478.31	172.941
1482.48	129.115
1486.64	260.143
1490.81	110.068
1494.96	35.627
1499.12	262.842
1503.28	76.9805
1507.43	100.529
1511.58	236.107
1515.72	226.398
1519.87	174.609
1524.01	320.008
1528.15	316.44
1532.29	310.049
1536.42	258.459
1540.55	238.066
1544.68	284.562
1548.81	285.967
1552.94	220.373
1557.06	31.0664
1561.18	278.555
1565.3	28.0449
1569.41	436.213
1573.53	173.58
1577.64	102.742
