Measurement: Raman, 514 nm, depolarized, Raman Data Processed
Mineral: Anglesite
Rruff sample: R050408
Ideal chemistry: Pb^2+^S^6+^O_4_
Locality: Tsumeb mine, Tsumeb, Otavi District, Oshikoto, Namibia
Source: California Institute of Technology
Description: Pale yellow fragment
Measured chemistry: Pb_1.00_S_1.00_O_4_
Pin_id: L00529
Orientation: Laser parallel to c* (0 0 1). Fiducial mark perpendicular to laser is parallel to a [1 0 0]
Raman shift (cm-1)	intensity
51.431	0
56.387	10.9965
61.341	2.73795
66.292	29.7367
71.241	179.495
76.187	492.45
81.131	861.129
86.072	1431
91.012	2219.23
95.948	2891.05
100.883	2732.8
105.815	2127.1
110.744	1941.65
115.671	1890.32
120.596	2172.31
125.519	2963.61
130.439	3724.51
135.356	3937.56
140.271	3489.92
145.184	2881.61
150.094	2729.53
155.002	2470.7
159.908	1718.11
164.811	1331.76
169.711	1106.62
174.61	964.178
179.505	878.378
184.399	731.745
189.29	649.612
194.178	580.837
199.064	536.652
203.948	515.866
208.829	406.717
213.708	363.173
218.585	321.851
223.459	290.872
228.33	205.904
233.199	180.502
238.066	152.911
242.93	126.472
247.792	123.246
252.651	99.1963
257.508	90.2962
262.363	71.5335
267.215	52.8798
272.064	52.3019
276.912	22.7788
281.756	14.3054
286.598	20.8766
291.438	11.4846
296.276	13.8764
301.111	1.22089
305.943	3.56665
310.773	25.912
315.601	4.28857
320.426	4.30157
325.248	3.83673
330.068	10.6097
334.886	7.41449
339.701	10.2346
344.514	14.2318
349.324	25.2976
354.132	24.4188
358.938	15.4341
363.741	5.69946
368.541	4.87335
373.339	20.8665
378.135	28.5861
382.928	23.2856
387.718	59.7479
392.506	73.6409
397.292	87.2919
402.075	210.236
406.856	193.353
411.634	256.228
416.41	339.796
421.183	520.344
425.954	893.871
430.722	2516.38
435.488	5508.86
440.251	7080.9
445.012	7653.32
449.77	9159.04
454.526	4349.21
459.28	1660.14
464.03	916.216
468.779	632.499
473.525	410.914
478.268	339.31
483.009	242.502
487.747	168.247
492.483	129.194
497.217	89.7144
501.948	77.5121
506.676	50.7555
511.402	39.0626
516.125	47.4964
520.846	24.0812
525.565	13.1771
530.281	32.4078
534.994	13.6555
539.705	10.0273
544.413	0.293152
549.119	2.20606
553.822	47.5707
558.523	38.588
563.222	21.4517
567.917	53.3997
572.611	47.4159
577.302	78.5809
581.99	106.718
586.676	163.899
591.359	256.827
596.04	621.987
600.718	1601.23
605.394	2265.25
610.067	1355.9
614.737	1032.19
619.406	935.355
624.071	329.181
628.734	128.807
633.395	124.158
638.053	143.502
642.708	147.343
647.361	82.4915
652.012	41.8784
656.66	44.7659
661.305	42.3235
665.948	57.1572
670.588	64.007
675.226	49.566
679.861	59.7674
684.494	35.5155
689.124	37.743
693.752	31.6308
698.377	53.419
702.999	52.9341
707.619	85.0915
712.237	75.4239
716.852	74.5826
721.464	94.5018
726.074	75.7452
730.681	70.7496
735.286	70.5102
739.888	77.0258
744.488	76.292
749.085	81.3215
753.68	80.1064
758.272	49.6323
762.861	71.9065
767.448	83.9435
772.033	71.0673
776.614	75.325
781.194	61.6674
785.77	42.7718
790.345	48.6341
794.916	13.2593
799.485	35.5969
804.052	4.34644
808.616	5.37079
813.177	10.8019
817.736	12.9219
822.292	23.4244
826.846	22.2464
831.397	5.87073
835.945	27.6826
840.491	13.9249
845.035	22.364
849.576	33.3771
854.114	6.88806
858.65	4.55884
863.183	40.6076
867.713	34.8203
872.241	58.6886
876.767	16.423
881.29	31.1934
885.81	42.244
890.328	17.5382
894.843	42.5955
899.356	30.4523
903.866	36.2166
908.373	23.2047
912.878	66.1765
917.38	32.5978
921.88	76.5181
926.377	110.812
930.872	133.923
935.364	158.187
939.853	255.982
944.34	462.892
948.824	756.748
953.306	1156.78
957.785	2019.75
962.261	3742.22
966.735	8310.37
971.207	23677.5
975.675	55515.1
980.141	52249.8
984.605	19261.2
989.066	7687.97
993.524	4064.74
997.98	2690.93
1002.43	1789.45
1006.88	1318.3
1011.33	947.479
1015.78	746.008
1020.22	613.887
1024.66	537.141
1029.1	465.774
1033.53	388.81
1037.97	339.257
1042.4	356.192
1046.82	402.624
1051.25	547.553
1055.67	606.997
1060.09	652.013
1064.51	551.528
1068.92	459.533
1073.33	358.023
1077.74	276.02
1082.15	205.491
1086.55	184.474
1090.95	206.941
1095.35	214.961
1099.75	236.536
1104.14	353.674
1108.53	396.841
1112.92	470.967
1117.31	583.875
1121.69	717.062
1126.07	889.695
1130.45	990.63
1134.82	1070.96
1139.19	1125.6
1143.57	1064.59
1147.93	945.913
1152.3	787.424
1156.66	660.442
1161.02	543.598
1165.38	340.924
1169.73	218.468
1174.08	151.764
1178.43	57.858
1182.78	90.2253
1187.12	50.9111
1191.46	65.4553
1195.8	68.2559
1200.14	54.2815
1204.47	37.9053
1208.8	45.5819
1213.13	46.4387
1217.46	118.027
1221.78	86.0704
1226.1	41.7181
1230.42	2.15778
1234.73	0.942749
1239.04	19.3183
1243.35	0.651489
1247.66	3.84973
1251.97	5.13843
1256.27	28.4716
1260.57	40.924
1264.86	3.5733
1269.16	15.957
1273.45	28.4717
1277.74	54.9465
1282.03	0.112793
1286.31	1.38715
1290.59	11.6554
1294.87	0.941711
1299.14	24.4702
1303.42	42.3007
1307.69	25.5551
1311.95	15.1449
1316.22	7.18884
1320.48	1.62378
1324.74	31.0491
1329	32.1804
1333.26	24.9047
1337.51	49.3973
1341.76	33.5649
1346	31.4345
1350.25	39.2662
1354.49	59.8954
1358.73	28.1404
1362.96	49.1038
1367.2	55.0321
1371.43	79.8775
1375.66	71.9996
1379.88	69.0285
1384.11	109.747
1388.33	103.337
1392.54	82.4916
1396.76	92.7153
1400.97	75.4482
1405.18	82.1841
1409.39	89.596
1413.59	84.6066
1417.8	112.787
1421.99	119.981
1426.19	83.0886
1430.38	104.94
1434.58	83.9775
1438.77	79.2624
1442.95	84.9381
1447.13	41.4561
1451.32	50.9612
1455.49	51.8909
1459.67	57.0863
1463.84	63.7809
1468.01	65.9221
1472.18	29.5466
1476.35	35.0355
1480.51	39.7329
1484.67	69.6792
1488.83	51.7013
1492.98	79.5855
1497.13	12.5206
1501.28	67.3798
1505.43	28.5779
1509.57	12.0217
1513.71	37.8085
1517.85	40.4667
1521.99	53.9212
1526.12	5.88733
1530.25	37.1956
1534.38	33.2244
1538.5	28.9842
1542.62	18.746
1546.74	18.7115
1550.86	2.03931
1554.98	0.289551
1559.09	9.07257
1563.2	10.9523
1567.31	3.35193
