Measurement: Raman, 514 nm, depolarized, Raman Data Processed
Mineral: Anglesite
Rruff sample: R040004
Ideal chemistry: Pb^2+^S^6+^O_4_
Locality: Erupcion mine, Los Lamentos, Chihuahua, Mexico
Source: University of Arizona Mineral Museum
Description: Tan colored tabular crystal
Measured chemistry: Pb_1.00_S_1.00_O_4_
Pin_id: m00050
Orientation: Laser parallel to b* (0 1 0). Fiducial mark perpendicular to laser is parallel to c [0 0 1]
Raman shift (cm-1)	intensity
73.144	0
77.333	530.75
81.521	253.682
85.706	585.373
89.89	1255.82
94.071	1742.94
98.251	1292.76
102.428	921.37
106.604	790.105
110.777	439.38
114.949	1353.38
119.119	582.548
123.286	366.012
127.452	442.192
131.615	705.081
135.777	644.501
139.937	388.888
144.094	315.384
148.25	754.682
152.403	795.286
156.555	406.806
160.705	423.359
164.853	415.094
168.998	133.648
173.142	38.162
177.284	212.578
181.424	163.965
185.562	59.596
189.698	51.236
193.831	132.216
197.963	92.862
202.093	19.065
206.221	3.33
210.347	127.535
214.472	19.781
218.594	141.19
222.714	142.587
226.832	85.585
230.948	26.177
235.063	42.72
239.175	60.387
243.286	101.507
247.394	66.581
251.501	107.987
255.605	228.598
259.708	98.29
263.808	79.152
267.907	32.952
272.004	87.733
276.099	81.255
280.192	10.994
284.283	129.629
288.372	208.645
292.459	13.993
296.544	49.488
300.627	161.47
304.709	307.536
308.788	132.77
312.865	97.386
316.941	341.091
321.015	334.562
325.086	157.455
329.156	189.831
333.224	441.302
337.29	303.574
341.354	213.577
345.416	113.146
349.476	316.132
353.534	384.879
357.591	200.911
361.645	206.344
365.698	343.958
369.748	160.792
373.797	150.027
377.844	103.534
381.889	338.885
385.932	502.669
389.973	242.109
394.012	176.639
398.049	377.506
402.084	268.854
406.118	263.325
410.15	260.303
414.179	482.807
418.207	565.323
422.233	399.115
426.257	684.649
430.279	1973.74
434.299	7113.93
438.318	4364.76
442.334	1208.6
446.349	849.041
450.361	676.607
454.372	428.992
458.381	104.031
462.388	283.062
466.394	413.734
470.397	434.509
474.398	145.024
478.398	85.045
482.396	315.542
486.391	295.229
490.385	305.229
494.377	4.636
498.368	225.029
502.356	203.647
506.342	267.027
510.327	66.565
514.31	287.897
518.291	441.301
522.27	430.486
526.247	103.888
530.222	233.438
534.196	281.392
538.167	503.864
542.137	186.17
546.105	97.716
550.071	177.107
554.035	486.424
557.998	256.673
561.958	95.428
565.917	56.188
569.874	177.3
573.829	445.024
577.782	481.338
581.733	169.281
585.683	360.024
589.63	627.538
593.576	684.943
597.52	841.427
601.462	1458.94
605.402	1520.28
609.341	897.611
613.277	734.926
617.212	596.357
621.145	683.452
625.076	880.412
629.006	893.334
632.933	615.108
636.859	301.313
640.783	468.609
644.705	694.393
648.625	930.021
652.543	627.106
656.46	252.281
660.375	140.777
664.288	335.995
668.199	315.053
672.108	280.136
676.016	124.091
679.921	70.031
683.825	163.532
687.727	427.269
691.628	130.804
695.526	26.146
699.423	66.583
703.318	248.848
707.211	511.576
711.102	110.786
714.992	23.071
718.879	174.979
722.765	346.281
726.649	497.805
730.532	349.295
734.412	30.339
738.291	28.671
742.168	132.204
746.043	442.986
749.916	353.678
753.788	194.126
757.658	41.977
761.526	298.221
765.392	368.231
769.257	538.166
773.119	217.969
776.98	47.642
780.839	92.75
784.697	136.635
788.552	425.92
792.406	275.06
796.258	104.16
800.108	53.26
803.957	252.367
807.804	351.443
811.649	450.465
815.492	199.283
819.333	85.988
823.173	52.551
827.011	369.547
830.847	722.82
834.681	414.551
838.514	195.238
842.345	242.371
846.174	318.527
850.001	828.578
853.827	967.336
857.651	764.092
861.473	552.523
865.293	300.828
869.112	407.535
872.928	654.25
876.744	513.717
880.557	469.828
884.369	119.799
888.178	261.227
891.987	438.414
895.793	588.959
899.598	759.539
903.401	340.365
907.202	127.641
911.001	10.252
914.799	390.791
918.595	422.232
922.389	483.803
926.182	181.133
929.972	43.199
933.761	69.326
937.549	281.75
941.334	809.031
945.118	601.83
948.9	699.207
952.681	592.395
956.459	869.803
960.236	1751.42
964.012	3055.2
967.785	5916.18
971.557	14886.1
975.327	28320.6
979.095	14625.3
982.862	6299
986.627	3604.34
990.39	2380.04
994.152	1716.39
997.912	1662.64
1001.67	1228.3
1005.43	705.891
1009.18	707.064
1012.93	1009.65
1016.68	977.576
1020.43	985.559
1024.18	523.816
1027.93	427.119
1031.67	369.838
1035.42	811.33
1039.16	1130.79
1042.9	1231.57
1046.63	1042.32
1050.37	882.562
1054.11	894.598
1057.84	1212.01
1061.57	1530.04
1065.3	1511.93
1069.03	1413.69
1072.75	785.92
1076.47	507.297
1080.2	569.693
1083.92	532.299
1087.64	565.139
1091.36	618.193
1095.07	521.42
1098.79	254.713
1102.5	111.912
1106.21	91.479
1109.92	365.006
1113.62	688.664
1117.33	712.467
1121.04	946.385
1124.74	540.451
1128.44	174.635
1132.14	78.869
1135.83	223.289
1139.53	507.926
1143.22	613.848
1146.92	448.598
1150.61	484.027
1154.3	294.654
1157.98	110.738
1161.67	4.467
1165.35	19.717
1169.04	494.494
1172.72	719.365
1176.4	634.172
1180.07	270.811
1183.75	85.428
1187.42	10.324
1191.1	2.414
1194.77	166.623
1198.44	622.223
1202.1	916.908
1205.77	712.988
1209.43	680.311
1213.1	340.012
1216.76	66.881
1220.42	127.959
1224.07	267.297
1227.73	472.412
1231.38	1027.8
1235.04	1292.6
1238.69	1096.2
1242.34	818.92
1245.99	356.021
1249.63	214.053
1253.28	245.918
1256.92	547.951
1260.56	768.93
1264.2	1258.9
1267.84	1039.34
1271.48	1012.62
1275.11	766.197
1278.74	504.33
1282.38	272.213
1286.01	30.76
1289.63	737.766
1293.26	955.254
1296.89	922.971
1300.51	499.035
1304.13	37.447
1307.75	104.064
1311.37	412.203
1314.99	424.191
1318.6	846.742
1322.22	63.67
1325.83	435.131
1329.44	107.898
1333.05	18.156
1336.66	20.137
1340.26	528.076
1343.87	301.215
1347.47	188.346
1351.07	44.262
1354.67	2.293
1358.27	272.309
1361.86	701.578
1365.46	1212.11
1369.05	1487.48
1372.64	1187.77
1376.23	1014.93
1379.82	788.244
1383.41	471.307
1386.99	351.867
1390.57	370.891
1394.16	662.316
1397.74	972.107
1401.32	1043.81
1404.89	1141.8
1408.47	1071.34
1412.04	1096.38
1415.61	495.498
