Measurement: Raman, 514 nm, depolarized, Raman Data Processed
Mineral: Anglesite
Rruff sample: R050052
Ideal chemistry: Pb^2+^S^6+^O_4_
Locality: Touissite, Oujela, Morocco
Source: Eugene Schlepp
Description: Yellow prismatic single crystal
Measured chemistry: Pb_1.00_S_1.00_O_4_
Pin_id: L00248
Orientation: Laser parallel to c* (0 0 1). Fiducial mark perpendicular to laser is parallel to a [1 0 0]
Raman shift (cm-1)	intensity
46.637	0
50.856	36.983
55.072	133.08
59.287	178.14
63.499	202.443
67.709	99.031
71.917	99.903
76.123	15.485
80.327	10.342
84.529	40.37
88.728	73.474
92.926	309.798
97.121	656.272
101.314	650.918
105.505	566.762
109.694	609.974
113.881	766.554
118.066	842.336
122.249	1164.18
126.43	1660.85
130.608	1787.25
134.785	1662.56
138.959	1456.78
143.131	1226.92
147.301	1057.51
151.469	1214.22
155.635	1216.84
159.799	892.819
163.961	699.939
168.121	663.083
172.278	641.502
176.434	667.024
180.587	683.125
184.739	756.711
188.888	707.602
193.035	554.541
197.18	420.506
201.324	329.648
205.465	290.827
209.603	210.785
213.74	205.333
217.875	190.449
222.008	135.293
226.139	102.495
230.267	88.116
234.394	89.203
238.518	58.234
242.641	49.913
246.761	59.111
250.879	48.617
254.996	24.255
259.11	38.05
263.222	35.772
267.332	26.42
271.44	2.987
275.546	3.533
279.65	8.844
283.752	4.115
287.852	9.274
291.95	10.329
296.046	7.278
300.14	4.884
304.231	5.161
308.321	5.552
312.409	2.942
316.495	3.672
320.578	1.412
324.66	4.269
328.739	9.739
332.817	0.403
336.892	16.677
340.966	7.883
345.037	2.298
349.107	15.583
353.174	17.753
357.24	7.81
361.303	7.776
365.365	7.861
369.424	10.552
373.481	12.358
377.537	25.236
381.59	25.985
385.642	43.689
389.691	73.207
393.738	87.709
397.784	79.201
401.827	127.595
405.868	156.654
409.908	156.569
413.945	195.452
417.98	275.026
422.014	449.591
426.045	709.132
430.075	1379.48
434.102	4010.62
438.127	13785
442.151	7447.91
446.172	2128.88
450.192	969.993
454.209	573.565
458.225	406.097
462.238	297.401
466.25	239.828
470.259	204.762
474.267	228.132
478.273	201.613
482.276	138.526
486.278	121.298
490.278	127.844
494.276	101.345
498.271	64.865
502.265	55.801
506.257	53.45
510.247	28.85
514.235	36.391
518.221	21.873
522.205	15.297
526.187	30.794
530.167	17.443
534.145	14.26
538.122	6.206
542.096	9.495
546.068	14.813
550.039	23.161
554.007	7.644
557.973	5.055
561.938	28.511
565.901	40.946
569.861	22.308
573.82	43.749
577.777	64.958
581.732	60.987
585.685	94.223
589.636	135.369
593.585	216.484
597.532	430.415
601.477	1083.84
605.42	2354.95
609.361	1311.77
613.301	731.315
617.238	949.695
621.174	749.031
625.108	264.33
629.039	196.591
632.969	209.804
636.897	380.967
640.823	831.093
644.747	611.168
648.669	215.44
652.589	116.929
656.508	83.551
660.424	75.711
664.339	78.246
668.251	68.071
672.162	90.814
676.071	95.911
679.978	77.852
683.883	59.611
687.786	47.198
691.687	65.234
695.586	62.874
699.484	53.527
703.379	55.973
707.273	55.908
711.165	51.442
715.055	51.802
718.943	65.131
722.829	53.37
726.713	36.773
730.595	63.967
734.476	63.966
738.354	40.827
742.231	33.57
746.106	38.195
749.978	41.705
753.849	27.105
757.719	29.382
761.586	37.538
765.451	37.585
769.315	49.528
773.177	63.376
777.036	63.128
780.894	84.788
784.75	87.355
788.605	101.832
792.457	50.221
796.307	52.522
800.156	25.738
804.003	2.151
807.848	14.178
811.691	5.642
815.532	0.722
819.371	2.693
823.209	13.078
827.045	32.054
830.878	24.214
834.71	20.586
838.54	16.236
842.369	21.123
846.195	28.183
850.02	30.617
853.842	15.335
857.663	29.085
861.482	1.803
865.299	36.264
869.115	9.384
872.928	11.477
876.74	10.349
880.55	18.016
884.358	34.179
888.164	24.17
891.969	24.07
895.771	22.792
899.572	12.846
903.371	34.855
907.168	39.611
910.963	46.276
914.757	51.378
918.548	53.571
922.338	95.12
926.126	154.718
929.912	145.369
933.697	162.077
937.479	179.845
941.26	219.678
945.039	358.58
948.816	621.556
952.591	867.59
956.365	1171.35
960.136	1811.38
963.906	2882.29
967.674	5494.12
971.441	12891.2
975.205	34589.9
978.968	50048.5
982.729	23548.4
986.488	9566.26
990.245	5188.44
994	3319.22
997.754	2550.49
1001.51	1931.4
1005.26	1428.49
1009	1123.25
1012.75	949.747
1016.5	870.285
1020.24	821.04
1023.98	820.027
1027.72	776.245
1031.46	741.482
1035.19	713.065
1038.93	775.949
1042.66	960.1
1046.39	1229.52
1050.12	1648.19
1053.85	2073.09
1057.57	2264.21
1061.29	2151.55
1065.02	1921.11
1068.74	1765.87
1072.45	1472.84
1076.17	1278.02
1079.88	1037.41
1083.6	837.013
1087.31	772.825
1091.02	679.843
1094.72	658.058
1098.43	613.475
1102.13	656.096
1105.84	646.937
1109.54	577.001
1113.24	587.3
1116.93	620.863
1120.63	694.686
1124.32	832.915
1128.01	958.246
1131.7	1092.82
1135.39	1158.89
1139.08	1276.2
1142.76	1449.83
1146.45	1720.91
1150.13	2282.68
1153.81	2856.51
1157.48	3045.88
1161.16	2767.95
1164.84	2087.14
1168.51	1461.36
1172.18	1054.77
1175.85	864.585
1179.52	737.982
1183.18	630.453
1186.85	519.406
1190.51	468.267
1194.17	339.89
1197.83	292.481
1201.48	247.654
1205.14	196.767
1208.79	165.513
1212.44	164.976
1216.09	189.431
1219.74	170.381
1223.39	95.843
1227.03	73.789
1230.68	63.793
1234.32	22.18
1237.96	66.743
1241.6	45.559
1245.23	44.768
1248.87	29.659
1252.5	38.447
1256.13	22.329
1259.76	25.74
1263.39	33.177
1267.02	14.057
1270.64	28.816
1274.26	29.529
1277.88	30.16
1281.5	14.687
1285.12	13.064
1288.74	28.745
1292.35	32.695
1295.96	32.601
1299.57	25.763
1303.18	15.098
1306.79	6.213
1310.4	13.14
1314	13.854
1317.6	22.709
1321.2	3.659
1324.8	18.831
1328.4	0.154
1331.99	34.623
1335.59	25.259
1339.18	13.073
1342.77	40.948
1346.36	26.852
1349.95	10.614
1353.53	17.248
1357.12	20.857
1360.7	12.262
1364.28	15.552
1367.86	1.775
1371.44	35.951
1375.01	33.838
1378.59	39.827
1382.16	49.444
1385.73	50.977
1389.3	61.428
1392.87	78.786
1396.43	69.867
1399.99	79.027
1403.56	91.025
1407.12	83.938
1410.68	80.401
1414.23	97.048
1417.79	95.776
1421.34	67.21
1424.9	76.969
1428.45	56.198
1431.99	54.622
1435.54	27.752
1439.09	43.962
1442.63	53.479
1446.17	60.71
1449.71	58.029
1453.26	69.22
1456.79	61.87
1460.33	59.402
1463.86	53.113
1467.39	42.965
1470.92	41.773
1474.45	28.177
1477.98	44.656
1481.51	34.377
1485.03	21.229
1488.56	29.013
1492.08	18.527
1495.6	40.626
1499.11	30.95
1502.63	19.486
1506.14	53.273
1509.66	26.193
1513.17	20.245
1516.68	13.912
