Measurement: Raman, 514 nm, ccw, Raman Data Processed
Mineral: Anglesite
Rruff sample: R040004
Ideal chemistry: Pb^2+^S^6+^O_4_
Locality: Erupcion mine, Los Lamentos, Chihuahua, Mexico
Source: University of Arizona Mineral Museum
Description: Tan colored tabular crystal
Measured chemistry: Pb_1.00_S_1.00_O_4_
Pin_id: M00020
Orientation: Laser parallel to a* (1 0 0). Fiducial mark perpendicular to laser is parallel to b [0 1 0]
Raman shift (cm-1)	intensity
63.411	0
68.38	15.4487
73.346	177.089
78.309	717.53
83.27	1346.62
88.228	2147.02
93.183	2923.75
98.135	3265.53
103.085	2893.26
108.032	2526.2
112.976	2464.57
117.917	2680.12
122.856	3052
127.792	3852.8
132.725	4669.6
137.656	4608.01
142.583	3842.18
147.508	3114.7
152.431	2840.98
157.35	2392.7
162.267	1768.5
167.181	1412.39
172.092	1091.44
177.001	1102.46
181.907	877.037
186.81	777.351
191.711	636.575
196.608	574.471
201.503	545.103
206.395	519.967
211.285	513.227
216.172	466.109
221.056	345.997
225.937	326.426
230.816	279.707
235.692	226.462
240.565	165.556
245.436	247.009
250.304	178.218
255.169	178.435
260.031	165.516
264.891	142.369
269.748	109.906
274.602	149.03
279.454	54.6575
284.303	7.70618
289.149	68.1416
293.992	62.9482
298.833	1.08716
303.671	8.53271
308.507	1.7522
313.339	22.203
318.169	25.3643
322.996	37.7028
327.821	11.8187
332.643	18.759
337.462	42.6543
342.279	41.1063
347.092	55.3237
351.904	14.6845
356.712	16.3445
361.518	37.584
366.321	57.9738
371.121	18.0552
375.919	39.0459
380.714	8.62048
385.506	65.7085
390.296	80.793
395.083	64.4504
399.867	126.49
404.649	134.468
409.428	217.86
414.204	169.858
418.978	308.621
423.749	539.819
428.517	1103.15
433.282	3375.52
438.045	7284.93
442.806	5938.89
447.563	3097.33
452.318	2113.73
457.07	1030.13
461.82	512.156
466.567	409.999
471.311	399.991
476.053	288.28
480.792	259.55
485.528	164.526
490.262	128.198
494.992	53.1135
499.721	107.243
504.446	99.3025
509.169	116.186
513.89	71.2175
518.607	75.6577
523.322	66.8845
528.035	17.7952
532.745	109.835
537.452	16.1589
542.156	87.0076
546.858	58.1008
551.557	40.0227
556.254	106.441
560.947	102.183
565.639	69.6006
570.327	89.9397
575.013	102.984
579.697	178.096
584.377	226.706
589.055	236.725
593.731	573.142
598.403	1078.72
603.074	2472.19
607.741	3099.24
612.406	1964.97
617.068	2037.02
621.728	1900.51
626.385	992.813
631.039	580.32
635.691	336.16
640.34	360.336
644.987	531.186
649.63	429.973
654.272	400.181
658.91	349.387
663.546	171.018
668.18	147.635
672.81	173.406
677.439	154.069
682.064	131.716
686.687	40.7788
691.307	18.5007
695.925	64.7192
700.54	72.6421
705.153	55.0552
709.763	83.6858
714.37	31.9128
718.974	27.7578
723.577	106.174
728.176	33.2366
732.773	24.9368
737.367	75.2766
741.959	8.3291
746.548	43.2734
751.134	88.668
755.718	21.2373
760.299	29.5486
764.878	73.6846
769.454	1.65405
774.028	6.27539
778.598	100.001
783.167	5.51856
787.732	38.1836
792.295	35.0418
796.856	36.1948
801.414	32.9114
805.969	58.4631
810.522	24.8213
815.072	21.0078
819.62	43.8044
824.165	27.9487
828.707	11.8643
833.247	24.5647
837.784	21.5811
842.319	51.085
846.851	17.2876
851.381	96.2529
855.908	135.711
860.432	309.579
864.954	240.983
869.473	188.439
873.99	91.5889
878.504	42.4834
883.015	86.0596
887.524	70.1143
892.031	105.034
896.535	25.8796
901.036	96.1733
905.535	50.6958
910.031	4.97192
914.524	53.3713
919.015	77.8281
923.504	17.7461
927.99	10.314
932.473	22.0252
936.954	58.512
941.432	156.269
945.908	420.378
950.381	680.503
954.852	1267.07
959.32	2193.33
963.785	4323.85
968.248	10042.9
972.708	27922.4
977.166	61390.7
981.622	51349.9
986.074	19304.6
990.525	7825.65
994.972	3976.19
999.417	2643.14
1003.86	2018.54
1008.3	1304.37
1012.74	950.608
1017.17	798.063
1021.61	769.192
1026.04	656.768
1030.46	607.854
1034.89	469.442
1039.31	455.47
1043.73	472.572
1048.15	661.638
1052.56	856.563
1056.97	1071.83
1061.38	1297.25
1065.79	1114.97
1070.19	736.942
1074.6	754.968
1079	458.844
1083.39	537.133
1087.79	436.474
1092.18	392.514
1096.57	411.023
1100.96	432.636
1105.34	526.197
1109.72	567.203
1114.1	750.651
1118.48	889.505
1122.85	966.707
1127.22	1209.25
1131.6	1264.11
1135.96	1384.3
1140.33	1406.81
1144.69	1230.62
1149.05	981.734
1153.4	682.144
1157.76	539.827
1162.11	340.774
1166.46	216.978
1170.81	55.2293
1175.15	129.933
1179.49	73.8621
1183.83	30.9944
1188.17	115.304
1192.5	2.22534
1196.84	35.6704
1201.16	6.97241
1205.49	7.60474
1209.82	46.4665
1214.14	35.1694
1218.46	42.2361
1222.77	55.5715
1227.09	29.5064
1231.4	41.7949
1235.71	91.5674
1240.02	0.137695
1244.32	92.1125
1248.62	109.87
1252.92	104.931
1257.22	112.559
1261.51	51.1934
1265.81	221.353
1270.1	256.935
1274.38	189.277
1278.67	250.133
1282.95	119.703
1287.23	161.378
1291.51	84.3447
1295.78	137.319
1300.05	83.4248
1304.32	155.272
1308.59	175.107
1312.86	214.858
1317.12	123.598
1321.38	202.047
1325.63	126.319
1329.89	180.164
1334.14	68.9724
1338.39	59.4773
1342.64	20.3638
1346.88	66.6479
1351.13	82.3267
1355.37	60.7004
1359.61	124.268
1363.84	27.2141
1368.07	3.71069
1372.3	101.492
1376.53	52.9004
1380.76	125.196
1384.98	71.2483
1389.2	126.448
1393.42	98.2612
1397.64	48.6843
1401.85	102.939
1406.06	65.0288
1410.27	133.828
1414.47	92.7747
1418.68	64.823
1422.88	174.202
1427.08	174.567
1431.27	242.523
1435.47	212.321
1439.66	373.826
1443.85	542.422
1448.03	454.021
1452.22	556.835
1456.4	656.248
1460.58	499.78
1464.76	436.332
1468.93	343.859
1473.1	347.788
1477.27	203.102
1481.44	243.256
1485.6	174.796
1489.77	134.783
1493.92	49.335
1498.08	85.9087
1502.24	28.9624
1506.39	114.462
1510.54	63.0288
1514.69	42.2129
1518.83	119.074
1522.97	47.2188
1527.12	118.018
1531.25	138.66
1535.39	113.298
1539.52	196.856
1543.65	115.013
1547.78	180.039
1551.91	142.003
1556.03	64.228
1560.15	43.6938
1564.27	0.753906
1568.39	30.4722
1572.5	36.7324
1576.61	21.502
