Measurement: Raman, 514 nm, ccw, Raman Data Processed
Mineral: Anglesite
Rruff sample: R040004
Ideal chemistry: Pb^2+^S^6+^O_4_
Locality: Erupcion mine, Los Lamentos, Chihuahua, Mexico
Source: University of Arizona Mineral Museum
Description: Tan colored tabular crystal
Measured chemistry: Pb_1.00_S_1.00_O_4_
Pin_id: M00017
Orientation: Laser parallel to c* (0 0 1). Fiducial mark perpendicular to laser is parallel to a [1 0 0]
Raman shift (cm-1)	intensity
63.411	0
68.38	0.418823
73.346	70.7742
78.309	353.437
83.27	793.737
88.228	1297.48
93.183	1824.43
98.135	2261.43
103.085	2139.54
108.032	1829.1
112.976	1813.97
117.917	1944.42
122.856	2494.91
127.792	3110.05
132.725	3725.72
137.656	3816.99
142.583	3252.25
147.508	2580.25
152.431	2346.41
157.35	2059.86
162.267	1544.29
167.181	1227.65
172.092	1070.94
177.001	990.139
181.907	889.205
186.81	780.216
191.711	711.903
196.608	617.246
201.503	607.807
206.395	528.623
211.285	498.154
216.172	387.498
221.056	361.181
225.937	322.709
230.816	296.762
235.692	204.529
240.565	226.666
245.436	216.478
250.304	96.5204
255.169	138.299
260.031	153.289
264.891	163.968
269.748	83.3195
274.602	81.2198
279.454	117.618
284.303	75.4831
289.149	23.766
293.992	87.4522
298.833	47.5227
303.671	35.954
308.507	69.7258
313.339	37.8225
318.169	23.2277
322.996	9.07593
327.821	8.11621
332.643	67.9093
337.462	40.4777
342.279	9.49622
347.092	7.27026
351.904	14.7672
356.712	17.9679
361.518	78.3489
366.321	25.6378
371.121	9.83252
375.919	30.7184
380.714	58.9153
385.506	22.7937
390.296	22.9614
395.083	82.6726
399.867	87.4907
404.649	121.144
409.428	196.569
414.204	166.456
418.978	315.57
423.749	438.502
428.517	907.167
433.282	2501.69
438.045	5591.38
442.806	5219.1
447.563	1853.82
452.318	1066.73
457.07	558.707
461.82	260.748
466.567	250.698
471.311	178.185
476.053	213.648
480.792	160.608
485.528	153.838
490.262	80.0674
494.992	19.8955
499.721	136.393
504.446	40.5596
509.169	68.3982
513.89	52.8928
518.607	69.7998
523.322	43.4558
528.035	78.9075
532.745	23.1409
537.452	32.1912
542.156	84.3403
546.858	14.4194
551.557	54.6973
556.254	67.9612
560.947	88.8581
565.639	79.5903
570.327	105.56
575.013	52.6221
579.697	109.519
584.377	163.94
589.055	143.25
593.731	306.022
598.403	746.991
603.074	1730.77
607.741	2518.27
612.406	1586.51
617.068	1558.28
621.728	1383.55
626.385	573.404
631.039	250.873
635.691	249.371
640.34	375.344
644.987	328.316
649.63	187.463
654.272	151.165
658.91	87.4148
663.546	179.753
668.18	163.088
672.81	164.262
677.439	146.577
682.064	152.724
686.687	120.727
691.307	114.257
695.925	122.615
700.54	107.437
705.153	57.0293
709.763	120.691
714.37	118.261
718.974	142.01
723.577	46.6418
728.176	109.007
732.773	82.093
737.367	108.709
741.959	91.6621
746.548	61.1575
751.134	83.2776
755.718	54.24
760.299	80.8823
764.878	79.4258
769.454	47.5085
774.028	13.3616
778.598	29.8923
783.167	16.0088
787.732	32.8052
792.295	27.3894
796.856	83.6941
801.414	11.71
805.969	12.3835
810.522	37.8481
815.072	25.1079
819.62	51.8188
824.165	28.2786
828.707	0.41333
833.247	50.5627
837.784	24.8494
842.319	14.2024
846.851	17.7959
851.381	83.8484
855.908	24.3215
860.432	0.925293
864.954	47.6311
869.473	8.52808
873.99	72.9563
878.504	11.7712
883.015	96.3279
887.524	50.1301
892.031	0.626953
896.535	2.2478
901.036	49.4185
905.535	2.6582
910.031	43.2451
914.524	51.376
919.015	88.6426
923.504	0.718018
927.99	11.5044
932.473	81.8984
936.954	164.362
941.432	95.3555
945.908	335.834
950.381	545.638
954.852	962.739
959.32	1694.14
963.785	3271.27
968.248	7455.92
972.708	20367.3
977.166	48034.1
981.622	45711.6
986.074	16910.1
990.525	6614.01
994.972	3373.85
999.417	2090.09
1003.86	1531.63
1008.3	962.399
1012.74	881.301
1017.17	626.064
1021.61	549.973
1026.04	391.137
1030.46	364.762
1034.89	348.718
1039.31	485.311
1043.73	433.475
1048.15	600.213
1052.56	686.594
1056.97	816.359
1061.38	1005.55
1065.79	1018.2
1070.19	685.527
1074.6	581.965
1079	382.953
1083.39	396.616
1087.79	412.566
1092.18	367.964
1096.57	363.799
1100.96	448.198
1105.34	395.512
1109.72	501.661
1114.1	693.703
1118.48	868.93
1122.85	917.665
1127.22	1076.28
1131.6	1321.57
1135.96	1436.27
1140.33	1689.12
1144.69	1682.94
1149.05	1755.55
1153.4	1925.45
1157.76	2014.6
1162.11	1637.59
1166.46	1199.99
1170.81	887.173
1175.15	570.113
1179.49	407.541
1183.83	303.963
1188.17	294.104
1192.5	254.058
1196.84	224.034
1201.16	98.7764
1205.49	57.02
1209.82	11.8901
1214.14	70.8877
1218.46	106.342
1222.77	72.9233
1227.09	71.7427
1231.4	9.05322
1235.71	24.4497
1240.02	55.7969
1244.32	46.7075
1248.62	23.3023
1252.92	17.6226
1257.22	27.7778
1261.51	103.814
1265.81	1.33154
1270.1	8.56396
1274.38	19.3237
1278.67	84.1675
1282.95	52.9829
1287.23	20.7109
1291.51	34.2559
1295.78	2.92481
1300.05	9.48584
1304.32	34.334
1308.59	24.5371
1312.86	65.4917
1317.12	78.7583
1321.38	2.604
1325.63	110.872
1329.89	17.0801
1334.14	57.0845
1338.39	11.0107
1342.64	93.4273
1346.88	69.8154
1351.13	40.0073
1355.37	13.0083
1359.61	86.25
1363.84	77.4062
1368.07	32.2095
1372.3	39.1025
1376.53	161.877
1380.76	78.8638
1384.98	137.594
1389.2	35.1279
1393.42	56.3389
1397.64	75.1294
1401.85	111.174
1406.06	144.072
1410.27	109.816
1414.47	128.384
1418.68	144.387
1422.88	88.4878
1427.08	32.6895
1431.27	204.525
1435.47	96.5322
1439.66	103.621
1443.85	195.316
1448.03	107.818
1452.22	208.394
1456.4	85.1665
1460.58	99.0029
1464.76	138.515
1468.93	35.3745
1473.1	204.677
1477.27	122.8
1481.44	147.454
1485.6	195.874
1489.77	4.12451
1493.92	115.795
1498.08	47.3291
1502.24	78.9209
1506.39	96.6128
1510.54	95.2012
1514.69	50.9985
1518.83	108.397
1522.97	59.1103
1527.12	88.8594
1531.25	113.877
1535.39	34.4995
1539.52	0.384277
1543.65	43.0171
1547.78	20.8262
1551.91	85.1426
1556.03	88.8726
1560.15	6.54102
1564.27	108.422
1568.39	73.8794
1572.5	136.747
1576.61	135.959
