Measurement: Raman, 514 nm, ccw, Raman Data Processed
Mineral: Anglesite
Rruff sample: R040004
Ideal chemistry: Pb^2+^S^6+^O_4_
Locality: Erupcion mine, Los Lamentos, Chihuahua, Mexico
Source: University of Arizona Mineral Museum
Description: Tan colored tabular crystal
Measured chemistry: Pb_1.00_S_1.00_O_4_
Pin_id: M00020
Orientation: Laser parallel to a* (1 0 0). Fiducial mark perpendicular to laser is parallel to b [0 1 0]
Raman shift (cm-1)	intensity
84.51	0
89.467	389.767
94.421	1545.89
99.373	2152.86
104.322	1817.87
109.268	1158.97
114.212	875.135
119.152	968.905
124.09	1083.45
129.026	1394.81
133.958	1850.17
138.888	1880.21
143.815	1545.88
148.739	1679.52
153.661	1660.32
158.58	1189.74
163.496	687.294
168.409	424.292
173.32	298.365
178.228	268.718
183.133	214.147
188.035	186.412
192.935	152.458
197.832	124.771
202.727	134.851
207.618	194.758
212.507	138.052
217.393	166.153
222.277	54.1611
227.157	62.4673
232.035	31.7261
236.911	82.4224
241.783	17.686
246.653	91.5527
251.52	26.6753
256.385	11.1338
261.246	56.3843
266.105	2.00732
270.962	19.2422
275.815	46.7529
280.666	141.064
285.514	5.44531
290.36	17.9019
295.203	16.4824
300.043	99.6987
304.88	56.645
309.715	6.66455
314.547	32.081
319.376	4.62061
324.203	25.8066
329.027	23.8076
333.848	209.109
338.667	78.9277
343.482	18.4766
348.296	54.5005
353.106	65.2134
357.914	9.40185
362.719	148.797
367.521	161.337
372.321	1.68701
377.118	37.1138
381.912	159.144
386.704	235.629
391.493	107.918
396.279	118.718
401.063	133.239
405.844	225.733
410.622	154.557
415.398	261.211
420.171	358.757
424.941	330.988
429.709	886.462
434.473	2150.75
439.236	4232.4
443.995	2887.54
448.752	2020.71
453.506	1267.3
458.258	660.075
463.007	363.119
467.753	413.264
472.497	427.715
477.238	165.633
481.976	217.516
486.712	78.4463
491.445	117.657
496.175	119.791
500.902	169.703
505.627	120.93
510.35	206.148
515.069	92.3301
519.786	130.09
524.501	134.336
529.213	110.499
533.922	11.9033
538.628	84.9541
543.332	200.079
548.033	95.5132
552.731	110.88
557.427	241.473
562.121	166.603
566.811	138.412
571.499	151.142
576.184	236.66
580.867	222.065
585.547	212.602
590.224	283.845
594.899	432.263
599.571	933.928
604.241	1270.35
608.908	1189.54
613.572	624.557
618.233	410.977
622.892	270.431
627.549	281.504
632.202	287.281
636.853	170.505
641.502	360.424
646.148	196.944
650.791	146.945
655.432	188.024
660.069	229.216
664.705	89.8433
669.338	106.681
673.968	93.8467
678.595	219.398
683.22	12.9199
687.842	50.6035
692.462	72.0205
697.079	155.887
701.694	96.5049
706.305	42.2842
710.915	159.782
715.521	53.0049
720.125	147.756
724.727	114.838
729.325	33.2227
733.922	27.5322
738.515	94.9502
743.106	2.70019
747.695	26.2705
752.28	156.285
756.864	149.107
761.444	126.704
766.022	117.244
770.598	14.7754
775.17	24.1172
779.741	8.78223
784.308	26.3574
788.873	25.3594
793.436	91.2139
797.996	51.9717
802.553	44.4414
807.108	80.9873
811.66	20.2041
816.209	81.4668
820.756	59.8027
825.301	29.9023
829.842	25.1621
834.382	86.4023
838.918	37.5088
843.452	47.6094
847.984	59.6631
852.513	106.879
857.039	114.702
861.563	165.223
866.084	265.031
870.603	238.97
875.119	89.835
879.632	36.291
884.143	118.644
888.651	95.7441
893.157	26.8574
897.66	90.4727
902.161	31.623
906.659	59.4648
911.154	127.081
915.647	86.3184
920.138	139.88
924.626	101.909
929.111	122.629
933.594	153.394
938.074	150.913
942.551	169.63
947.026	290.897
951.499	552.258
955.969	839.138
960.436	1459.17
964.901	2810.79
969.363	6994.2
973.823	19859.8
978.28	38293.4
982.735	25309.4
987.187	9258.53
991.637	4225.88
996.084	2250.41
1000.53	1530.16
1004.97	1194.85
1009.41	725.606
1013.85	540.202
1018.28	400.281
1022.71	327.396
1027.14	274.817
1031.57	171.911
1035.99	103.097
1040.41	32.1328
1044.83	70.6231
1049.25	7.91699
1053.66	112.518
1058.08	123.365
1062.48	72.4365
1066.89	150.621
1071.3	154.135
1075.7	70.8721
1080.1	139.448
1084.49	75.7041
1088.89	198.18
1093.28	134
1097.67	163.2
1102.05	96.957
1106.44	256.474
1110.82	172.202
1115.2	289.144
1119.57	484.946
1123.95	476.341
1128.32	522.951
1132.69	543.757
1137.05	611.852
1141.42	494
1145.78	574.374
1150.14	259.566
1154.49	513.302
1158.85	493.208
1163.2	417.312
1167.55	160.532
1171.89	136.267
1176.24	177.471
1180.58	39.2451
1184.92	160.355
1189.25	108.109
1193.59	112.325
1197.92	19.6973
1202.25	126.893
1206.57	37.1172
1210.9	67.5928
1215.22	57.9785
1219.54	80.8691
1223.85	87.6494
1228.17	230.722
1232.48	133.738
1236.79	104.814
1241.09	196.981
1245.4	6.72852
1249.7	154.717
1254	105.193
1258.29	141.792
1262.59	33.7715
1266.88	163.822
1271.17	192.386
1275.45	54.0078
1279.74	21.5352
1284.02	151.137
1288.3	112.795
1292.58	151.644
1296.85	122.379
1301.12	109.081
1305.39	251.824
1309.66	83.6357
1313.92	148.486
1318.18	130.361
1322.44	218.268
1326.7	154.301
1330.95	145.256
1335.2	48.7822
1339.45	99.5391
1343.7	65.4023
1347.95	69.2764
1352.19	50.1465
1356.43	78.8652
1360.66	35.208
1364.9	88.0039
1369.13	107.133
1373.36	132.395
1377.59	47.2871
1381.81	98.5762
1386.04	53.7207
1390.26	231.174
1394.47	171.185
1398.69	79.0322
1402.9	59.2315
1407.11	58.0938
1411.32	122.999
1415.53	119.862
1419.73	180.498
1423.93	52.9131
1428.13	144.983
1432.32	134.991
1436.52	278.095
1440.71	217.118
1444.89	362.511
1449.08	366.662
1453.26	387.967
1457.44	293.858
1461.62	414.322
1465.8	354.205
1469.97	275.334
1474.14	228.746
1478.31	358.104
1482.48	188.213
1486.64	167.13
1490.81	211.184
1494.96	217.388
1499.12	126.357
1503.28	120.464
1507.43	272.727
1511.58	235.033
1515.72	181.41
1519.87	155.891
1524.01	147.774
1528.15	166.975
1532.29	197.453
1536.42	207.435
1540.55	224.711
1544.68	295.399
1548.81	217.625
1552.94	50.5029
1557.06	105.606
1561.18	112.964
1565.3	83.8106
1569.41	115.434
1573.53	98.5742
1577.64	58.1602
