Measurement: Raman, 514 nm, ccw, Raman Data Processed
Mineral: Anglesite
Rruff sample: R040004
Ideal chemistry: Pb^2+^S^6+^O_4_
Locality: Erupcion mine, Los Lamentos, Chihuahua, Mexico
Source: University of Arizona Mineral Museum
Description: Tan colored tabular crystal
Measured chemistry: Pb_1.00_S_1.00_O_4_
Pin_id: M00017
Orientation: Laser parallel to c* (0 0 1). Fiducial mark perpendicular to laser is parallel to a [1 0 0]
Raman shift (cm-1)	intensity
82.03	0
86.989	193.962
91.944	424.414
96.897	618.52
101.848	738.816
106.795	623.245
111.74	628.813
116.682	909.12
121.622	1277.08
126.558	1627.91
131.492	1676.34
136.423	1456.4
141.352	1072.52
146.277	934.202
151.2	866.451
156.121	839.639
161.038	724.178
165.953	714.065
170.865	639.585
175.774	738.383
180.681	962.781
185.585	1045
190.486	898.442
195.384	721.502
200.28	478.872
205.173	337.075
210.063	271.625
214.95	168.296
219.835	98.3333
224.717	116.344
229.597	68.0547
234.473	14.9477
239.347	17.5776
244.218	35.4228
249.087	53.9214
253.953	13.356
258.816	16.7593
263.676	24.5181
268.534	12.0767
273.389	5.24023
278.241	20.5149
283.091	47.9114
287.938	30.5364
292.782	97.6716
297.623	36.7346
302.462	32.3965
307.298	53.2783
312.131	35.79
316.962	47.0413
321.79	35.7688
326.615	32.231
331.438	40.1365
336.258	19.717
341.075	61.0374
345.889	23.0837
350.701	19.8335
355.51	33.3096
360.317	78.5815
365.12	135.642
369.921	76.4277
374.72	6.90454
379.515	95.854
384.309	104.816
389.099	58.2991
393.886	159.048
398.671	150.98
403.454	146.063
408.233	217.435
413.01	224.347
417.785	337.942
422.556	522.021
427.325	954.719
432.091	2773.94
436.855	6702.98
441.616	8179.48
446.374	3059.64
451.13	1261.4
455.883	602.785
460.633	408.203
465.38	292.364
470.125	274.315
474.868	203.114
479.607	200.843
484.344	228.703
489.078	136.278
493.81	113.756
498.539	198.934
503.265	97.3943
507.989	122.28
512.71	128.423
517.428	50.6138
522.144	68.3909
526.857	29.2122
531.567	59.8174
536.275	85.6394
540.98	8.52612
545.683	58.813
550.383	108.82
555.08	20.1992
559.774	118.247
564.466	38.7234
569.155	79.1321
573.842	95.9844
578.526	124.27
583.207	149.363
587.886	88.3852
592.562	193.921
597.235	429.848
601.906	880.294
606.574	1512.24
611.24	999.527
615.903	704.461
620.563	613.39
625.221	309.615
629.876	265.825
634.528	457.038
639.178	851.23
643.825	1195.36
648.47	605.563
653.112	177.378
657.751	121.823
662.388	132.093
667.022	144.25
671.653	56.1648
676.282	64.3364
680.908	145.298
685.532	50.4424
690.153	88.6951
694.771	80.4563
699.387	30.1465
704	103.885
708.61	57.4712
713.218	64.3159
717.824	46.0435
722.426	40.044
727.026	68.8455
731.624	55.3884
736.219	55.2461
740.811	55.3374
745.401	119.38
749.988	58.7776
754.572	62.6604
759.154	139.451
763.734	76.7256
768.31	84.0176
772.884	98.0727
777.456	10.7466
782.025	75.1904
786.591	78.2705
791.155	50.9043
795.716	53.5156
800.275	5.63379
804.831	14.168
809.384	102.582
813.935	70.606
818.483	128.358
823.029	14.415
827.572	33.6069
832.112	73.0718
836.65	62.8706
841.186	29.4155
845.718	46.877
850.249	38.7822
854.776	75.5542
859.301	43.6567
863.824	47.2349
868.344	52.5381
872.861	136.718
877.376	17.1045
881.888	47.938
886.397	80.1577
890.904	35.3203
895.409	20.1436
899.911	29.9858
904.41	69.8208
908.907	69.5166
913.401	82.9873
917.893	46.7905
922.382	61.2935
926.869	22.9619
931.353	2.09766
935.834	129.468
940.313	136.951
944.789	121.27
949.263	229.296
953.734	503.375
958.203	824.455
962.669	1476.56
967.133	3538.63
971.594	9490.57
976.052	25235.9
980.508	32566.3
984.961	14148.6
989.412	5493.16
993.861	2698.65
998.306	1599.46
1002.75	1123.58
1007.19	804.545
1011.63	560.335
1016.06	425.988
1020.5	356.937
1024.93	267.949
1029.36	257.836
1033.78	310.091
1038.2	419.369
1042.62	439.175
1047.04	774.528
1051.46	1060.19
1055.87	1489.31
1060.28	1622.01
1064.69	1601.64
1069.09	1287.42
1073.5	860.475
1077.9	679.111
1082.29	745.289
1086.69	559.405
1091.08	538.994
1095.47	398.443
1099.86	459.333
1104.24	378.274
1108.63	444.629
1113.01	511.5
1117.38	451.373
1121.76	639.502
1126.13	681.79
1130.5	871.823
1134.87	1103.48
1139.23	1275.1
1143.6	1657.38
1147.96	2166.83
1152.32	3057.57
1156.67	3490.97
1161.02	3362.31
1165.37	2548.64
1169.72	1858.46
1174.07	1159.13
1178.41	950.54
1182.75	636.184
1187.08	455.933
1191.42	347.006
1195.75	307.868
1200.08	216.732
1204.41	200.281
1208.73	6.88379
1213.06	80.6919
1217.38	104.315
1221.69	118.568
1226.01	49.8042
1230.32	45.3628
1234.63	72.7949
1238.94	26.959
1243.24	71.7061
1247.55	48.5225
1251.85	10.2344
1256.14	51.3467
1260.44	59.898
1264.73	15.9385
1269.02	79.8125
1273.31	53.6299
1277.6	61.2373
1281.88	60.8145
1286.16	22.1924
1290.44	37.5137
1294.71	67.5249
1298.98	45.7578
1303.26	60.7446
1307.52	104.006
1311.79	37.1665
1316.05	93.1231
1320.31	28.104
1324.57	17.4316
1328.83	43.749
1333.08	51.7319
1337.33	29.8516
1341.58	25.6494
1345.82	44.769
1350.07	140.718
1354.31	73.5679
1358.55	114.189
1362.78	24.022
1367.02	122.686
1371.25	85.8848
1375.48	189.661
1379.7	113.001
1383.92	159.048
1388.15	157.223
1392.37	230.949
1396.58	246.934
1400.8	34.5415
1405.01	332.981
1409.22	197.276
1413.42	165.293
1417.63	147.708
1421.83	148.075
1426.03	103.62
1430.22	65.8462
1434.42	103.826
1438.61	142.773
1442.8	200.844
1446.99	196.731
1451.17	238.668
1455.35	156.052
1459.53	137.432
1463.71	233.413
1467.89	89.5957
1472.06	181.202
1476.23	37.773
1480.4	119.66
1484.56	65.0752
1488.72	179.398
1492.88	111.825
1497.04	31.0049
1501.2	96.8296
1505.35	82.9004
1509.5	116.14
1513.65	73.3516
1517.8	104.655
1521.94	111.592
1526.08	145.988
1530.22	219.354
1534.36	44.042
1538.49	47.335
1542.62	85.3066
1546.75	47.9072
1550.88	126.341
1555	53.7402
1559.12	72.626
1563.24	77.959
1567.36	53.0254
1571.47	55.2295
1575.58	38.9995
1579.69	0
