Measurement: Raman, 514 nm, depolarized, Raman Data Processed
Mineral: Anglesite
Rruff sample: R040004
Ideal chemistry: Pb^2+^S^6+^O_4_
Locality: Erupcion mine, Los Lamentos, Chihuahua, Mexico
Source: University of Arizona Mineral Museum
Description: Tan colored tabular crystal
Measured chemistry: Pb_1.00_S_1.00_O_4_
Pin_id: M00017
Orientation: Laser parallel to c* (0 0 1). Fiducial mark perpendicular to laser is parallel to a [1 0 0]
Raman shift (cm-1)	intensity
80.79	0
85.749	175.958
90.706	533.033
95.659	789.018
100.61	918.466
105.559	727.59
110.504	590.923
115.447	657.894
120.387	596.527
125.324	627.524
130.259	432.688
135.191	427.494
140.12	411.06
145.046	398.523
149.97	632.477
154.891	1051.92
159.809	899.15
164.724	593.66
169.637	426.496
174.547	327.252
179.454	349.283
184.359	380.356
189.261	324.131
194.16	258.584
199.056	241.691
203.95	261.252
208.841	129.638
213.729	152.202
218.614	79.4106
223.497	119.479
228.377	128.047
233.254	90.0234
238.129	60.3565
243.001	28.3193
247.87	3.10132
252.737	29.053
257.6	27.8906
262.461	4.01294
267.32	27.5176
272.175	51.6201
277.028	0.848877
281.879	13.001
286.726	47.9417
291.571	29.7471
296.413	8.53223
301.252	57.8355
306.089	0.192627
310.923	34.4048
315.755	28.0373
320.583	6.31299
325.409	28.6729
330.232	30.0696
335.053	9.85596
339.871	71.2336
344.686	2.62305
349.498	55.7764
354.308	2.49316
359.115	9.44702
363.92	50.261
368.721	0.96875
373.52	50.6199
378.317	56.834
383.111	11.4194
387.902	50.2517
392.69	82.1577
397.475	145.604
402.258	148.382
407.039	215.866
411.816	240.197
416.591	401.169
421.364	595.356
426.133	1249.67
430.9	3567.12
435.664	10352.9
440.426	18073.1
445.185	8146.89
449.941	2362.99
454.695	991.8
459.445	591.443
464.194	478.041
468.939	420.854
473.682	333.935
478.423	268.127
483.16	274.462
487.895	169.859
492.627	119.682
497.357	158.198
502.084	89.0122
506.808	41.7661
511.53	96.9697
516.249	48.6914
520.965	70.5972
525.679	69.2085
530.39	37.6982
535.098	147.464
539.804	15.3877
544.507	45.2105
549.208	120.744
553.906	62.3442
558.601	79.8774
563.293	124.987
567.983	23.3086
572.671	54.4463
577.355	74.9722
582.037	88.4834
586.717	183.887
591.393	226.112
596.067	489.992
600.739	1234.86
605.408	2286.92
610.074	1770.32
614.737	701.84
619.398	299.055
624.057	230.312
628.712	243.698
633.365	214.182
638.016	344.384
642.664	392.396
647.309	232.225
651.951	213.03
656.591	158.069
661.229	195.269
665.863	119.085
670.495	213.448
675.125	35.9893
679.752	132.692
684.376	129.654
688.998	128.629
693.617	135.442
698.233	64.1689
702.847	80.2876
707.458	153.964
712.066	84.2173
716.672	129.56
721.276	126.095
725.877	161.145
730.475	58.7847
735.07	47.1328
739.663	100.978
744.254	157.886
748.841	84.3965
753.426	183.057
758.009	111.033
762.589	97.833
767.166	146.424
771.741	129.356
776.313	137.66
780.883	224.736
785.45	84.2749
790.014	19.5918
794.576	51.8467
799.135	80.2158
803.692	11.3799
808.246	19.8218
812.797	47.1641
817.346	18.333
821.893	0.251953
826.436	25.0771
830.977	26.1255
835.516	25.7412
840.052	58.2974
844.585	44.0054
849.116	22.1011
853.645	4.25342
858.17	75.1201
862.693	41.4092
867.214	59.2495
871.732	165.497
876.247	86.3594
880.76	56.311
885.27	49.7109
889.778	33.9048
894.283	4.69971
898.786	32.5234
903.286	70.5195
907.783	15.7583
912.278	71.311
916.77	13.4194
921.26	1.7124
925.747	61.0825
930.232	3.4834
934.714	4.07129
939.193	82.0234
943.67	219.44
948.145	247.514
952.617	496.529
957.086	975.768
961.553	1674.35
966.017	3715.09
970.479	9961.94
974.938	28456.7
979.394	50692.5
983.848	28868.6
988.3	10933.1
992.749	5322.54
997.195	3198.13
1001.64	2176.24
1006.08	1647.75
1010.52	1004.85
1014.96	807.028
1019.39	685.742
1023.82	570.48
1028.25	574.963
1032.67	763.015
1037.1	912.621
1041.52	1167.19
1045.94	1625.55
1050.35	2359.81
1054.77	3308.44
1059.18	4161.69
1063.59	4090.36
1067.99	3190.56
1072.4	2300.51
1076.8	1691.95
1081.19	1278.93
1085.59	1000.75
1089.98	814.404
1094.38	698.697
1098.76	513.055
1103.15	399.969
1107.53	323.304
1111.91	434.951
1116.29	323.397
1120.67	348.308
1125.04	294.121
1129.41	212.825
1133.78	321.095
1138.14	416.832
1142.51	542.267
1146.87	787.695
1151.23	1258.24
1155.58	1592.58
1159.93	1667.21
1164.29	1417.94
1168.63	892.773
1172.98	746.524
1177.32	520.375
1181.66	384.738
1186	227.632
1190.34	184.825
1194.67	252.924
1199	114.862
1203.33	111.65
1207.65	1.64356
1211.98	65.8281
1216.3	119.397
1220.62	69.2573
1224.93	23.8608
1229.24	93.5908
1233.56	27.2559
1237.86	6.79541
1242.17	78.2363
1246.47	111.202
1250.77	14.6924
1255.07	23.6191
1259.37	92.4619
1263.66	60.5474
1267.95	30.6104
1272.24	35.3203
1276.53	59.7051
1280.81	14.293
1285.09	207.775
1289.37	32.563
1293.64	60.227
1297.92	56.3062
1302.19	15.7183
1306.46	6.02393
1310.72	20.0064
1314.99	87.6509
1319.25	113.084
1323.51	20.355
1327.76	107.546
1332.02	90.96
1336.27	107.262
1340.52	45.4331
1344.76	108.357
1349.01	51.0366
1353.25	89.7578
1357.49	108.794
1361.72	178.731
1365.96	72.8584
1370.19	156.023
1374.42	71.5737
1378.64	253.708
1382.87	151.974
1387.09	104.965
1391.31	109.751
1395.53	168.278
1399.74	242.257
1403.95	254.579
1408.16	74.9678
1412.37	255.015
1416.58	145.912
1420.78	45.9409
1424.98	191.083
1429.18	195.806
1433.37	212.718
1437.56	78.1445
1441.75	222.19
1445.94	365.528
1450.13	10.5425
1454.31	144.582
1458.49	211.256
1462.67	175.793
1466.84	199.698
1471.02	155.594
1475.19	144.235
1479.36	161.44
1483.52	238.426
1487.68	30.1592
1491.85	235.578
1496	213.425
1500.16	150.405
1504.31	168.732
1508.46	183.306
1512.61	174.265
1516.76	132.796
1520.9	59.666
1525.05	185.513
1529.18	131.004
1533.32	165.519
1537.45	98.2285
1541.59	69.2881
1545.72	197.638
1549.84	26.3066
1553.97	248.589
1558.09	108.751
1562.21	163.091
1566.33	68.9756
1570.44	67.7949
1574.56	109.423
1578.67	0.171875
