Measurement: Raman, 514 nm, depolarized, Raman Data Processed
Mineral: Anglesite
Rruff sample: R050408
Ideal chemistry: Pb^2+^S^6+^O_4_
Locality: Tsumeb mine, Tsumeb, Otavi District, Oshikoto, Namibia
Source: California Institute of Technology
Description: Pale yellow fragment
Measured chemistry: Pb_1.00_S_1.00_O_4_
Pin_id: L01528
Orientation: Laser parallel to a* (1 0 0). Fiducial mark perpendicular to laser is parallel to -b [0 -1 0]
Raman shift (cm-1)	intensity
51.431	0
56.387	10.8695
61.341	3.38721
66.292	15.3232
71.241	156.085
76.187	464.505
81.131	810.027
86.072	1328.07
91.012	1949.65
95.948	2699.99
100.883	2838.51
105.815	2512.83
110.744	2134.64
115.671	1852.72
120.596	1790.98
125.519	2117.51
130.439	2429.67
135.356	2836.32
140.271	2448.54
145.184	1821.39
150.094	1664.68
155.002	1720.35
159.908	1531.38
164.811	1316.78
169.711	1124.53
174.61	965.601
179.505	899.016
184.399	871.788
189.29	838.448
194.178	722.609
199.064	695.464
203.948	579.413
208.829	441.676
213.708	408.111
218.585	383.65
223.459	282.173
228.33	286.055
233.199	259.507
238.066	229.595
242.93	188.667
247.792	165.224
252.651	113.84
257.508	147.154
262.363	116.975
267.215	88.0112
272.064	91.2478
276.912	54.5809
281.756	52.5942
286.598	31.746
291.438	46.0257
296.276	13.4237
301.111	26.9327
305.943	42.5453
310.773	3.25378
315.601	0.052063
320.426	2.07172
325.248	19.133
330.068	10.1548
334.886	23.8508
339.701	6.15448
344.514	39.1907
349.324	10.7802
354.132	19.141
358.938	57.0493
363.741	21.9786
368.541	22.0474
373.339	25.8574
378.135	4.18683
382.928	19.4225
387.718	13.1342
392.506	32.5438
397.292	71.1769
402.075	120.791
406.856	148.424
411.634	203.752
416.41	324.286
421.183	469.696
425.954	924.142
430.722	2191.64
435.488	7220.18
440.251	15956.8
445.012	6944.37
449.77	8370
454.526	4734.61
459.28	1730.31
464.03	1055.4
468.779	705.239
473.525	537.559
478.268	416.748
483.009	319.806
487.747	237.204
492.483	169.191
497.217	162.232
501.948	74.0245
506.676	42.1967
511.402	59.8191
516.125	49.9797
520.846	51.3304
525.565	48.1155
530.281	8.11462
534.994	2.01575
539.705	4.94495
544.413	7.87769
549.119	22.028
553.822	21.271
558.523	44.9717
563.222	66.4091
567.917	54.3632
572.611	92.6935
577.302	52.1844
581.99	63.8737
586.676	163.873
591.359	171.405
596.04	322.333
600.718	747.082
605.394	1771.34
610.067	1365.63
614.737	511.967
619.406	243.125
624.071	148.381
628.734	115.943
633.395	121.76
638.053	215.484
642.708	413.257
647.361	175.69
652.012	81.4695
656.66	108.709
661.305	75.2325
665.948	81.2808
670.588	46.1446
675.226	75.9185
679.861	47.1746
684.494	44.0617
689.124	60.5344
693.752	49.7793
698.377	51.0127
702.999	54.1753
707.619	63.3531
712.237	37.8279
716.852	97.2787
721.464	61.8811
726.074	49.6005
730.681	66.2335
735.286	76.2402
739.888	116.994
744.488	74.6776
749.085	91.9457
753.68	81.9502
758.272	107.701
762.861	59.5972
767.448	93.8348
772.033	69.8258
776.614	95.5778
781.194	98.1875
785.77	62.7507
790.345	58.8362
794.916	45.5942
799.485	18.0684
804.052	15.2505
808.616	35.1287
813.177	45.6602
817.736	7.87866
822.292	28.2839
826.846	19.8945
831.397	2.02624
835.945	17.8929
840.491	12.1905
845.035	29.4867
849.576	22.4795
854.114	31.7322
858.65	19.4065
863.183	37.4562
867.713	15.1415
872.241	75.0928
876.767	4.98425
881.29	40.0673
885.81	15.1307
890.328	28.9363
894.843	3.79748
899.356	6.27197
903.866	34.7253
908.373	46.6634
912.878	46.6763
917.38	90.5963
921.88	7.17212
926.377	64.6615
930.872	56.9103
935.364	81.3733
939.853	153.685
944.34	299.32
948.824	570.775
953.306	800.865
957.785	1320.01
962.261	2519.36
966.735	5356.83
971.207	13803.1
975.675	40072.2
980.141	55040.3
984.605	20901
989.066	8527.8
993.524	4553.77
997.98	2867.84
1002.43	1949.98
1006.88	1483.82
1011.33	1161.88
1015.78	916.35
1020.22	696.222
1024.66	670.479
1029.1	620.123
1033.53	628.802
1037.97	718.765
1042.4	806.354
1046.82	1090.89
1051.25	1597.8
1055.67	2043.91
1060.09	2380.88
1064.51	2101.98
1068.92	1683.21
1073.33	1274.64
1077.74	959.577
1082.15	754.234
1086.55	654.2
1090.95	475.723
1095.35	360.767
1099.75	368.344
1104.14	249.438
1108.53	232.819
1112.92	175.883
1117.31	225.399
1121.69	190.083
1126.07	220.676
1130.45	165.813
1134.82	298.192
1139.19	327.981
1143.57	472.747
1147.93	613.419
1152.3	867.961
1156.66	1129.05
1161.02	1035.74
1165.38	728.826
1169.73	485.994
1174.08	327.562
1178.43	290.469
1182.78	196.768
1187.12	199.502
1191.46	122.175
1195.8	69.4556
1200.14	85.2113
1204.47	75.1956
1208.8	12.5703
1213.13	32.0726
1217.46	99.8257
1221.78	17.0571
1226.1	60.8857
1230.42	32.986
1234.73	10.8838
1239.04	16.0046
1243.35	26.8043
1247.66	0.988647
1251.97	25.9947
1256.27	29.3458
1260.57	57.1514
1264.86	18.9174
1269.16	71.675
1273.45	5.729
1277.74	4.56958
1282.03	11.339
1286.31	30.9901
1290.59	17.2935
1294.87	6.59949
1299.14	9.23999
1303.42	20.0085
1307.69	19.4717
1311.95	48.2471
1316.22	11.749
1320.48	25.7253
1324.74	10.5802
1329	6.21948
1333.26	14.191
1337.51	41.1139
1341.76	51.5112
1346	13.5925
1350.25	29.6749
1354.49	3.24866
1358.73	66.6357
1362.96	48.2827
1367.2	63.0546
1371.43	77.7001
1375.66	69.2596
1379.88	104.632
1384.11	117.116
1388.33	110.278
1392.54	85.305
1396.76	57.9336
1400.97	114.782
1405.18	122.546
1409.39	77.2251
1413.59	143.073
1417.8	123.094
1421.99	96.871
1426.19	100.189
1430.38	60.6566
1434.58	65.8125
1438.77	111.684
1442.95	62.2576
1447.13	72.0898
1451.32	44.0984
1455.49	81.245
1459.67	77.7208
1463.84	103.323
1468.01	102.713
1472.18	89.9241
1476.35	74.0593
1480.51	46.2396
1484.67	51.2175
1488.83	45.9988
1492.98	85.593
1497.13	27.7611
1501.28	75.2213
1505.43	58.5322
1509.57	31.9105
1513.71	42.6433
1517.85	46.6504
1521.99	44.3358
1526.12	38.3411
1530.25	47.4269
1534.38	27.9021
1538.5	5.12817
1542.62	36.4928
1546.74	43.4923
1550.86	50.2528
1554.98	77.5352
1559.09	30.604
1563.2	19.942
1567.31	73.5713
