Measurement: Raman, 514 nm, depolarized, Raman Data Processed
Mineral: Anglesite
Rruff sample: R050052
Ideal chemistry: Pb^2+^S^6+^O_4_
Locality: Touissite, Oujela, Morocco
Source: Eugene Schlepp
Description: Yellow prismatic single crystal
Measured chemistry: Pb_1.00_S_1.00_O_4_
Pin_id: L00231
Orientation: Laser parallel to -a* (-1 0 0). Fiducial mark perpendicular to laser is parallel to -b [0 -1 0]
Raman shift (cm-1)	intensity
46.637	0
50.856	48.753
55.072	107.21
59.287	196.833
63.499	212.407
67.709	117.897
71.917	67.133
76.123	18.342
80.327	21.689
84.529	43.992
88.728	136.238
92.926	594.843
97.121	1502.69
101.314	1427.74
105.505	1123.97
109.694	1108.57
113.881	1219.57
118.066	1278.1
122.249	1541.77
126.43	2153.34
130.608	2796.64
134.785	3110.88
138.959	2999.05
143.131	2418.06
147.301	2103.07
151.469	2224.36
155.635	1981.75
159.799	1383.93
163.961	881.771
168.121	759.377
172.278	691.957
176.434	584.688
180.587	523.931
184.739	531.286
188.888	455.207
193.035	402.36
197.18	362.174
201.324	384.737
205.465	305.662
209.603	268.369
213.74	279.969
217.875	261.486
222.008	185.544
226.139	157.993
230.267	166.715
234.394	122.637
238.518	89.504
242.641	64.69
246.761	67.596
250.879	60.686
254.996	38.461
259.11	31.204
263.222	42.885
267.332	34.501
271.44	31.046
275.546	24.515
279.65	29.897
283.752	15.181
287.852	5.359
291.95	9.43
296.046	1.391
300.14	7.249
304.231	4.997
308.321	2.354
312.409	8.841
316.495	3.468
320.578	11.219
324.66	12.913
328.739	14.068
332.817	16.202
336.892	6.489
340.966	5.908
345.037	5.503
349.107	11.718
353.174	11.82
357.24	23.79
361.303	14.652
365.365	19.426
369.424	15.217
373.481	23.937
377.537	23.594
381.59	32.169
385.642	40.795
389.691	43.28
393.738	79.715
397.784	97.935
401.827	128.183
405.868	173.211
409.908	197.235
413.945	230.061
417.98	320.692
422.014	398.262
426.045	585.723
430.075	965.245
434.102	2444.5
438.127	5592.51
442.151	4991.43
446.172	5099.56
450.192	8921.62
454.209	4575.83
458.225	1828.32
462.238	1132.67
466.25	724.139
470.259	573.04
474.267	455.823
478.273	345.121
482.276	247.355
486.278	219.41
490.278	161.213
494.276	124.306
498.271	95.666
502.265	96.247
506.257	73.01
510.247	53.119
514.235	49.142
518.221	47.471
522.205	43.143
526.187	27.826
530.167	23.711
534.145	21.765
538.122	14.713
542.096	4.26
546.068	8.649
550.039	1.763
554.007	24.288
557.973	1.378
561.938	37.622
565.901	26.047
569.861	26.318
573.82	34.061
577.777	46.384
581.732	77.268
585.685	89.778
589.636	141.393
593.585	241.809
597.532	429.25
601.477	1121.57
605.42	2330.03
609.361	1268.21
613.301	617.348
617.238	964.449
621.174	720.503
625.108	191.517
629.039	78.496
632.969	52.467
636.897	33.42
640.823	36.368
644.747	18.333
648.669	17.391
652.589	25.202
656.508	25.846
660.424	8.474
664.339	34.789
668.251	32.543
672.162	49.931
676.071	28.056
679.978	24.667
683.883	12.986
687.786	30.973
691.687	41.685
695.586	43.317
699.484	52.572
703.379	36.88
707.273	23.307
711.165	31.823
715.055	59.189
718.943	38.595
722.829	48.868
726.713	61.009
730.595	35.093
734.476	30.071
738.354	53.939
742.231	49.715
746.106	46.396
749.978	37.985
753.849	39.836
757.719	38.89
761.586	79.206
765.451	81.437
769.315	103.583
773.177	124.648
777.036	112.352
780.894	83.536
784.75	70.362
788.605	76.112
792.457	37.785
796.307	24.384
800.156	22.895
804.003	2.326
807.848	16.591
811.691	1.2
815.532	15.285
819.371	29.262
823.209	15.758
827.045	26.295
830.878	41.118
834.71	14.314
838.54	23.091
842.369	18.602
846.195	12.629
850.02	28.778
853.842	27.936
857.663	2.817
861.482	36.179
865.299	51.857
869.115	62.713
872.928	58.403
876.74	52.855
880.55	58.342
884.358	52.083
888.164	50.281
891.969	30.223
895.771	52.23
899.572	62.098
903.371	101.11
907.168	81.121
910.963	101.219
914.757	101.182
918.548	97.402
922.338	148.664
926.126	179.97
929.912	235.326
933.697	247.735
937.479	256.2
941.26	315.725
945.039	501.315
948.816	759.947
952.591	1054.59
956.365	1478.53
960.136	2206.03
963.906	3567.41
967.674	6621.74
971.441	15312.4
975.205	40910.5
978.968	57491.4
982.729	26919.4
986.488	10829.9
990.245	5848.88
994	3669.26
997.754	2676.03
1001.51	2026.69
1005.26	1524.67
1009	1177.04
1012.75	916.914
1016.5	826.891
1020.24	800.06
1023.98	750.422
1027.72	682.996
1031.46	639.783
1035.19	516.789
1038.93	492.027
1042.66	470.464
1046.39	489.137
1050.12	602.017
1053.85	663.099
1057.57	675.41
1061.29	619.916
1065.02	606.621
1068.74	563.516
1072.45	514.6
1076.17	431.867
1079.88	394.32
1083.6	304.957
1087.31	265.787
1091.02	275.797
1094.72	295.985
1098.43	337.349
1102.13	404.892
1105.84	446.618
1109.54	430.534
1113.24	455.66
1116.93	527.997
1120.63	666.574
1124.32	791.422
1128.01	907.486
1131.7	998.791
1135.39	984.326
1139.08	941.205
1142.76	861.173
1146.45	762.847
1150.13	635.532
1153.81	544.161
1157.48	395.591
1161.16	301.994
1164.84	200.492
1168.51	118.063
1172.18	95.607
1175.85	84.597
1179.52	105.518
1183.18	112.117
1186.85	141.509
1190.51	115.364
1194.17	126.69
1197.83	127.762
1201.48	126.272
1205.14	139.783
1208.79	155.757
1212.44	161.492
1216.09	178.751
1219.74	193.714
1223.39	127.357
1227.03	110.462
1230.68	75.489
1234.32	63.65
1237.96	37.637
1241.6	52.348
1245.23	63.41
1248.87	87.447
1252.5	67.632
1256.13	43.727
1259.76	41.794
1263.39	32.861
1267.02	13.352
1270.64	33.376
1274.26	50.334
1277.88	43.214
1281.5	11.987
1285.12	30.632
1288.74	9.828
1292.35	39.428
1295.96	31.178
1299.57	44.089
1303.18	13
1306.79	13.143
1310.4	14.561
1314	7.839
1317.6	18.365
1321.2	3.953
1324.8	20.775
1328.4	23.764
1331.99	6.925
1335.59	24.23
1339.18	0.296
1342.77	22.689
1346.36	14.932
1349.95	5.027
1353.53	7.984
1357.12	25.812
1360.7	13.716
1364.28	12.31
1367.86	37.795
1371.44	20.161
1375.01	54.406
1378.59	55.579
1382.16	53.005
1385.73	52.66
1389.3	49.237
1392.87	48.73
1396.43	59.126
1399.99	66.422
1403.56	95.466
1407.12	75.968
1410.68	100.16
1414.23	98.39
1417.79	105.398
1421.34	86.139
1424.9	82.919
1428.45	60.8
1431.99	48.668
1435.54	41.178
1439.09	56.159
1442.63	38.56
1446.17	56.892
1449.71	38.127
1453.26	39.06
1456.79	68.941
1460.33	56.054
1463.86	77.003
1467.39	59.306
1470.92	39.512
1474.45	27.964
1477.98	30.803
1481.51	26.163
1485.03	37.001
1488.56	18.265
1492.08	45.015
1495.6	34.264
1499.11	37.874
1502.63	41.669
1506.14	24.705
1509.66	16.258
1513.17	18.837
1516.68	0.442
1520.19	0
