Measurement: Raman, 514 nm, depolarized, Raman Data Processed
Mineral: Anglesite
Rruff sample: R050408
Ideal chemistry: Pb^2+^S^6+^O_4_
Locality: Tsumeb mine, Tsumeb, Otavi District, Oshikoto, Namibia
Source: California Institute of Technology
Description: Pale yellow fragment
Measured chemistry: Pb_1.00_S_1.00_O_4_
Pin_id: L01992
Orientation: Laser parallel to b* (0 1 0). Fiducial mark perpendicular to laser is parallel to c [0 0 1]
Raman shift (cm-1)	intensity
51.431	0
56.387	12.9695
61.341	2.8634
66.292	6.33743
71.241	99.7637
76.187	331.105
81.131	682.009
86.072	1135.02
91.012	1754.28
95.948	2789.02
100.883	3059.73
105.815	2288.05
110.744	1831.71
115.671	1724.51
120.596	1831.42
125.519	2345.53
130.439	2873.17
135.356	3232.09
140.271	2993.57
145.184	2427.58
150.094	2275.02
155.002	2221.78
159.908	1687.85
164.811	1347.21
169.711	1142.86
174.61	1124.78
179.505	1086.27
184.399	1114.88
189.29	1057.66
194.178	908.916
199.064	738.103
203.948	639.793
208.829	534.242
213.708	445.156
218.585	423.805
223.459	311.645
228.33	265.187
233.199	254.272
238.066	176.962
242.93	176.261
247.792	123.288
252.651	157.554
257.508	131.044
262.363	95.7172
267.215	62.5566
272.064	85.5342
276.912	76.6431
281.756	41.8626
286.598	46.1848
291.438	31.598
296.276	23.0934
301.111	6.65942
305.943	3.29315
310.773	18.9879
315.601	1.263
320.426	13.4806
325.248	12.682
330.068	3.1239
334.886	14.1058
339.701	9.60608
344.514	19.7181
349.324	10.0167
354.132	8.68005
358.938	4.42487
363.741	20.1772
368.541	10.1
373.339	8.54816
378.135	5.82196
382.928	10.2097
387.718	15.3798
392.506	40.7562
397.292	62.7849
402.075	95.6834
406.856	127.94
411.634	144.758
416.41	207.549
421.183	296.253
425.954	509.967
430.722	1195.7
435.488	3178.43
440.251	5800.18
445.012	4137.66
449.77	6730.42
454.526	4357.02
459.28	1439.74
464.03	743.764
468.779	502.245
473.525	374.442
478.268	263.259
483.009	218.526
487.747	162.81
492.483	137.546
497.217	111.83
501.948	83.8857
506.676	42.4855
511.402	59.6732
516.125	39.3716
520.846	15.4868
525.565	33.776
530.281	2.98712
534.994	15.8657
539.705	34.7302
544.413	36.7305
549.119	3.8689
553.822	12.8008
558.523	58.0858
563.222	37.1494
567.917	84.8071
572.611	48.159
577.302	74.3011
581.99	91.5094
586.676	151.841
591.359	253.9
596.04	484.988
600.718	1203.94
605.394	2435.22
610.067	1576.2
614.737	742.772
619.406	667.624
624.071	305.531
628.734	212.129
633.395	280.519
638.053	544.449
642.708	908.041
647.361	386.236
652.012	96.1696
656.66	72.4866
661.305	91.0278
665.948	47.0511
670.588	75.0917
675.226	75.6478
679.861	71.2625
684.494	49.3801
689.124	70.0289
693.752	79.1079
698.377	81.5399
702.999	72.5742
707.619	52.5132
712.237	82.6484
716.852	62.9344
721.464	71.5804
726.074	106.602
730.681	88.2096
735.286	84.5165
739.888	57.6116
744.488	68.4861
749.085	84.1454
753.68	65.5727
758.272	70.7805
762.861	62.9879
767.448	59.7521
772.033	31.7562
776.614	59.0408
781.194	43.1177
785.77	41.9695
790.345	27.5668
794.916	11.8826
799.485	2.94659
804.052	9.71716
808.616	31.1722
813.177	9.3429
817.736	8.78784
822.292	0.366943
826.846	23.3209
831.397	0.40979
835.945	24.8304
840.491	32.9692
845.035	24.8629
849.576	2.33252
854.114	14.8105
858.65	1.88733
863.183	55.6765
867.713	8.48547
872.241	71.1106
876.767	54.527
881.29	12.8204
885.81	35.2107
890.328	50.8015
894.843	71.114
899.356	10.1892
903.866	24.4896
908.373	38.5955
912.878	25.9093
917.38	24.9459
921.88	82.4895
926.377	114.057
930.872	100.002
935.364	134.77
939.853	191.809
944.34	363.663
948.824	529.812
953.306	906.418
957.785	1455.23
962.261	2790.05
966.735	5786.04
971.207	15607.6
975.675	43308.8
980.141	56690.1
984.605	21940
989.066	8404.47
993.524	4359.47
997.98	2739.13
1002.43	1844.26
1006.88	1301.77
1011.33	977.553
1015.78	700.638
1020.22	593.02
1024.66	415.748
1029.1	336.824
1033.53	283.053
1037.97	173.41
1042.4	167.701
1046.82	88.4104
1051.25	84.5078
1055.67	55.0247
1060.09	89.9597
1064.51	90.324
1068.92	108.152
1073.33	94.403
1077.74	143.099
1082.15	124.21
1086.55	200.831
1090.95	271.915
1095.35	230.443
1099.75	273.446
1104.14	326.926
1108.53	420.848
1112.92	490.24
1117.31	537.082
1121.69	657.33
1126.07	773.985
1130.45	847.016
1134.82	1146.38
1139.19	1325.23
1143.57	1570.24
1147.93	1858.56
1152.3	2345.55
1156.66	2570.67
1161.02	2346.93
1165.38	1750.18
1169.73	1198.04
1174.08	801.631
1178.43	682.958
1182.78	492.507
1187.12	426.465
1191.46	324.311
1195.8	278.449
1200.14	213.202
1204.47	144.728
1208.8	98.6641
1213.13	85.7191
1217.46	131.19
1221.78	153.518
1226.1	73.5918
1230.42	41.2627
1234.73	26.6937
1239.04	31.9451
1243.35	28.9653
1247.66	9.66187
1251.97	31.361
1256.27	28.274
1260.57	35.6881
1264.86	48.704
1269.16	0.826416
1273.45	4.61072
1277.74	15.0145
1282.03	2.31055
1286.31	9.76587
1290.59	19.1294
1294.87	51.0776
1299.14	25.2732
1303.42	7.63428
1307.69	15.3982
1311.95	7.57422
1316.22	53.2473
1320.48	20.3125
1324.74	19.3954
1329	10.7832
1333.26	22.6445
1337.51	24.2248
1341.76	51.843
1346	57.9484
1350.25	44.8158
1354.49	42.4708
1358.73	42.8442
1362.96	11.1044
1367.2	74.3757
1371.43	51.0542
1375.66	76.526
1379.88	84.8326
1384.11	28.8279
1388.33	37.9249
1392.54	46.7051
1396.76	106.849
1400.97	79.968
1405.18	86.8397
1409.39	71.1326
1413.59	103.498
1417.8	112.153
1421.99	91.4111
1426.19	61.686
1430.38	72.6569
1434.58	85.3557
1438.77	72.5688
1442.95	99.0708
1447.13	65.1022
1451.32	109.542
1455.49	104.338
1459.67	48.3665
1463.84	92.6389
1468.01	102.078
1472.18	66.0059
1476.35	44.0374
1480.51	90.8047
1484.67	96.3236
1488.83	66.7237
1492.98	89.9739
1497.13	62.0095
1501.28	40.6027
1505.43	76.7367
1509.57	67.2007
1513.71	42.7434
1517.85	58.7884
1521.99	104.229
1526.12	70.1992
1530.25	53.1417
1534.38	19.2362
1538.5	15.818
1542.62	38.9275
1546.74	16.0646
1550.86	67.0336
1554.98	23.1781
1559.09	59.9609
1563.2	20.3689
1567.31	0.487915
