Measurement: Raman, 514 nm, ccw, Raman Data Processed
Mineral: Anglesite
Rruff sample: R040004
Ideal chemistry: Pb^2+^S^6+^O_4_
Locality: Erupcion mine, Los Lamentos, Chihuahua, Mexico
Source: University of Arizona Mineral Museum
Description: Tan colored tabular crystal
Measured chemistry: Pb_1.00_S_1.00_O_4_
Pin_id: M00020
Orientation: Laser parallel to a* (1 0 0). Fiducial mark perpendicular to laser is parallel to b [0 1 0]
Raman shift (cm-1)	intensity
84.51	0
89.467	257.584
94.421	905.755
99.373	1191.84
104.322	943.284
109.268	869.286
114.212	785.125
119.152	760.265
124.09	959.784
129.026	1367.11
133.958	1690.2
138.888	1650.65
143.815	1185.5
148.739	1030.47
153.661	1013.44
158.58	758.063
163.496	428.915
168.409	260.95
173.32	208.639
178.228	197.065
183.133	64.1719
188.035	125.141
192.935	67.7695
197.832	23.4185
202.727	11.6255
207.618	16.1699
212.507	18.6577
217.393	175.525
222.277	225.739
227.157	79.792
232.035	30.5625
236.911	159.057
241.783	118.501
246.653	17.5991
251.52	13.1909
256.385	23.3398
261.246	51.3496
266.105	48.2568
270.962	114.814
275.815	23.7314
280.666	53.4053
285.514	40.2451
290.36	10.3574
295.203	102.087
300.043	13.0952
304.88	83.7192
309.715	22.5474
314.547	105.731
319.376	1.75147
324.203	49.8774
329.027	106.072
333.848	47.7544
338.667	73.8706
343.482	123.703
348.296	92.8994
353.106	91.6885
357.914	97.1812
362.719	93.1641
367.521	120.067
372.321	145.496
377.118	74.4961
381.912	123.065
386.704	70.9463
391.493	123.556
396.279	97.0234
401.063	232.054
405.844	252.009
410.622	96.3911
415.398	245.895
420.171	287.4
424.941	389.193
429.709	966.356
434.473	2226.42
439.236	4380.53
443.995	5851.12
448.752	9926.22
453.506	8645.57
458.258	2997.25
463.007	1318.04
467.753	926.646
472.497	680.267
477.238	611.413
481.976	327.243
486.712	243.177
491.445	221.887
496.175	161.167
500.902	68.7114
505.627	113.452
510.35	31.8823
515.069	104.599
519.786	88.2773
524.501	29.6602
529.213	3.02734
533.922	54.3115
538.628	80.103
543.332	62.5923
548.033	44.2715
552.731	51.3848
557.427	120.22
562.121	17.5107
566.811	22.6343
571.499	61.0073
576.184	136.233
580.867	44.4185
585.547	133.131
590.224	227.681
594.899	298.515
599.571	566.868
604.241	1127.95
608.908	972.455
613.572	648.751
618.233	656.49
622.892	442.178
627.549	237.025
632.202	242.004
636.853	140.523
641.502	205.88
646.148	192.924
650.791	175.26
655.432	246.564
660.069	154.224
664.705	124.619
669.338	73.9971
673.968	37.7685
678.595	104.58
683.22	60.6836
687.842	8.06006
692.462	52.9868
697.079	53.1929
701.694	22.6943
706.305	60.3472
710.915	42.8838
715.521	33.2295
720.125	3.82959
724.727	90.3408
729.325	32.2607
733.922	87.8706
738.515	166.034
743.106	57.5972
747.695	65.5391
752.28	36.165
756.864	29.9145
761.444	96.5469
766.022	34.0957
770.598	136.466
775.17	102.859
779.741	48.9834
784.308	33.9268
788.873	8.46435
793.436	179.109
797.996	23.9502
802.553	41.0239
807.108	106.398
811.66	117.573
816.209	4.97754
820.756	23.626
825.301	38.5073
829.842	19.1567
834.382	32.7153
838.918	81.4595
843.452	146.848
847.984	40.7681
852.513	151.564
857.039	68.9053
861.563	161.969
866.084	143.213
870.603	155.759
875.119	157.273
879.632	138.734
884.143	162.83
888.651	148.467
893.157	7.13769
897.66	96.8125
902.161	46.5552
906.659	118.62
911.154	168.697
915.647	99.7007
920.138	6.09326
924.626	4.63623
929.111	22.936
933.594	35.062
938.074	49.6045
942.551	92.3765
947.026	154.935
951.499	428.211
955.969	627.83
960.436	1147.83
964.901	2310.38
969.363	5791.14
973.823	15973.7
978.28	29968.4
982.735	18296.7
987.187	6785.92
991.637	2974.33
996.084	1633.94
1000.53	1047.81
1004.97	913.914
1009.41	560.384
1013.85	325.417
1018.28	362.04
1022.71	304.964
1027.14	183.274
1031.57	272.773
1035.99	152.071
1040.41	148.087
1044.83	44.3184
1049.25	191.772
1053.66	252.769
1058.08	199.409
1062.48	386.263
1066.89	223.768
1071.3	217.628
1075.7	257.76
1080.1	233.873
1084.49	232.977
1088.89	220.8
1093.28	135.883
1097.67	115.267
1102.05	94.9522
1106.44	130.94
1110.82	300.021
1115.2	392.476
1119.57	458.17
1123.95	476.062
1128.32	490.592
1132.69	517.891
1137.05	683.477
1141.42	567.291
1145.78	454.608
1150.14	427.004
1154.49	392.318
1158.85	219.217
1163.2	196.477
1167.55	275.33
1171.89	122.343
1176.24	111.504
1180.58	54.8105
1184.92	107.246
1189.25	36.791
1193.59	77.4082
1197.92	40.8477
1202.25	26.0635
1206.57	4.37012
1210.9	50.2256
1215.22	125.554
1219.54	161.791
1223.85	39.1328
1228.17	96.7129
1232.48	98.1397
1236.79	13.6797
1241.09	188.893
1245.4	119.141
1249.7	155.447
1254	165.81
1258.29	18.7363
1262.59	107.435
1266.88	165.838
1271.17	109.283
1275.45	101.079
1279.74	220.625
1284.02	152.805
1288.3	29.7275
1292.58	119.591
1296.85	163.927
1301.12	99.2783
1305.39	131.644
1309.66	160.028
1313.92	148.886
1318.18	88.8096
1322.44	242.268
1326.7	158.922
1330.95	134.113
1335.2	124.454
1339.45	74.7666
1343.7	114.036
1347.95	0.224609
1352.19	90.3652
1356.43	80.4297
1360.66	132.44
1364.9	52.4238
1369.13	29.5332
1373.36	31.3838
1377.59	62.2402
1381.81	2.08594
1386.04	4.48828
1390.26	123.469
1394.47	135.285
1398.69	231.149
1402.9	159.435
1407.11	13.1514
1411.32	212.123
1415.53	79.9219
1419.73	185.725
1423.93	71.5352
1428.13	233.355
1432.32	155.221
1436.52	226.128
1440.71	304.096
1444.89	169.407
1449.08	380.335
1453.26	258.621
1457.44	483.822
1461.62	392.961
1465.8	280.409
1469.97	200.863
1474.14	211.959
1478.31	214.168
1482.48	261.698
1486.64	242.535
1490.81	37.7109
1494.96	278.859
1499.12	7.92383
1503.28	94.2197
1507.43	103.378
1511.58	78.7031
1515.72	109.775
1519.87	205.84
1524.01	278.119
1528.15	82.0967
1532.29	235.268
1536.42	164.635
1540.55	118.642
1544.68	87.4356
1548.81	109.077
1552.94	33.1016
1557.06	155.498
1561.18	125.784
1565.3	157.86
1569.41	67.0732
1573.53	274.188
1577.64	80.792
