Measurement: Raman, 514 nm, depolarized, Raman Data Processed
Mineral: Anglesite
Rruff sample: R050052
Ideal chemistry: Pb^2+^S^6+^O_4_
Locality: Touissite, Oujela, Morocco
Source: Eugene Schlepp
Description: Yellow prismatic single crystal
Measured chemistry: Pb_1.00_S_1.00_O_4_
Pin_id: L00472
Orientation: Laser parallel to b* (0 1 0). Fiducial mark perpendicular to laser is parallel to -c [0 0 -1]
Raman shift (cm-1)	intensity
49.365	0
53.566	53.219
57.765	79.869
61.962	103.115
66.157	178.757
70.349	87.477
74.54	31.358
78.729	1.654
82.916	20.914
87.101	56.463
91.284	235.666
95.465	717.62
99.644	1588.2
103.82	2042.28
107.995	1918.77
112.168	1849.65
116.339	1796.89
120.508	1705.46
124.675	1866.36
128.84	2218.64
133.003	2480.34
137.164	2478.36
141.323	2279.54
145.48	2102.81
149.635	2112.07
153.788	2289.29
157.939	2212.66
162.088	1836.17
166.235	1587.84
170.38	1344.65
174.523	1149.62
178.664	928.731
182.803	842.995
186.94	793.405
191.076	796.958
195.209	681.653
199.34	682.321
203.47	679.022
207.597	594.608
211.722	538.537
215.846	552.864
219.967	516.278
224.087	443.063
228.204	382.144
232.32	415.757
236.434	384.98
240.545	310.403
244.655	258.408
248.763	280.267
252.869	236.193
256.973	224.333
261.075	179.613
265.175	218.026
269.273	156.564
273.369	127.221
277.463	146.993
281.556	146.876
285.646	81.864
289.734	62.954
293.821	102.142
297.905	88.421
301.988	71.788
306.069	57.24
310.147	83.776
314.224	59.396
318.299	24.101
322.372	10.89
326.443	48.762
330.512	37.716
334.579	2.752
338.645	5.867
342.708	22.062
346.769	27.325
350.829	5.344
354.887	6.061
358.942	29.152
362.996	5.309
367.048	22.391
371.098	8.747
375.146	18.03
379.192	13.733
383.236	23.883
387.279	4.477
391.319	87.096
395.358	39.472
399.394	32.59
403.429	67.241
407.462	148.546
411.493	119.11
415.522	130.644
419.549	244.253
423.575	443.932
427.598	723.675
431.619	1766.48
435.639	5651.36
439.657	12541.3
443.673	7074.3
447.687	2405.35
451.699	979.455
455.709	583.606
459.717	426.795
463.724	306.021
467.728	227.287
471.731	187.59
475.732	239.927
479.731	210.306
483.728	127.726
487.723	106.277
491.716	100.788
495.708	123.566
499.697	16.567
503.685	32.75
507.671	22.4
511.655	54.475
515.637	58.88
519.617	11.994
523.596	21.798
527.572	63.527
531.547	43.923
535.52	9.712
539.491	26.697
543.46	25.048
547.427	46.349
551.393	19.607
555.356	5.788
559.318	17.213
563.278	79.621
567.236	68.943
571.192	21.888
575.147	59.913
579.099	57.727
583.05	136.618
586.999	175.889
590.946	200.054
594.891	345.542
598.834	658.485
602.776	1520.84
606.715	2614.66
610.653	1835.35
614.589	797.688
618.523	425.937
622.456	234.185
626.386	93.75
630.315	29.678
634.242	62.868
638.167	91.425
642.09	81.124
646.012	39.242
649.931	19.815
653.849	82.135
657.765	125.929
661.679	111.603
665.592	57.002
669.502	20.664
673.411	74.856
677.318	79.45
681.223	78.5
685.126	27.518
689.028	47.73
692.927	75.664
696.825	130.466
700.721	58.826
704.616	29.407
708.508	14.914
712.399	11.853
716.288	96.112
720.175	84.621
724.06	58.401
727.944	17.622
731.825	33.175
735.705	83.49
739.584	64.66
743.46	31.686
747.334	6.561
751.207	77.265
755.078	78.828
758.947	54.247
762.815	51.515
766.68	33.646
770.544	54.647
774.406	107.528
778.267	85.287
782.125	53.914
785.982	15.419
789.837	7.2
793.69	11.026
797.542	68.109
801.391	31.951
805.239	10.474
809.085	13.892
812.93	12.846
816.772	21.411
820.613	40.267
824.452	1.43
828.29	51.736
832.125	70.57
835.959	338.431
839.791	330.786
843.621	24.663
847.45	52.562
851.277	49.999
855.102	19.495
858.925	42.117
862.746	60.484
866.566	70.422
870.384	25.789
874.2	23.669
878.015	12.48
881.828	32.647
885.639	47.267
889.448	56.028
893.256	36.104
897.061	7.286
900.865	54.053
904.668	158.872
908.468	120.742
912.267	87.146
916.064	80.069
919.86	91.877
923.653	131.45
927.445	169.853
931.236	280.234
935.024	261.275
938.811	255.458
942.596	269.682
946.379	449.82
950.161	728.213
953.94	1024.66
957.719	1429.12
961.495	2133.22
965.27	3439.13
969.043	6637.51
972.814	15567.7
976.583	40654.1
980.351	52068.5
984.117	26162.8
987.882	11524
991.644	6262.29
995.405	3990.8
999.165	2946.56
1002.92	2292.4
1006.68	1698.68
1010.43	1346.26
1014.18	1090.04
1017.93	948.778
1021.68	838.569
1025.43	851.729
1029.18	832.13
1032.92	766.048
1036.66	726.844
1040.4	811.959
1044.14	988.322
1047.88	1258.97
1051.62	1716.83
1055.35	2052.89
1059.08	2219.14
1062.81	2109.62
1066.54	1865.31
1070.27	1650.21
1073.99	1355.33
1077.72	1129.65
1081.44	913.167
1085.16	706.911
1088.88	567.06
1092.59	507.242
1096.31	460.457
1100.02	453.065
1103.73	467.887
1107.44	456.919
1111.15	287.313
1114.86	127.797
1118.57	263.007
1122.27	373.943
1125.97	417.122
1129.67	523.538
1133.37	526.204
1137.07	545.08
1140.76	442.393
1144.45	348.979
1148.15	315.604
1151.84	391.559
1155.53	323.635
1159.21	266.227
1162.9	242.085
1166.58	135.424
1170.26	54.529
1173.94	23.768
1177.62	55.766
1181.3	145.251
1184.97	169.393
1188.65	109.874
1192.32	120.524
1195.99	105.056
1199.66	79.304
1203.33	12.643
1206.99	69.498
1210.65	164.314
1214.32	190.384
1217.98	222.793
1221.64	161.683
1225.29	124.442
1228.95	25.978
1232.6	11.661
1236.26	26.287
1239.91	20.958
1243.56	82.582
1247.2	108.671
1250.85	113.925
1254.49	55.215
1258.13	22.803
1261.78	38.545
1265.41	30.66
1269.05	12.071
1272.69	97.427
1276.32	164.508
1279.95	145.478
1283.59	103.39
1287.21	44.047
1290.84	0.477
1294.47	50.998
1298.09	20.267
1301.72	17.903
1305.34	48.956
1308.96	65.78
1312.58	115.675
1316.19	119.294
1319.81	20.75
1323.42	23.855
1327.03	33.452
1330.64	37.493
1334.25	17.681
1337.86	58.097
1341.46	118.526
1345.07	167.894
1348.67	121.101
1352.27	78.128
1355.87	46.208
1359.46	61.032
1363.06	21.252
1366.65	58.239
1370.25	45.395
1373.84	81.313
1377.43	148.834
1381.02	165.351
1384.6	160.579
1388.18	161.579
1391.77	68.369
1395.35	73.516
1398.93	62.222
1402.51	63.847
1406.08	151.634
1409.66	201.449
1413.23	219.478
1416.8	229.007
1420.37	225.802
1423.94	231.544
1427.51	131.87
1431.08	104.196
1434.64	70.488
1438.2	32.123
1441.76	89.436
1445.32	136.695
1448.88	124.119
1452.43	172.115
1455.99	247.901
1459.54	206.51
1463.09	216.923
1466.64	165.007
1470.19	71.697
1473.74	45.958
1477.28	22.173
1480.83	58.645
1484.37	32.718
1487.91	83.627
1491.45	158.175
1494.98	170.047
1498.52	181.044
1502.05	147.329
1505.59	216.671
1509.12	102.119
1512.65	103.167
1516.17	34.354
1519.7	0
