Measurement: Raman, 514 nm, depolarized, Raman Data Processed
Mineral: Anhydrite
Rruff sample: R040061
Ideal chemistry: CaS^6+^O_4_
Locality: Chester County, Pennsylvania, USA
Source: University of Arizona Mineral Museum
Description: Pale purple fractured single crystal
Measured chemistry: Ca_0.98_S_1.01_O_4_
Pin_id: M00472
Orientation: Laser parallel to b* (0 1 0). Fiducial mark perpendicular to laser is parallel to c [0 0 1]
Raman shift (cm-1)	intensity
87.798	0
91.981	76.862
96.161	64.325
100.34	32.292
104.516	70.556
108.691	89.172
112.864	68.368
117.034	769.798
121.203	1332.95
125.369	262.939
129.534	50.356
133.696	6.951
137.857	7.083
142.016	10.758
146.172	85.936
150.327	103.676
154.48	37.943
158.63	35.758
162.779	332.992
166.926	1456.07
171.07	431.372
175.213	94.6
179.354	39.033
183.493	48.468
187.63	10.117
191.765	15.261
195.898	29.932
200.029	30.929
204.158	24.123
208.285	53.377
212.41	1.375
216.533	76.441
220.654	27.918
224.773	129.341
228.891	350.461
233.006	432.099
237.119	214.374
241.231	80.418
245.34	41.402
249.448	29.411
253.553	1.448
257.657	36.727
261.758	47.889
265.858	81.92
269.956	28.77
274.052	11.325
278.146	2.179
282.237	16.766
286.327	10.227
290.416	19.342
294.502	19.305
298.586	7.385
302.668	6.974
306.749	2.327
310.827	19.491
314.903	15.521
318.978	40.28
323.051	25.812
327.121	27.418
331.19	5.99
335.257	2.659
339.322	5.549
343.385	32.467
347.446	54.782
351.505	19.665
355.563	1.59
359.618	21.275
363.672	18.635
367.723	7.232
371.773	35.577
375.821	16.45
379.866	28.576
383.91	58.431
387.952	111.626
391.992	115.812
396.031	83.991
400.067	81.17
404.101	111.352
408.134	95.342
412.165	161.151
416.193	205.624
420.22	94.005
424.245	108.872
428.268	107.709
432.289	171.359
436.309	164.702
440.326	135.904
444.342	139.663
448.355	141.961
452.367	245.721
456.377	186.121
460.385	282.739
464.391	275.673
468.395	328.152
472.398	475.185
476.398	496.798
480.397	659.501
484.394	1011.98
488.389	1722.03
492.382	3765.72
496.373	8550.72
500.362	7309.5
504.349	2837.71
508.335	1197.97
512.319	620.295
516.3	451.589
520.28	325.042
524.259	298.316
528.235	242.023
532.209	213.782
536.182	231.365
540.152	193.118
544.121	178.991
548.088	201.954
552.053	189.196
556.017	168.233
559.978	179.301
563.938	202.317
567.895	183.349
571.851	171.328
575.805	170.307
579.758	194.322
583.708	159.477
587.657	172.688
591.603	121.022
595.548	228.087
599.491	233.217
603.432	222.578
607.372	266.926
611.309	230.12
615.245	260.579
619.179	371.434
623.111	1454.8
627.041	5063.44
630.97	885.693
634.896	290.819
638.821	243.731
642.744	269.429
646.665	289.374
650.584	251.652
654.502	249.313
658.418	207.78
662.331	184.007
666.244	299.237
670.154	829.15
674.062	4373.21
677.969	1384.34
681.874	260.275
685.777	133.105
689.678	78.863
693.577	67.89
697.475	100.132
701.371	53.643
705.265	15.354
709.157	14.446
713.047	12.732
716.936	23.941
720.823	30.999
724.708	44.057
728.591	87.037
732.472	83.379
736.352	82.204
740.23	13.946
744.106	43.603
747.98	84.176
751.853	3.662
755.723	26.01
759.592	31.241
763.459	7.617
767.325	20.672
771.188	70.083
775.05	37.726
778.91	9.218
782.768	18.4
786.625	9.145
790.479	10.06
794.332	15.164
798.183	14.453
802.033	5.081
805.88	20.432
809.726	12.515
813.57	20.534
817.413	30.805
821.253	52.27
825.092	35.922
828.929	27.239
832.764	16.287
836.598	31.249
840.429	92.135
844.259	100.948
848.088	11.688
851.914	38.356
855.739	50.957
859.562	62.307
863.383	76.435
867.203	58.709
871.02	11.952
874.836	10.841
878.65	59.308
882.463	57.436
886.274	37.504
890.083	50.518
893.89	48.231
897.695	58.884
901.499	19.769
905.301	52.152
909.102	36.276
912.9	33.839
916.697	68.313
920.492	14.235
924.285	64.761
928.077	65.81
931.867	36.166
935.655	1.134
939.442	61.117
943.226	97.861
947.009	14.546
950.791	42.809
954.57	120.978
958.348	75.055
962.124	107.825
965.899	154.8
969.671	201.876
973.442	122.246
977.211	202.327
980.979	244.876
984.745	287.622
988.509	388.665
992.271	481.744
996.032	719.94
999.791	1225.97
1003.55	1605.45
1007.3	2672.89
1011.06	6759.4
1014.81	32898
1018.56	49173.7
1022.31	8908.42
1026.06	3101.86
1029.8	1588.24
1033.55	969.23
1037.29	634.861
1041.03	473.026
1044.77	350.317
1048.5	371.016
1052.24	272.568
1055.97	179.44
1059.7	175.128
1063.43	162.143
1067.16	235.25
1070.89	162.535
1074.61	155.932
1078.34	171.441
1082.06	164.085
1085.78	146.812
1089.5	122.667
1093.21	72.655
1096.93	98.772
1100.64	132.051
1104.35	216.468
1108.06	153.029
1111.77	276.747
1115.48	337.173
1119.18	638.205
1122.89	1626.05
1126.59	7419.73
1130.29	17041.1
1133.99	2792.76
1137.68	886.595
1141.38	386.24
1145.07	285.507
1148.76	241.884
1152.45	377.187
1156.14	843.726
1159.83	4795.15
1163.51	2302.5
1167.19	494.251
1170.88	213.396
1174.56	108.64
1178.23	85.47
1181.91	58.628
1185.59	13.694
1189.26	61.933
1192.93	55.365
1196.6	67.574
1200.27	70.618
1203.94	80.941
1207.6	33.835
1211.27	88.046
1214.93	81.669
1218.59	130.994
1222.25	32.02
1225.9	13.366
1229.56	93.86
1233.21	103.806
1236.86	133.503
1240.51	117.006
1244.16	39.542
1247.81	73.107
1251.45	19.059
1255.1	57.666
1258.74	34.653
1262.38	44.875
1266.02	16.338
1269.66	43.568
1273.29	43.437
1276.93	2.74
1280.56	61.628
1284.19	48.681
1287.82	17.208
1291.45	2.515
1295.07	14.631
1298.7	3.72
1302.32	0.951
1305.94	27.47
1309.56	5.465
1313.18	29.092
1316.8	88.135
1320.41	99.009
1324.02	61.628
1327.63	50.062
1331.24	10.138
1334.85	3.646
1338.46	48.814
1342.06	26.471
1345.67	34.054
1349.27	67.851
1352.87	1.186
1356.47	41.966
1360.07	12.388
1363.66	70.109
1367.25	85.487
1370.85	37.799
1374.44	52.191
1378.03	34.858
1381.61	50.101
1385.2	99.148
1388.78	33.032
1392.37	14.061
1395.95	73.783
1399.53	65.324
1403.1	8.921
1406.68	30.738
1410.26	16.829
1413.83	122.829
1417.4	31.958
1420.97	121.77
1424.54	142.373
1428.1	94.848
1431.67	135.259
1435.23	207.553
1438.8	171.864
1442.36	293.11
1445.91	363.885
1449.47	282.6
1453.03	376.171
1456.58	348.656
1460.13	341.408
1463.68	257.334
1467.23	216.738
1470.78	255.468
1474.33	225.326
1477.87	106.573
1481.42	148.91
1484.96	138.934
1488.5	195.507
1492.04	133.183
1495.57	81.872
1499.11	86.258
1502.64	76.355
1506.17	55.402
1509.71	20.93
1513.23	48.434
1516.76	2.06
1520.29	0
