Measurement: Raman, 514 nm, depolarized, Raman Data Processed
Mineral: Anhydrite
Rruff sample: R040012
Ideal chemistry: CaS^6+^O_4_
Locality: Moundhouse, Nevada, USA
Source: University of Arizona Mineral Museum
Description: White massive
Measured chemistry: Ca_1.00_S_1.00_O_4_
Pin_id: S00008
Orientation: Laser parallel to b* (0 1 0). Fiducial mark perpendicular to laser is parallel to -c [0 0 -1]
Raman shift (cm-1)	intensity
94.768	0
98.947	1.602
103.124	35.936
107.3	69.866
111.473	63.523
115.644	242.442
119.813	469.119
123.981	1039.46
128.146	555.708
132.309	641.054
136.47	263.268
140.63	109.48
144.787	41.084
148.942	78.185
153.096	78.613
157.247	59.859
161.396	24.56
165.544	74.92
169.689	45.909
173.833	32.041
177.974	17.158
182.114	20.709
186.251	37.852
190.387	13.713
194.52	0.785
198.652	21.467
202.782	1.767
206.909	5.823
211.035	7.595
215.159	28.611
219.281	39.75
223.4	91.564
227.518	130.525
231.634	167.357
235.748	104.495
239.86	69.745
243.97	45.064
248.079	23.971
252.185	42.916
256.289	32.758
260.391	68.019
264.492	54.099
268.59	53.181
272.687	28.999
276.781	33.578
280.874	32.899
284.964	40.95
289.053	23.694
293.14	46.134
297.225	44.303
301.308	27.231
305.389	41.8
309.468	38.984
313.545	36.668
317.62	39.283
321.693	47.531
325.765	25.153
329.834	34.318
333.902	29.321
337.967	26.152
342.031	14.874
346.093	28.066
350.153	39.826
354.21	26.653
358.267	15.406
362.321	35.537
366.373	32.363
370.423	13.015
374.471	2.162
378.518	13.084
382.563	37.033
386.605	19.553
390.646	32.217
394.685	40.857
398.722	78.566
402.757	68.306
406.79	39.648
410.821	60.76
414.851	147.187
418.878	172.452
422.904	57.467
426.927	56.818
430.949	47.282
434.969	56.499
438.987	76.569
443.003	60.684
447.018	72.787
451.03	93.778
455.041	142.421
459.049	110.182
463.056	176.684
467.061	215.45
471.064	297.2
475.065	314.866
479.064	465.489
483.062	629.023
487.057	1101.61
491.051	2073.17
495.043	4624.91
499.032	7708.68
503.02	4982.06
507.007	2034.62
510.991	897.252
514.973	400.815
518.954	269.303
522.933	174.83
526.91	135.02
530.885	103.658
534.858	60.537
538.829	33.194
542.799	33.572
546.766	22.523
550.732	72.917
554.696	11.549
558.658	7.111
562.618	50.413
566.576	33.066
570.533	10.205
574.488	24.336
578.44	72.277
582.391	69.118
586.341	102.146
590.288	107.67
594.233	106.173
598.177	150.619
602.119	420.017
606.059	1755.7
609.997	4213.05
613.933	929.372
617.868	291.643
621.801	263.961
625.731	319.103
629.66	308.785
633.588	169.857
637.513	136.89
641.437	170.871
645.358	173.811
649.278	188.714
653.196	165.13
657.113	124.948
661.027	134.727
664.94	141.466
668.851	486.165
672.76	2152.82
676.667	4270.44
680.572	992.033
684.476	180.587
688.378	62.111
692.278	23.59
696.176	5.99
700.072	29.304
703.967	34.495
707.86	22.585
711.751	5.482
715.64	28.761
719.527	9.06
723.413	10.514
727.297	31.192
731.179	5.068
735.059	4.341
738.937	25.523
742.814	24.641
746.689	26.44
750.562	28.753
754.433	20.753
758.303	5.282
762.17	29.626
766.036	29.58
769.901	12.409
773.763	1.219
777.624	20.984
781.482	5.269
785.339	22.428
789.195	12.097
793.048	74.741
796.9	83.363
800.75	17.963
804.598	27.458
808.445	23.06
812.289	42.56
816.132	73.501
819.973	58.508
823.813	12.959
827.65	59.396
831.486	63.819
835.32	68.23
839.152	114.63
842.983	109.021
846.812	115.033
850.639	183.852
854.464	199.672
858.288	207.665
862.11	200.463
865.93	172.858
869.748	96.408
873.564	83.455
877.379	86.865
881.192	67.565
885.004	55.818
888.813	89.009
892.621	73.449
896.427	65.546
900.232	46.086
904.034	26.742
907.835	73.419
911.634	87.657
915.432	17.713
919.227	18.525
923.021	1.679
926.813	14.158
930.604	77.136
934.393	91.836
938.18	48.752
941.965	32.876
945.749	64.061
949.53	74.28
953.311	4.533
957.089	120.266
960.866	81.591
964.641	102.957
968.414	85.364
972.185	129.809
975.955	118.291
979.723	148.812
983.49	162.37
987.254	150.968
991.017	272.604
994.779	422.279
998.538	910.998
1002.3	1343.99
1006.05	1906.28
1009.81	4018.09
1013.56	14581.1
1017.31	54816.2
1021.06	24026.3
1024.81	6198.59
1028.55	2423.91
1032.3	1200.88
1036.04	710.346
1039.78	480.448
1043.52	340.566
1047.26	235.176
1050.99	194.982
1054.73	178.825
1058.46	132.349
1062.19	27.285
1065.92	88.003
1069.65	40.756
1073.37	25.629
1077.1	59.541
1080.82	110.797
1084.54	170.992
1088.26	203.953
1091.97	124.93
1095.69	86.919
1099.4	93.92
1103.12	172.982
1106.83	521.038
1110.54	1979.13
1114.24	1621.89
1117.95	821.008
1121.65	629.127
1125.35	1421.25
1129.06	6096.38
1132.75	3004.51
1136.45	656.648
1140.15	282.784
1143.84	100.988
1147.53	118.122
1151.22	22.251
1154.91	44.362
1158.6	34.453
1162.28	135.521
1165.97	0.58
1169.65	24.626
1173.33	36.659
1177.01	1.323
1180.69	27.347
1184.36	7.463
1188.04	12.398
1191.71	0.694
1195.38	25.237
1199.05	26.941
1202.71	31.433
1206.38	4.769
1210.04	5.662
1213.71	27.013
1217.37	22.522
1221.03	0.233
1224.68	24.552
1228.34	5.18
1231.99	41.229
1235.65	59.266
1239.3	79.258
1242.95	111.244
1246.59	95.186
1250.24	93.09
1253.88	65.047
1257.53	2.91
1261.17	64.127
1264.81	124.123
1268.45	109.675
1272.08	74.395
1275.72	102.065
1279.35	152.702
1282.98	99.302
1286.61	76.879
1290.24	104.369
1293.87	115.776
1297.49	76.93
1301.11	117.837
1304.73	95.233
1308.36	125.479
1311.97	99.666
1315.59	131.853
1319.2	139.921
1322.82	115.781
1326.43	69.546
1330.04	33.155
1333.65	37.601
1337.26	30.303
1340.86	38.225
1344.47	54.325
1348.07	36.707
1351.67	29.312
1355.27	38.445
1358.87	79.451
1362.46	29.181
1366.06	16.418
1369.65	34.678
1373.24	29.814
1376.83	34.769
1380.42	45.109
1384	82.218
1387.59	64.222
1391.17	36.517
1394.75	46.75
1398.33	32.014
1401.91	19.165
1405.49	38.354
1409.06	37.845
1412.64	52.374
1416.21	30.881
1419.78	47.338
1423.35	93.742
1426.91	21.161
1430.48	44.845
1434.05	97.315
1437.61	149.43
1441.17	281.015
1444.73	307.457
1448.29	420.084
1451.84	393.811
1455.4	427.507
1458.95	416.349
1462.5	387.554
1466.05	366.743
1469.6	341.834
1473.15	254.898
1476.69	222.866
1480.24	163.29
1483.78	186.815
1487.32	191.469
1490.86	121.207
1494.39	78.797
1497.93	59.852
1501.46	22.512
1505	55.969
1508.53	18.627
1512.06	56.148
1515.59	43.88
1519.11	35.472
