Measurement: Raman, 514 nm, depolarized, Raman Data Processed
Mineral: Anhydrite
Rruff sample: R040012
Ideal chemistry: CaS^6+^O_4_
Locality: Moundhouse, Nevada, USA
Source: University of Arizona Mineral Museum
Description: White massive
Measured chemistry: Ca_1.00_S_1.00_O_4_
Pin_id: M00042
Orientation: Laser parallel to -c* (0 0 -1). Fiducial mark perpendicular to laser is parallel to a [1 0 0]
Raman shift (cm-1)	intensity
71.917	0
76.123	284.364
80.327	534.729
84.529	647.182
88.728	771.94
92.926	808.539
97.121	852.958
101.314	927.198
105.505	897.668
109.694	808.575
113.881	786.366
118.066	796.814
122.249	690.551
126.43	456.904
130.608	433.344
134.785	272.335
138.959	227.001
143.131	238.179
147.301	161.682
151.469	193.388
155.635	118.615
159.799	143.661
163.961	126.902
168.121	46.982
172.278	28.392
176.434	31.87
180.587	3.961
184.739	33.211
188.888	19.95
193.035	38.711
197.18	47.774
201.324	36.399
205.465	17.446
209.603	2.753
213.74	33.444
217.875	48.245
222.008	149.374
226.139	352.952
230.267	580.131
234.394	523.438
238.518	311.595
242.641	95.181
246.761	71.574
250.879	119.736
254.996	113.143
259.11	119.496
263.222	62.65
267.332	111.229
271.44	105.098
275.546	82.158
279.65	93.462
283.752	60.157
287.852	35.246
291.95	21.106
296.046	35.037
300.14	47.639
304.231	85.984
308.321	52.432
312.409	147.824
316.495	95.847
320.578	86.686
324.66	38.343
328.739	153.794
332.817	129.039
336.892	109.401
340.966	157.521
345.037	143.99
349.107	127.863
353.174	75.354
357.24	41.444
361.303	17.383
365.365	49.963
369.424	14.934
373.481	29.417
377.537	52.021
381.59	58.755
385.642	28.021
389.691	137.702
393.738	113.732
397.784	107.736
401.827	113.564
405.868	188.278
409.908	910.842
413.945	6143.24
417.98	3095.48
422.014	435.529
426.045	44.896
430.075	101.206
434.102	27.04
438.127	51.584
442.151	62.441
446.172	68.685
450.192	102.385
454.209	126.036
458.225	153.847
462.238	124.917
466.25	148.438
470.259	107.045
474.267	127.253
478.273	225.758
482.276	206.5
486.278	434.432
490.278	697.846
494.276	1742.28
498.271	2519.54
502.265	1319.58
506.257	565.361
510.247	285.512
514.235	241.099
518.221	227.657
522.205	141.963
526.187	132.956
530.167	128.126
534.145	112.054
538.122	88.999
542.096	80.075
546.068	13.773
550.039	74.857
554.007	128.415
557.973	175.233
561.938	136.541
565.901	132.989
569.861	228.592
573.82	116.264
577.777	106.084
581.732	244.549
585.685	291.129
589.636	290.994
593.585	220.028
597.532	228.463
601.477	394.447
605.42	432.714
609.361	410.767
613.301	320.065
617.238	440.369
621.174	816.048
625.108	1171.01
629.039	649.103
632.969	471.988
636.897	333.919
640.823	548.753
644.747	702.496
648.669	641.163
652.589	573.743
656.508	324.231
660.424	233.623
664.339	319.917
668.251	1106.12
672.162	5924.24
676.071	5815.28
679.978	878.25
683.883	133.177
687.786	30.091
691.687	68.938
695.586	34.678
699.484	45.217
703.379	17.956
707.273	12.399
711.165	59.014
715.055	8.906
718.943	11.089
722.829	62.887
726.713	106.463
730.595	20.829
734.476	97.076
738.354	37.354
742.231	75.532
746.106	95.63
749.978	39.668
753.849	16.653
757.719	31.422
761.586	80.394
765.451	126.169
769.315	85.038
773.177	70.726
777.036	55.917
780.894	127.533
784.75	42.113
788.605	109.946
792.457	137.175
796.307	120.659
800.156	124.117
804.003	101.551
807.848	102.962
811.691	96.354
815.532	67.729
819.371	130.091
823.209	208.441
827.045	164.113
830.878	312.467
834.71	234.8
838.54	301.131
842.369	391.148
846.195	441.383
850.02	485.226
853.842	667.737
857.663	800.147
861.482	732.488
865.299	498.184
869.115	387.948
872.928	282.891
876.74	239.209
880.55	216.074
884.358	223.609
888.164	218.272
891.969	311.975
895.771	286.297
899.572	215.694
903.371	216.313
907.168	207.923
910.963	212.01
914.757	201.692
918.548	95.501
922.338	36.432
926.126	33.584
929.912	68.478
933.697	126.636
937.479	154.891
941.26	82.245
945.039	123.699
948.816	64.256
952.591	103.969
956.365	63.737
960.136	79.612
963.906	113.598
967.674	123.693
971.441	30.9
975.205	24.779
978.968	2.354
982.729	147.186
986.488	248.843
990.245	294.617
994	498.512
997.754	1362.54
1001.51	2012.71
1005.26	2466.49
1009	5966.04
1012.75	27897.9
1016.5	53431.7
1020.24	14045.2
1023.98	4137.76
1027.72	1906.49
1031.46	1070.61
1035.19	551.031
1038.93	432.202
1042.66	355.241
1046.39	279.97
1050.12	237.528
1053.85	72.211
1057.57	49.843
1061.29	77.15
1065.02	51.499
1068.74	3.303
1072.45	59.862
1076.17	124.752
1079.88	274.328
1083.6	375.018
1087.31	222.809
1091.02	74.698
1094.72	89.686
1098.43	2.23
1102.13	151.946
1105.84	355.855
1109.54	385.181
1113.24	527.052
1116.93	876.603
1120.63	2000.24
1124.32	9333.62
1128.01	21569.4
1131.7	4875.28
1135.39	1318.22
1139.08	525.209
1142.76	282.283
1146.45	175.447
1150.13	10.299
1153.81	12.008
1157.48	163.391
1161.16	167.826
1164.84	73.317
1168.51	119.792
1172.18	100.215
1175.85	126.486
1179.52	5.233
1183.18	50.08
1186.85	41.458
1190.51	15.159
1194.17	6.888
1197.83	113.159
1201.48	63.09
1205.14	37.05
1208.79	99.448
1212.44	85.195
1216.09	131.507
1219.74	147.223
1223.39	110.365
1227.03	153.313
1230.68	203.932
1234.32	295.435
1237.96	227.975
1241.6	179.515
1245.23	237.938
1248.87	224.391
1252.5	250.435
1256.13	304.589
1259.76	326.746
1263.39	378.056
1267.02	417.984
1270.64	348.669
1274.26	385.978
1277.88	284.893
1281.5	266.953
1285.12	242.899
1288.74	295.725
1292.35	396.126
1295.96	297.123
1299.57	252.714
1303.18	280.283
1306.79	316.63
1310.4	313.862
1314	368.667
1317.6	475.021
1321.2	389.634
1324.8	344.468
1328.4	325.103
1331.99	179.687
1335.59	3.234
1339.18	9.745
1342.77	27.17
1346.36	21.449
1349.95	180.897
1353.53	82.228
1357.12	205.646
1360.7	163.88
1364.28	46.029
1367.86	39.121
1371.44	72.623
1375.01	147.564
1378.59	271.7
1382.16	311.036
1385.73	190.461
1389.3	243.086
1392.87	226.299
1396.43	218.428
1399.99	196.605
1403.56	254.093
1407.12	95.98
1410.68	89.102
1414.23	10.641
1417.79	123.4
1421.34	4.131
1424.9	0
