Measurement: Raman, 514 nm, depolarized, Raman Data Processed
Mineral: Anhydrite
Rruff sample: R040061
Ideal chemistry: CaS^6+^O_4_
Locality: Chester County, Pennsylvania, USA
Source: University of Arizona Mineral Museum
Description: Pale purple fractured single crystal
Measured chemistry: Ca_0.98_S_1.01_O_4_
Pin_id: S00304
Orientation: Laser parallel to -c* (0 0 -1). Fiducial mark perpendicular to laser is parallel to a [1 0 0]
Raman shift (cm-1)	intensity
51.466	0
55.666	18.505
59.863	23.628
64.059	17.315
68.253	23.831
72.445	13.103
76.635	41.547
80.823	33.773
85.009	51.578
89.193	53.107
93.375	64.959
97.554	52.023
101.732	49.241
105.908	53.586
110.082	46.065
114.254	77.753
118.424	186.55
122.592	282.285
126.758	132.077
130.922	61.064
135.083	46.098
139.243	37.096
143.401	21.072
147.557	20.049
151.711	25.038
155.863	32.042
160.013	25.156
164.161	24.407
168.308	31.154
172.452	21.738
176.594	3.159
180.734	16.159
184.872	10.741
189.008	16.435
193.143	2.566
197.275	8.576
201.405	8.805
205.534	25.502
209.66	29.679
213.784	30.924
217.907	43.116
222.027	95.415
226.146	216.088
230.263	435.9
234.377	493.814
238.49	265.803
242.601	118.847
246.709	48.932
250.816	35.051
254.921	32.193
259.024	21.352
263.125	0.524
267.224	0.707
271.321	2.099
275.416	0.113
279.51	0.348
283.601	0.407
287.69	4.808
291.778	12.008
295.863	12.198
299.947	1.383
304.029	25.567
308.108	3.75
312.186	6.93
316.262	10.106
320.336	15.274
324.408	7.435
328.478	6.592
332.546	14.741
336.612	15.875
340.677	8.989
344.739	12.095
348.799	8.184
352.858	11.603
356.915	3.928
360.969	9.107
365.022	9.123
369.073	17.109
373.122	14.078
377.169	23.041
381.215	29.996
385.258	14.955
389.299	32.918
393.339	27.882
397.376	40.919
401.412	58.881
405.446	117.84
409.478	607.796
413.508	3507.75
417.536	4997.7
421.562	1001.64
425.586	212.588
429.609	61.548
433.629	67.571
437.648	62.222
441.665	39.349
445.68	44.891
449.693	42.823
453.704	34.614
457.713	35.237
461.721	47.165
465.726	45.074
469.73	76.976
473.731	82.642
477.731	99.302
481.729	147.51
485.725	249.387
489.72	492.258
493.712	1228.16
497.703	2327.04
501.691	1819.91
505.678	744.688
509.663	300.556
513.646	151.522
517.627	90.776
521.607	57.399
525.584	42.295
529.56	48.836
533.534	66.72
537.506	47.415
541.476	47.979
545.444	35.844
549.41	17.689
553.375	40.541
557.337	35.387
561.298	33.233
565.257	38.067
569.214	39.946
573.17	30.801
577.123	24.721
581.075	5.711
585.024	4.542
588.972	14.559
592.918	14.61
596.863	7.827
600.805	3.02
604.746	36.363
608.685	50.616
612.621	18.002
616.557	19.811
620.49	20.519
624.421	60.216
628.351	109.91
632.279	35.658
636.205	19.49
640.129	22.159
644.051	15.817
647.972	9.754
651.89	35.326
655.807	37.412
659.722	70.718
663.636	167.431
667.547	493.1
671.457	2812.01
675.365	8471.61
679.271	2329.55
683.175	480.131
687.077	132.7
690.978	87.255
694.877	35.799
698.774	37.332
702.669	25.851
706.562	15.355
710.454	30.845
714.344	10.494
718.232	14.955
722.118	7.549
726.002	12.609
729.885	16.141
733.766	17.816
737.645	28.776
741.522	8.812
745.397	12.305
749.271	12.995
753.143	13.967
757.013	18.794
760.881	9.033
764.748	10.257
768.613	7.466
772.476	14.657
776.337	12.801
780.196	7.965
784.054	17.147
787.91	6.285
791.764	15.409
795.616	13.862
799.467	7.616
803.316	11.301
807.163	4.286
811.008	2.265
814.851	1.052
818.693	5.712
822.533	0.317
826.371	2.381
830.208	6.524
834.042	4.402
837.875	48.27
841.706	35.131
845.536	26.986
849.363	17.837
853.189	24.683
857.013	22.525
860.836	19.364
864.656	28.2
868.475	10.023
872.292	3.15
876.108	18.37
879.922	7.415
883.733	9.182
887.544	4.872
891.352	1.479
895.159	9.33
898.964	1.789
902.767	11.529
906.568	14.289
910.368	1.041
914.166	17.115
917.962	17.903
921.757	2.495
925.55	3.238
929.341	12.057
933.13	2.12
936.918	38.72
940.703	15.487
944.488	14.209
948.27	46.09
952.051	51.986
955.83	57.691
959.607	76.133
963.383	71.765
967.156	115.266
970.928	132.265
974.699	173.058
978.468	210.684
982.234	232.027
986	273.783
989.763	309.909
993.525	407.066
997.285	781.254
1001.04	1236.49
1004.8	1546.74
1008.55	3141.03
1012.31	9600.34
1016.06	47304.7
1019.81	35914.8
1023.56	8267.07
1027.31	2861.48
1031.05	1432.4
1034.79	879.813
1038.53	565.094
1042.27	430.1
1046.01	304.656
1049.75	240.466
1053.48	192.522
1057.22	135.248
1060.95	99.786
1064.68	83.583
1068.4	68.41
1072.13	63.271
1075.86	68.164
1079.58	55.088
1083.3	70.016
1087.02	41.002
1090.74	64.021
1094.45	79.073
1098.17	64.416
1101.88	101.53
1105.59	108.682
1109.3	209.769
1113.01	335.361
1116.71	495.694
1120.42	939.58
1124.12	2821.94
1127.82	15054.8
1131.52	16270.3
1135.22	3077.43
1138.91	924.924
1142.61	427.244
1146.3	283.65
1149.99	190.217
1153.68	131.808
1157.37	119.748
1161.06	201.734
1164.74	98.59
1168.42	42.675
1172.1	58.18
1175.78	29.375
1179.46	29.147
1183.14	23.938
1186.81	44.75
1190.48	43.588
1194.15	32.445
1197.83	21.327
1201.49	9.236
1205.16	22.16
1208.82	20.103
1212.49	16.059
1216.15	21.028
1219.81	28.01
1223.46	30.004
1227.12	9.012
1230.78	21.03
1234.43	27.064
1238.08	28.098
1241.73	6.858
1245.38	7.2
1249.03	14.715
1252.67	18.321
1256.31	0.383
1259.95	1.53
1263.6	28.514
1267.23	12.96
1270.87	1.225
1274.51	4.307
1278.14	20.866
1281.77	9.817
1285.4	12.111
1289.03	3.177
1292.66	5.74
1296.28	8.644
1299.91	3.452
1303.53	1.445
1307.15	16.338
1310.77	13.241
1314.38	7.116
1318	4.965
1321.61	7.787
1325.23	14.588
1328.84	23.411
1332.45	17.173
1336.06	18.971
1339.66	15.702
1343.27	25.454
1346.87	35.172
1350.47	29.959
1354.07	54.646
1357.67	54.329
1361.26	57.034
1364.86	65.69
1368.45	57.62
1372.04	54.243
1375.63	43.827
1379.22	40.373
1382.81	50.854
1386.39	34.747
1389.98	23.898
1393.56	17.968
1397.14	19.02
1400.72	20.481
1404.3	20.655
1407.87	1.144
1411.45	19.238
1415.02	19.606
1418.59	6.699
1422.16	12.814
1425.73	20.028
1429.29	24.589
1432.86	19.122
1436.42	35.625
1439.98	23.095
1443.54	49.531
1447.1	37.925
1450.66	38.276
1454.21	45.584
1457.77	33.825
1461.32	36.052
1464.87	39.174
1468.42	24.728
1471.96	12.462
1475.51	13.461
1479.06	24.32
1482.6	19.523
1486.14	31.655
1489.68	35.64
1493.22	21.619
1496.75	22.641
1500.29	4.392
1503.82	21.516
1507.35	0.308
1510.88	24.752
1514.41	13.97
1517.94	4.573
1521.46	6.36
