Measurement: Raman, 514 nm, depolarized, Raman Data Processed
Mineral: Anhydrite
Rruff sample: R040012
Ideal chemistry: CaS^6+^O_4_
Locality: Moundhouse, Nevada, USA
Source: University of Arizona Mineral Museum
Description: White massive
Measured chemistry: Ca_1.00_S_1.00_O_4_
Pin_id: S00004
Orientation: Laser parallel to -a* (-1 0 0). Fiducial mark perpendicular to laser is parallel to b [0 1 0]
Raman shift (cm-1)	intensity
93.375	0
97.554	7.535
101.732	105.65
105.908	160.109
110.082	69.718
114.254	120.267
118.424	529.483
122.592	1026.72
126.758	499.4
130.922	756.49
135.083	231.25
139.243	101.018
143.401	110.318
147.557	102.264
151.711	92.279
155.863	157.841
160.013	102.027
164.161	75.464
168.308	111.5
172.452	39.834
176.594	19.423
180.734	7.252
184.872	49.83
189.008	34.683
193.143	46.992
197.275	5.582
201.405	11.322
205.534	49.464
209.66	37.52
213.784	45.467
217.907	72.752
222.027	170.397
226.146	213.537
230.263	241.247
234.377	237.201
238.49	190.989
242.601	176.637
246.709	139.677
250.816	176.615
254.921	183.226
259.024	202.311
263.125	321.47
267.224	300.793
271.321	325.778
275.416	267.859
279.51	194.718
283.601	160.387
287.69	177.881
291.778	156.494
295.863	186.078
299.947	227.221
304.029	253.829
308.108	270.423
312.186	254.015
316.262	287.151
320.336	245.127
324.408	260.144
328.478	211.464
332.546	240.484
336.612	225.587
340.677	215.76
344.739	257.569
348.799	241.219
352.858	105.385
356.915	98.12
360.969	92.002
365.022	52.748
369.073	48.785
373.122	36.37
377.169	85.642
381.215	102.74
385.258	86.158
389.299	180.913
393.339	276.37
397.376	139
401.412	46.406
405.446	42.677
409.478	19.427
413.508	202.432
417.536	199.655
421.562	39.881
425.586	19.958
429.609	37.253
433.629	45.27
437.648	16.665
441.665	26.075
445.68	95.702
449.693	116.818
453.704	128.43
457.713	184.952
461.721	255.525
465.726	309.556
469.73	421.54
473.731	384.722
477.731	485.219
481.729	519.682
485.725	940.575
489.72	1644.96
493.712	3984.96
497.703	7706.66
501.691	5399.55
505.678	2125.73
509.663	982.218
513.646	497.157
517.627	385.622
521.607	286.735
525.584	265.648
529.56	220.766
533.534	195.939
537.506	115.911
541.476	132.964
545.444	109.735
549.41	139.789
553.375	126.505
557.337	239.917
561.298	228.327
565.257	246.214
569.214	312.123
573.17	267.885
577.123	234.496
581.075	322.94
585.024	443.635
588.972	509.945
592.918	502.808
596.863	542.274
600.805	746.598
604.746	1603.74
608.685	5059.7
612.621	1238.96
616.557	918.075
620.49	1139.16
624.421	1820.14
628.351	1650
632.279	922.737
636.205	755.355
640.129	855.849
644.051	1112.22
647.972	1278.49
651.89	1164.63
655.807	833.657
659.722	490.564
663.636	249.087
667.547	401.01
671.457	1323.54
675.365	3734.96
679.271	787.266
683.175	105.46
687.077	6.541
690.978	7.456
694.877	68.948
698.774	26.888
702.669	74.275
706.562	38.976
710.454	118.269
714.344	77.069
718.232	14.433
722.118	8.639
726.002	101.65
729.885	183.564
733.766	196.375
737.645	183.097
741.522	13.251
745.397	105.276
749.271	150.727
753.143	148.107
757.013	113.419
760.881	155.657
764.748	131.833
768.613	175.968
772.476	201.794
776.337	192.06
780.196	187.821
784.054	173.899
787.91	188.253
791.764	262.511
795.616	332.24
799.467	283.921
803.316	261.56
807.163	321.157
811.008	295.716
814.851	255.24
818.693	420.734
822.533	432.2
826.371	501.642
830.208	600.062
834.042	473.465
837.875	608.679
841.706	719.018
845.536	791.299
849.363	929.876
853.189	993.251
857.013	1367.88
860.836	1607.3
864.656	1242.02
868.475	935.41
872.292	724.952
876.108	585.773
879.922	592.42
883.733	539.799
887.544	653.172
891.352	615.722
895.159	675.598
898.964	702.359
902.767	651.194
906.568	548.143
910.368	595.995
914.166	567.115
917.962	386.455
921.757	232.588
925.55	146.246
929.341	192.013
933.13	202.891
936.918	286.88
940.703	268.984
944.488	148.204
948.27	159.54
952.051	265.994
955.83	304.568
959.607	216.264
963.383	241.082
967.156	255.023
970.928	157.088
974.699	156.28
978.468	109.597
982.234	211.041
986	295.612
989.763	403.312
993.525	310.158
997.285	883.3
1001.04	2284.15
1004.8	2315.34
1008.55	2839.54
1012.31	8057.7
1016.06	40692.1
1019.81	30255.9
1023.56	7112.01
1027.31	2766.34
1031.05	1365.8
1034.79	725.352
1038.53	453.007
1042.27	328.759
1046.01	208.681
1049.75	162.441
1053.48	210.15
1057.22	47.324
1060.95	41.182
1064.68	38.634
1068.4	75.167
1072.13	142.324
1075.86	169.891
1079.58	429.533
1083.3	621.246
1087.02	507.03
1090.74	269.881
1094.45	216.798
1098.17	126.778
1101.88	219.817
1105.59	380.912
1109.3	1668.06
1113.01	1891.26
1116.71	888.502
1120.42	534.791
1124.12	845.121
1127.82	3351.49
1131.52	3698.89
1135.22	747.318
1138.91	154.803
1142.61	18.843
1146.3	12.856
1149.99	174.034
1153.68	56.384
1157.37	6.213
1161.06	165.793
1164.74	220.391
1168.42	37.914
1172.1	119.408
1175.78	216.769
1179.46	167.106
1183.14	54.433
1186.81	75.744
1190.48	95.038
1194.15	10.339
1197.83	24.527
1201.49	236.656
1205.16	51.782
1208.82	23.183
1212.49	88.344
1216.15	161.39
1219.81	196.233
1223.46	157.271
1227.12	93.051
1230.78	160.814
1234.43	209.562
1238.08	470.281
1241.73	472.905
1245.38	427.507
1249.03	521.837
1252.67	457.005
1256.31	320.195
1259.95	359.425
1263.6	449.391
1267.23	635.181
1270.87	736.87
1274.51	853.431
1278.14	890.041
1281.77	668.342
1285.4	488.757
1289.03	491.501
1292.66	524.89
1296.28	651.98
1299.91	474.998
1303.53	494.949
1307.15	617.828
1310.77	715.763
1314.38	818.833
1318	799.021
1321.61	732.03
1325.23	679.529
1328.84	492.87
1332.45	223.042
1336.06	71.029
1339.66	2.164
1343.27	36.455
1346.87	125.874
1350.47	137.096
1354.07	78.08
1357.67	101.684
1361.26	62.417
1364.86	58.896
1368.45	62.266
1372.04	105.15
1375.63	110.598
1379.22	193.108
1382.81	244.946
1386.39	254.266
1389.98	238.919
1393.56	172.687
1397.14	8.401
1400.72	24.065
1404.3	96.221
1407.87	55.422
1411.45	58.642
1415.02	94.174
1418.59	149.641
1422.16	0.007
