Measurement: Raman, 514 nm, depolarized, Raman Data Processed
Mineral: Anhydrite
Rruff sample: R040061
Ideal chemistry: CaS^6+^O_4_
Locality: Chester County, Pennsylvania, USA
Source: University of Arizona Mineral Museum
Description: Pale purple fractured single crystal
Measured chemistry: Ca_0.98_S_1.01_O_4_
Pin_id: M00369
Orientation: Laser parallel to a* (1 0 0). Fiducial mark perpendicular to laser is parallel to b [0 1 0]
Raman shift (cm-1)	intensity
90.587	0
94.768	0.213
98.947	5.342
103.124	17.933
107.3	51.74
111.473	77.428
115.644	351.741
119.813	1007.85
123.981	1062.62
128.146	590.365
132.309	710.464
136.47	190.482
140.63	51.653
144.787	24.939
148.942	48.317
153.096	45.883
157.247	47.539
161.396	49.773
165.544	58.117
169.689	71.725
173.833	36.723
177.974	16.01
182.114	3.47
186.251	18.643
190.387	18.269
194.52	9.898
198.652	21.988
202.782	11.18
206.909	15.403
211.035	4.812
215.159	3.279
219.281	51.972
223.4	64.774
227.518	132.649
231.634	158.479
235.748	74.827
239.86	20.102
243.97	14.376
248.079	24.649
252.185	4.09
256.289	12.519
260.391	18.084
264.492	17.746
268.59	6.419
272.687	3.063
276.781	32.659
280.874	26.198
284.964	22.859
289.053	27.036
293.14	5.659
297.225	19.575
301.308	30.745
305.389	43.779
309.468	32.642
313.545	21.418
317.62	13.121
321.693	16.771
325.765	10.4
329.834	36.006
333.902	8.587
337.967	27.122
342.031	17.391
346.093	3.74
350.153	5.938
354.21	16.644
358.267	8.218
362.321	11.95
366.373	33.915
370.423	7.206
374.471	9.367
378.518	23.709
382.563	31.036
386.605	32.318
390.646	67.63
394.685	40.947
398.722	51.274
402.757	54.591
406.79	82.84
410.821	133.116
414.851	440.637
418.878	207.833
422.904	91.708
426.927	78.34
430.949	112.542
434.969	134.107
438.987	126.343
443.003	122.711
447.018	141.057
451.03	153.355
455.041	190.074
459.049	210.341
463.056	232.685
467.061	291.988
471.064	325.28
475.065	447.15
479.064	544.65
483.062	851.659
487.057	1465.62
491.051	3009.98
495.043	7134.25
499.032	10257.7
503.02	4832.04
507.007	1867.03
510.991	849.602
514.973	425.895
518.954	241.7
522.933	156.606
526.91	167.689
530.885	122.116
534.858	86.54
538.829	83.009
542.799	45.512
546.766	47.014
550.732	35.304
554.696	24.074
558.658	40.867
562.618	58.599
566.576	40.177
570.533	26.636
574.488	29.84
578.44	13.111
582.391	33.01
586.341	33.466
590.288	2.913
594.233	26.504
598.177	90.955
602.119	366.612
606.059	2368.95
609.997	2931.36
613.933	359.942
617.868	91.381
621.801	85.371
625.731	176.36
629.66	96.644
633.588	50.869
637.513	15.643
641.437	40.234
645.358	43.453
649.278	34.604
653.196	59.208
657.113	70.314
661.027	70.397
664.94	176.459
668.851	520.506
672.76	3428.53
676.667	3785.54
680.572	492.533
684.476	139.507
688.378	75.455
692.278	20.377
696.176	32.274
700.072	50.143
703.967	4.986
707.86	14.582
711.751	28.001
715.64	2.699
719.527	6.359
723.413	23.988
727.297	12.623
731.179	2.6
735.059	5.38
738.937	19.832
742.814	26.053
746.689	10.409
750.562	23.574
754.433	0.758
758.303	15.957
762.17	3.871
766.036	34.25
769.901	8.683
773.763	4.332
777.624	0.693
781.482	8.218
785.339	15.078
789.195	19.909
793.048	3.519
796.9	10.246
800.75	8.553
804.598	23.72
808.445	25.941
812.289	32.548
816.132	39.162
819.973	37.797
823.813	28.347
827.65	2.688
831.486	30.482
835.32	31.032
839.152	33.571
842.983	51.102
846.812	28.62
850.639	20.135
854.464	40.607
858.288	14.068
862.11	10.581
865.93	26.881
869.748	17.734
873.564	32.061
877.379	5.542
881.192	4.994
885.004	4.769
888.813	22.614
892.621	32.614
896.427	10.129
900.232	26.775
904.034	7.176
907.835	39.216
911.634	22.822
915.432	25.913
919.227	47.984
923.021	40.516
926.813	59.821
930.604	26.557
934.393	42.837
938.18	12.544
941.965	62.303
945.749	80.109
949.53	80.92
953.311	43.715
957.089	103.985
960.866	78.019
964.641	136.953
968.414	127.94
972.185	201.96
975.955	224.028
979.723	273.138
983.49	262.281
987.254	339.462
991.017	440.703
994.779	598.978
998.538	1141.31
1002.3	1491.71
1006.05	2255.15
1009.81	5126
1013.56	19904.1
1017.31	63900.3
1021.06	19243.1
1024.81	5140.26
1028.55	2197.29
1032.3	1208.66
1036.04	698.319
1039.78	537.756
1043.52	371.728
1047.26	276.552
1050.99	220.592
1054.73	162.682
1058.46	147.751
1062.19	124.944
1065.92	94.172
1069.65	84.449
1073.37	103.769
1077.1	33.131
1080.82	87.534
1084.54	94.004
1088.26	35.5
1091.97	44.024
1095.69	73.585
1099.4	96.197
1103.12	175.869
1106.83	702.779
1110.54	2589.56
1114.24	1705.91
1117.95	759.047
1121.65	635.017
1125.35	1755.71
1129.06	7786.54
1132.75	2350.45
1136.45	496.746
1140.15	215.736
1143.84	89.808
1147.53	61.082
1151.22	42.333
1154.91	42.332
1158.6	89.282
1162.28	179.005
1165.97	11.354
1169.65	6.694
1173.33	8.171
1177.01	51.047
1180.69	35.815
1184.36	11.791
1188.04	12.01
1191.71	31.803
1195.38	18.589
1199.05	27.371
1202.71	37.224
1206.38	42.979
1210.04	38.72
1213.71	65.447
1217.37	99.159
1221.03	65.855
1224.68	55.534
1228.34	10.195
1231.99	32.884
1235.65	49.511
1239.3	61.169
1242.95	40.838
1246.59	25.481
1250.24	0.049
1253.88	4.572
1257.53	47.089
1261.17	52.573
1264.81	27.068
1268.45	11.593
1272.08	32.818
1275.72	18.964
1279.35	20.252
1282.98	17.391
1286.61	46.313
1290.24	16.749
1293.87	20.096
1297.49	38.953
1301.11	35.715
1304.73	13.442
1308.36	12.871
1311.97	22.745
1315.59	25.171
1319.2	63.947
1322.82	42.525
1326.43	4.946
1330.04	54.854
1333.65	41.061
1337.26	40.22
1340.86	64.322
1344.47	61.382
1348.07	96.399
1351.67	74.373
1355.27	57.304
1358.87	104.201
1362.46	89.071
1366.06	97.033
1369.65	75.896
1373.24	73.231
1376.83	71.033
1380.42	72.826
1384	68.753
1387.59	38.323
1391.17	52.054
1394.75	65.525
1398.33	36.859
1401.91	74.957
1405.49	61.538
1409.06	1.024
1412.64	12.725
1416.21	60.723
1419.78	28.434
1423.35	7.562
1426.91	26.144
1430.48	48.396
1434.05	58.729
1437.61	41.146
1441.17	34.501
1444.73	45.791
1448.29	65.998
1451.84	67.939
1455.4	74.109
1458.95	68.416
1462.5	60.145
1466.05	84.947
1469.6	35.349
1473.15	70.619
1476.69	37.598
1480.24	67.109
1483.78	46.662
1487.32	35.057
1490.86	31.329
1494.39	37.519
1497.93	63.093
1501.46	38.391
1505	7.113
1508.53	36.531
1512.06	76.104
1515.59	95.545
1519.11	19.9
