Measurement: Raman, 514 nm, depolarized, Raman Data Processed
Mineral: Ankerite
Rruff sample: R050181
Ideal chemistry: CaFe^2+^(CO_3_)_2_
Locality: Cerro Sapo, Cochabamba Department, Bolivia
Source: Marcus Origlieri
Description: White coarsely crystalline massive
Measured chemistry: Ca_1.00_(Fe^2+^_0.60_Mg_0.35_Mn^2+^_0.05_)_Î£=1_(CO_3_)_2_ ; C not measured but estimated by difference and stoichiometry
Pin_id: L00069
Orientation: Laser parallel to c* (0 0 1). Fiducial mark perpendicular to laser is parallel to -b [0 -1 0]
Raman shift (cm-1)	intensity
78.729	0
82.916	19.938
87.101	37.036
91.284	28.22
95.465	188.288
99.644	138.318
103.82	42.196
107.995	35.465
112.168	9.335
116.339	184.107
120.508	121.291
124.675	81.216
128.84	61.019
133.003	70.357
137.164	124.891
141.323	255.605
145.48	274.732
149.635	327.191
153.788	461.529
157.939	750.619
162.088	1262.38
166.235	1925.35
170.38	2005.35
174.523	1220.56
178.664	559.78
182.803	252.957
186.94	101.058
191.076	28.996
195.209	4.765
199.34	8.682
203.47	20.387
207.597	15.145
211.722	10.593
215.846	13.799
219.967	32.636
224.087	20.505
228.204	4.98
232.32	13.055
236.434	19.316
240.545	33.131
244.655	76.091
248.763	148.513
252.869	194.95
256.973	321.924
261.075	437.039
265.175	634.623
269.273	894.113
273.369	1335.59
277.463	1725.7
281.556	1999.3
285.646	1954.22
289.734	1748.39
293.821	1378.59
297.905	1037.42
301.988	702.262
306.069	463.953
310.147	349.994
314.224	261.582
318.299	200.641
322.372	164.323
326.443	184.743
330.512	154.01
334.579	141.157
338.645	118.181
342.708	124.079
346.769	85.847
350.829	72.875
354.887	89.296
358.942	48.695
362.996	52.686
367.048	68.948
371.098	7.75
375.146	40.25
379.192	47.587
383.236	43.391
387.279	30.537
391.319	20.179
395.358	38.584
399.394	12.654
403.429	3.867
407.462	8.441
411.493	7.486
415.522	16.105
419.549	7.177
423.575	9.714
427.598	21.225
431.619	26.009
435.639	3.331
439.657	62.19
443.673	21.593
447.687	18.256
451.699	47.024
455.709	52.079
459.717	63.048
463.724	30.925
467.728	43.75
471.731	15.508
475.732	44.18
479.731	62.992
483.728	53.626
487.723	66.841
491.716	80.582
495.708	95.826
499.697	61.971
503.685	97.735
507.671	96.406
511.655	88.813
515.637	66.682
519.617	133.121
523.596	93.377
527.572	75.486
531.547	106.393
535.52	89.716
539.491	111.314
543.46	144.828
547.427	111.036
551.393	105.367
555.356	90.723
559.318	100.034
563.278	90.762
567.236	80.855
571.192	103.872
575.147	75.628
579.099	118.843
583.05	71.889
586.999	84.283
590.946	73.853
594.891	83.28
598.834	81.003
602.776	47.767
606.715	44.401
610.653	35.031
614.589	37.743
618.523	38.812
622.456	30.622
626.386	58.614
630.315	26.592
634.242	5.002
638.167	39.587
642.09	19.519
646.012	81.5
649.931	54.138
653.849	46.722
657.765	41.795
661.679	21.916
665.592	56.156
669.502	7.369
673.411	72.472
677.318	52.295
681.223	75.113
685.126	83.356
689.028	100.169
692.927	101.201
696.825	108.558
700.721	141.345
704.616	204.397
708.508	320.339
712.399	466.124
716.288	903.891
720.175	1375.66
724.06	1461.41
727.944	988.17
731.825	513.92
735.705	283.667
739.584	194.406
743.46	122.139
747.334	40.127
751.207	67.836
755.078	19.534
758.947	32.216
762.815	21.882
766.68	9.916
770.544	13.263
774.406	27.303
778.267	23.826
782.125	2.245
785.982	25.68
789.837	23.137
793.69	23.126
797.542	11.3
801.391	8.492
805.239	22.658
809.085	28.228
812.93	31.805
816.772	18.178
820.613	6.217
824.452	6.3
828.29	56.219
832.125	38.127
835.959	26.025
839.791	34.909
843.621	1.225
847.45	21.618
851.277	26.407
855.102	2.824
858.925	1.069
862.746	2.675
866.566	49.413
870.384	69.147
874.2	89.879
878.015	81.608
881.828	1.336
885.639	24.063
889.448	55.79
893.256	34.518
897.061	24.752
900.865	12.948
904.668	32.653
908.468	37.363
912.267	25.081
916.064	23.672
919.86	28.44
923.653	21.022
927.445	40.637
931.236	11.204
935.024	2.564
938.811	26.178
942.596	1.324
946.379	55.611
950.161	28.449
953.94	29.437
957.719	35.409
961.495	76.601
965.27	0.369
969.043	22.719
972.814	80.086
976.583	64.116
980.351	73.19
984.117	107.296
987.882	82.435
991.644	54.179
995.405	85.164
999.165	82.441
1002.92	133.191
1006.68	108.267
1010.43	104.487
1014.18	118.926
1017.93	132.452
1021.68	163.04
1025.43	205.677
1029.18	228.354
1032.92	290.073
1036.66	282.86
1040.4	321.688
1044.14	431.608
1047.88	460.333
1051.62	513.396
1055.35	587.507
1059.08	627.67
1062.81	729.134
1066.54	884.382
1070.27	1253.14
1073.99	1554.46
1077.72	2006.89
1081.44	3094.42
1085.16	6261.05
1088.88	18435.7
1092.59	48022.4
1096.31	32069.2
1100.02	9576.09
1103.73	3310.99
1107.44	1565
1111.15	957.006
1114.86	596.125
1118.57	456.232
1122.27	428.394
1125.97	397.591
1129.67	224.818
1133.37	178.181
1137.07	162.477
1140.76	87.875
1144.45	106.443
1148.15	54.111
1151.84	122.737
1155.53	93.542
1159.21	72.329
1162.9	97.055
1166.58	85.058
1170.26	55.955
1173.94	11.559
1177.62	38.292
1181.3	20.137
1184.97	20.834
1188.65	23.614
1192.32	27.836
1195.99	13
1199.66	18.47
1203.33	9.124
1206.99	11.645
1210.65	2.903
1214.32	22.487
1217.98	25.254
1221.64	63.042
1225.29	57.473
1228.95	47.802
1232.6	81.574
1236.26	6.127
1239.91	36.636
1243.56	24.952
1247.2	52.253
1250.85	52.539
1254.49	37.844
1258.13	14.185
1261.78	39.235
1265.41	38.449
1269.05	25.604
1272.69	36.742
1276.32	25.552
1279.95	25.725
1283.59	17.637
1287.21	1.455
1290.84	12.108
1294.47	7.66
1298.09	12.14
1301.72	27.543
1305.34	24.158
1308.96	47.041
1312.58	4.064
1316.19	47.835
1319.81	31.663
1323.42	21.398
1327.03	23.033
1330.64	12.566
1334.25	36.995
1337.86	9.698
1341.46	21.49
1345.07	0.419
1348.67	31.59
1352.27	72.27
1355.87	45.143
1359.46	26.948
1363.06	9.694
1366.65	15.603
1370.25	22.946
1373.84	41.672
1377.43	68.776
1381.02	20.228
1384.6	51.922
1388.18	53.322
1391.77	77.598
1395.35	84.703
1398.93	94.859
1402.51	2.824
1406.08	53.725
1409.66	61.554
1413.23	53.617
1416.8	126.93
1420.37	163.773
1423.94	190.592
1427.51	261.116
1431.08	294.051
1434.64	441.972
1438.2	493.283
1441.76	576.29
1445.32	589.062
1448.88	404.698
1452.43	308.71
1455.99	296.137
1459.54	234.599
1463.09	169.392
1466.64	119.98
1470.19	104.064
1473.74	96.142
1477.28	103.02
1480.83	79.362
1484.37	121.666
1487.91	72.408
1491.45	16.617
1494.98	3.888
1498.52	72.579
1502.05	73.784
1505.59	61.686
1509.12	64.467
1512.65	45.391
1516.17	53.399
1519.7	67.956
1523.23	0
