Measurement: Raman, 514 nm, depolarized, Raman Data Processed
Mineral: Ankerite
Rruff sample: R050197
Ideal chemistry: CaFe^2+^(CO_3_)_2_
Locality: Brownley Hill mine, Nenthead, Cumbria, England
Source: Marcus Origlieri
Description: Curved saddle-shaped rhombohedral crystals
Measured chemistry: Ca_1.00_(Fe^2+^_0.52_Mg_0.35_Ca_0.08_Mn^2+^_0.05_)_Î£=1_(CO_3_)_2_ ; where C was not measured but estimated by difference and stoichiometry
Pin_id: M00064
Orientation: Laser parallel to -c* (0 0 -1). Fiducial mark perpendicular to laser is parallel to -a [-1 0 0]
Raman shift (cm-1)	intensity
114.44	0
119.365	4.62219
124.288	20.8662
129.209	65.1681
134.127	114.559
139.043	194.695
143.956	309.749
148.867	521.592
153.775	1010.68
158.681	1782.5
163.585	2680.64
168.486	2721.78
173.385	1712.72
178.282	802.281
183.176	382.647
188.067	268.35
192.956	160.177
197.843	140.275
202.727	155.556
207.609	62.0857
212.489	77.6539
217.366	48.3728
222.24	94.1294
227.112	136.87
231.982	187.569
236.849	264.214
241.714	403.656
246.577	571.354
251.437	893.875
256.294	1284.67
261.149	2201.05
266.002	3152.25
270.852	4859.78
275.7	6436.6
280.545	7335
285.388	6957.75
290.229	5821.32
295.067	4027.18
299.902	2659.3
304.735	1662.48
309.566	1119.21
314.394	751.525
319.22	474.41
324.043	470.717
328.864	358.925
333.682	269.25
338.498	269.147
343.311	180.963
348.122	182.758
352.931	94.3415
357.737	69.7756
362.54	62.1317
367.341	32.3352
372.14	12.4585
376.936	33.4231
381.73	13.23
386.521	27.1926
391.31	24.8074
396.096	44.7595
400.88	43.9299
405.661	4.41077
410.44	37.1981
415.216	22.9734
419.99	41.915
424.761	1.67029
429.53	23.2446
434.297	21.377
439.061	52.7673
443.822	62.7363
448.581	4.57227
453.337	9.74854
458.091	29.7268
462.843	73.0001
467.592	28.1262
472.338	35.2543
477.082	76.1547
481.824	54.8921
486.563	55.4526
491.3	82.9968
496.034	117.487
500.765	108.746
505.494	66.2075
510.221	101.945
514.945	130.716
519.666	79.2877
524.385	136.296
529.102	96.0199
533.816	122.083
538.527	150.156
543.236	89.4117
547.943	134.705
552.647	99.4708
557.348	149.774
562.047	123.608
566.744	88.8317
571.438	96.6134
576.129	94.4293
580.818	101.196
585.504	87.6106
590.188	70.3352
594.87	93.2158
599.549	25.7239
604.225	79.798
608.899	38.1753
613.57	47.1757
618.239	101.012
622.905	46.9845
627.569	0.055786
632.23	27.9825
636.889	58.9303
641.545	28.866
646.198	23.7244
650.849	59.8485
655.498	78.7706
660.144	58.5662
664.787	53.4779
669.428	85.0574
674.067	32.4883
678.703	66.6865
683.336	53.7058
687.967	88.7163
692.595	140.954
697.221	179.972
701.844	292.842
706.465	500.54
711.083	899.435
715.698	1486.56
720.311	1756.65
724.922	1352.99
729.53	720.49
734.135	435.134
738.738	240.149
743.338	149.159
747.936	70.308
752.531	34.1368
757.124	77.9971
761.714	36.8503
766.302	26.3546
770.887	20.1551
775.469	60.7551
780.049	36.4224
784.626	23.1427
789.201	4.34338
793.773	58.9045
798.343	8.28076
802.91	16.3246
807.475	1.03809
812.037	9.42212
816.596	22.7811
821.153	47.6804
825.707	1.75989
830.259	51.7977
834.808	18.1954
839.355	18.2484
843.899	49.4731
848.441	48.1393
852.98	31.7658
857.516	59.3622
862.05	2.92102
866.581	62.4453
871.11	215.943
875.636	118.416
880.159	80.864
884.68	6.28662
889.199	36.7085
893.714	17.1196
898.228	11.5133
902.738	80.8765
907.246	17.037
911.752	22.3281
916.255	5.62354
920.755	52.9166
925.253	41.8175
929.748	0.959229
934.241	20.2219
938.731	34.0918
943.218	73.6106
947.703	54.6665
952.186	29.7625
956.665	23.0271
961.142	45.8196
965.617	36.3525
970.089	12.2581
974.558	38.7871
979.025	49.0234
983.489	23.602
987.951	42.9905
992.41	74.4797
996.866	81.6306
1001.32	131.195
1005.77	125.794
1010.22	106.431
1014.67	207.105
1019.11	202.64
1023.55	269.384
1027.99	314.18
1032.42	313.184
1036.86	417.353
1041.29	443.322
1045.72	545.323
1050.14	581.74
1054.56	684.844
1058.98	765.486
1063.4	1132.84
1067.82	1687.69
1072.23	2169.14
1076.64	3648.72
1081.05	8430.49
1085.45	27809.9
1089.85	60031.1
1094.25	40705
1098.65	13204.8
1103.04	3960.97
1107.43	1483.41
1111.82	801.523
1116.21	525.706
1120.59	369.972
1124.97	290.437
1129.35	195.105
1133.73	114.483
1138.1	97.9001
1142.47	79.3574
1146.84	88.5378
1151.21	30.5344
1155.57	34.1326
1159.93	54.7595
1164.29	19.3728
1168.64	42.0266
1172.99	22.3264
1177.34	28.9578
1181.69	68.7317
1186.04	51.2012
1190.38	30.2429
1194.72	3.74097
1199.05	31.1682
1203.39	44.9775
1207.72	39.8669
1212.05	76.8989
1216.37	12.5945
1220.7	68.8098
1225.02	59.491
1229.34	3.84863
1233.65	7.31152
1237.97	33.3247
1242.28	46.7393
1246.59	81.8879
1250.89	25.5837
1255.19	2.78687
1259.49	10.7097
1263.79	38.8894
1268.09	54.2895
1272.38	5.72925
1276.67	18.145
1280.95	15.5366
1285.24	73.9011
1289.52	85.2275
1293.8	90.5186
1298.08	43.5896
1302.35	100.762
1306.62	36.5471
1310.89	48.6748
1315.15	78.7686
1319.42	7.21411
1323.68	22.4685
1327.94	50.1143
1332.19	66.9021
1336.44	26.2398
1340.69	36.9214
1344.94	3.11426
1349.19	86
1353.43	17.5549
1357.67	31.8423
1361.9	20.7969
1366.14	32.324
1370.37	1.92847
1374.6	50.897
1378.83	79.7429
1383.05	52.4805
1387.27	56.5176
1391.49	7.50244
1395.7	142.189
1399.92	123.3
1404.13	166.445
1408.34	184.517
1412.54	266.353
1416.74	313.209
1420.94	410.006
1425.14	579.856
1429.34	707.876
1433.53	948.976
1437.72	982.964
1441.9	733.347
1446.09	584.659
1450.27	381.527
1454.45	340.205
1458.63	220.364
1462.8	202.919
1466.97	160.127
1471.14	143.191
1475.31	91.3281
1479.47	146.179
1483.63	78.8125
1487.79	37.6157
1491.94	14.3757
1496.09	108.144
1500.24	60.9263
1504.39	57.7043
1508.54	86.4912
1512.68	64.5603
1516.82	47.7998
1520.95	172.06
1525.09	137.496
1529.22	101.184
1533.35	100.552
1537.47	32.4795
1541.6	63.5308
1545.72	34.4477
1549.83	36.5178
1553.95	2.35986
1558.06	11.6577
1562.17	12.7759
1566.28	49.6338
1570.38	0
