Measurement: Raman, 514 nm, depolarized, Raman Data Processed
Mineral: Ankerite
Rruff sample: R050181
Ideal chemistry: CaFe^2+^(CO_3_)_2_
Locality: Cerro Sapo, Cochabamba Department, Bolivia
Source: Marcus Origlieri
Description: White coarsely crystalline massive
Measured chemistry: Ca_1.00_(Fe^2+^_0.60_Mg_0.35_Mn^2+^_0.05_)_Î£=1_(CO_3_)_2_ ; C not measured but estimated by difference and stoichiometry
Pin_id: M00493
Orientation: Laser parallel to -a* (-1 0 0). Fiducial mark perpendicular to laser is parallel to c [0 0 1]
Raman shift (cm-1)	intensity
106.604	0
110.777	99.644
114.949	152.463
119.119	223.256
123.286	69.108
127.452	8.969
131.615	13.594
135.777	2.711
139.937	77.7
144.094	188.681
148.25	248.944
152.403	397.812
156.555	568.891
160.705	1044.8
164.853	2027.78
168.998	2783.8
173.142	2281.97
177.284	1306.39
181.424	652.199
185.562	317.127
189.698	207.838
193.831	88.825
197.963	38.069
202.093	12.295
206.221	28.336
210.347	18.227
214.472	16.083
218.594	25.617
222.714	6.623
226.832	29.668
230.948	2.337
235.063	58.064
239.175	131.421
243.286	135.029
247.394	208.339
251.501	309.146
255.605	516.35
259.708	695.964
263.808	1068.99
267.907	1577.07
272.004	2347.75
276.099	3279
280.192	4256.9
284.283	4665.25
288.372	4487.43
292.459	3773.07
296.544	2834.47
300.627	1996.82
304.709	1325.25
308.788	883.617
312.865	579.269
316.941	427.421
321.015	310.785
325.086	228.253
329.156	168.264
333.224	185.341
337.29	222.985
341.354	149.217
345.416	143.198
349.476	153.895
353.534	159.32
357.591	104.132
361.645	80.52
365.698	62.785
369.748	41.112
373.797	35.847
377.844	6.413
381.889	4.047
385.932	8.946
389.973	9.083
394.012	20.493
398.049	12.594
402.084	16.642
406.118	1.836
410.15	18.088
414.179	8.166
418.207	0.83
422.233	42.939
426.257	40.718
430.279	2.689
434.299	25.643
438.318	39.76
442.334	61.611
446.349	66.032
450.361	45.25
454.372	39.154
458.381	30.879
462.388	58.621
466.394	75.076
470.397	72.286
474.398	59.145
478.398	80.864
482.396	92.554
486.391	63.998
490.385	92.016
494.377	106.887
498.368	124.358
502.356	139.729
506.342	134.371
510.327	111.326
514.31	134.221
518.291	164.983
522.27	141.457
526.247	124.587
530.222	141.189
534.196	154.53
538.167	122.463
542.137	150.222
546.105	144.924
550.071	122.964
554.035	145.703
557.998	98.715
561.958	142.12
565.917	135.958
569.874	93.855
573.829	134.889
577.782	58.028
581.733	101.648
585.683	96.095
589.63	85.083
593.576	85.292
597.52	50.754
601.462	62.33
605.402	60.991
609.341	55.352
613.277	40.077
617.212	5.365
621.145	34.752
625.076	73.043
629.006	99.648
632.933	46.337
636.859	24.212
640.783	40.076
644.705	42.495
648.625	39.693
652.543	31.001
656.46	9.641
660.375	50.822
664.288	23.862
668.199	29.503
672.108	66.885
676.016	44.331
679.921	26.49
683.825	49.449
687.727	58.772
691.628	62.934
695.526	38.926
699.423	69.195
703.318	100.295
707.211	184.385
711.102	259.457
714.992	416.515
718.879	825.579
722.765	1073.64
726.649	919.699
730.532	634.766
734.412	410.76
738.291	251.008
742.168	130.498
746.043	121.485
749.916	111.122
753.788	44.199
757.658	27.083
761.526	24.076
765.392	0.958
769.257	2.796
773.119	31.482
776.98	29.17
780.839	0.137
784.697	21.449
788.552	7.112
792.406	2.42
796.258	1.952
800.108	20.689
803.957	9.376
807.804	0.9
811.649	8.86
815.492	11.524
819.333	39.234
823.173	22.47
827.011	27.86
830.847	5.207
834.681	11.496
838.514	0.181
842.345	36.182
846.174	21.544
850.001	10.117
853.827	33.203
857.651	105.517
861.473	9.834
865.293	26.156
869.112	61.483
872.928	158.818
876.744	146.16
880.557	30.511
884.369	1.873
888.178	10.247
891.987	42.631
895.793	21.999
899.598	12.344
903.401	20.296
907.202	7.066
911.001	29.447
914.799	51.82
918.595	44.926
922.389	17.113
926.182	7.577
929.972	38.07
933.761	30.237
937.549	36.753
941.334	27.946
945.118	54.667
948.9	31.119
952.681	19.844
956.459	33.728
960.236	55.284
964.012	34.34
967.785	3.658
971.557	45.213
975.327	38.195
979.095	47.181
982.862	56.109
986.627	57.592
990.39	107.625
994.152	45.841
997.912	72.105
1001.67	78.974
1005.43	122.793
1009.18	63.221
1012.93	129.7
1016.68	113.231
1020.43	111.837
1024.18	204.535
1027.93	197.301
1031.67	266.132
1035.42	313.142
1039.16	301.144
1042.9	374.009
1046.63	442.67
1050.37	503.869
1054.11	520.952
1057.84	644.295
1061.57	673.698
1065.3	868.163
1069.03	1099.63
1072.75	1533.24
1076.47	1771.93
1080.2	2531.69
1083.92	4336.53
1087.64	10370.4
1091.36	34136.4
1095.07	45222.5
1098.79	18428.6
1102.5	5535.93
1106.21	2184.24
1109.92	1281.62
1113.62	760.056
1117.33	577.521
1121.04	455.879
1124.74	394.7
1128.44	287.368
1132.14	216.383
1135.83	133.183
1139.53	123.04
1143.22	116.944
1146.92	83.407
1150.61	80.926
1154.3	99.989
1157.98	93.096
1161.67	98.243
1165.35	82.196
1169.04	38.514
1172.72	52.665
1176.4	53.71
1180.07	7.634
1183.75	26.868
1187.42	52.26
1191.1	91.675
1194.77	78.129
1198.44	101.925
1202.1	16.146
1205.77	26.871
1209.43	56.18
1213.1	55.539
1216.76	20.118
1220.42	24.574
1224.07	42.313
1227.73	53.526
1231.38	24.197
1235.04	45.697
1238.69	59.525
1242.34	54.276
1245.99	57.969
1249.63	25.667
1253.28	63.376
1256.92	17.103
1260.56	35.842
1264.2	58.596
1267.84	72.359
1271.48	12.124
1275.11	5.109
1278.74	35.6
1282.38	26.274
1286.01	16.862
1289.63	29.432
1293.26	61.927
1296.89	28.393
1300.51	38.732
1304.13	23.169
1307.75	9.461
1311.37	28.685
1314.99	14.148
1318.6	30.956
1322.22	28.021
1325.83	38.051
1329.44	18.885
1333.05	22.763
1336.66	29.599
1340.26	24.599
1343.87	4.132
1347.47	43.142
1351.07	17.806
1354.67	38.446
1358.27	67.059
1361.86	58.88
1365.46	34.448
1369.05	12.231
1372.64	47.882
1376.23	2.576
1379.82	7.564
1383.41	40.76
1386.99	57.067
1390.57	78.955
1394.16	107.556
1397.74	128.136
1401.32	114.364
1404.89	89.887
1408.47	80.391
1412.04	118.583
1415.61	203.52
1419.18	196.066
1422.75	234.669
1426.32	391.305
1429.89	423.742
1433.45	573.614
1437.01	625.8
1440.58	696.426
1444.13	631.638
1447.69	468.552
1451.25	345.689
1454.81	278.9
1458.36	188.147
1461.91	171.229
1465.46	156
1469.01	158.432
1472.56	146.601
1476.1	147.96
1479.64	121.552
1483.19	117.259
1486.73	109.181
1490.27	52.899
1493.81	37.601
1497.34	36.513
1500.88	0.881
1504.41	50.84
1507.94	42.518
1511.47	18.778
1515	90.602
1518.53	62.689
1522.05	21.742
