Measurement: Raman, 514 nm, depolarized, Raman Data Processed
Mineral: Ankerite
Rruff sample: R050197
Ideal chemistry: CaFe^2+^(CO_3_)_2_
Locality: Brownley Hill mine, Nenthead, Cumbria, England
Source: Marcus Origlieri
Description: Curved saddle-shaped rhombohedral crystals
Measured chemistry: Ca_1.00_(Fe^2+^_0.52_Mg_0.35_Ca_0.08_Mn^2+^_0.05_)_Î£=1_(CO_3_)_2_ ; where C was not measured but estimated by difference and stoichiometry
Pin_id: M00092
Orientation: Laser parallel to a* (1 0 0). Fiducial mark perpendicular to laser is parallel to c [0 0 1]
Raman shift (cm-1)	intensity
114.44	0
119.365	76.0161
124.288	9.1084
129.209	298.827
134.127	632.418
139.043	1331.09
143.956	1690.9
148.867	1344.51
153.775	1098.11
158.681	1407.23
163.585	2108.83
168.486	2675.92
173.385	2296.72
178.282	1097.09
183.176	491.877
188.067	258.127
192.956	345.423
197.843	264.169
202.727	308.025
207.609	31.4658
212.489	88.7148
217.366	95.4722
222.24	28.9009
227.112	12.3833
231.982	170.909
236.849	88.4785
241.714	169.501
246.577	203.71
251.437	423.451
256.294	739.967
261.149	1237.47
266.002	1930.62
270.852	2790.01
275.7	4130.78
280.545	5113.46
285.388	5398.96
290.229	4814.61
295.067	3841.21
299.902	2403.73
304.735	1465.93
309.566	988.182
314.394	516.164
319.22	460.525
324.043	304.581
328.864	192.612
333.682	200.48
338.498	201.173
343.311	233.707
348.122	141.941
352.931	58.5835
357.737	24.7134
362.54	59.4946
367.341	124.129
372.14	79.1597
376.936	26.2002
381.73	207.181
386.521	53.8179
391.31	69.1533
396.096	127.427
400.88	158.46
405.661	26.3066
410.44	2.98828
415.216	26.8208
419.99	53.6787
424.761	105.136
429.53	10.3149
434.297	12.479
439.061	3.12353
443.822	65.96
448.581	10.0205
453.337	30.8574
458.091	16.2607
462.843	146.997
467.592	126.755
472.338	133.495
477.082	37.5928
481.824	159.439
486.563	9.0498
491.3	179.443
496.034	17.4858
500.765	174.455
505.494	83.8154
510.221	199.361
514.945	189.324
519.666	115.578
524.385	132.475
529.102	243.768
533.816	94.7471
538.527	136.231
543.236	116.897
547.943	168.561
552.647	157.939
557.348	129.053
562.047	195.818
566.744	128.449
571.438	132.287
576.129	5.45898
580.818	251.107
585.504	134.255
590.188	150.509
594.87	5.55957
599.549	136.242
604.225	38.7315
608.899	99.2598
613.57	88.4961
618.239	191.843
622.905	185.422
627.569	112.566
632.23	231.558
636.889	175.718
641.545	272.062
646.198	192.718
650.849	116.884
655.498	104.569
660.144	166.56
664.787	64.5957
669.428	210.478
674.067	124.915
678.703	44.9355
683.336	52.9072
687.967	112.069
692.595	189.727
697.221	171.181
701.844	266.485
706.465	407.169
711.083	704.19
715.698	1223
720.311	1632.45
724.922	1363.2
729.53	679.483
734.135	486.743
738.738	265.289
743.338	222.486
747.936	149.356
752.531	73.9102
757.124	79.9658
761.714	40.5381
766.302	30.5703
770.887	129.814
775.469	77.2852
780.049	49.3643
784.626	27.9258
789.201	56.8965
793.773	108.431
798.343	168.693
802.91	49.9727
807.475	225.071
812.037	187.333
816.596	97.5918
821.153	20.5459
825.707	58.0469
830.259	102.03
834.808	84.1484
839.355	100.595
843.899	75.3428
848.441	38.7861
852.98	232.144
857.516	249.712
862.05	147.03
866.581	74.1318
871.11	209.04
875.636	151.824
880.159	89.2969
884.68	98.1465
889.199	233.779
893.714	157.692
898.228	16.3955
902.738	73.3457
907.246	0.370117
911.752	151.121
916.255	101.041
920.755	126.894
925.253	122.233
929.748	83.8389
934.241	21.8105
938.731	148.941
943.218	63.6182
947.703	27
952.186	43.251
956.665	279.323
961.142	23.2656
965.617	70.2988
970.089	9.69727
974.558	255.209
979.025	141.2
983.489	70.2871
987.951	118.427
992.41	237.417
996.866	109.495
1001.32	129.093
1005.77	107.622
1010.22	127.002
1014.67	242.011
1019.11	275.43
1023.55	312.313
1027.99	178.869
1032.42	234.133
1036.86	289.998
1041.29	442.31
1045.72	393.884
1050.14	594.347
1054.56	576.707
1058.98	588.264
1063.4	866.913
1067.82	1221.31
1072.23	1729.29
1076.64	2477.41
1081.05	4978.82
1085.45	14218.9
1089.85	36644.3
1094.25	40632.5
1098.65	15014.5
1103.04	4437.7
1107.43	1527.36
1111.82	759.541
1116.21	418.93
1120.59	547.999
1124.97	399.461
1129.35	289.806
1133.73	130.421
1138.1	353.798
1142.47	262.147
1146.84	84.041
1151.21	38.3291
1155.57	83.6553
1159.93	44.2734
1164.29	14.0879
1168.64	139.074
1172.99	232.297
1177.34	80.5195
1181.69	30.5684
1186.04	283.273
1190.38	63.2363
1194.72	46.0469
1199.05	152.289
1203.39	109.591
1207.72	133.736
1212.05	78.8154
1216.37	191.602
1220.7	206.59
1225.02	164.171
1229.34	183.18
1233.65	86.4062
1237.97	105.76
1242.28	102.678
1246.59	108.643
1250.89	316.488
1255.19	181.756
1259.49	252.682
1263.79	24.1758
1268.09	194.705
1272.38	32.9922
1276.67	247.562
1280.95	130.397
1285.24	126.1
1289.52	114.68
1293.8	215.602
1298.08	66.8711
1302.35	143.002
1306.62	57.8496
1310.89	195.576
1315.15	149.463
1319.42	173.281
1323.68	124.805
1327.94	5.16016
1332.19	229.256
1336.44	81.2305
1340.69	273.379
1344.94	148.584
1349.19	144.83
1353.43	21.8438
1357.67	167.584
1361.9	54.8027
1366.14	169.525
1370.37	244.572
1374.6	201.209
1378.83	116.057
1383.05	45.6699
1387.27	157.748
1391.49	113.123
1395.7	220.447
1399.92	25.9824
1404.13	126.715
1408.34	227.435
1412.54	125.027
1416.74	300.828
1420.94	228.201
1425.14	345.67
1429.34	405.738
1433.53	624.24
1437.72	781.076
1441.9	665.742
1446.09	573.365
1450.27	622.902
1454.45	448.592
1458.63	107.432
1462.8	185.906
1466.97	250.846
1471.14	26.7793
1475.31	367.221
1479.47	211.732
1483.63	18.7676
1487.79	58.709
1491.94	260.178
1496.09	44.9609
1500.24	81.6777
1504.39	316.559
1508.54	235.58
1512.68	70.5469
1516.82	161.504
1520.95	308.676
1525.09	238.828
1529.22	279.715
1533.35	153.695
1537.47	334.148
1541.6	252.205
1545.72	192.205
1549.83	201.934
1553.95	226.182
1558.06	320.19
1562.17	111.043
1566.28	192.225
1570.38	0
