Measurement: Raman, 514 nm, depolarized, Raman Data Processed
Mineral: Annite
Rruff sample: R060204
Ideal chemistry: KFe^2+^_3_AlSi_3_O_10_(OH)_2_
Locality: Mont Saint-Hilaire, Rouville County, Quebec, Canada
Source: Royal Ontario Museum
Description: Black mica with pseudohexagonal outines
Measured chemistry: (K_0.96_Na_0.04_)_Σ=1_(Fe^2+^_2.04_Mg_0.81_Mn_0.09_Ti_0.03_[box]_0.03_)_Σ=3_(Si_3.00_Al_1.00_)O_10_((OH)_1.54_F_0.46_)_Σ=2_
Pin_id: M00078
Orientation: Laser parallel to a* (1 0 0). Fiducial mark perpendicular to laser is parallel to -b [0 -1 0]
Raman shift (cm-1)	intensity
307.151	0
310.773	27.3477
314.394	318.412
318.013	1.92188
321.631	64.3164
325.248	188.359
328.864	97.3887
332.478	88.0195
336.09	299.578
339.701	273.422
343.311	127.689
346.92	349.301
350.527	388.191
354.132	372.639
357.737	272.139
361.34	473.828
364.941	597.93
368.541	310.307
372.14	734.051
375.737	526.338
379.333	660.787
382.928	796.539
386.521	811.418
390.113	1037.78
393.703	1336.77
397.292	1099.75
400.88	998.174
404.466	1014.98
408.051	880.928
411.634	705.543
415.216	421.236
418.797	402.107
422.376	394.09
425.954	166.193
429.53	140.461
433.105	237.959
436.679	27.7383
440.251	37.8398
443.822	138.756
447.391	88.0195
450.96	98.8301
454.526	122.082
458.091	70.2188
461.655	107.588
465.218	86.9688
468.779	30.998
472.338	20.8496
475.897	119.879
479.454	186.856
483.009	563.631
486.563	514.594
490.116	519.461
493.667	819.18
497.217	915.797
500.765	1135.37
504.312	1159.93
507.858	1314.53
511.402	1303.18
514.945	1399.83
518.486	1586.97
522.026	1527.79
525.565	1471.23
529.102	1519.01
532.638	1460.59
536.172	1423.39
539.705	1396.46
543.236	1631.82
546.766	1504.68
550.295	1489.42
553.822	1420.49
557.348	1262.55
560.873	1342.88
564.396	1140.85
567.917	1141.37
571.438	1031.48
574.957	961.168
578.474	815.594
581.99	534.529
585.504	590.676
589.018	236.682
592.529	323.287
596.04	280.682
599.549	268.182
603.056	480.938
606.562	527.34
610.067	900.01
613.57	1089.13
617.072	1133.59
620.572	1592
624.071	2149.58
627.569	1981.3
631.065	1960.14
634.56	2113.45
638.053	2156.18
641.545	2127.46
645.035	2277.82
648.524	2525.31
652.012	2566.91
655.498	2798.62
658.983	3334.46
662.466	4017.41
665.948	4989.47
669.428	5909.43
672.907	6598.02
676.385	7262.97
679.861	7262.47
683.336	6830.31
686.809	6209.59
690.281	5466.01
693.752	4660.32
697.221	3937.24
700.688	3702.74
704.155	3383.17
707.619	3235.94
711.083	2900.68
714.545	2843.1
718.005	2807.47
721.464	2576.57
724.922	2490.85
728.378	2279.22
731.833	2216.39
735.286	1940.76
738.738	1908.43
742.189	1669.76
745.638	1811.53
749.085	1792.8
752.531	1688.35
755.976	1840.73
759.419	1783.91
762.861	1783.89
766.302	1873.67
769.741	1992.23
773.178	1967.36
776.614	1850.67
780.049	1446.56
783.482	1488.2
786.914	1219.6
790.345	929.764
793.773	685.682
797.201	794.354
800.627	529.773
804.052	216.94
807.475	279.84
810.897	155.461
814.317	161.789
817.736	2.80078
821.153	176.609
824.569	216.42
827.984	37.2344
831.397	36.127
834.808	155.742
838.219	13.5645
841.627	169.072
845.035	125.768
848.441	181.453
851.845	116.877
855.248	49.2988
858.65	118.025
862.05	175.654
865.448	138.981
868.846	220.959
872.241	232.619
875.636	161.977
879.029	706.037
882.42	242.807
885.81	510.279
889.199	425.459
892.586	379.352
895.971	571.963
899.356	754.295
902.738	682.354
906.12	682.139
909.5	698.656
912.878	949.916
916.255	1057.92
919.63	1118.71
923.004	869.457
926.377	930.209
929.748	1051.85
933.118	1114.44
936.486	1165.9
939.853	1197.03
943.218	1329.47
946.582	1246.82
949.945	1456.12
953.306	1522.01
956.665	1215.98
960.023	1553.21
963.38	1288
966.735	1381.64
970.089	1513.03
973.441	1516.86
976.792	1456.63
980.141	1360.11
983.489	1601.3
986.836	1704.72
990.181	1823.05
993.524	1985.31
996.866	1890.96
1000.21	2130.72
1003.55	2403.11
1006.88	2591.02
1010.22	2856.17
1013.55	3304.9
1016.89	3457.61
1020.22	3604.95
1023.55	3848.8
1026.88	3573.7
1030.21	3465.64
1033.53	3309.62
1036.86	3075.77
1040.18	2812.74
1043.5	2584.9
1046.82	2573.18
1050.14	2422.43
1053.46	2483.2
1056.78	2426.44
1060.09	2139.25
1063.4	2140.11
1066.71	2187.09
1070.02	2217.75
1073.33	2038.75
1076.64	2197.07
1079.94	1955.95
1083.25	1876.59
1086.55	1883.8
1089.85	1791.2
1093.15	1823.77
1096.45	1489.56
1099.75	1509.61
1103.04	1245.28
1106.34	1187.05
1109.63	1091.01
1112.92	1150.92
1116.21	985.455
1119.5	832.529
1122.78	753.1
1126.07	553.938
1129.35	419.285
1132.63	485.164
1135.92	354.369
1139.19	295.568
1142.47	421.203
1145.75	361.156
1149.02	234.309
1152.3	118.328
1155.57	196.473
1158.84	335.309
1162.11	208.209
1165.38	97.1211
1168.64	109.051
1171.91	203.975
1175.17	4.30859
1178.43	23.2188
1181.69	50.6328
1184.95	94.2422
1188.21	52.9824
1191.46	18.7871
1194.72	140.81
1197.97	30.2383
1201.22	34.3184
1204.47	138.094
1207.72	132.147
1210.97	178.19
1214.21	55.8047
1217.46	99.9512
1220.7	194.525
1223.94	338.012
1227.18	8.59766
1230.42	253.641
1233.65	223.762
1236.89	365.133
1240.12	134.728
1243.35	162.559
1246.59	202.272
1249.81	154.859
1253.04	261.316
1256.27	234.637
1259.49	333.838
1262.72	18.0898
1265.94	318.67
1269.16	293.092
1272.38	199.537
1275.59	297.59
1278.81	208.17
1282.03	320.514
1285.24	301.924
1288.45	318.867
1291.66	424.832
1294.87	359.193
1298.08	552.508
1301.28	577.318
1304.48	643.869
1307.69	540.68
1310.89	637.652
1314.09	460.426
1317.29	643.926
1320.48	728.863
1323.68	564.408
1326.87	583.422
1330.06	807.674
1333.26	295.994
1336.44	566.643
1339.63	637.787
1342.82	762.561
1346	547.783
1349.19	468.391
1352.37	404.203
1355.55	461.731
1358.73	477.66
1361.9	555.207
1365.08	507.598
1368.26	558.703
1371.43	420.777
1374.6	397.25
1377.77	333.488
1380.94	332.504
1384.11	225.941
1387.27	351.731
1390.43	362.356
1393.6	418.328
1396.76	293.203
1399.92	405.867
1403.08	59.875
1406.23	32.4648
1409.39	477.242
1412.54	5.02734
1415.69	144.582
1418.85	341.699
1421.99	368.742
1425.14	76.1055
1428.29	75.2266
1431.43	87.4375
1434.58	30.5
1437.72	225.223
1440.86	38.1836
1444	22.1094
1447.13	135.586
1450.27	4.4375
1453.4	15.0625
1456.54	47.2227
1459.67	357.633
1462.8	184.227
1465.93	97.7383
1469.06	353.555
1472.18	391.742
1475.31	437.328
1478.43	430.356
1481.55	466.258
1484.67	463.391
1487.79	312.238
1490.9	318.07
1494.02	370.863
1497.13	405.981
1500.24	473.234
1503.35	217.031
1506.46	444.75
1509.57	386.773
1512.68	264.977
1515.78	235.926
1518.88	143.84
1521.99	374.141
1525.09	258.727
1528.18	323.449
1531.28	96.9922
1534.38	257.809
1537.47	347.941
1540.56	229.328
1543.66	312.68
1546.74	261.738
1549.83	231.949
1552.92	242.484
1556.01	128.965
1559.09	266.188
1562.17	228.586
1565.25	237.137
1568.33	64.3242
