Measurement: Raman, 514 nm, depolarized, Raman Data Processed
Mineral: Annite
Rruff sample: R060204
Ideal chemistry: KFe^2+^_3_AlSi_3_O_10_(OH)_2_
Locality: Mont Saint-Hilaire, Rouville County, Quebec, Canada
Source: Royal Ontario Museum
Description: Black mica with pseudohexagonal outines
Measured chemistry: (K_0.96_Na_0.04_)_Σ=1_(Fe^2+^_2.04_Mg_0.81_Mn_0.09_Ti_0.03_[box]_0.03_)_Σ=3_(Si_3.00_Al_1.00_)O_10_((OH)_1.54_F_0.46_)_Σ=2_
Pin_id: L01689
Orientation: Laser parallel to (1 0 1). Fiducial mark perpendicular to laser is parallel to b [0 1 0]
Raman shift (cm-1)	intensity
230.849	0
234.512	18.9043
238.173	483.432
241.832	377.924
245.49	144.273
249.147	30.2656
252.802	471.252
256.455	610.447
260.107	592.377
263.757	728.949
267.406	674.117
271.053	804.713
274.698	744.871
278.342	1035.38
281.985	599.701
285.626	468.086
289.265	303.356
292.903	261.315
296.54	194.394
300.174	141.332
303.808	10.4688
307.439	100.338
311.07	293.867
314.698	256.131
318.325	165.289
321.951	150.4
325.575	66.4121
329.198	289.301
332.819	262.074
336.438	323.951
340.056	371.56
343.673	748.33
347.287	724.734
350.901	753.676
354.513	853.875
358.123	774.49
361.732	769.117
365.339	770.902
368.945	780.205
372.549	772.5
376.152	501.291
379.753	802.793
383.352	765.225
386.95	740.15
390.547	983.467
394.142	925.307
397.735	1012.88
401.327	1004.12
404.918	1157.2
408.507	1077.18
412.094	1132.77
415.68	903.832
419.265	820.553
422.847	532.18
426.429	483.83
430.009	760.576
433.587	954.24
437.164	539.152
440.739	770.705
444.313	244.516
447.885	44.0332
451.456	283.092
455.025	145.018
458.593	22.9121
462.159	110.957
465.724	89.1035
469.287	224.033
472.848	360.543
476.409	422.006
479.967	737.541
483.524	839.061
487.08	971.107
490.634	1023.67
494.187	1078.69
497.738	1163.93
501.287	1128.74
504.835	1112.68
508.382	1442.72
511.927	1281.9
515.47	1326.35
519.013	1331.57
522.553	1497.94
526.092	1657.38
529.63	1613.86
533.166	1789.43
536.7	2017.1
540.233	1944.9
543.765	1925.82
547.295	1869.84
550.823	1772.77
554.35	1626.7
557.876	1515.71
561.4	1219.18
564.922	848.059
568.443	912.479
571.963	703.484
575.481	242.797
578.998	199.457
582.513	213.428
586.026	6.20508
589.538	116.652
593.049	9.03906
596.558	82.291
600.065	39.3164
603.571	13.7324
607.076	84.9844
610.579	294.17
614.081	373.685
617.581	277.26
621.079	566.887
624.577	549.562
628.072	690.019
631.566	671.072
635.059	867.906
638.55	1050.79
642.04	1190.71
645.528	1548.68
649.015	1809.67
652.5	2062.69
655.984	2666.74
659.466	3191.8
662.947	4175.87
666.426	5086.96
669.904	6406.05
673.38	6580.14
676.855	6604.22
680.329	6104.01
683.8	5513.06
687.271	4866.99
690.74	5186.28
694.207	5268.04
697.673	5882.61
701.138	6691.89
704.601	7599.59
708.062	8394.32
711.522	9263.36
714.981	9820.19
718.438	9687.13
721.894	9538.06
725.348	8837.44
728.801	7916.64
732.252	6941.34
735.702	6239.04
739.15	5437.13
742.597	5301.49
746.042	4985.76
749.486	4940.84
752.928	5243.67
756.369	5341.25
759.809	5429.58
763.247	5613.65
766.683	5677.45
770.118	5569
773.552	4985.28
776.984	4359.28
780.414	3914.02
783.844	3194.48
787.271	2788.66
790.698	2836.56
794.122	1735.18
797.546	1245.52
800.968	951.576
804.388	744.352
807.807	504.576
811.224	214.051
814.64	120.949
818.055	202.453
821.468	97.5918
824.88	0.193359
828.29	46.25
831.699	23.3574
835.106	78.4238
838.512	74.4531
841.916	244.424
845.319	132.697
848.72	67.3008
852.12	51.3555
855.519	15.3438
858.916	236.606
862.311	154.076
865.706	430.277
869.098	222.244
872.49	319.928
875.879	397.492
879.268	426.859
882.655	748.943
886.04	672.752
889.424	611.285
892.807	833.566
896.188	850.592
899.567	619.377
902.945	947.975
906.322	1065.33
909.698	1253.44
913.071	1217.38
916.444	1328.17
919.815	1363.82
923.184	1372.46
926.552	1431.95
929.919	1449.41
933.284	1578.87
936.648	1575.31
940.01	1708.57
943.371	1622.93
946.731	1646.01
950.089	1508.34
953.445	1644.49
956.8	1671.29
960.154	1670.91
963.506	1724.62
966.857	1421.08
970.206	1207.48
973.554	1344.68
976.901	1319.67
980.246	1350.21
983.589	1404.86
986.931	1378.55
990.272	1574.63
993.611	1546.15
996.949	1439.33
1000.29	1554.33
1003.62	1494.18
1006.95	1698.54
1010.29	1687.13
1013.62	1854.74
1016.95	1987.35
1020.27	2097.42
1023.6	2160.75
1026.93	2085.45
1030.25	2134.48
1033.57	1950.54
1036.89	1857.35
1040.21	1854.25
1043.53	1616.19
1046.85	1693.26
1050.16	1841.63
1053.47	1784.6
1056.79	2065.67
1060.1	1831.33
1063.41	1894.09
1066.71	1943.69
1070.02	2048.58
1073.33	1723.71
1076.63	1798.74
1079.93	1547.9
1083.23	1878.09
1086.53	1665.37
1089.83	1418.76
1093.13	1238.12
1096.42	1114.1
1099.71	1219.32
1103.01	1034.81
1106.3	835.031
1109.59	629.281
1112.88	697.291
1116.16	743.512
1119.45	815.918
1122.73	506.707
1126.01	620.828
1129.29	379.998
1132.57	330.207
1135.85	251.443
1139.13	368.705
1142.4	251.988
1145.68	142.291
1148.95	65.6113
1152.22	250.955
1155.49	100.59
1158.76	27.1328
1162.03	30.1875
1165.29	24.3555
1168.56	10.4336
1171.82	92.0781
1175.08	109.439
1178.34	28.877
1181.6	112.242
1184.85	71.2519
1188.11	29.543
1191.36	239.381
1194.62	56.8398
1197.87	5.42773
1201.12	73.8359
1204.37	17.6855
1207.61	96.0332
1210.86	141.297
1214.1	282.109
1217.35	120.731
1220.59	47.2344
1223.83	9.34961
1227.07	516.881
1230.3	569.369
1233.54	134.84
1236.77	120.236
1240.01	363.519
1243.24	216.766
1246.47	236.92
1249.7	185.076
1252.93	378.234
1256.15	473.387
1259.38	335.527
1262.6	225.656
1265.82	270.772
1269.04	410.867
1272.26	301.949
1275.48	431.174
1278.7	497.59
1281.91	426.19
1285.12	537.852
1288.34	758.344
1291.55	604.572
1294.76	810.498
1297.96	665.15
1301.17	757.646
1304.38	905.109
1307.58	858.867
1310.78	897.287
1313.98	823.174
1317.18	930.625
1320.38	869.422
1323.58	845.201
1326.78	1249.62
1329.97	891.338
1333.16	1023.27
1336.35	1141.6
1339.54	1131.37
1342.73	1040.14
1345.92	1043.82
1349.11	1139.47
1352.29	1055.96
1355.47	951.523
1358.66	1031.2
1361.84	847.139
1365.02	923.969
1368.19	931.303
1371.37	794.084
1374.54	1114.05
1377.72	816.697
1380.89	836.035
1384.06	618.523
1387.23	608.019
1390.4	691.551
1393.56	788.519
1396.73	554.66
1399.89	358.756
1403.06	551.908
1406.22	598.486
1409.38	616.807
1412.54	582.146
1415.69	457.578
1418.85	579.5
1422	509.209
1425.15	347.525
1428.31	450.478
1431.46	476.221
1434.61	454.992
1437.75	516.264
1440.9	533.445
1444.04	306.734
1447.19	451.385
1450.33	259.961
1453.47	383.119
1456.61	93.6055
1459.75	204.293
1462.88	241.324
1466.02	446.738
1469.15	198.512
1472.29	359.666
1475.42	125.103
1478.55	175.736
1481.67	135.603
1484.8	346.758
1487.93	400.83
1491.05	153.01
1494.17	91.5215
1497.3	132.565
1500.42	149.666
1503.54	326.371
1506.65	100.029
1509.77	436.978
1512.88	498.941
1516	461.014
1519.11	463.969
1522.22	410.086
1525.33	184.678
1528.44	99.0723
1531.54	7.82422
1534.65	27.6484
1537.75	619.332
1540.86	501.643
1543.96	673.057
1547.06	1081.07
1550.15	887.771
1553.25	538.922
1556.35	469.199
1559.44	423.068
1562.54	296.883
1565.63	283.75
1568.72	2.07422
