Measurement: Raman, 514 nm, depolarized, Raman Data Processed
Mineral: Annite
Rruff sample: R060211
Ideal chemistry: KFe^2+^_3_AlSi_3_O_10_(OH)_2_
Locality: Mont Saint-Hilaire, Rouville County, Quebec, Canada
Source: Royal Ontario Museum
Description: Black mica
Measured chemistry: (K_0.94_[box]_0.03_Na_0.02_)_Σ=1_(Fe^2+^_2.07_Mg_0.57_Mn_0.33_Ti_0.03_)_Σ=3_(Si_2.98_Al_1.02_)O_10_((OH)_1.72_F_0.28_)_Σ=2_
Pin_id: L01073
Orientation: Laser parallel to c* (0 0 1). Fiducial mark perpendicular to laser is parallel to a [1 0 0]
Raman shift (cm-1)	intensity
230.849	0
234.512	276.562
238.173	358.891
241.832	90.3672
245.49	29.6406
249.147	314.406
252.802	593.836
256.455	1044.14
260.107	1658.73
263.757	2470.24
267.406	3077.34
271.053	2783.92
274.698	2339.24
278.342	1917.81
281.985	1575.88
285.626	1162.74
289.265	870.781
292.903	404.832
296.54	198.047
300.174	234.703
303.808	200.484
307.439	185.465
311.07	83.8906
314.698	101.242
318.325	48.5156
321.951	4.60547
325.575	388.723
329.198	344.891
332.819	657.848
336.438	388.402
340.056	1135.62
343.673	1133.59
347.287	1079.22
350.901	1426.41
354.513	1097.89
358.123	1080.93
361.732	966.793
365.339	982.488
368.945	947.055
372.549	687.516
376.152	775.684
379.753	1020.13
383.352	1251.39
386.95	1154.38
390.547	1203.27
394.142	998.777
397.735	963.977
401.327	1006.9
404.918	954.523
408.507	1062.3
412.094	879.914
415.68	710.211
419.265	784.508
422.847	605.527
426.429	379.414
430.009	230.734
433.587	317.758
437.164	213.269
440.739	260.922
444.313	51.8555
447.885	45.8438
451.456	83.4844
455.025	3.41797
458.593	11.3984
462.159	321.227
465.724	849.512
469.287	864.773
472.848	978.644
476.409	1372.48
479.967	1827.07
483.524	2232.62
487.08	2745.09
490.634	3079.49
494.187	3369.02
497.738	3901.28
501.287	3969.59
504.835	4257.65
508.382	4270.91
511.927	4976.36
515.47	4957.03
519.013	5534.85
522.553	5761.51
526.092	6134.01
529.63	6050.38
533.166	6500.71
536.7	6188.14
540.233	6233.12
543.765	5878.42
547.295	5356.09
550.823	4469.1
554.35	3757.73
557.876	3437.9
561.4	3163.39
564.922	2479.23
568.443	2035.99
571.963	2032.86
575.481	1378.63
578.998	1269.61
582.513	503.246
586.026	404.656
589.538	206.957
593.049	39.75
596.558	2.22656
600.065	17.5117
603.571	117.359
607.076	247.629
610.579	637.344
614.081	674.398
617.581	896.965
621.079	1559.85
624.577	1156.06
628.072	1178.59
631.566	1070.44
635.059	1598.61
638.55	1786.1
642.04	1884.93
645.528	2437.06
649.015	3058.52
652.5	4021.28
655.984	4834.36
659.466	6499.75
662.947	7837.95
666.426	8810.46
669.904	8747.79
673.38	7802.67
676.855	6581.27
680.329	5378.36
683.8	4910.19
687.271	4784.74
690.74	4539.46
694.207	4760.6
697.673	4868.43
701.138	5361.2
704.601	5711.11
708.062	6201.54
711.522	6587.61
714.981	6628.37
718.438	6518.27
721.894	6089.43
725.348	5872.27
728.801	5244.88
732.252	5002.5
735.702	4970.05
739.15	6181.74
742.597	5280.43
746.042	5636.82
749.486	5936.07
752.928	6210.42
756.369	6629.85
759.809	6936.38
763.247	6898.98
766.683	6891.18
770.118	7034.45
773.552	6448.3
776.984	6404.23
780.414	5391.23
783.844	4916.31
787.271	4082.44
790.698	3643.63
794.122	2506.88
797.546	1855.19
800.968	996.559
804.388	765.969
807.807	337.426
811.224	41.8555
814.64	309.082
818.055	43.293
821.468	363.941
824.88	249.41
828.29	408.488
831.699	149.832
835.106	133.773
838.512	166.094
841.916	68.1641
845.319	1.11328
848.72	400.465
852.12	5.57031
855.519	323.238
858.916	307.082
862.311	462.961
865.706	959.875
869.098	1339.82
872.49	1587.82
875.879	1602.86
879.268	1409.03
882.655	1581.26
886.04	1529.51
889.424	1342.82
892.807	1695.37
896.188	1812.3
899.567	1649.36
902.945	1586.57
906.322	1733.93
909.698	1805.41
913.071	2118
916.444	2079.62
919.815	2138.28
923.184	1856.05
926.552	1973.77
929.919	2158.77
933.284	1857.93
936.648	1985.2
940.01	2097.52
943.371	2086.96
946.731	2065.2
950.089	1569.63
953.445	1665.99
956.8	1329.82
960.154	1453.64
963.506	1077.68
966.857	917.965
970.206	1113.8
973.554	1508.19
976.901	875.941
980.246	1121.66
983.589	796.941
986.931	1173.93
990.272	1151.6
993.611	1196.56
996.949	1586.88
1000.29	1549.52
1003.62	1752.39
1006.95	2071.5
1010.29	2256.86
1013.62	2544.47
1016.95	2459.32
1020.27	2272.39
1023.6	2174.89
1026.93	2391.93
1030.25	2253.68
1033.57	2241.77
1036.89	1945.34
1040.21	2096.16
1043.53	1963.36
1046.85	2127.66
1050.16	1832.46
1053.47	2013.42
1056.79	1755.56
1060.1	2741.49
1063.41	1954.02
1066.71	1887.73
1070.02	1876.51
1073.33	1666.85
1076.63	1664.64
1079.93	1409.12
1083.23	1401.89
1086.53	1220.46
1089.83	1047.59
1093.13	797.473
1096.42	685.59
1099.71	918.098
1103.01	933.438
1106.3	410.688
1109.59	620.344
1112.88	779.945
1116.16	1121.9
1119.45	651.129
1122.73	478.801
1126.01	408.457
1129.29	341.891
1132.57	372.809
1135.85	533.402
1139.13	81.6602
1142.4	309.703
1145.68	157.023
1148.95	185.199
1152.22	465.481
1155.49	223.262
1158.76	182.879
1162.03	107.949
1165.29	33.3086
1168.56	37.7773
1171.82	9.29297
1175.08	113.43
1178.34	136.023
1181.6	141.484
1184.85	661.852
1188.11	5.12891
1191.36	374.144
1194.62	184.184
1197.87	280.641
1201.12	195.762
1204.37	100.703
1207.61	183.32
1210.86	182.57
1214.1	104.684
1217.35	114.406
1220.59	188.922
1223.83	143.68
1227.07	21.1016
1230.3	196.227
1233.54	232.019
1236.77	71.3125
1240.01	331.644
1243.24	342.934
1246.47	140.441
1249.7	326.738
1252.93	416.797
1256.15	10.4844
1259.38	356.715
1262.6	419.219
1265.82	315.898
1269.04	26.3711
1272.26	18.6211
1275.48	532.562
1278.7	278.16
1281.91	416.469
1285.12	365.227
1288.34	212.148
1291.55	474.562
1294.76	452.672
1297.96	208.883
1301.17	222.93
1304.38	426.809
1307.58	119.32
1310.78	334.172
1313.98	302.184
1317.18	407.211
1320.38	91.3047
1323.58	186.453
1326.78	216.219
1329.97	288.492
1333.16	200.195
1336.35	210.453
1339.54	310.707
1342.73	204.832
1345.92	206.539
1349.11	296.625
1352.29	306.535
1355.47	159.043
1358.66	175.531
1361.84	152.766
1365.02	372.488
1368.19	349.719
1371.37	224.836
1374.54	91.9453
1377.72	218.09
1380.89	166.812
1384.06	251.144
1387.23	97.5625
1390.4	167.769
1393.56	266.004
1396.73	304.543
1399.89	600.695
1403.06	56.8711
1406.22	116.352
1409.38	29.1211
1412.54	32.7695
1415.69	404.293
1418.85	50.8477
1422	177.289
1425.15	263.762
1428.31	352.801
1431.46	361.231
1434.61	349.066
1437.75	235.969
1440.9	488.367
1444.04	153.652
1447.19	294.887
1450.33	520.617
1453.47	21.0547
1456.61	303.856
1459.75	256.805
1462.88	251.488
1466.02	419.66
1469.15	20.4375
1472.29	221.656
1475.42	430.027
1478.55	37.793
1481.67	194.492
1484.8	994.301
1487.93	81.2227
1491.05	541.461
1494.17	500.188
1497.3	460.215
1500.42	362.516
1503.54	201.801
1506.65	212.277
1509.77	301.891
1512.88	298.387
1516	426.738
1519.11	167.273
1522.22	280.359
1525.33	96.3047
1528.44	130.953
1531.54	126.082
1534.65	287.156
1537.75	209.887
1540.86	147.141
1543.96	163.82
1547.06	55.2266
1550.15	17.0156
1553.25	194.574
1556.35	150.152
1559.44	349.648
1562.54	245.457
1565.63	605.344
1568.72	290.523
