Measurement: Raman, 514 nm, depolarized, Raman Data Processed
Mineral: Annite
Rruff sample: R060204
Ideal chemistry: KFe^2+^_3_AlSi_3_O_10_(OH)_2_
Locality: Mont Saint-Hilaire, Rouville County, Quebec, Canada
Source: Royal Ontario Museum
Description: Black mica with pseudohexagonal outines
Measured chemistry: (K_0.96_Na_0.04_)_Σ=1_(Fe^2+^_2.04_Mg_0.81_Mn_0.09_Ti_0.03_[box]_0.03_)_Σ=3_(Si_3.00_Al_1.00_)O_10_((OH)_1.54_F_0.46_)_Σ=2_
Pin_id: M00366
Orientation: Laser parallel to -b* (0 -1 0). Fiducial mark perpendicular to laser is parallel to c [0 0 1]
Raman shift (cm-1)	intensity
235.633	0
239.282	69.957
242.93	225.228
246.577	184.877
250.222	151.484
253.866	342.773
257.508	349.26
261.149	503.498
264.789	727.527
268.427	998.066
272.064	1456.49
275.7	1153.91
279.334	576.889
282.967	474.721
286.598	692.508
290.229	222.547
293.857	238.736
297.485	295.141
301.111	75.2949
304.735	244.668
308.358	48.3125
311.98	201.541
315.601	17.3535
319.22	182.103
322.837	128.932
326.454	242.172
330.068	136.277
333.682	249.731
337.294	201.051
340.905	363.904
344.514	348.615
348.122	506.565
351.729	409.779
355.334	510.769
358.938	607.65
362.54	562.689
366.141	704.82
369.741	679.07
373.339	733.133
376.936	1330.05
380.531	1320.58
384.126	1839.6
387.718	1869.55
391.31	2244.85
394.9	2467.9
398.488	2013.64
402.075	1591.95
405.661	1247.86
409.245	715.398
412.828	569.533
416.41	321.684
419.99	180.33
423.569	122.6
427.146	33.4766
430.722	11.043
434.297	197.06
437.87	22.0879
441.442	160.623
445.012	63.8613
448.581	98.0781
452.149	51.9258
455.715	199.236
459.28	202.09
462.843	309.117
466.405	627.586
469.965	875.908
473.525	1329.64
477.082	1595.72
480.639	1444.57
484.194	1689.36
487.747	1393.46
491.3	1172.89
494.85	1754.41
498.4	1578.04
501.948	1748.78
505.494	2097.64
509.039	2370.63
512.583	2242.75
516.125	1910.99
519.666	1875.38
523.206	1777.88
526.744	1830.38
530.281	1342.88
533.816	1528.4
537.35	1502.96
540.882	1278.63
544.413	1164.4
547.943	1180.29
551.471	1319.45
554.998	1106.92
558.523	1053.59
562.047	941.176
565.57	756.074
569.091	645.621
572.611	647.49
576.129	563.471
579.646	506.76
583.162	184.16
586.676	565.564
590.188	256.273
593.7	288.051
597.209	339.141
600.718	612.691
604.225	870.941
607.73	930.793
611.235	1105.22
614.737	1627.82
618.239	2208.59
621.739	2546.67
625.237	3238
628.734	3780.53
632.23	3945.24
635.724	3878.11
639.217	3462.13
642.708	3305.3
646.198	3276.61
649.687	2946.87
653.174	3095.61
656.66	3171.3
660.144	3683.1
663.627	3871.47
667.108	4544.47
670.588	5416.8
674.067	6946.69
677.544	6225.59
681.02	6416.8
684.494	6791.97
687.967	7154.81
691.438	7342.94
694.908	6712.01
698.377	5343.94
701.844	4233.34
705.31	3564.85
708.774	3132.2
712.237	2805.75
715.698	2338.63
719.158	2241.26
722.617	1710.07
726.074	1819.42
729.53	1602.69
732.984	1344.7
736.437	1542.71
739.888	1490.59
743.338	1442.66
746.787	1146.22
750.234	1324.04
753.68	1324.35
757.124	1012.26
760.567	1378.65
764.008	1592.9
767.448	1483.43
770.887	1253.66
774.324	1025.87
777.759	1216.74
781.194	765.266
784.626	1075.44
788.058	805.348
791.488	917.797
794.916	738.875
798.343	399.57
801.769	112.102
805.193	283.918
808.616	140.418
812.037	128.383
815.457	143.18
818.875	167.508
822.292	117.625
825.707	93.0117
829.122	37.7656
832.534	172.352
835.945	84.9414
839.355	153.797
842.763	3.74609
846.17	82.3203
849.576	98.7734
852.98	47.25
856.382	294.387
859.783	195.816
863.183	263.352
866.581	149.285
869.978	188.863
873.373	124.859
876.767	30.082
880.159	9.74219
883.55	374.879
886.94	288.875
890.328	324.293
893.714	153.523
897.1	255.332
900.483	207.801
903.866	241.691
907.246	597.391
910.626	747.82
914.004	475.59
917.38	498.297
920.755	418.484
924.129	715.004
927.501	536.094
930.872	469.711
934.241	330.473
937.609	750.535
940.975	715.352
944.34	760.055
947.703	1124.76
951.065	1157.92
954.426	738.289
957.785	1146.26
961.142	617.309
964.499	1018.07
967.853	778.652
971.207	800.957
974.558	812.637
977.909	1062.61
981.258	1095.48
984.605	1194.76
987.951	1115.2
991.295	1109.75
994.639	1229.89
997.98	1010.83
1001.32	1180.56
1004.66	1420.01
1008	1727.83
1011.33	1934.65
1014.67	2078.6
1018	2189.86
1021.33	2305.67
1024.66	1928.11
1027.99	1703.87
1031.32	1876.81
1034.64	1697.69
1037.97	1300.69
1041.29	1432.61
1044.61	1499.77
1047.93	1498.85
1051.25	1350.72
1054.56	1300.5
1057.88	1465.58
1061.19	1167.54
1064.51	1090.76
1067.82	1117.66
1071.13	1363.43
1074.43	1407.06
1077.74	1549.55
1081.05	2413.47
1084.35	4034.72
1087.65	2279.56
1090.95	1296.6
1094.25	917.824
1097.55	957.305
1100.85	1167.27
1104.14	629.527
1107.43	704.949
1110.73	905.758
1114.02	859.445
1117.31	567.59
1120.59	728.195
1123.88	1036.93
1127.16	870.945
1130.45	847.32
1133.73	744.707
1137.01	1001.62
1140.29	706.32
1143.57	332.293
1146.84	74.2734
1150.12	389.117
1153.39	234.516
1156.66	48.5586
1159.93	62.082
1163.2	385.676
1166.46	435.359
1169.73	213.93
1172.99	183.465
1176.26	249.106
1179.52	51.3008
1182.78	104.285
1186.04	178.449
1189.29	191.34
1192.55	284.242
1195.8	321.078
1199.05	251.672
1202.31	248.695
1205.55	472.551
1208.8	234.375
1212.05	30.207
1215.29	18.8047
1218.54	488.266
1221.78	273.324
1225.02	139.324
1228.26	22.7188
1231.5	165.344
1234.73	711.535
1237.97	24.6406
1241.2	87.6367
1244.43	562.578
1247.66	232.441
1250.89	179.844
1254.12	89.9336
1257.34	33.6641
1260.57	171.375
1263.79	498.273
1267.01	127.027
1270.23	149.199
1273.45	205.344
1276.67	55.9297
1279.88	143.457
1283.1	175.731
1286.31	663.137
1289.52	598.023
1292.73	363.996
1295.94	557.434
1299.14	823.227
1302.35	919.66
1305.55	723.949
1308.75	786.879
1311.95	877.223
1315.15	720.981
1318.35	696.766
1321.55	576.066
1324.74	977.207
1327.94	1077.15
1331.13	969.106
1334.32	779.102
1337.51	909.356
1340.69	956.629
1343.88	962.738
1347.06	1157.19
1350.25	1150.23
1353.43	1068.63
1356.61	1142.2
1359.79	861.168
1362.96	1046.54
1366.14	1234.65
1369.31	959.785
1372.49	957.106
1375.66	918.449
1378.83	1097.71
1381.99	918.969
1385.16	649.711
1388.33	431.727
1391.49	620.82
1394.65	1111.82
1397.81	422.766
1400.97	829.156
1404.13	620.629
1407.29	465.766
1410.44	226.859
1413.59	502.719
1416.74	334.961
1419.89	428.769
1423.04	504.144
1426.19	156.625
1429.34	134.156
1432.48	428.121
1435.62	848.016
1438.77	83.0625
1441.9	312.793
1445.04	275.863
1448.18	439.746
1451.32	171.328
1454.45	141.383
1457.58	407.898
1460.71	300.285
1463.84	520.234
1466.97	105.156
1470.1	300.246
1473.22	498.727
1476.35	623.93
1479.47	114.043
1482.59	342.902
1485.71	539.812
1488.83	513.727
1491.94	77.3477
1495.06	106.156
1498.17	290.965
1501.28	458.746
1504.39	167.43
1507.5	134.961
1510.61	352.43
1513.71	1445.77
1516.82	763.488
1519.92	180.113
1523.02	560.059
1526.12	832.828
1529.22	691.332
1532.31	519.356
1535.41	537.414
1538.5	852.602
1541.6	1005.02
1544.69	684.695
1547.78	119.973
1550.86	636
1553.95	1252.1
1557.03	639.598
1560.12	286.695
1563.2	184.109
1566.28	380.148
1569.36	337.262
