Measurement: Raman, 514 nm, depolarized, Raman Data Processed
Mineral: Annite
Rruff sample: R060211
Ideal chemistry: KFe^2+^_3_AlSi_3_O_10_(OH)_2_
Locality: Mont Saint-Hilaire, Rouville County, Quebec, Canada
Source: Royal Ontario Museum
Description: Black mica
Measured chemistry: (K_0.94_[box]_0.03_Na_0.02_)_Σ=1_(Fe^2+^_2.07_Mg_0.57_Mn_0.33_Ti_0.03_)_Σ=3_(Si_2.98_Al_1.02_)O_10_((OH)_1.72_F_0.28_)_Σ=2_
Pin_id: L00722
Orientation: Laser parallel to a* (1 0 0). Fiducial mark perpendicular to laser is parallel to b [0 1 0]
Raman shift (cm-1)	intensity
230.765	0
234.416	154.234
238.066	328.414
241.714	20.5605
245.361	76.0938
249.007	212.234
252.651	253.328
256.294	248.119
259.936	1086.17
263.576	714.672
267.215	642.359
270.852	861.258
274.488	1156.48
278.123	935.094
281.756	749.758
285.388	620.051
289.019	458.736
292.648	386.576
296.276	320.738
299.902	347.178
303.527	243.018
307.151	206.111
310.773	222.734
314.394	482.709
318.013	8.00781
321.631	166.262
325.248	255.225
328.864	233.072
332.478	430.981
336.09	339.803
339.701	454.738
343.311	368.428
346.92	451.898
350.527	446.76
354.132	467.027
357.737	495.43
361.34	546.986
364.941	820.689
368.541	893.545
372.14	1023.57
375.737	1026.56
379.333	1507.16
382.928	1618.86
386.521	1931.69
390.113	2023.17
393.703	2007.82
397.292	1934.16
400.88	1588.04
404.466	1347.56
408.051	1104.8
411.634	802.822
415.216	552.299
418.797	344.65
422.376	110.269
425.954	179.984
429.53	69.6816
433.105	35.4141
436.679	103.844
440.251	46.9629
443.822	10.2656
447.391	76.9043
450.96	125.463
454.526	184.223
458.091	38.8594
461.655	65.7519
465.218	79.2344
468.779	239.059
472.338	153.008
475.897	146.221
479.454	310.797
483.009	497.353
486.563	613.924
490.116	799.549
493.667	826.32
497.217	1170.15
500.765	1621.19
504.312	1790.45
507.858	1848.94
511.402	2183.64
514.945	1919.56
518.486	1687.68
522.026	1608.14
525.565	1633.3
529.102	1553.75
532.638	1337.91
536.172	1208.06
539.705	1201.46
543.236	1138.21
546.766	958.166
550.295	778.361
553.822	797.912
557.348	533.957
560.873	538.295
564.396	501.051
567.917	336.154
571.438	112.269
574.957	63.627
578.474	177.225
581.99	250.035
585.504	124.969
589.018	24.6523
592.529	263.297
596.04	483.326
599.549	499.191
603.056	856.035
606.562	963.244
610.067	1621.44
613.57	1722.76
617.072	2183.56
620.572	2837.72
624.071	3346.76
627.569	3637.09
631.065	4065.57
634.56	4272.18
638.053	4083.91
641.545	3981.76
645.035	3549.72
648.524	3537.77
652.012	3415.92
655.498	3704.14
658.983	4188.74
662.466	4356.49
665.948	4800.91
669.428	4864.41
672.907	4691.97
676.385	4585.52
679.861	4092.6
683.336	3670.65
686.809	3407.11
690.281	3082.38
693.752	2887.72
697.221	2712.97
700.688	2615.42
704.155	2255.25
707.619	2165.89
711.083	2208.67
714.545	1892.86
718.005	1445.84
721.464	1328.55
724.922	1392.5
728.378	1183.93
731.833	1053.75
735.286	779.305
738.738	957.752
742.189	1107.53
745.638	952.443
749.085	922.217
752.531	1093.85
755.976	1264.68
759.419	1093.76
762.861	947.553
766.302	823.182
769.741	1069.02
773.178	725.348
776.614	924.238
780.049	848.986
783.482	758.143
786.914	526.92
790.345	492.312
793.773	474.312
797.201	214.908
800.627	221.057
804.052	37.4023
807.475	81.4023
810.897	30.418
814.317	60.8496
817.736	46.0527
821.153	56.9336
824.569	52.6191
827.984	29.0977
831.397	95.7676
834.808	150.435
838.219	86.5762
841.627	25.2754
845.035	76.8184
848.441	5.63867
851.845	26.123
855.248	117.697
858.65	169.315
862.05	168.684
865.448	88.4863
868.846	307.715
872.241	202.393
875.636	90.5039
879.029	326.031
882.42	213.08
885.81	35.3535
889.199	260.598
892.586	424.133
895.971	204.113
899.356	393.582
902.738	215.691
906.12	462.336
909.5	609.498
912.878	469.168
916.255	604.631
919.63	549.707
923.004	510.33
926.377	979.473
929.748	794.152
933.118	769.559
936.486	736.859
939.853	795.104
943.218	948.164
946.582	948.463
949.945	784.91
953.306	797.561
956.665	730.486
960.023	804.176
963.38	860.133
966.735	949.072
970.089	1000.77
973.441	693.49
976.792	1011.95
980.141	1028.48
983.489	1099.29
986.836	1383.75
990.181	1532.46
993.524	1685.85
996.866	1670.22
1000.21	1961.88
1003.55	2118.55
1006.88	2710.27
1010.22	2621.62
1013.55	2658.97
1016.89	2685.02
1020.22	2787.5
1023.55	2499.25
1026.88	2126.97
1030.21	1896.25
1033.53	1820.67
1036.86	1683.78
1040.18	1327.67
1043.5	1238.28
1046.82	1252.78
1050.14	1238.4
1053.46	1194.76
1056.78	1122.9
1060.09	939.092
1063.4	909.348
1066.71	1066.06
1070.02	1047.08
1073.33	929.222
1076.64	747.73
1079.94	667.012
1083.25	632.942
1086.55	543.676
1089.85	531.623
1093.15	290.877
1096.45	269.088
1099.75	46.0449
1103.04	173.285
1106.34	7.42383
1109.63	337.67
1112.92	98.8477
1116.21	151.932
1119.5	22.668
1122.78	7.35156
1126.07	119.74
1129.35	220.701
1132.63	67.5391
1135.92	178.24
1139.19	105.803
1142.47	332.24
1145.75	95.4434
1149.02	91.5723
1152.3	102.631
1155.57	41.7812
1158.84	143.951
1162.11	72.9961
1165.38	244.207
1168.64	71.0469
1171.91	17.1445
1175.17	72.0684
1178.43	139.287
1181.69	138.303
1184.95	141.312
1188.21	171.785
1191.46	235.088
1194.72	277.262
1197.97	350.346
1201.22	322.344
1204.47	19.25
1207.72	131.031
1210.97	328.809
1214.21	178.656
1217.46	45.6855
1220.7	335.035
1223.94	250.748
1227.18	48.4434
1230.42	42.9102
1233.65	253.678
1236.89	491.15
1240.12	296.516
1243.35	482.496
1246.59	372.016
1249.81	318.789
1253.04	642.68
1256.27	353.981
1259.49	423.992
1262.72	660.422
1265.94	547.383
1269.16	511.812
1272.38	690.957
1275.59	668.91
1278.81	814.481
1282.03	591.445
1285.24	928.809
1288.45	899.738
1291.66	1073.75
1294.87	888.34
1298.08	1087.62
1301.28	1133.46
1304.48	1208.29
1307.69	1080.28
1310.89	854.336
1314.09	1015.58
1317.29	1354.62
1320.48	1233.78
1323.68	875.215
1326.87	1257.68
1330.06	1473.88
1333.26	1354.93
1336.44	1167.56
1339.63	1377.73
1342.82	1466.01
1346	1357.81
1349.19	1452.02
1352.37	1758.84
1355.55	1705.71
1358.73	1589.83
1361.9	1551.04
1365.08	1524.91
1368.26	1624.04
1371.43	1632.45
1374.6	1191.41
1377.77	1221.95
1380.94	1422.68
1384.11	1931.35
1387.27	1472.94
1390.43	1304.52
1393.6	1149.83
1396.76	1046.57
1399.92	952.125
1403.08	807.508
1406.23	1134.45
1409.39	817.137
1412.54	801.508
1415.69	861.035
1418.85	786.625
1421.99	817.582
1425.14	583.84
1428.29	579.231
1431.43	482.035
1434.58	800.438
1437.72	583.062
1440.86	428.043
1444	626.59
1447.13	432.609
1450.27	253.887
1453.4	64.0664
1456.54	370.992
1459.67	95.332
1462.8	275.875
1465.93	288.723
1469.06	198.367
1472.18	132.508
1475.31	286.484
1478.43	249.789
1481.55	45.5664
1484.67	198.594
1487.79	361.398
1490.9	258.043
1494.02	15.2617
1497.13	48.2812
1500.24	302.234
1503.35	429.801
1506.46	169.965
1509.57	490.312
1512.68	451.637
1515.78	806.668
1518.88	661.488
1521.99	596.496
1525.09	547.59
1528.18	840.191
1531.28	798.641
1534.38	467.258
1537.47	322.953
1540.56	633.477
1543.66	743.539
1546.74	401.508
1549.83	415.418
1552.92	460.988
1556.01	1139.59
1559.09	472.777
1562.17	345.981
1565.25	272.012
1568.33	132.723
1571.41	0
