Measurement: Raman, 514 nm, depolarized, Raman Data Processed
Mineral: Annite
Rruff sample: R060211
Ideal chemistry: KFe^2+^_3_AlSi_3_O_10_(OH)_2_
Locality: Mont Saint-Hilaire, Rouville County, Quebec, Canada
Source: Royal Ontario Museum
Description: Black mica
Measured chemistry: (K_0.94_[box]_0.03_Na_0.02_)_Σ=1_(Fe^2+^_2.07_Mg_0.57_Mn_0.33_Ti_0.03_)_Σ=3_(Si_2.98_Al_1.02_)O_10_((OH)_1.72_F_0.28_)_Σ=2_
Pin_id: M00144
Orientation: Laser parallel to (-1 0 -1). Fiducial mark perpendicular to laser is parallel to -b [0 -1 0]
Raman shift (cm-1)	intensity
307.151	0
310.773	120.519
314.394	174.356
318.013	80.3711
321.631	242.791
325.248	353.848
328.864	308.717
332.478	427.113
336.09	620.934
339.701	678.273
343.311	670.262
346.92	677.662
350.527	832.984
354.132	891.801
357.737	510.553
361.34	823.547
364.941	913.998
368.541	549.231
372.14	712.633
375.737	864.094
379.333	969.26
382.928	1039.68
386.521	1189.91
390.113	1009.02
393.703	1091.54
397.292	1065.47
400.88	1249.78
404.466	1141.44
408.051	1058.66
411.634	773.606
415.216	690.375
418.797	477.598
422.376	295.379
425.954	208.412
429.53	49.5
433.105	48.6934
436.679	57.123
440.251	76.2109
443.822	42.248
447.391	20.8184
450.96	87.8867
454.526	116.769
458.091	137.738
461.655	237.643
465.218	277.652
468.779	481.975
472.338	761.684
475.897	953.076
479.454	1088.67
483.009	1232.99
486.563	1344.52
490.116	1471.87
493.667	1638.44
497.217	1817.14
500.765	1656.97
504.312	2069.98
507.858	1999.32
511.402	2015.78
514.945	2374.41
518.486	2485.81
522.026	2548.14
525.565	2491.7
529.102	2532.53
532.638	2696.81
536.172	2750.69
539.705	2455.21
543.236	2172.44
546.766	2095.25
550.295	1763.54
553.822	1378.3
557.348	1266.66
560.873	839.523
564.396	920.795
567.917	678.311
571.438	230.037
574.957	350.69
578.474	272.133
581.99	16.1035
585.504	135.984
589.018	78.0742
592.529	2.03906
596.04	79.4336
599.549	235.682
603.056	303.307
606.562	494.99
610.067	320.135
613.57	474.195
617.072	548.363
620.572	676.629
624.071	603.988
627.569	737.432
631.065	1006.96
634.56	1255.57
638.053	1441.25
641.545	1835
645.035	2291.81
648.524	3087.68
652.012	3570.6
655.498	5002.57
658.983	5925.6
662.466	6358.69
665.948	6441.87
669.428	6440.42
672.907	5982.84
676.385	5030.22
679.861	4027.05
683.336	3795.87
686.809	3527.7
690.281	3308.41
693.752	3291.61
697.221	3526.61
700.688	3366.41
704.155	3524.73
707.619	3549.79
711.083	3489.57
714.545	3334.12
718.005	3045.65
721.464	2958.47
724.922	2733.54
728.378	2563.14
731.833	2573.21
735.286	2445.03
738.738	2478.1
742.189	2585.64
745.638	2957.89
749.085	2914.61
752.531	2989.1
755.976	3124.36
759.419	3283.4
762.861	3322.2
766.302	3197.76
769.741	2930.08
773.178	2696.15
776.614	2473.98
780.049	2141.56
783.482	1805.89
786.914	1501.97
790.345	1185.79
793.773	1066.36
797.201	529.393
800.627	270.742
804.052	92.5371
807.475	14.0742
810.897	3.70312
814.317	115.764
817.736	27.543
821.153	70.3008
824.569	102.293
827.984	55.8457
831.397	147.215
834.808	40.6504
838.219	26.9414
841.627	74.2266
845.035	25.0684
848.441	77.4238
851.845	275.611
855.248	271.41
858.65	362.981
862.05	322.393
865.448	525.791
868.846	605.998
872.241	844.004
875.636	713.461
879.029	1053.15
882.42	908.816
885.81	851.365
889.199	1136.18
892.586	1203.38
895.971	1189.84
899.356	1259.44
902.738	1290.87
906.12	1354.17
909.5	1367.31
912.878	1528.42
916.255	1684.46
919.63	1502.66
923.004	1861.36
926.377	1755.31
929.748	2080.18
933.118	1948.96
936.486	2129.15
939.853	1962.88
943.218	1988.12
946.582	1860.22
949.945	1767.2
953.306	1766.39
956.665	1734.18
960.023	1897.69
963.38	1642.25
966.735	1518.66
970.089	1568.69
973.441	1385.12
976.792	1751.51
980.141	1622.14
983.489	1702.9
986.836	2035.34
990.181	2087.38
993.524	2203.69
996.866	2501.54
1000.21	2510.57
1003.55	2905.75
1006.88	3162.08
1010.22	3330.59
1013.55	3350.32
1016.89	3022.21
1020.22	3068.27
1023.55	2852.57
1026.88	2519.75
1030.21	2315.31
1033.53	2198.47
1036.86	2025.09
1040.18	2013.36
1043.5	2082.76
1046.82	2062.3
1050.14	1994.56
1053.46	1919.3
1056.78	2014.01
1060.09	2029.49
1063.4	1815.73
1066.71	1587.55
1070.02	1593.5
1073.33	1718.76
1076.64	1415.85
1079.94	1130.54
1083.25	1005.49
1086.55	944.76
1089.85	793.223
1093.15	923.479
1096.45	762.729
1099.75	525.143
1103.04	846.293
1106.34	565.965
1109.63	627.148
1112.92	481.955
1116.21	531.934
1119.5	453.094
1122.78	409.586
1126.07	466.721
1129.35	349.584
1132.63	481.955
1135.92	442.102
1139.19	275.047
1142.47	161.67
1145.75	187.303
1149.02	171.883
1152.3	158.945
1155.57	124.58
1158.84	33.9688
1162.11	157.346
1165.38	181.633
1168.64	178.897
1171.91	103.184
1175.17	141.906
1178.43	98.6738
1181.69	163.086
1184.95	50.8027
1188.21	48.5117
1191.46	193.791
1194.72	187.236
1197.97	18.0391
1201.22	119.305
1204.47	171.037
1207.72	292.293
1210.97	115.705
1214.21	50.8848
1217.46	19.9902
1220.7	208.887
1223.94	38.3125
1227.18	129.414
1230.42	20.6055
1233.65	30.3516
1236.89	66.0762
1240.12	53.8594
1243.35	83.2305
1246.59	132.35
1249.81	99.2598
1253.04	34.8926
1256.27	70.9004
1259.49	258.779
1262.72	194.162
1265.94	115.34
1269.16	68.8027
1272.38	181.871
1275.59	431.182
1278.81	15.2617
1282.03	438.24
1285.24	288.225
1288.45	285.256
1291.66	203.33
1294.87	353.168
1298.08	600.795
1301.28	442.471
1304.48	170.463
1307.69	210.334
1310.89	280.815
1314.09	268.195
1317.29	129.283
1320.48	159.772
1323.68	266.008
1326.87	277.824
1330.06	409.678
1333.26	184.264
1336.44	309.941
1339.63	140.039
1342.82	182.703
1346	185.816
1349.19	351.174
1352.37	295.113
1355.55	247.947
1358.73	271.418
1361.9	173.143
1365.08	138.547
1368.26	306.957
1371.43	257.652
1374.6	445.805
1377.77	350.518
1380.94	140.107
1384.11	247.293
1387.27	257.815
1390.43	136.545
1393.6	237.502
1396.76	427.285
1399.92	395.678
1403.08	311.992
1406.23	221.326
1409.39	245.897
1412.54	460.057
1415.69	451.287
1418.85	440.346
1421.99	104.297
1425.14	80.1035
1428.29	245.756
1431.43	391.709
1434.58	261.045
1437.72	163.727
1440.86	172.68
1444	158.377
1447.13	79.0176
1450.27	242.242
1453.4	47.4277
1456.54	6.07422
1459.67	202.111
1462.8	6.99023
1465.93	61.502
1469.06	172.834
1472.18	347.461
1475.31	116.857
1478.43	229.008
1481.55	91.4336
1484.67	40.9629
1487.79	333.141
1490.9	407.664
1494.02	490.197
1497.13	109.371
1500.24	251.727
1503.35	251.588
1506.46	240.951
1509.57	287.402
1512.68	299.795
1515.78	233.365
1518.88	253.963
1521.99	398.947
1525.09	276.615
1528.18	375.223
1531.28	168.465
1534.38	215.762
1537.47	94.5527
1540.56	369.359
1543.66	158.119
1546.74	36.0215
1549.83	259.383
1552.92	266.207
1556.01	281.336
1559.09	246.635
1562.17	258.045
1565.25	235.256
1568.33	44.1035
