Measurement: Raman, 514 nm, depolarized, Raman Data Processed
Mineral: Annite
Rruff sample: R060204
Ideal chemistry: KFe^2+^_3_AlSi_3_O_10_(OH)_2_
Locality: Mont Saint-Hilaire, Rouville County, Quebec, Canada
Source: Royal Ontario Museum
Description: Black mica with pseudohexagonal outines
Measured chemistry: (K_0.96_Na_0.04_)_Σ=1_(Fe^2+^_2.04_Mg_0.81_Mn_0.09_Ti_0.03_[box]_0.03_)_Σ=3_(Si_3.00_Al_1.00_)O_10_((OH)_1.54_F_0.46_)_Σ=2_
Pin_id: M00140
Orientation: Laser parallel to c* (0 0 1). Fiducial mark perpendicular to laser is parallel to -a [-1 0 0]
Raman shift (cm-1)	intensity
307.151	0
310.773	218.709
314.394	49.002
318.013	168.609
321.631	112.432
325.248	135.389
328.864	110.027
332.478	91.1856
336.09	193.207
339.701	587.229
343.311	594.186
346.92	616.594
350.527	614.723
354.132	890.447
357.737	829.014
361.34	779.58
364.941	903.117
368.541	770.191
372.14	572.394
375.737	843.607
379.333	687.057
382.928	885.174
386.521	683.932
390.113	710.693
393.703	763.295
397.292	1023.38
400.88	1100.96
404.466	1033.03
408.051	1019.59
411.634	1068.64
415.216	985.166
418.797	804.125
422.376	772.502
425.954	452.773
429.53	549.529
433.105	242.217
436.679	310.385
440.251	73.916
443.822	124.342
447.391	9.12695
450.96	158.889
454.526	135.299
458.091	114.861
461.655	140.295
465.218	147.316
468.779	380.281
472.338	687.314
475.897	921.373
479.454	908.543
483.009	1077.07
486.563	1435.19
490.116	2011.56
493.667	1825.23
497.217	1807.62
500.765	2008.52
504.312	2060.15
507.858	2138.1
511.402	2347.39
514.945	2258.8
518.486	2339.88
522.026	2632.84
525.565	2662.1
529.102	2951.15
532.638	3568.29
536.172	3194.77
539.705	3379.61
543.236	3417.78
546.766	3514.99
550.295	3437.49
553.822	3209.12
557.348	2784.78
560.873	2480.04
564.396	2467.53
567.917	1933.74
571.438	1547.48
574.957	1260.83
578.474	666.938
581.99	251.494
585.504	203.397
589.018	63.5293
592.529	76.9121
596.04	99.0254
599.549	43.2578
603.056	59.0977
606.562	96.6992
610.067	166.85
613.57	15.3027
617.072	90.8184
620.572	551.639
624.071	572.893
627.569	452.832
631.065	675.039
634.56	889.498
638.053	980.211
641.545	1244.17
645.035	1463.38
648.524	1591.82
652.012	1887.49
655.498	2209.39
658.983	3222.51
662.466	3769.85
665.948	4664.42
669.428	5858.2
672.907	6585.21
676.385	6733.42
679.861	6130.84
683.336	5372.46
686.809	5052.55
690.281	4978.02
693.752	5503.81
697.221	6356.82
700.688	7147.16
704.155	8560.17
707.619	9670.69
711.083	10856.5
714.545	11501
718.005	11775.4
721.464	11059.2
724.922	10688.3
728.378	9827.48
731.833	8522.69
735.286	7696.37
738.738	6632.34
742.189	6123
745.638	5967.29
749.085	5865.74
752.531	6815.82
755.976	6808.24
759.419	6619.64
762.861	6570.01
766.302	6882.35
769.741	7242.66
773.178	6236.94
776.614	5671.17
780.049	4990.36
783.482	4213.51
786.914	3460.61
790.345	2726.66
793.773	2180.65
797.201	1682.6
800.627	1492.49
804.052	868.322
807.475	609.094
810.897	788.4
814.317	344.465
817.736	202.059
821.153	98.4102
824.569	37.2285
827.984	13.4531
831.397	39.7832
834.808	169.363
838.219	173.217
841.627	148.975
845.035	86.6523
848.441	126.709
851.845	166.328
855.248	79.4062
858.65	111.207
862.05	10.2441
865.448	222.092
868.846	191.394
872.241	382.791
875.636	266.225
879.029	265.647
882.42	446.971
885.81	485.574
889.199	781.025
892.586	1051.47
895.971	938.893
899.356	937.318
902.738	1116.05
906.12	1111.18
909.5	1441.62
912.878	1296.1
916.255	1534.67
919.63	1636.26
923.004	1456.92
926.377	1555.62
929.748	1434.15
933.118	1647.38
936.486	1626.38
939.853	1488.12
943.218	1514.25
946.582	1766.04
949.945	1534.21
953.306	1389.56
956.665	1578.71
960.023	1549.72
963.38	1522.71
966.735	1123.11
970.089	1547.64
973.441	1142.01
976.792	1099.95
980.141	1081.34
983.489	1229.02
986.836	1205.52
990.181	1478.21
993.524	1537.16
996.866	1242.28
1000.21	1171.91
1003.55	1268.74
1006.88	1440.5
1010.22	1523.93
1013.55	1731.38
1016.89	1467.74
1020.22	1769.97
1023.55	1876.52
1026.88	1963.39
1030.21	1808.58
1033.53	1901.56
1036.86	1867.86
1040.18	1773.97
1043.5	1982.64
1046.82	1766.45
1050.14	1970.86
1053.46	2225.29
1056.78	1896.53
1060.09	1923.75
1063.4	2017.86
1066.71	1867.23
1070.02	2188.87
1073.33	2001.74
1076.64	2023.57
1079.94	1914.52
1083.25	1738.5
1086.55	1731.83
1089.85	1636.35
1093.15	1693.3
1096.45	1509.24
1099.75	1287.16
1103.04	1232.49
1106.34	1140.76
1109.63	973.129
1112.92	961.406
1116.21	1024.07
1119.5	857.969
1122.78	1072.04
1126.07	861.461
1129.35	744.113
1132.63	479.934
1135.92	366.258
1139.19	439.637
1142.47	418.75
1145.75	218.504
1149.02	329.812
1152.3	235.59
1155.57	358.316
1158.84	195.742
1162.11	58.1953
1165.38	284.066
1168.64	93.8945
1171.91	15.7617
1175.17	93.543
1178.43	86.8867
1181.69	41.2227
1184.95	141.992
1188.21	194.367
1191.46	316.918
1194.72	32.5391
1197.97	83.9219
1201.22	15.8086
1204.47	141.094
1207.72	11.2383
1210.97	93.5547
1214.21	39.0664
1217.46	103.574
1220.7	72.8008
1223.94	69.6797
1227.18	297.656
1230.42	284.934
1233.65	120.188
1236.89	25.9336
1240.12	29.2109
1243.35	12.9531
1246.59	159.414
1249.81	308.844
1253.04	209.922
1256.27	212.793
1259.49	168.711
1262.72	312.695
1265.94	282.289
1269.16	19.7383
1272.38	411.984
1275.59	200.078
1278.81	239.016
1282.03	160.777
1285.24	380.309
1288.45	13.3516
1291.66	73.7383
1294.87	391.582
1298.08	200.231
1301.28	169.508
1304.48	123.637
1307.69	118.586
1310.89	88.0938
1314.09	127.277
1317.29	90.5742
1320.48	36.4141
1323.68	399.203
1326.87	263.371
1330.06	121.769
1333.26	237.277
1336.44	14.418
1339.63	314.144
1342.82	135.086
1346	39.2695
1349.19	289.812
1352.37	318.519
1355.55	354.512
1358.73	197.852
1361.9	126.871
1365.08	232.926
1368.26	0.023438
1371.43	171.074
1374.6	79.6172
1377.77	295.285
1380.94	609.762
1384.11	728.062
1387.27	175.34
1390.43	138.996
1393.6	288.43
1396.76	275.965
1399.92	237.473
1403.08	325.922
1406.23	210.211
1409.39	731.336
1412.54	299.785
1415.69	534.102
1418.85	417.773
1421.99	365.59
1425.14	233.953
1428.29	378.84
1431.43	503.664
1434.58	431.273
1437.72	387.168
1440.86	158.676
1444	447.195
1447.13	230.57
1450.27	121.344
1453.4	352.613
1456.54	366.152
1459.67	386.555
1462.8	358.125
1465.93	372.547
1469.06	350.492
1472.18	341.668
1475.31	70.4414
1478.43	389.621
1481.55	181.113
1484.67	170.664
1487.79	197.992
1490.9	336.055
1494.02	154.004
1497.13	68.1367
1500.24	19.4883
1503.35	362.398
1506.46	230.648
1509.57	296.039
1512.68	316.211
1515.78	507.641
1518.88	156.266
1521.99	104.082
1525.09	285.281
1528.18	316.785
1531.28	127.703
1534.38	291.137
1537.47	162.008
1540.56	234.969
1543.66	165.973
1546.74	138.746
1549.83	206.5
1552.92	103.082
1556.01	259.785
1559.09	247.25
1562.17	278.414
1565.25	149.098
1568.33	125.031
