Measurement: Raman, 514 nm, depolarized, Raman Data Processed
Mineral: Anorthite
Rruff sample: R050104
Ideal chemistry: CaAl_2_Si_2_O_8_
Locality: unknown
Source: Rock Currier
Description: Iridescent slab, labradorite/andesine
Measured chemistry: Ca_0.50_Na_0.47_K_0.03_Al_1.50_Si_2.50_O_8_
Pin_id: L00412
Orientation: Laser parallel to (-1 -1 0). Fiducial mark perpendicular to laser is parallel to c [0 0 1]
Raman shift (cm-1)	intensity
134.39	0
138.55	125.492
142.709	114.091
146.865	494.193
151.019	731.133
155.171	1023.08
159.322	1066.71
163.47	1456.67
167.617	2183.34
171.761	3874.5
175.904	5457.99
180.044	6594.29
184.183	7409.29
188.319	7285.04
192.454	7412.49
196.586	7542.65
200.717	7671.05
204.846	6839.36
208.972	5268.48
213.097	3631.18
217.22	2194.12
221.341	889.748
225.46	322.746
229.577	264.611
233.692	284.977
237.805	434.178
241.916	884.443
246.025	1260.36
250.132	1803.87
254.237	2340
258.34	2915.71
262.442	3627.68
266.541	4269.33
270.639	4860.62
274.734	5801.28
278.828	6782.14
282.919	7003
287.009	6532.87
291.097	5590.78
295.183	4304.79
299.266	2626.32
303.348	1484.93
307.428	947.373
311.507	509.977
315.583	138.399
319.657	63.911
323.729	51.594
327.8	131.757
331.868	112.405
335.935	42.418
339.999	104.725
344.062	156.202
348.123	197.783
352.182	163.439
356.239	55.067
360.294	29.693
364.347	275.276
368.398	299.887
372.448	236.551
376.495	89.185
380.54	8.495
384.584	295.925
388.626	510.286
392.666	926.312
396.704	1246.02
400.74	2022.56
404.774	2744.83
408.806	2859.83
412.836	2353.07
416.865	1615.12
420.891	1319.41
424.916	1157.57
428.939	1141.16
432.959	1307.22
436.978	1646.77
440.996	2108.8
445.011	2658.57
449.024	3039.94
453.036	3648.3
457.045	4640.47
461.053	5984.07
465.059	8062.15
469.063	12099.7
473.065	18507.6
477.065	25572.6
481.063	27473.8
485.06	23641.8
489.054	18592.3
493.047	17917.8
497.038	22925.7
501.027	32823.6
505.014	43347.3
508.999	47881.6
512.982	43073.4
516.964	30706
520.944	20349.2
524.921	14032.1
528.897	9762.42
532.871	6871.97
536.844	5023.69
540.814	4524.37
544.783	4475.64
548.749	4516.14
552.714	4662.06
556.677	4944.52
560.638	6380.86
564.597	7790.01
568.555	7486.81
572.511	5416.22
576.464	3318.25
580.416	2437.92
584.366	1554.21
588.315	965.12
592.261	863.65
596.206	626.806
600.148	496.584
604.089	335.984
608.028	288.99
611.965	8.567
615.901	8.342
619.834	1.786
623.766	41.328
627.696	80.964
631.624	196.169
635.551	175.009
639.475	314.566
643.398	217.917
647.318	3.007
651.237	48.222
655.155	16.835
659.07	159.157
662.984	10.893
666.895	39.66
670.805	120.153
674.713	283.239
678.62	508.651
682.524	564.018
686.427	531.902
690.328	589.339
694.227	791.387
698.124	671.563
702.02	896.495
705.913	1193.67
709.805	1029.29
713.695	1213.15
717.584	1614.32
721.47	1625.14
725.355	1577.4
729.238	1482.75
733.119	1706.65
736.998	2176.08
740.876	2709.35
744.752	2882.43
748.626	3045.01
752.498	3044.8
756.368	3381.22
760.237	3786.86
764.104	3879.05
767.969	4137.44
771.832	4082.13
775.693	4418.93
779.553	4212.33
783.411	3984.22
787.267	4248.5
791.122	4598.75
794.974	4674.51
798.825	4200.72
802.674	3468.26
806.522	2613.3
810.367	1804.54
814.211	1270.52
818.053	674.27
821.893	400.495
825.732	272.361
829.568	75.462
833.403	104.815
837.236	120.624
841.068	0.103
844.898	0.925
848.726	8.229
852.552	220.224
856.376	107.686
860.199	184.06
864.02	73.469
867.839	72.998
871.656	85.457
875.472	34.71
879.286	52.425
883.098	18.417
886.909	286.935
890.717	383.156
894.524	552.133
898.33	534.877
902.133	560.422
905.935	779.754
909.735	1118.92
913.533	1366.01
917.33	1441.98
921.124	1465.86
924.918	1427.68
928.709	1595.43
932.499	1842.09
936.286	2134.65
940.073	2163.13
943.857	2221.51
947.64	2347.48
951.421	2538.05
955.2	2745.3
958.978	3194.56
962.753	3597.85
966.527	3770.16
970.3	4416.47
974.071	4851.78
977.84	5203.16
981.607	5345.52
985.372	5444.57
989.136	5041.95
992.898	4545.96
996.659	4524.63
1000.42	4207.72
1004.17	4228.22
1007.93	4339.3
1011.68	4522.08
1015.43	4375.31
1019.18	4108.64
1022.93	3973.6
1026.68	4056.89
1030.42	4210.23
1034.17	4242.48
1037.91	4360.68
1041.65	4093.24
1045.39	3938.8
1049.12	3862.11
1052.86	3977.52
1056.59	4181.19
1060.33	4358.84
1064.06	3992.34
1067.78	4177.35
1071.51	3739.27
1075.23	3728.64
1078.96	3679.07
1082.68	3812.83
1086.4	3704.95
1090.12	3729.6
1093.83	3476.49
1097.55	3243.8
1101.26	2924.53
1104.97	2785.05
1108.68	2910.22
1112.39	2629.5
1116.1	2614.98
1119.8	2430.9
1123.5	1868.24
1127.2	1957.01
1130.9	1538.75
1134.6	1781.78
1138.3	1409.38
1141.99	1274.72
1145.69	1363.05
1149.38	1361.73
1153.07	986.889
1156.76	789.324
1160.44	712.738
1164.13	651.828
1167.81	770.869
1171.49	848.668
1175.17	851.098
1178.85	499.158
1182.52	331.5
1186.2	215.266
1189.87	172.562
1193.54	167.533
1197.21	281.176
1200.88	337.449
1204.55	315.133
1208.21	216.545
1211.88	50.293
1215.54	96.359
1219.2	94.639
1222.86	66.848
1226.51	231.219
1230.17	245.945
1233.82	290.924
1237.47	222.119
1241.12	113.582
1244.77	92.434
1248.42	113.543
1252.06	119.389
1255.71	202.848
1259.35	509.824
1262.99	514.578
1266.63	639.592
1270.26	565.404
1273.9	318.33
1277.53	105.342
1281.16	2.346
1284.8	33.893
1288.42	213.252
1292.05	345.553
1295.68	304.33
