Measurement: Raman, 514 nm, depolarized, Raman Data Processed
Mineral: Anorthite
Rruff sample: R040059
Ideal chemistry: CaAl_2_Si_2_O_8_
Locality: Miyakejima, Japan
Source: University of Arizona Mineral Museum
Description: Colorless fragments of crystals
Measured chemistry: (Ca_0.94_Na_0.04_Fe_0.02_)(Al_0.98_Si_0.02_)_2_Si_2.00_O_8_
Pin_id: M00124
Orientation: Laser parallel to a* (1 0 0). Fiducial mark perpendicular to laser is parallel to b [0 1 0]
Raman shift (cm-1)	intensity
125.91	0
130.08	132.155
134.248	1194.23
138.413	2902.26
142.577	5124.67
146.739	6346.84
150.898	4463.14
155.056	2204.36
159.212	893.099
163.365	709.001
167.517	783.854
171.666	809.762
175.813	1430.41
179.959	2346.23
184.102	3865
188.244	5824.52
192.383	7928.37
196.52	8336.49
200.656	6469.61
204.789	4678.43
208.92	3043.5
213.049	1336.92
217.176	373.522
221.302	26.518
225.425	77
229.546	310.361
233.665	140.27
237.782	1174.45
241.898	2400.58
246.011	3120.09
250.122	3495.57
254.231	3805.08
258.338	4253.79
262.443	4079.02
266.546	4053.23
270.647	4106.99
274.747	3922.89
278.844	3845.68
282.939	4038.07
287.032	4080.08
291.123	3219.43
295.212	2105.64
299.3	1196.42
303.385	538.432
307.468	70.544
311.549	277.981
315.629	17.869
319.706	320.476
323.781	467.221
327.855	262.595
331.926	73.297
335.995	40.521
340.063	279.757
344.128	214.524
348.192	18.871
352.253	70.965
356.313	8.035
360.37	68.004
364.426	291.09
368.479	519.462
372.531	647.269
376.581	774.573
380.629	1251.31
384.674	1072.7
388.718	596.996
392.76	797.671
396.8	1759.93
400.838	2273.08
404.874	2087.34
408.908	1144.53
412.94	561.277
416.97	447.853
420.999	634.258
425.025	1110.54
429.049	2046.74
433.072	2382.85
437.092	2768.86
441.111	2774.79
445.127	2430.66
449.142	2106.46
453.155	1962.18
457.166	2507.59
461.175	3252.59
465.181	3536.9
469.186	4773.77
473.19	6622.84
477.191	10254.7
481.19	16447.6
485.187	25338
489.183	24487.2
493.176	19722.5
497.168	23909.6
501.157	37747.9
505.145	45472
509.131	34072.4
513.115	23908.5
517.097	16633.2
521.077	13003.9
525.055	11853.8
529.031	9233.46
533.006	6476.05
536.978	4629.39
540.949	3902.82
544.917	4176.26
548.884	5910.07
552.849	9144.67
556.812	11699.8
560.773	11184.8
564.732	8359.91
568.689	6014.99
572.644	3700.08
576.598	1973.61
580.55	1337.94
584.499	1213.06
588.447	1668.19
592.393	2143.31
596.337	2238.44
600.279	2203.58
604.219	1318.7
608.158	943.825
612.094	988.94
616.029	964.048
619.962	1699.15
623.892	2134.24
627.821	1829.39
631.749	894.8
635.674	290.85
639.597	147.156
643.519	153.996
647.438	347.236
651.356	172.673
655.272	349.166
659.186	283.158
663.098	191.284
667.009	376.962
670.917	755.636
674.824	1492.2
678.728	2673.21
682.631	3389.39
686.532	2794.33
690.432	1809.52
694.329	1160.94
698.224	720.894
702.118	764.873
706.01	562.776
709.9	729.323
713.788	455.67
717.674	571.817
721.558	647.76
725.441	953.495
729.322	1039.02
733.201	1464.35
737.078	2159.48
740.953	3064.4
744.826	3639.11
748.698	2653.59
752.567	2207.87
756.435	2591.92
760.301	3312.67
764.165	3949.36
768.028	3692.75
771.888	2825.91
775.747	2018.85
779.604	1221.57
783.459	1214.06
787.312	886.323
791.164	668.35
795.013	170.134
798.861	21.663
802.707	202.794
806.551	143.535
810.394	114.939
814.234	298.503
818.073	159.394
821.91	202.33
825.745	66.139
829.578	99.068
833.41	56.663
837.24	143.283
841.068	200.848
844.894	40.788
848.718	11.998
852.54	232.672
856.361	82.973
860.18	242.968
863.997	302.757
867.812	452.36
871.626	611.832
875.438	891.131
879.248	920.268
883.056	839.263
886.862	1478.18
890.667	2267.03
894.469	2795.81
898.27	2884.48
902.07	2583.1
905.867	2661.71
909.663	2750.21
913.457	2848.61
917.249	2566.93
921.039	2725.19
924.827	2273.39
928.614	2671.52
932.399	3149.7
936.182	4387.83
939.964	5375.92
943.744	5363.98
947.521	5511.55
951.298	5505.31
955.072	5910.42
958.845	6179.27
962.615	5806.08
966.384	6233.16
970.152	6976.23
973.917	7591.27
977.681	8147.66
981.443	7964.6
985.203	7014.73
988.962	5890.66
992.719	5229.85
996.474	4646.95
1000.23	4532.69
1003.98	4372.22
1007.73	4216.16
1011.48	3947
1015.22	3729.13
1018.97	3445.17
1022.71	2807.83
1026.45	2410.76
1030.19	2424.99
1033.93	2320.4
1037.66	2460.02
1041.4	2400.73
1045.13	2098.64
1048.86	2029.33
1052.59	2261.72
1056.32	2137.47
1060.04	2193.49
1063.77	2309.95
1067.49	2066.78
1071.21	1846.16
1074.93	1884.02
1078.64	1889.85
1082.36	1807.95
1086.07	1866.32
1089.78	1545.1
1093.49	1445.84
1097.2	954.971
1100.91	584.977
1104.61	564.754
1108.32	579.348
1112.02	680.029
1115.72	831.096
1119.41	992.809
1123.11	952.139
1126.8	805.086
1130.5	628.598
1134.19	727.881
1137.88	735.102
1141.56	751.217
1145.25	777.479
1148.93	435.227
1152.62	141.701
1156.3	115.627
1159.98	292.99
1163.65	76.445
1167.33	353.252
1171	352.221
1174.68	582.053
1178.35	263.367
1182.02	175.686
1185.68	186.176
1189.35	103.846
1193.01	97.697
1196.67	411.156
1200.33	362.869
1203.99	361.979
1207.65	202.848
1211.31	149.23
1214.96	54.553
1218.61	15.811
1222.26	191.496
1225.91	482.434
1229.56	569.707
1233.2	705.684
1236.85	692.117
1240.49	307.607
1244.13	30.918
1247.77	176.906
1251.4	432.598
1255.04	346.229
1258.67	599.441
1262.3	544.715
1265.93	677.502
1269.56	469.963
1273.19	251.09
1276.82	27.428
1280.44	34.076
1284.06	194.256
1287.68	364.031
1291.3	792.865
1294.92	660.641
1298.53	457.691
1302.14	234.572
1305.76	20.182
1309.37	204.379
1312.98	64.793
1316.58	248.299
1320.19	461.209
1323.79	532.436
1327.39	586.404
1330.99	601.254
1334.59	368.744
1338.19	127.84
1341.79	19.039
1345.38	22.115
1348.97	49.682
1352.56	226.721
1356.15	673.027
1359.74	796.701
1363.32	791.934
1366.91	906.982
1370.49	426.143
1374.07	230.873
1377.65	54.496
1381.23	88.396
1384.8	454.277
1388.38	420.158
1391.95	900.344
1395.52	1047.1
1399.09	1030.72
1402.66	1025.26
1406.22	533.045
1409.79	496.977
1413.35	429.146
1416.91	226.963
1420.47	190.115
1424.03	494.174
1427.59	384.49
1431.14	931.838
1434.69	998.541
1438.24	1059.56
1441.8	1140.38
1445.34	846.154
1448.89	661.344
1452.43	416.732
1455.98	349.439
1459.52	447.709
1463.06	515.75
1466.6	597.66
1470.14	1060.72
1473.67	1400.15
1477.2	1300.84
1480.74	1062.63
1484.27	765.684
1487.8	782.57
1491.32	479.383
1494.85	267.674
1498.37	65.367
1501.9	76.781
1505.42	72.648
1508.94	482.451
1512.45	715.123
1515.97	543.74
1519.49	722.689
