Measurement: Raman, 514 nm, depolarized, Raman Data Processed
Mineral: Anorthite
Rruff sample: R050104
Ideal chemistry: CaAl_2_Si_2_O_8_
Locality: unknown
Source: Rock Currier
Description: Iridescent slab, labradorite/andesine
Measured chemistry: Ca_0.50_Na_0.47_K_0.03_Al_1.50_Si_2.50_O_8_
Pin_id: L00084
Orientation: Laser parallel to -c* (0 0 -1). Fiducial mark perpendicular to laser is parallel to a [1 0 0]
Raman shift (cm-1)	intensity
123.286	0
127.452	13.466
131.615	48.439
135.777	321.761
139.937	995.053
144.094	1476.35
148.25	2824.86
152.403	3483.64
156.555	4507.55
160.705	5719.44
164.853	8105.35
168.998	11148.6
173.142	13623.3
177.284	15393.7
181.424	16251.1
185.562	15148.1
189.698	13177.3
193.831	11613.1
197.963	11289.3
202.093	10116
206.221	8808.01
210.347	6884.18
214.472	4784.11
218.594	2628.69
222.714	1529.81
226.832	1011
230.948	402.949
235.063	538.96
239.175	1106.51
243.286	1810.79
247.394	2510.54
251.501	3108.2
255.605	3615.4
259.708	4412.84
263.808	5050.65
267.907	6174.79
272.004	7654.01
276.099	9274.17
280.192	10564
284.283	11431.6
288.372	10809.3
292.459	9006.24
296.544	6515.85
300.627	4400.12
304.709	3084.17
308.788	1809.19
312.865	1132.63
316.941	766.116
321.015	632.328
325.086	318.965
329.156	225.775
333.224	238.646
337.29	455.517
341.354	78.313
345.416	132.143
349.476	312.52
353.534	178.357
357.591	213.88
361.645	481.253
365.698	251.431
369.748	77.036
373.797	119.653
377.844	11.171
381.889	430.651
385.932	881.024
389.973	1240.8
394.012	1480
398.049	1965.32
402.084	2959.6
406.118	3276.45
410.15	3052.35
414.179	2257.72
418.207	1882.59
422.233	1642.52
426.257	1690.69
430.279	1555.09
434.299	2158.91
438.318	2919.17
442.334	3248.88
446.349	3598.01
450.361	4052.52
454.372	4717.42
458.381	5222.58
462.388	6181.41
466.394	8403.27
470.397	11646.2
474.398	16782.5
478.398	20529.2
482.396	20460.1
486.391	17196.1
490.385	14915.8
494.377	16424
498.368	22848.8
502.356	33217.5
506.342	41072.8
510.327	41013.9
514.31	31963.7
518.291	22049
522.27	14515.4
526.247	9345.69
530.222	6217.62
534.196	4341.93
538.167	3701.31
542.137	3528.19
546.105	3504.28
550.071	3284.3
554.035	3342.23
557.998	4085.91
561.958	4865.1
565.917	5343.79
569.874	4320.03
573.829	3017.78
577.782	2106.99
581.733	1259.66
585.683	862.768
589.63	620.316
593.576	487.309
597.52	253.842
601.462	214.461
605.402	98.551
609.341	85.008
613.277	18.629
617.212	35.51
621.145	50.426
625.076	71.906
629.006	107.6
632.933	234.678
636.859	454.18
640.783	37.871
644.705	59.523
648.625	304.49
652.543	220.014
656.46	86.111
660.375	4.742
664.288	54.926
668.199	172.518
672.108	371.74
676.016	513.355
679.921	374.691
683.825	582.752
687.727	572.363
691.628	743.947
695.526	723.582
699.423	691.83
703.318	634.643
707.211	1043.89
711.102	1291.22
714.992	1462.36
718.879	1233.49
722.765	1140.52
726.649	1296.04
730.532	2153.89
734.412	2208
738.291	2410.5
742.168	2686.93
746.043	2841.06
749.916	3138.25
753.788	3480.21
757.658	3282.39
761.526	3420.67
765.392	3618.32
769.257	3894.12
773.119	4188.07
776.98	3930.44
780.839	3789.61
784.697	3896.64
788.552	4428.23
792.406	5012.55
796.258	4939.26
800.108	4489.83
803.957	3028.58
807.804	2553.27
811.649	1656.93
815.492	1641.56
819.333	794.393
823.173	249.078
827.011	118.793
830.847	99.164
834.681	159.943
838.514	263.641
842.345	192.332
846.174	127.555
850.001	165.854
853.827	15.236
857.651	14.439
861.473	375.146
865.293	114.662
869.112	224.588
872.928	80.234
876.744	226.475
880.557	108.098
884.369	247.27
888.178	236.084
891.987	73.58
895.793	292.779
899.598	485.725
903.401	864.424
907.202	1199.91
911.001	1246.33
914.799	1125.62
918.595	1623.78
922.389	1966.89
926.182	1623.94
929.972	1444.94
933.761	1600.88
937.549	1586.73
941.334	1529.51
945.118	1966.19
948.9	2082.82
952.681	2501.43
956.459	2655.03
960.236	2706.63
964.012	3289.22
967.785	3705.89
971.557	4186.62
975.327	4538.65
979.095	5080.27
982.862	4831.53
986.627	4402.38
990.39	4136.34
994.152	3952.26
997.912	3851.05
1001.67	3774.56
1005.43	3614.25
1009.18	3367.59
1012.93	3256.05
1016.68	3315.38
1020.43	3143.3
1024.18	3259.45
1027.93	3224.89
1031.67	3280.47
1035.42	3284.56
1039.16	3083.77
1042.9	3086.53
1046.63	3256.69
1050.37	3216.63
1054.11	3457.33
1057.84	3379.36
1061.57	3021.69
1065.3	3095.51
1069.03	3079.09
1072.75	3179.26
1076.47	3258.3
1080.2	3136.84
1083.92	3015.89
1087.64	2492.49
1091.36	2633.47
1095.07	2425.57
1098.79	2149.24
1102.5	2413.57
1106.21	2207.05
1109.92	2174.82
1113.62	1800.86
1117.33	1487.01
1121.04	1342.95
1124.74	1175.31
1128.44	1145.13
1132.14	1315.82
1135.83	1068.31
1139.53	1133.81
1143.22	1000.75
1146.92	853.465
1150.61	606.043
1154.3	523.346
1157.98	899.408
1161.67	634.172
1165.35	760.449
1169.04	448.232
1172.72	245.705
1176.4	268.895
1180.07	278.793
1183.75	333.426
1187.42	162.623
1191.1	529.383
1194.77	587.768
1198.44	183.514
1202.1	28.188
1205.77	271.281
1209.43	40.963
1213.1	24.123
1216.76	313.549
1220.42	551.197
1224.07	499.057
1227.73	231.637
1231.38	72.881
1235.04	817.381
1238.69	221.203
1242.34	216.129
1245.99	146.973
1249.63	498.781
1253.28	789.539
1256.92	731.059
1260.56	416.629
1264.2	267.369
