Measurement: Raman, 514 nm, depolarized, Raman Data Processed
Mineral: Anorthite
Rruff sample: R040059
Ideal chemistry: CaAl_2_Si_2_O_8_
Locality: Miyakejima, Japan
Source: University of Arizona Mineral Museum
Description: Colorless fragments of crystals
Measured chemistry: (Ca_0.94_Na_0.04_Fe_0.02_)(Al_0.98_Si_0.02_)_2_Si_2.00_O_8_
Pin_id: M00453
Orientation: Laser parallel to -c* (0 0 -1). Fiducial mark perpendicular to laser is parallel to a [1 0 0]
Raman shift (cm-1)	intensity
120.347	0
124.519	237.949
128.69	460.604
132.858	636.24
137.025	1039.26
141.189	2580.39
145.352	4066.8
149.512	3250.13
153.67	1711.28
157.827	776.061
161.981	498.17
166.133	1604.08
170.283	2982.1
174.431	4141.77
178.577	5495.25
182.721	7784.12
186.863	9072.8
191.003	8474.71
195.141	7690.59
199.277	6571.26
203.411	4917.39
207.543	3909.99
211.673	3180.4
215.801	2366.96
219.927	1806.89
224.051	1043.51
228.173	993.328
232.292	1212.51
236.41	1269.44
240.526	2205.17
244.64	3824.79
248.752	4345.21
252.861	4569.87
256.969	5138.96
261.075	4807.24
265.179	4535.03
269.281	4832.14
273.38	5518.56
277.478	6014.33
281.574	6249.45
285.668	6106.58
289.76	5778.79
293.85	4316.8
297.937	2477.62
302.023	1570.2
306.107	1163.79
310.189	917.951
314.269	762.389
318.347	1077.02
322.423	1771.55
326.497	1475.78
330.569	249.6
334.639	47.105
338.707	4.506
342.773	122.945
346.837	442.881
350.899	434.686
354.96	108.602
359.018	114.557
363.074	162.393
367.128	328.328
371.181	568.156
375.231	467.195
379.28	465.459
383.326	663.002
387.37	1059.97
391.413	946.322
395.454	1211.08
399.492	1722.85
403.529	2560.96
407.564	2886.54
411.596	1831.45
415.627	1245.9
419.656	1579.94
423.683	2423.82
427.708	3377.1
431.731	3620.83
435.752	3593.35
439.772	3315.49
443.789	2317.25
447.804	1518.64
451.817	1431.84
455.829	1662.36
459.838	2054.42
463.846	2104.38
467.852	2393.02
471.855	3541.01
475.857	4778.63
479.857	6541.6
483.855	10202.7
487.851	12589.1
491.845	10972.4
495.837	11537.9
499.828	17376.9
503.816	25165.4
507.802	23066.4
511.787	15785.2
515.77	10590.1
519.75	7015.6
523.729	5579.99
527.706	4598.36
531.681	2955.03
535.654	2221.97
539.625	1838.64
543.595	2221.44
547.562	3093.02
551.527	3488.6
555.491	5648.33
559.453	5797.94
563.412	4597.05
567.37	2816.12
571.326	1518.54
575.28	1095.34
579.233	661.793
583.183	597.893
587.131	223.643
591.078	459.025
595.022	1154.06
598.965	1208.76
602.906	643.109
606.845	147.121
610.782	19.244
614.718	313.869
618.651	676.307
622.582	588.268
626.512	759.9
630.44	721.219
634.366	382.332
638.29	312.643
642.212	152.469
646.132	282.549
650.05	383.93
653.967	913.369
657.882	420.145
661.794	210.348
665.705	85.133
669.614	484.744
673.522	1975.48
677.427	2571.4
681.331	2825.28
685.232	2236.13
689.132	2050.09
693.03	1191.25
696.926	712.143
700.82	97.34
704.713	167.492
708.603	511.521
712.492	280.045
716.379	168.225
720.264	226.082
724.147	3.617
728.028	580.713
731.908	727.539
735.785	1254.1
739.661	1560.19
743.535	2015.41
747.407	2071.23
751.278	2796.81
755.146	2802.18
759.013	3507.32
762.878	3951.22
766.741	3992
770.602	3488.94
774.461	2421.39
778.319	1824.88
782.174	1068.89
786.028	402.742
789.88	736.16
793.73	903.309
797.579	560.957
801.425	3.43
805.27	303.988
809.113	17.258
812.954	333.516
816.794	615.102
820.631	28.098
824.467	322.977
828.301	275.219
832.133	133.195
835.963	280.715
839.792	627.785
843.618	254.402
847.443	60.879
851.266	457.305
855.088	828.027
858.907	755.348
862.725	1184.01
866.541	578.906
870.355	403.684
874.167	389.336
877.978	839.832
881.787	1226.61
885.594	1113.59
889.399	910.758
893.202	848.316
897.004	1506.02
900.803	2044.02
904.601	2392.34
908.398	2720.82
912.192	2839.39
915.985	2488.1
919.776	2156.96
923.565	2466.08
927.352	2335.53
931.138	1995.18
934.922	1704.99
938.704	1974.98
942.484	2435.03
946.262	3395.62
950.039	3726.49
953.814	4514.73
957.587	4174.87
961.359	3864.03
965.128	3633.22
968.896	4046.47
972.662	5493.36
976.427	5966.02
980.189	5119.31
983.95	4919.96
987.709	3961.77
991.467	3497.03
995.222	3050.13
998.976	3480.7
1002.73	4206.25
1006.48	2302.26
1010.23	1678.86
1013.97	1886.43
1017.72	2297.49
1021.46	2777.16
1025.2	2835.86
1028.94	1722.36
1032.68	1493.99
1036.42	1073.77
1040.15	1907.54
1043.89	2435.98
1047.62	2657.17
1051.35	2744.13
1055.07	1659.36
1058.8	1321.87
1062.52	1475.55
1066.25	1579.26
1069.97	2783.57
1073.69	2568.94
1077.4	2503.69
1081.12	2210.48
1084.83	1767.08
1088.55	1353.57
1092.26	1861.52
1095.96	1418.42
1099.67	1235.48
1103.38	1143.77
1107.08	691.676
1110.78	109.891
1114.48	109.469
1118.18	729.965
1121.88	1129.74
1125.57	970.016
1129.27	1280.58
1132.96	612.055
1136.65	373.066
1140.34	44.23
1144.02	159.688
1147.71	184.957
1151.39	1067.69
1155.07	1188.58
1158.75	682.723
1162.43	457.75
1166.11	221.559
1169.78	328.996
1173.45	259.078
1177.12	740.082
1180.79	1310.22
1184.46	1271.88
1188.13	467.934
1191.79	236.383
1195.45	377.555
1199.11	172.996
1202.77	586.359
1206.43	1140.5
1210.09	895.59
1213.74	1139.22
1217.39	1266.35
1221.05	538.25
1224.69	155.121
1228.34	390.742
1231.99	1286.57
1235.63	992.949
1239.27	1575.36
1242.91	1547.46
1246.55	1459.33
1250.19	1113.62
1253.83	825.148
1257.46	288.949
1261.09	890.094
1264.72	1492.59
1268.35	1993.15
1271.98	2312.11
1275.61	2402.8
1279.23	1890.75
1282.85	468.465
1286.47	244.203
1290.09	234.152
1293.71	398.211
1297.33	890.754
1300.94	1682.27
1304.55	1851.48
1308.16	1099.38
1311.77	1362.19
1315.38	1018.34
1318.99	443.457
1322.59	540.141
1326.19	641.09
1329.79	903.137
1333.39	500.496
1336.99	1342.42
1340.59	1365.89
1344.18	1090.48
1347.77	727.266
1351.37	3.324
1354.95	792.059
1358.54	182.199
1362.13	106.148
1365.71	969.477
1369.3	1092.6
1372.88	1218.31
1376.46	2003.77
1380.04	1332.91
1383.61	1141.75
1387.19	850.281
1390.76	206.137
1394.33	7.137
1397.9	107.863
1401.47	641.012
1405.04	1627.02
1408.6	1402.57
1412.16	1831.11
1415.72	1911.81
1419.29	1581.11
1422.84	707.18
1426.4	878.141
1429.96	667.812
1433.51	675.812
1437.06	1080.47
1440.61	2243.27
1444.16	3085.44
1447.71	3683.57
1451.25	3901.73
1454.8	4150.25
1458.34	3593.14
1461.88	3373.77
1465.42	1550.94
1468.96	1244.06
1472.49	802.715
1476.03	353.238
1479.56	1327.78
1483.09	1693.32
1486.62	1979.08
1490.15	2229.27
1493.67	2125.52
1497.2	1741.68
1500.72	1149.83
1504.24	1114.54
1507.76	465.484
1511.28	12.23
1514.8	0
