Measurement: Raman, 514 nm, depolarized, Raman Data Processed
Mineral: Anorthite
Rruff sample: R040059
Ideal chemistry: CaAl_2_Si_2_O_8_
Locality: Miyakejima, Japan
Source: University of Arizona Mineral Museum
Description: Colorless fragments of crystals
Measured chemistry: (Ca_0.94_Na_0.04_Fe_0.02_)(Al_0.98_Si_0.02_)_2_Si_2.00_O_8_
Pin_id: L00163
Orientation: Laser parallel to (0 -1 -1). Fiducial mark perpendicular to laser is parallel to -a [-1 0 0]
Raman shift (cm-1)	intensity
123.102	0
127.286	217.361
131.469	1274.34
135.649	3089.98
139.827	5058.74
144.003	6711.82
148.177	4272.73
152.348	1572.25
156.517	31.461
160.685	234.615
164.85	1192.03
169.012	2672.3
173.173	4345.24
177.332	7227.43
181.488	9969.11
185.642	11047.3
189.794	10390.9
193.944	9460.19
198.092	6875.71
202.237	4937.99
206.38	3917.52
210.522	2586.3
214.661	1104.09
218.798	0.924
222.932	422.59
227.065	58.219
231.196	473.297
235.324	1521.8
239.45	3759.44
243.574	5733.12
247.696	6153.88
251.816	6804.64
255.933	6994.6
260.049	6341.53
264.162	6068.09
268.274	7224.43
272.383	7900.48
276.49	8396.28
280.595	9161.85
284.697	9077.16
288.798	8007.79
292.896	5491.08
296.993	2929.08
301.087	1798.79
305.179	1249.17
309.269	499.518
313.357	259.594
317.443	1138.84
321.527	1507.02
325.608	724.486
329.688	238.943
333.765	143.65
337.84	11.107
341.913	126.664
345.984	276.482
350.053	69.127
354.12	36.459
358.185	6.795
362.248	489.256
366.308	1581.2
370.367	1842.69
374.423	1253.78
378.478	1584.44
382.53	2012.09
386.58	1661.77
390.628	1845.25
394.674	2834.1
398.718	3939.51
402.76	4493.07
406.799	3985.28
410.837	2187.18
414.873	1638.89
418.906	2050.4
422.938	3681.79
426.967	4483.27
430.994	4395.38
435.02	3506.26
439.043	2586.98
443.064	1337.55
447.083	738.561
451.1	794.393
455.115	1244.84
459.128	1518.12
463.139	1291.32
467.147	1760.05
471.154	2914.34
475.159	4037.52
479.161	7161.96
483.162	11731.3
487.161	14088.9
491.157	11991.1
495.151	15014.4
499.144	25161.7
503.134	31925
507.123	27676.2
511.109	18665.9
515.093	13008.9
519.075	9371.84
523.055	8599.1
527.034	6582.73
531.01	3976.2
534.984	2809.67
538.956	2512.91
542.926	2576.03
546.894	3229.46
550.86	4753.39
554.824	6977.35
558.786	6721.16
562.746	5274.69
566.704	3127.97
570.66	2241
574.614	1433.78
578.565	826.301
582.515	378.564
586.463	340.555
590.409	822.262
594.353	1063.69
598.295	864.842
602.235	685.717
606.172	16.309
610.108	166.516
614.042	116.236
617.974	114.732
621.904	236.623
625.832	69.406
629.758	337.178
633.681	293.197
637.603	8.172
641.523	183.354
645.441	267.596
649.357	865.619
653.271	771.043
657.183	127.592
661.093	250.209
665.001	857.418
668.907	1982.8
672.811	3090.14
676.713	3991.73
680.613	4808.28
684.511	4199.4
688.407	3334.64
692.302	2265.89
696.194	1384.94
700.084	950.699
703.972	1164.67
707.859	1129.39
711.743	1346.38
715.626	978.324
719.506	1099.77
723.384	1060.83
727.261	1601.52
731.136	1902.49
735.008	2832.43
738.879	3151.68
742.748	3500.44
746.614	3638.64
750.479	3357.11
754.342	3655.22
758.203	4412.97
762.062	4927.86
765.919	4930.02
769.774	4165.93
773.627	3071.19
777.479	1915.26
781.328	1071.12
785.175	994.67
789.021	1260.78
792.864	876.555
796.706	348.963
800.545	138.326
804.383	192.102
808.219	333.594
812.053	404.357
815.885	125.043
819.715	15.936
823.543	183.588
827.369	95.996
831.193	414.854
835.016	312.998
838.836	9.336
842.654	222.396
846.471	13.713
850.286	179.463
854.099	584.721
857.909	329.721
861.718	484.465
865.525	248.738
869.331	392.703
873.134	566.512
876.935	1200.17
880.735	1023.69
884.532	477.076
888.328	880.354
892.122	1583.57
895.913	1756.65
899.703	2249.55
903.491	1862.26
907.278	2034.8
911.062	2387.16
914.844	2859.37
918.625	2561.48
922.404	2813.57
926.18	2635.76
929.955	2658.17
933.728	2920.7
937.499	3843.31
941.269	4546
945.036	4419.17
948.801	5151.26
952.565	5551.56
956.327	5412.67
960.087	5475.28
963.845	5171.22
967.601	6105.32
971.355	7135.03
975.107	7075.6
978.858	6781.1
982.607	6279.81
986.353	5253.27
990.098	4797.81
993.841	4078.45
997.583	3685.62
1001.32	3207.08
1005.06	2140.83
1008.79	1975.75
1012.53	2210
1016.26	2681.91
1019.99	2549.73
1023.72	1877.27
1027.45	1096.2
1031.17	1275.11
1034.89	1504.23
1038.61	2055.44
1042.33	2066.08
1046.05	1559.34
1049.77	1222.6
1053.48	1095.89
1057.19	1489.23
1060.9	1712.61
1064.61	2076.02
1068.32	2069.45
1072.02	1822.96
1075.72	1857.1
1079.42	1242.25
1083.12	1348.61
1086.82	1666.54
1090.51	1885.78
1094.21	1786.73
1097.9	1198.73
1101.59	881.414
1105.28	255.23
1108.96	69.445
1112.65	424.012
1116.33	888.73
1120.01	1494.21
1123.69	1390.95
1127.37	809.129
1131.04	51
1134.71	330.809
1138.39	344.66
1142.06	730.551
1145.72	1598.48
1149.39	1078.63
1153.05	611.531
1156.72	265.402
1160.38	368.066
1164.04	1.758
1167.69	661.914
1171.35	555.133
1175	1434.42
1178.65	853.695
1182.31	478.672
1185.95	1.527
