Measurement: Raman, 514 nm, depolarized, Raman Data Processed
Mineral: Anorthite
Rruff sample: R050104
Ideal chemistry: CaAl_2_Si_2_O_8_
Locality: unknown
Source: Rock Currier
Description: Iridescent slab, labradorite/andesine
Measured chemistry: Ca_0.50_Na_0.47_K_0.03_Al_1.50_Si_2.50_O_8_
Pin_id: L00427
Orientation: Laser parallel to -a* (-1 0 0). Fiducial mark perpendicular to laser is parallel to b [0 1 0]
Raman shift (cm-1)	intensity
135.777	0
139.937	65.082
144.094	61.685
148.25	300.989
152.403	128.515
156.555	157.18
160.705	20.22
164.853	50.263
168.998	322.186
173.142	910.994
177.284	1815.18
181.424	2932
185.562	3602.27
189.698	3965.71
193.831	4056.98
197.963	4120.01
202.093	3861.89
206.221	3139.9
210.347	2383.65
214.472	1476.69
218.594	771.488
222.714	402.863
226.832	263.888
230.948	227.392
235.063	312.956
239.175	506.023
243.286	680.062
247.394	892.89
251.501	1135.95
255.605	1536.27
259.708	1736.94
263.808	1952.81
267.907	2224.99
272.004	2703.37
276.099	3091.28
280.192	3383.62
284.283	3549.29
288.372	3350.34
292.459	2671.76
296.544	1807.6
300.627	1242.51
304.709	705.565
308.788	378.233
312.865	150.911
316.941	117.364
321.015	80.469
325.086	69.793
329.156	51.919
333.224	60.471
337.29	107.408
341.354	26.691
345.416	62.373
349.476	101.479
353.534	187.998
357.591	38.846
361.645	132.191
365.698	167.423
369.748	188.926
373.797	59.703
377.844	74.545
381.889	34.758
385.932	270.364
389.973	429.263
394.012	570.29
398.049	880.487
402.084	1671.85
406.118	2229.44
410.15	2300.4
414.179	1920.15
418.207	1487.03
422.233	1270.65
426.257	1223.7
430.279	1264.46
434.299	1452.96
438.318	1729.22
442.334	2068.22
446.349	2428.98
450.361	2757.51
454.372	3274.81
458.381	3882.88
462.388	4739.72
466.394	6318.19
470.397	9116.99
474.398	13724.6
478.398	17973.4
482.396	18778.1
486.391	15188
490.385	11968.6
494.377	11885.1
498.368	15959.7
502.356	23132
506.342	29433.4
510.327	30811
514.31	25542.3
518.291	18011.7
522.27	12163.1
526.247	8145.97
530.222	5497.08
534.196	3869.99
538.167	3137.84
542.137	2762.29
546.105	2668.85
550.071	2581.91
554.035	2641.27
557.998	3041
561.958	3846.7
565.917	4482.35
569.874	3979.99
573.829	2838.52
577.782	1966.9
581.733	1379.14
585.683	1047.91
589.63	913.234
593.576	889.075
597.52	808.783
601.462	780.355
605.402	632.794
609.341	499.099
613.277	365.27
617.212	335.306
621.145	251.208
625.076	405.977
629.006	391.616
632.933	353.152
636.859	298.612
640.783	134.049
644.705	125.46
648.625	87.829
652.543	42.136
656.46	1.375
660.375	63.467
664.288	86.511
668.199	16.82
672.108	70.6
676.016	40.329
679.921	127.022
683.825	188.294
687.727	343.685
691.628	302.002
695.526	397.598
699.423	460.205
703.318	520.124
707.211	631.13
711.102	789.368
714.992	968.855
718.879	896.427
722.765	889.347
726.649	1011.42
730.532	1171.32
734.412	1301.46
738.291	1517.12
742.168	1805.3
746.043	1866.27
749.916	1996.04
753.788	2135.59
757.658	2165.95
761.526	2372.09
765.392	2460.02
769.257	2621.75
773.119	2733.27
776.98	2640.84
780.839	2476.69
784.697	2526.59
788.552	2620.28
792.406	2959.77
796.258	3226.87
800.108	2639.54
803.957	1993.88
807.804	1485.77
811.649	1181.48
815.492	789.227
819.333	378.712
823.173	256.158
827.011	74.141
830.847	57.799
834.681	30.517
838.514	8.995
842.345	78.979
846.174	21.608
850.001	38.145
853.827	31.578
857.651	54.882
861.473	2.899
865.293	38.647
869.112	177.85
872.928	67.893
876.744	25.609
880.557	0.381
884.369	180.088
888.178	229.589
891.987	215.896
895.793	349.016
899.598	417.96
903.401	550.731
907.202	685.339
911.001	708.793
914.799	787.111
918.595	891.295
922.389	844.35
926.182	984.268
929.972	1105.06
933.761	1179.75
937.549	1239.33
941.334	1261.85
945.118	1394.23
948.9	1415.52
952.681	1441.72
956.459	1647.93
960.236	1822.09
964.012	2231.18
967.785	2465.28
971.557	2515.41
975.327	2928.59
979.095	3144.09
982.862	3306
986.627	3039.12
990.39	2904.1
994.152	2738.82
997.912	2732.67
1001.67	2688.98
1005.43	2747.94
1009.18	2668.51
1012.93	2629.99
1016.68	2631.39
1020.43	2729.01
1024.18	2603.58
1027.93	2745.28
1031.67	2759.29
1035.42	2814.24
1039.16	2580.32
1042.9	2473.68
1046.63	2501.44
1050.37	2510.21
1054.11	2459.34
1057.84	2427.16
1061.57	2336.01
1065.3	2395.37
1069.03	2415.72
1072.75	2298.76
1076.47	2372.66
1080.2	2257.34
1083.92	2337.87
1087.64	2220.61
1091.36	2234.06
1095.07	1978.94
1098.79	1837.06
1102.5	1796.51
1106.21	1767.11
1109.92	1768.95
1113.62	1707.01
1117.33	1339.22
1121.04	1329.32
1124.74	1258.9
1128.44	1103.51
1132.14	1046.41
1135.83	951.135
1139.53	829.169
1143.22	899.973
1146.92	578.638
1150.61	456.587
1154.3	530.884
1157.98	548.526
1161.67	413.722
1165.35	510.891
1169.04	304.085
1172.72	270.153
1176.4	354.644
1180.07	299.515
1183.75	156.768
1187.42	119.368
1191.1	179.285
1194.77	215.571
1198.44	97.173
1202.1	65.055
1205.77	11.354
1209.43	58.21
1213.1	33.352
1216.76	46.074
1220.42	62.652
1224.07	40.126
1227.73	108.608
1231.38	119.861
1235.04	199.617
1238.69	114.97
1242.34	115.045
1245.99	0.183
1249.63	127.311
1253.28	238.508
1256.92	226.634
1260.56	155.829
1264.2	226.174
1267.84	189.349
1271.48	127.924
1275.11	141.556
1278.74	94.64
1282.38	170.195
1286.01	230.27
1289.63	264.348
1293.26	305.367
1296.89	239.602
1300.51	91.566
1304.13	2.329
1307.75	0
