Measurement: Raman, 514 nm, depolarized, Raman Data Processed
Mineral: Anorthite
Rruff sample: R050104
Ideal chemistry: CaAl_2_Si_2_O_8_
Locality: unknown
Source: Rock Currier
Description: Iridescent slab, labradorite/andesine
Measured chemistry: Ca_0.50_Na_0.47_K_0.03_Al_1.50_Si_2.50_O_8_
Pin_id: L00369
Orientation: Laser parallel to (0 1 1). Fiducial mark perpendicular to laser is parallel to a [1 0 0]
Raman shift (cm-1)	intensity
126.063	0
130.228	174.161
134.39	55.077
138.55	634.05
142.709	1497.03
146.865	2825.47
151.019	4159.89
155.171	5353.03
159.322	6580.84
163.47	8139.66
167.617	10459.5
171.761	13040.7
175.904	15011.7
180.044	16353.6
184.183	16085
188.319	14475
192.454	12772.6
196.586	11559.8
200.717	10436.7
204.846	9175.91
208.972	7283.44
213.097	5298.78
217.22	3315.37
221.341	1515.21
225.46	727.623
229.577	490.916
233.692	500.197
237.805	778.479
241.916	1475.26
246.025	2724.79
250.132	3706.43
254.237	4296.56
258.34	4996.28
262.442	6164.6
266.541	7226.73
270.639	8674.33
274.734	10574.1
278.828	12706.9
282.919	13695.9
287.009	13555.2
291.097	11958.8
295.183	9366.67
299.266	6322.72
303.348	4209.97
307.428	2754.22
311.507	1898.04
315.583	1176.07
319.657	554.75
323.729	445.765
327.8	353.72
331.868	478.418
335.935	451.729
339.999	365.556
344.062	250.881
348.123	231.576
352.182	193.001
356.239	201.602
360.294	252.965
364.347	411.783
368.398	392.063
372.448	102.604
376.495	179.03
380.54	410.357
384.584	734.616
388.626	1206.88
392.666	1801.07
396.704	2111.23
400.74	2687.95
404.774	3587.06
408.806	3742
412.836	3001.99
416.865	2115.78
420.891	1912.83
424.916	1638.3
428.939	1538.19
432.959	1796.65
436.978	2362.68
440.996	2967.19
445.011	3371.1
449.024	3320.33
453.036	3744.63
457.045	4519.93
461.053	5435.26
465.059	6869.35
469.063	9619.7
473.065	14483.7
477.065	19934.9
481.063	21499.8
485.06	19284.7
489.054	16105.5
493.047	16107.2
497.038	20970
501.027	31209.8
505.014	42052.8
508.999	46951.3
512.982	41920.7
516.964	29242.8
520.944	18414.3
524.921	12049.5
528.897	7960.8
532.871	5356.07
536.844	3712.77
540.814	3413.93
544.783	3585.13
548.749	3427.1
552.714	3383.72
556.677	3199.01
560.638	4224.87
564.597	5205.44
568.555	5174.55
572.511	3464.38
576.464	2384.76
580.416	1437.59
584.366	943.855
588.315	556.555
592.261	392.679
596.206	387.203
600.148	459.109
604.089	355.369
608.028	68.949
611.965	121.184
615.901	118.744
619.834	23.883
623.766	14.035
627.696	57.715
631.624	67.406
635.551	203.953
639.475	221.609
643.398	111.547
647.318	94.129
651.237	193.471
655.155	147.477
659.07	285.818
662.984	86.461
666.895	75.768
670.805	388.271
674.713	523.746
678.62	765.314
682.524	758.334
686.427	771.461
690.328	651.021
694.227	949.416
698.124	928.604
702.02	1003.32
705.913	1166.36
709.805	1166.05
713.695	1438.22
717.584	1822.33
721.47	1725.26
725.355	1646.19
729.238	1728.7
733.119	2023.44
736.998	2486.89
740.876	2932.69
744.752	3274.62
748.626	3541.34
752.498	3420.02
756.368	3835.41
760.237	4088.55
764.104	4056.5
767.969	4224.11
771.832	4442.51
775.693	4379.61
779.553	4280.15
783.411	3981.41
787.267	4125.93
791.122	4987.54
794.974	5191.62
798.825	4515.1
802.674	3645.57
806.522	2609.81
810.367	2050.21
814.211	1634.26
818.053	1174.96
821.893	379.803
825.732	265.918
829.568	64.066
833.403	20.111
837.236	145.162
841.068	146.623
844.898	11.133
848.726	101.387
852.552	31.223
856.376	6.896
860.199	68.086
864.02	27.709
867.839	82.395
871.656	301.908
875.472	98.432
879.286	32.748
883.098	164.982
886.909	284.215
890.717	241.072
894.524	441.564
898.33	503.734
902.133	706.625
905.935	1096.23
909.735	1206.63
913.533	1432.83
917.33	1587.83
921.124	1685.67
924.918	1862.43
928.709	1823.08
932.499	1901.74
936.286	1850.37
940.073	1725.01
943.857	2094.6
947.64	2216.12
951.421	2655.6
955.2	2975.08
958.978	3299.54
962.753	3343.93
966.527	4105.3
970.3	4876.59
974.071	5616.36
977.84	5815.7
981.607	5738.55
985.372	5505.75
989.136	5200.25
992.898	4554.55
996.659	4876.12
1000.42	4337.83
1004.17	4020.51
1007.93	3660.12
1011.68	3864.43
1015.43	3751.07
1019.18	3865.42
1022.93	3628.43
1026.68	3425.69
1030.42	3497.9
1034.17	3284.61
1037.91	3505.49
1041.65	3712.04
1045.39	3772.88
1049.12	3805.1
1052.86	3432.61
1056.59	3613.1
1060.33	3285.73
1064.06	3208.06
1067.78	3562.79
1071.51	3490.96
1075.23	3482.6
1078.96	3225.66
1082.68	3128.32
1086.4	3013.28
1090.12	3065.3
1093.83	2837.92
1097.55	3062.14
1101.26	2592.3
1104.97	2596.05
1108.68	2337.39
1112.39	1812.8
1116.1	1657.42
1119.8	1789.87
1123.5	1482.53
1127.2	1402.87
1130.9	872.389
1134.6	1006.17
1138.3	643.219
1141.99	363.266
1145.69	594.389
1149.38	1030.16
1153.07	883.672
1156.76	756.771
1160.44	589.367
1164.13	477.391
1167.81	326.07
1171.49	499.385
1175.17	472.342
1178.85	451.951
1182.52	437.934
1186.2	275.352
1189.87	24.268
1193.54	62.15
1197.21	112.125
1200.88	85.812
1204.55	28.088
1208.21	162.904
1211.88	193.086
1215.54	189.584
1219.2	288.879
1222.86	104.201
1226.51	177.631
1230.17	379.285
1233.82	235.76
1237.47	436.346
1241.12	612.697
1244.77	667.58
1248.42	256.705
1252.06	192.588
1255.71	25.246
1259.35	0
