Measurement: Raman, 514 nm, depolarized, Raman Data Processed
Mineral: Anorthite
Rruff sample: R040059
Ideal chemistry: CaAl_2_Si_2_O_8_
Locality: Miyakejima, Japan
Source: University of Arizona Mineral Museum
Description: Colorless fragments of crystals
Measured chemistry: (Ca_0.94_Na_0.04_Fe_0.02_)(Al_0.98_Si_0.02_)_2_Si_2.00_O_8_
Pin_id: M00328
Orientation: Laser parallel to (-1 0 -1). Fiducial mark perpendicular to laser is parallel to -b [0 -1 0]
Raman shift (cm-1)	intensity
125.91	0
130.08	12.131
134.248	915.921
138.413	2085.43
142.577	4226.57
146.739	5649.45
150.898	3845.59
155.056	1485.14
159.212	467.411
163.365	884.889
167.517	1730.89
171.666	2731.64
175.813	4316.65
179.959	6627.28
184.102	9382.97
188.244	10772
192.383	11326.7
196.52	9674.83
200.656	6657.51
204.789	4605.46
208.92	3189.27
213.049	1749.55
217.176	838.082
221.302	681.999
225.425	547.332
229.546	95.801
233.665	181.847
237.782	1283.96
241.898	2390.75
246.011	2893.52
250.122	3310.57
254.231	3820.31
258.338	4209.28
262.443	3848.34
266.546	3917.22
270.647	4195.64
274.747	4243.49
278.844	4660.79
282.939	5017.57
287.032	4913.82
291.123	3778.77
295.212	2227.26
299.3	1363.39
303.385	633.322
307.468	95.604
311.549	100.637
315.629	273.922
319.706	679.105
323.781	934.535
327.855	539.918
331.926	55.094
335.995	160.104
340.063	385.99
344.128	373.082
348.192	121.652
352.253	141.896
356.313	173.773
360.37	257.152
364.426	32.168
368.479	211.506
372.531	244.295
376.581	496.393
380.629	987.873
384.674	858.594
388.718	528.631
392.76	718.08
396.8	1315.78
400.838	1490.15
404.874	1701.95
408.908	1581.5
412.94	1469.69
416.97	1147.55
420.999	1305.16
425.025	2132.51
429.049	3509.61
433.072	3386.45
437.092	3383.03
441.111	3219.37
445.127	2435.47
449.142	2041.32
453.155	1846.95
457.166	2352.37
461.175	2827.47
465.181	3102.16
469.186	4146.26
473.19	5491.67
477.191	8725.43
481.19	13957
485.187	21339.6
489.183	20402.1
493.176	16851.5
497.168	20814.4
501.157	32294.5
505.145	38169
509.131	28820.7
513.115	20272.5
517.097	14225.4
521.077	11557.1
525.055	10168.8
529.031	8107.84
533.006	5631.96
536.978	4161.77
540.949	3602
544.917	4121.93
548.884	5791.56
552.849	8991.3
556.812	10910.4
560.773	10579.2
564.732	8027.76
568.689	5596.18
572.644	3464.43
576.598	2112.53
580.55	1190.46
584.499	1208.24
588.447	1605.86
592.393	2073.32
596.337	1880.62
600.279	1817.77
604.219	1094.75
608.158	811.58
612.094	438.252
616.029	384.766
619.962	761.121
623.892	1387.32
627.821	1273.36
631.749	569.305
635.674	154.758
639.597	180.686
643.519	348.908
647.438	600.717
651.356	236.219
655.272	235.85
659.186	215.014
663.098	49.75
667.009	522.998
670.917	762.994
674.824	1388.13
678.728	2595.23
682.631	3144.61
686.532	2634.52
690.432	1763.26
694.329	1170.8
698.224	338.145
702.118	815.195
706.01	702.002
709.9	728.561
713.788	534.875
717.674	700.949
721.558	436.789
725.441	652.391
729.322	757.76
733.201	1312.9
737.078	1767.81
740.953	2672.49
744.826	3026.94
748.698	2371.18
752.567	2075.2
756.435	2509
760.301	3292.6
764.165	4005.98
768.028	3589.15
771.888	2512.13
775.747	1764.9
779.604	1337.47
783.459	989.844
787.312	1002.03
791.164	383.363
795.013	35.158
798.861	183.623
802.707	196.676
806.551	3.039
810.394	57.213
814.234	348.857
818.073	145.219
821.91	100.428
825.745	195.648
829.578	190.74
833.41	145.049
837.24	161.508
841.068	138.648
844.894	133.584
848.718	315.461
852.54	447.193
856.361	218.791
860.18	400.262
863.997	581.213
867.812	562.461
871.626	373.629
875.438	924.701
879.248	905.689
883.056	596.607
886.862	1057.47
890.667	1598.43
894.469	1479.45
898.27	1690.61
902.07	1581.85
905.867	1813.18
909.663	2194.5
913.457	2535.81
917.249	2247.14
921.039	2398.52
924.827	1909.95
928.614	2181.42
932.399	2673.11
936.182	3724.85
939.964	4406.65
943.744	4498.54
947.521	4857.84
951.298	5153.76
955.072	5655.62
958.845	5883.08
962.615	5626.95
966.384	5930.18
970.152	6797.73
973.917	7347.29
977.681	7946.59
981.443	7842.6
985.203	6806.44
988.962	5579
992.719	4764.09
996.474	4219.08
1000.23	4285.3
1003.98	3981.8
1007.73	3708.72
1011.48	3486.28
1015.22	3184.14
1018.97	2913.41
1022.71	2521.99
1026.45	2120.89
1030.19	2220.12
1033.93	2290.18
1037.66	2330.69
1041.4	2238.72
1045.13	2094.74
1048.86	1895.23
1052.59	2184.26
1056.32	2416.64
1060.04	2409.52
1063.77	2352.71
1067.49	2287.14
1071.21	1884.66
1074.93	2050.51
1078.64	2308.39
1082.36	2133.65
1086.07	2169.39
1089.78	1875.63
1093.49	1481.93
1097.2	968.732
1100.91	526.262
1104.61	605.104
1108.32	626.742
1112.02	1017.71
1115.72	936.572
1119.41	885.957
1123.11	876.855
1126.8	727.346
1130.5	488.621
1134.19	593.984
1137.88	577.717
1141.56	652.152
1145.25	907.199
1148.93	401.775
1152.62	165.584
1156.3	13.984
1159.98	263.395
1163.65	30.543
1167.33	414.914
1171	330.18
1174.68	524.676
1178.35	241.812
1182.02	33.598
1185.68	362.887
1189.35	129.305
1193.01	58.598
1196.67	450.684
1200.33	450.523
1203.99	302.441
1207.65	133.242
1211.31	21.551
1214.96	58.113
1218.61	132.953
1222.26	683.352
1225.91	734.051
1229.56	955.574
1233.2	790.586
1236.85	1079.83
1240.49	257.484
1244.13	164.395
1247.77	94.027
1251.4	666.312
1255.04	735.762
1258.67	941.652
1262.3	548.312
1265.93	613.09
1269.56	727.473
1273.19	391.082
1276.82	45.301
1280.44	408.355
1284.06	339.914
1287.68	430.527
1291.3	960.074
1294.92	768.312
1298.53	415.773
1302.14	501.82
1305.76	73.391
1309.37	380.52
1312.98	162.68
1316.58	614.852
1320.19	726.219
1323.79	726.762
1327.39	755.449
1330.99	476.629
1334.59	309.742
1338.19	55.863
1341.79	27.316
1345.38	270.598
1348.97	194.902
1352.56	478.301
1356.15	1140.56
1359.74	859.551
1363.32	1151.33
1366.91	1016.09
1370.49	215.125
1374.07	164.031
1377.65	181.473
1381.23	366.855
1384.8	631.148
1388.38	778.898
1391.95	1232.9
1395.52	1454.82
1399.09	1282.41
1402.66	1173.92
1406.22	798.43
1409.79	632.32
1413.35	642.832
1416.91	293.645
1420.47	409.211
1424.03	911.527
1427.59	465.988
1431.14	1309.3
1434.69	1331.09
1438.24	1635.2
1441.8	1762.9
1445.34	1340.36
1448.89	861.301
1452.43	845.375
1455.98	785.027
1459.52	1072.63
1463.06	952.023
1466.6	1159.58
1470.14	1425.41
1473.67	1953.61
1477.2	1933.89
1480.74	1597.42
1484.27	845.562
1487.8	825.375
1491.32	638.5
1494.85	476.668
1498.37	31.93
1501.9	85.836
1505.42	402.238
1508.94	826.148
1512.45	688.945
