Measurement: Raman, 514 nm, depolarized, Raman Data Processed
Mineral: Anorthite
Rruff sample: R040059
Ideal chemistry: CaAl_2_Si_2_O_8_
Locality: Miyakejima, Japan
Source: University of Arizona Mineral Museum
Description: Colorless fragments of crystals
Measured chemistry: (Ca_0.94_Na_0.04_Fe_0.02_)(Al_0.98_Si_0.02_)_2_Si_2.00_O_8_
Pin_id: L00234
Orientation: Laser parallel to b* (0 1 0). Fiducial mark perpendicular to laser is parallel to c [0 0 1]
Raman shift (cm-1)	intensity
121.706	0
125.892	459.584
130.075	699.889
134.256	1037.56
138.435	1943.87
142.611	2588.12
146.786	1607.1
150.958	170.533
155.128	289.041
159.296	257.314
163.462	881.057
167.625	2167.88
171.786	4116.64
175.946	5981.1
180.103	8673.08
184.258	10715.2
188.41	10632.3
192.561	9265.14
196.709	7684.34
200.856	6260.47
205	4963.94
209.142	3705.32
213.281	2595.54
217.419	1715.06
221.554	1084.11
225.688	913.463
229.819	1552.15
233.948	2361.45
238.075	3361.28
242.2	5278.33
246.322	6719.11
250.443	6850.45
254.561	6732.03
258.677	6723.58
262.791	6745.11
266.903	8136.39
271.013	8567.38
275.121	8908.07
279.226	9658.51
283.33	10078.9
287.431	8959.76
291.53	7363.81
295.627	4962.43
299.722	2823.5
303.815	1476.09
307.906	1029.35
311.995	683.33
316.081	627.801
320.166	1192.83
324.248	1065.26
328.328	250.275
332.406	355.068
336.482	291.314
340.556	21.686
344.628	66.061
348.697	394.945
352.765	335.191
356.83	143.16
360.894	420.59
364.955	847.463
369.014	1183.88
373.071	789.865
377.126	625.43
381.179	740.582
385.23	975.322
389.279	2299.65
393.325	3582.15
397.37	5592.74
401.413	6561.26
405.453	5797.82
409.491	4024.05
413.528	2310.05
417.562	2005.82
421.594	3581.35
425.624	5367.13
429.652	4072.86
433.678	3328.89
437.702	3187.94
441.724	2655.93
445.743	1473.67
449.761	1010.77
453.777	1201.02
457.79	1903.33
461.802	1667
465.811	1816.72
469.819	2739.01
473.824	4439.26
477.827	6928.84
481.829	11012.6
485.828	13883.4
489.825	12483
493.82	13186.9
497.813	20260.8
501.804	30016.2
505.793	29549.5
509.78	21145.3
513.765	14874.3
517.748	10049.1
521.729	8373.98
525.708	7690.4
529.685	5556.35
533.659	3371.98
537.632	2606.99
541.603	2381.49
545.571	3456.35
549.538	5000.42
553.503	6436.75
557.465	7980.27
561.426	7022.48
565.385	5194.16
569.341	3045.39
573.296	1506.16
577.248	966.48
581.199	636.336
585.147	745.715
589.094	294.609
593.038	52.992
596.981	450.797
600.922	337.957
604.86	24.219
608.797	140.811
612.731	217.168
616.664	295.133
620.594	746.465
624.523	627.002
628.449	53.027
632.374	76.215
636.296	616.307
640.217	477.062
644.135	464.941
648.052	346.217
651.967	335.623
655.879	626.744
659.79	597.059
663.698	762.908
667.605	905.053
671.51	1740.54
675.413	3931.94
679.313	4715.81
683.212	3854.85
687.109	2661.46
691.004	1972.89
694.897	1537.05
698.788	1250.7
702.677	543.779
706.564	236.318
710.449	688.271
714.332	729.682
718.213	630.566
722.092	830.947
725.969	660.828
729.844	1340.21
733.718	1879.11
737.589	2927.53
741.458	3284.97
745.326	2810.49
749.191	2493.93
753.055	2988.92
756.916	3320.81
760.776	3659.51
764.634	3301.31
768.489	2984.55
772.343	2547.56
776.195	2011.73
780.045	1437.84
783.893	702.125
787.739	161.682
791.583	48.078
795.425	516.363
799.266	277.062
803.104	73.508
806.94	334.57
810.775	45.43
814.608	940.184
818.438	694.777
822.267	230.859
826.094	123.164
829.919	187.852
833.742	36.793
837.563	161.086
841.382	845.023
845.199	298.457
849.014	131.691
852.828	314.828
856.639	536.68
860.449	1427.61
864.257	869.215
868.062	481.074
871.866	543.703
875.668	456.363
879.468	609.008
883.267	1381.65
887.063	1574.34
890.857	1407.1
894.65	1419.93
898.44	1502.77
902.229	2285.55
906.016	2378.3
909.801	2481.12
913.584	2284.1
917.365	1757.56
921.144	1731.35
924.922	2655.5
928.697	3189.84
932.471	3744.36
936.242	3549.01
940.012	3653
943.78	3816.18
947.546	4859.73
951.311	6434.38
955.073	6128.27
958.834	5145.25
962.592	4545.72
966.349	4393.65
970.104	5201.08
973.857	6582.62
977.608	6902.53
981.357	5782.22
985.105	5585.32
988.85	4041.78
992.594	3900.14
996.336	3963.6
1000.08	4618.23
1003.81	4443.59
1007.55	3206.93
1011.28	2719.75
1015.02	2373.43
1018.75	3087.99
1022.48	3033.44
1026.2	3039.31
1029.93	1976.1
1033.65	1586.67
1037.37	1107.16
1041.09	1887.21
1044.81	1846.59
1048.53	2415.34
1052.24	2444.42
1055.95	1423.84
1059.66	1193.59
1063.37	913.672
1067.08	824.062
1070.79	1814.87
1074.49	1786.71
1078.19	1800.62
1081.89	1437.09
1085.59	825.598
1089.28	466
1092.98	997.785
1096.67	910.949
1100.36	1194.73
1104.05	1469.28
1107.73	1054.57
1111.42	120.559
1115.1	197.047
1118.78	873.855
1122.46	1551.92
1126.14	1521.96
1129.82	2094.24
1133.49	1699.06
1137.16	1206.54
1140.83	396.559
1144.5	150.938
1148.17	145.723
1151.83	982.621
1155.5	1464.76
1159.16	1111.59
1162.82	1223.81
1166.47	322.113
1170.13	334.098
1173.79	207.316
1177.44	823.621
1181.09	1165.44
1184.74	1721.82
1188.38	1165.35
