Measurement: Raman, 514 nm, depolarized, Raman Data Processed
Mineral: Anorthite
Rruff sample: R050104
Ideal chemistry: CaAl_2_Si_2_O_8_
Locality: unknown
Source: Rock Currier
Description: Iridescent slab, labradorite/andesine
Measured chemistry: Ca_0.50_Na_0.47_K_0.03_Al_1.50_Si_2.50_O_8_
Pin_id: L00363
Orientation: Laser parallel to b* (0 1 0). Fiducial mark perpendicular to laser is parallel to c [0 0 1]
Raman shift (cm-1)	intensity
127.452	0
131.615	20.332
135.777	9.389
139.937	143.402
144.094	352.278
148.25	917.799
152.403	1413.83
156.555	2091.87
160.705	2946.4
164.853	4210.36
168.998	5725.71
173.142	7016.65
177.284	7561.27
181.424	7488.95
185.562	6682.51
189.698	5453.77
193.831	4424.11
197.963	4176.77
202.093	3756.64
206.221	3123.41
210.347	2293.98
214.472	1630.08
218.594	749.266
222.714	428.94
226.832	230.764
230.948	70.669
235.063	316.954
239.175	624.923
243.286	1155.87
247.394	1753.63
251.501	2179.92
255.605	2533.66
259.708	2650.67
263.808	3018.4
267.907	3595.04
272.004	4315.45
276.099	5144.52
280.192	5921.27
284.283	6490.82
288.372	6278.4
292.459	5311.69
296.544	3864.04
300.627	2608.64
304.709	1662.1
308.788	1086.73
312.865	626.067
316.941	457.877
321.015	228.972
325.086	91.194
329.156	75.412
333.224	92.538
337.29	111.512
341.354	98.733
345.416	65.332
349.476	64.434
353.534	9.951
357.591	12.642
361.645	216.866
365.698	153.111
369.748	82.232
373.797	53.139
377.844	98.308
381.889	301.278
385.932	597.824
389.973	1047.95
394.012	1361.62
398.049	1812.7
402.084	2459.86
406.118	2835.99
410.15	2892.63
414.179	2454.89
418.207	2053.47
422.233	1789.84
426.257	1660.37
430.279	1545.48
434.299	1502.29
438.318	1691.42
442.334	1655.2
446.349	1630.99
450.361	1712.79
454.372	1713.68
458.381	1942.19
462.388	2331.04
466.394	3615.49
470.397	5467.99
474.398	8380.76
478.398	10888.4
482.396	11311.6
486.391	9124.65
490.385	7408.07
494.377	7637.4
498.368	10653.8
502.356	16205.6
506.342	20887.3
510.327	21746.3
514.31	18126.1
518.291	12908.2
522.27	9065.66
526.247	5606.84
530.222	3902.11
534.196	2656.35
538.167	2110.46
542.137	1685.38
546.105	1532.1
550.071	1412.67
554.035	1402.01
557.998	1658.13
561.958	2142.85
565.917	2453.34
569.874	2090.45
573.829	1487.17
577.782	950.461
581.733	681.489
585.683	335.709
589.63	204.626
593.576	131.013
597.52	169.813
601.462	67.939
605.402	22.379
609.341	26.839
613.277	61.845
617.212	32.91
621.145	21.02
625.076	93.092
629.006	110.506
632.933	156.357
636.859	223.655
640.783	206.421
644.705	183.672
648.625	126.162
652.543	210.637
656.46	143.366
660.375	86.674
664.288	96.261
668.199	244.847
672.108	198.442
676.016	395.812
679.921	346.577
683.825	332.061
687.727	403.161
691.628	501.447
695.526	385.294
699.423	542.346
703.318	462.309
707.211	623.741
711.102	704.831
714.992	733.001
718.879	714.088
722.765	790.403
726.649	765.255
730.532	1092.55
734.412	913.179
738.291	1126.11
742.168	1400.29
746.043	1455.9
749.916	1331.73
753.788	1484.97
757.658	1409
761.526	1367.31
765.392	1568.92
769.257	1583.1
773.119	1698.95
776.98	1500.84
780.839	1386.23
784.697	1133.13
788.552	1124.86
792.406	1038.98
796.258	947.412
800.108	1050.24
803.957	621.932
807.804	491.031
811.649	295.955
815.492	373.799
819.333	168.723
823.173	116.507
827.011	95.403
830.847	117.938
834.681	29.853
838.514	20.821
842.345	106.671
846.174	29.846
850.001	0.063
853.827	25.533
857.651	103.377
861.473	114.58
865.293	11.274
869.112	80.197
872.928	30.661
876.744	184.302
880.557	44.082
884.369	179.217
888.178	229.323
891.987	31.251
895.793	194.009
899.598	365.632
903.401	388.15
907.202	344.887
911.001	479.079
914.799	595.504
918.595	612.044
922.389	667.631
926.182	642.439
929.972	629.412
933.761	832.471
937.549	834.528
941.334	817.573
945.118	895.61
948.9	976.635
952.681	1158.66
956.459	1256.74
960.236	1352.94
964.012	1747.16
967.785	1777.43
971.557	1782.74
975.327	1981.09
979.095	2252.34
982.862	2248.79
986.627	2079.41
990.39	1936.62
994.152	2086.11
997.912	1816.22
1001.67	1768.38
1005.43	1937.36
1009.18	1901.5
1012.93	1919.15
1016.68	1819.95
1020.43	1761.61
1024.18	2060.42
1027.93	1828.84
1031.67	1781.08
1035.42	1985.38
1039.16	1544.15
1042.9	1648.98
1046.63	1520.37
1050.37	1320.95
1054.11	1528.75
1057.84	1674.75
1061.57	1581.53
1065.3	1621.97
1069.03	1543.65
1072.75	1575.57
1076.47	1848.72
1080.2	1958.12
1083.92	1865.76
1087.64	1856.67
1091.36	1926.84
1095.07	1494.3
1098.79	1368.05
1102.5	1618.1
1106.21	1373.14
1109.92	1554.83
1113.62	1298.64
1117.33	1238.96
1121.04	1125.53
1124.74	1043.54
1128.44	898.998
1132.14	1038.07
1135.83	962.988
1139.53	686.797
1143.22	1132.64
1146.92	725.539
1150.61	650.352
1154.3	577.838
1157.98	642.51
1161.67	458.881
1165.35	752.367
1169.04	319.826
1172.72	379.064
1176.4	760.857
1180.07	434.553
1183.75	257.832
1187.42	92.66
1191.1	255.961
1194.77	314.77
1198.44	253.094
1202.1	213.949
1205.77	101.791
1209.43	117.703
1213.1	90.652
1216.76	266.965
1220.42	379.66
1224.07	87.863
1227.73	266.641
1231.38	100.039
1235.04	469.297
1238.69	147.461
1242.34	245.514
1245.99	38.5
1249.63	351.469
1253.28	563.465
1256.92	573.652
1260.56	281.617
1264.2	317.957
1267.84	209.621
1271.48	229.713
1275.11	7.268
1278.74	286.293
1282.38	229.979
1286.01	184.898
1289.63	46.445
1293.26	104.373
1296.89	254.879
1300.51	73.756
