Measurement: Raman, 514 nm, depolarized, Raman Data Processed
Mineral: Anorthite
Rruff sample: R040059
Ideal chemistry: CaAl_2_Si_2_O_8_
Locality: Miyakejima, Japan
Source: University of Arizona Mineral Museum
Description: Colorless fragments of crystals
Measured chemistry: (Ca_0.94_Na_0.04_Fe_0.02_)(Al_0.98_Si_0.02_)_2_Si_2.00_O_8_
Pin_id: L00179
Orientation: Laser parallel to (1 1 0). Fiducial mark perpendicular to laser is parallel to -c [0 0 -1]
Raman shift (cm-1)	intensity
120.311	0
124.497	12.476
128.681	762.662
132.862	1770.06
137.042	2814.72
141.219	4101.71
145.394	4234.59
149.567	2371.69
153.738	712.72
157.907	52.114
162.073	45.508
166.237	170.602
170.4	939.373
174.559	1630.72
178.717	2656.84
182.873	4374.17
187.026	5936.59
191.178	7113.45
195.327	6965.62
199.474	5583.72
203.618	4288.27
207.761	3020.21
211.902	1980.61
216.04	1215.3
220.176	1113.27
224.31	716.854
228.442	564.859
232.572	1045.59
236.7	1825.62
240.825	2863.23
244.948	3586.95
249.07	4092.89
253.189	4558.81
257.306	4614.61
261.42	4390.08
265.533	4265.08
269.643	4353.8
273.752	4233.5
277.858	4336.97
281.962	4499.97
286.064	4173.77
290.164	3134.5
294.262	2119.13
298.358	1295.71
302.451	593.398
306.543	71.686
310.632	120.18
314.719	101.423
318.804	276.583
322.887	384.322
326.968	21.386
331.047	131.85
335.124	246.972
339.198	131.249
343.271	87.529
347.341	64.967
351.409	16.219
355.475	53.658
359.539	84.593
363.601	193.475
367.661	630.888
371.719	799.408
375.775	834.145
379.828	999.928
383.88	844.538
387.929	588.551
391.977	1060.84
396.022	2140.68
400.065	2827.64
404.106	2645.69
408.146	1611.73
412.182	907.569
416.217	793.208
420.25	968.648
424.281	1793.89
428.31	2658.95
432.336	2743.82
436.361	2838.5
440.383	2553.01
444.404	2117.34
448.422	1751.5
452.438	1625.43
456.453	1979.06
460.465	2482.34
464.475	2755.26
468.483	3846.3
472.489	5741.02
476.493	8625.11
480.495	13506.8
484.495	19348.4
488.493	18144.5
492.489	15659.6
496.482	20812.2
500.474	32540.2
504.464	36791.6
508.451	27386.3
512.437	19970.6
516.421	14163.5
520.402	10596.4
524.382	9554.18
528.359	7423.83
532.335	5214.08
536.308	3784.38
540.279	3844.54
544.249	4194.5
548.216	6094.27
552.181	9813.85
556.145	12213.3
560.106	11312.6
564.065	8231.74
568.023	5390.8
571.978	3189.74
575.931	2138.58
579.882	1347.3
583.831	1115.91
587.779	1194.4
591.724	1274.2
595.667	1401.05
599.608	1069.19
603.547	757.225
607.485	405.137
611.42	262.93
615.353	400.605
619.284	898.16
623.213	1115.6
627.141	702.938
631.066	360.252
634.989	52.283
638.91	15.168
642.829	102.586
646.747	290.527
650.662	21.277
654.575	230.645
658.486	172.605
662.396	4.896
666.303	674.201
670.209	1148.79
674.112	1846.13
678.013	3028.78
681.913	3909.36
685.81	2730.64
689.706	1930.72
693.599	1218.31
697.491	827.447
701.38	915.41
705.268	733.152
709.154	580.404
713.037	667.713
716.919	684.514
720.799	561.09
724.677	977.441
728.553	1153.58
732.427	1619.49
736.299	2195.18
740.169	3160.64
744.037	3175.89
747.903	2540.92
751.767	2165.73
755.629	2340.33
759.49	4174.72
763.348	3788.89
767.204	3542.85
771.059	3096.6
774.911	2060.14
778.762	1273.48
782.611	846.609
786.457	799.531
790.302	450.012
794.145	341.152
797.986	283.33
801.825	144.652
805.662	112.742
809.497	124.299
813.33	134.646
817.162	38.564
820.991	402.377
824.818	84.475
828.644	62.531
832.468	101.217
836.289	14.221
840.109	83.699
843.927	49.865
847.743	26.898
851.557	70.217
855.369	283.355
859.179	116.334
862.988	39.16
866.794	421.838
870.599	584.443
874.401	916.926
878.202	789.326
882.001	831.631
885.798	1473.85
889.593	1845.98
893.386	2598.04
897.177	2530.07
900.966	2632.18
904.754	2614.3
908.539	2446.4
912.323	2688.51
916.105	2950.57
919.885	2722.59
923.663	2514.6
927.439	2876.6
931.213	3568.59
934.985	4590.58
938.756	4932.58
942.525	4914.62
946.291	4986.72
950.056	5578.76
953.819	5879.72
957.58	5778.58
961.339	5579.88
965.097	5742.56
968.852	6616.53
972.606	7121.51
976.358	7018.7
980.108	6920.96
983.856	5812.67
987.602	5392.4
991.346	4628.12
995.089	4183.27
998.829	3772.96
1002.57	4086.97
1006.3	3782.21
1010.04	3407.62
1013.77	3413.07
1017.5	2944.03
1021.23	2390.53
1024.96	2049.12
1028.69	1968.34
1032.41	2165.52
1036.13	2334.62
1039.85	2153.98
1043.57	2672.16
1047.29	2053.74
1051	2240.32
1054.72	2182.38
1058.43	1916.93
1062.14	2217.02
1065.84	2057.54
1069.55	1958.5
1073.25	1899.9
1076.95	1701.73
1080.66	1823.9
1084.35	1756.43
1088.05	1679.37
1091.74	1062.7
1095.44	745.676
1099.13	659.609
1102.82	553.365
1106.51	1037.38
1110.19	821.99
1113.87	957.307
1117.56	1113.67
1121.24	1021.21
1124.91	1019.48
1128.59	758.904
1132.27	770.969
1135.94	810.025
1139.61	1036.72
1143.28	1014.53
1146.95	593.031
1150.61	212.203
1154.28	18.025
1157.94	212.355
1161.6	143.42
1165.26	515.023
1168.91	626.873
1172.57	579.264
1176.22	162.428
1179.87	63.641
1183.52	58.904
1187.17	76.652
1190.81	176.92
1194.46	130.463
1198.1	378.828
1201.74	728.137
1205.38	478.295
1209.02	129.164
1212.65	61.309
1216.29	264.746
1219.92	549.113
1223.55	752.723
1227.17	667.336
1230.8	900.477
1234.42	544.742
1238.05	93.369
1241.67	20.348
1245.29	52.164
1248.91	223.906
1252.52	554.75
1256.13	895.805
1259.75	829.48
1263.36	797.322
1266.97	539.062
1270.57	433.574
1274.18	120.002
1277.78	2.854
