Measurement: Raman, 514 nm, depolarized, Raman Data Processed
Mineral: Anorthite
Rruff sample: R050104
Ideal chemistry: CaAl_2_Si_2_O_8_
Locality: unknown
Source: Rock Currier
Description: Iridescent slab, labradorite/andesine
Measured chemistry: Ca_0.50_Na_0.47_K_0.03_Al_1.50_Si_2.50_O_8_
Pin_id: L00152
Orientation: Laser parallel to (1 0 1). Fiducial mark perpendicular to laser is parallel to -b [0 -1 0]
Raman shift (cm-1)	intensity
121.897	0
126.063	6.11
130.228	120.862
134.39	133.361
138.55	623.025
142.709	1425.89
146.865	1984.65
151.019	2850.76
155.171	3882.76
159.322	5127.35
163.47	6532.93
167.617	8296.1
171.761	11124.1
175.904	13552.1
180.044	14702.1
184.183	14482.9
188.319	13046.1
192.454	11857.9
196.586	11018.3
200.717	10528.9
204.846	9638.07
208.972	8018.54
213.097	6477.08
217.22	4906.51
221.341	3364.24
225.46	2783.92
229.577	2507.19
233.692	2339.19
237.805	2183.91
241.916	2494.58
246.025	2910.24
250.132	3252.99
254.237	3343.29
258.34	3401.27
262.442	4105.28
266.541	4799.19
270.639	5397.81
274.734	6137.13
278.828	7276.16
282.919	7670.95
287.009	7395.01
291.097	6320.08
295.183	4874.05
299.266	3069.91
303.348	1724.88
307.428	1103.28
311.507	721.668
315.583	399.742
319.657	3.239
323.729	103.893
327.8	80.489
331.868	0.241
335.935	156.285
339.999	151.744
344.062	38.768
348.123	59.466
352.182	37.931
356.239	150.069
360.294	45.127
364.347	289.246
368.398	282.549
372.448	142.935
376.495	18.186
380.54	268.99
384.584	909.813
388.626	797.118
392.666	1389.33
396.704	1794.35
400.74	2712.23
404.774	3787.19
408.806	4405.23
412.836	4135.69
416.865	3833.77
420.891	3939.91
424.916	4679.11
428.939	5615.38
432.959	6340.71
436.978	7558.12
440.996	8847.61
445.011	9585.19
449.024	9211.86
453.036	8872.61
457.045	8631.43
461.053	8805.27
465.059	9413.08
469.063	11400.8
473.065	15956.5
477.065	21360.1
481.063	22910.7
485.06	19820.5
489.054	15435.6
493.047	14511.3
497.038	18757.4
501.027	27475.2
505.014	36531.3
508.999	40625
512.982	36929.1
516.964	26429.5
520.944	17206
524.921	10987.8
528.897	7580.78
532.871	5351.14
536.844	3836.71
540.814	3370.78
544.783	3497.27
548.749	3240.33
552.714	3399.18
556.677	3427.52
560.638	4388.43
564.597	5837.97
568.555	6059.98
572.511	4780.45
576.464	3508.32
580.416	2910.59
584.366	2841.12
588.315	2932.87
592.261	3426.84
596.206	3863.98
600.148	4413.3
604.089	4923.78
608.028	5102.41
611.965	4646.19
615.901	4157.11
619.834	3378.16
623.766	2844.34
627.696	2160.65
631.624	1631.07
635.551	1287.6
639.475	911.251
643.398	663.038
647.318	121.091
651.237	103.574
655.155	44.69
659.07	67.294
662.984	76.438
666.895	185.152
670.805	3.272
674.713	26.921
678.62	296.422
682.524	341.699
686.427	374.854
690.328	245.147
694.227	546.99
698.124	473.127
702.02	661.749
705.913	845.572
709.805	654.165
713.695	923.987
717.584	1292.07
721.47	1186.42
725.355	1177.98
729.238	950.541
733.119	1257.27
736.998	1830.9
740.876	2263.44
744.752	2421.05
748.626	2576.05
752.498	2487.55
756.368	2879.12
760.237	3277.28
764.104	3509.03
767.969	3490.36
771.832	3689.27
775.693	3663.74
779.553	3763.76
783.411	3715.32
787.267	3978.43
791.122	4548.05
794.974	4740.19
798.825	4442.84
802.674	3716.99
806.522	2756.63
810.367	2013.75
814.211	1496.39
818.053	774.068
821.893	400.221
825.732	297.669
829.568	108.493
833.403	43.12
837.236	86.853
841.068	41.135
844.898	94.953
848.726	75.404
852.552	141.439
856.376	112.066
860.199	324.32
864.02	36.465
867.839	10.967
871.656	69.984
875.472	119.475
879.286	86.178
883.098	56.016
886.909	90.086
890.717	363.281
894.524	383.738
898.33	417.523
902.133	444.668
905.935	721.184
909.735	964.125
913.533	1225.54
917.33	1303.43
921.124	1369.78
924.918	1134.59
928.709	1241.84
932.499	1542.52
936.286	1773.64
940.073	1952.2
943.857	2016.22
947.64	2201.1
951.421	2343.66
955.2	2527.1
958.978	3000.03
962.753	3067.51
966.527	3525.62
970.3	3934.39
974.071	4358.18
977.84	4787.31
981.607	5077.15
985.372	4941.38
989.136	4584.75
992.898	4178.95
996.659	4235.6
1000.42	4032.11
1004.17	3776.78
1007.93	3774.53
1011.68	3849.5
1015.43	3711.92
1019.18	3580.77
1022.93	3255.91
1026.68	3270
1030.42	3555.68
1034.17	3525.76
1037.91	3739.16
1041.65	3645.31
1045.39	3605.28
1049.12	3552.21
1052.86	3492.93
1056.59	3684.18
1060.33	3732.72
1064.06	3617.98
1067.78	3627.45
1071.51	3407.3
1075.23	3175.62
1078.96	3283.1
1082.68	3261.68
1086.4	3258.38
1090.12	3375.24
1093.83	3018.27
1097.55	2811.51
1101.26	2587.38
1104.97	2476.43
1108.68	2402.89
1112.39	2281.88
1116.1	2213.16
1119.8	2109.66
1123.5	1683.96
1127.2	1361.94
1130.9	1043.19
1134.6	1302.79
1138.3	933.949
1141.99	905.645
1145.69	1139.12
1149.38	953.236
1153.07	923.945
1156.76	645.057
1160.44	493.047
1164.13	500.949
1167.81	869.199
1171.49	1212.51
1175.17	673.348
1178.85	556.611
1182.52	180.014
1186.2	303.568
1189.87	46.48
1193.54	116.098
1197.21	188.855
1200.88	396.369
1204.55	365.469
1208.21	284.182
1211.88	176.414
1215.54	27.273
1219.2	107.336
1222.86	65.361
1226.51	252.889
1230.17	53.574
1233.82	308.666
1237.47	332.697
1241.12	344.826
1244.77	74.637
1248.42	649.871
1252.06	221.186
1255.71	35.84
1259.35	419.748
1262.99	520.539
1266.63	411.064
1270.26	476.664
1273.9	374.189
1277.53	80.738
1281.16	139.469
1284.8	21.262
1288.42	8.234
1292.05	260.502
1295.68	322.844
