Measurement: Raman, 514 nm, depolarized, Raman Data Processed
Mineral: Aragonite
Rruff sample: R060195
Ideal chemistry: CaCO_3_
Locality: Cicov Hill, Horenec, Czech Republic
Source: Marcus Origlieri
Description: Colorless transparent elongated prismatic crystal
Measured chemistry: Ca_1.00_CO_3_
Pin_id: L01577
Orientation: Laser parallel to a* (1 0 0). Fiducial mark perpendicular to laser is parallel to b [0 1 0]
Raman shift (cm-1)	intensity
100.883	0
105.815	144.841
110.744	45.3867
115.671	325.69
120.596	424.687
125.519	272.348
130.439	435.743
135.356	396.5
140.271	663.589
145.184	1757.18
150.094	1247.05
155.002	1680.53
159.908	1350.19
164.811	1355.64
169.711	693.663
174.61	765.534
179.505	968.1
184.399	1629.14
189.29	928.242
194.178	984.429
199.064	1150.81
203.948	1854.55
208.829	4462.66
213.708	2170.74
218.585	883.733
223.459	418.629
228.33	309.361
233.199	308.862
238.066	307.083
242.93	323.498
247.792	660.78
252.651	751.307
257.508	441.677
262.363	617.1
267.215	458.664
272.064	448.045
276.912	553.623
281.756	255.703
286.598	318.867
291.438	277.718
296.276	123.061
301.111	7.06934
305.943	167.561
310.773	45.2783
315.601	138.122
320.426	120.739
325.248	100.208
330.068	83.0918
334.886	150.386
339.701	64.084
344.514	97.2324
349.324	100.592
354.132	147.25
358.938	49.6602
363.741	72.8379
368.541	57.4805
373.339	35.3457
378.135	24.5879
382.928	61.6543
387.718	31.3926
392.506	5.36523
397.292	158.301
402.075	121.344
406.856	119.82
411.634	20.9727
416.41	81.4922
421.183	82.1465
425.954	25.0273
430.722	96.6621
435.488	144.402
440.251	21.1582
445.012	78.9961
449.77	28.7305
454.526	219.451
459.28	94.9609
464.03	166.947
468.779	147.818
473.525	176.473
478.268	258.506
483.009	164.772
487.747	161.356
492.483	221
497.217	59.9141
501.948	338.523
506.676	167.137
511.402	124.158
516.125	91.543
520.846	129.519
525.565	123.752
530.281	101.305
534.994	182.252
539.705	2.57031
544.413	51.6055
549.119	202.115
553.822	100.754
558.523	34.2109
563.222	89.4668
567.917	73.5644
572.611	202.453
577.302	308.315
581.99	230.324
586.676	157.147
591.359	105.939
596.04	242.938
600.718	39.7637
605.394	221.387
610.067	53.3535
614.737	22.4492
619.406	0.957031
624.071	206.496
628.734	200.303
633.395	21.4688
638.053	259.658
642.708	211.072
647.361	73.0606
652.012	203.316
656.66	179.603
661.305	72.207
665.948	207.338
670.588	155.008
675.226	195.269
679.861	189.43
684.494	180.922
689.124	233.639
693.752	257.33
698.377	402.435
702.999	1228.24
707.619	1190.24
712.237	473.56
716.852	183.637
721.464	347.117
726.074	54.418
730.681	128.66
735.286	14.6777
739.888	218.514
744.488	177.158
749.085	114.732
753.68	173.432
758.272	338.981
762.861	157.709
767.448	331.883
772.033	70.1641
776.614	25.9863
781.194	157.373
785.77	248.117
790.345	289.894
794.916	129.303
799.485	197.953
804.052	317.748
808.616	107.799
813.177	136.51
817.736	330.188
822.292	362.15
826.846	123.477
831.397	40.0703
835.945	412.277
840.491	147.33
845.035	251.16
849.576	323.24
854.114	530.164
858.65	149.055
863.183	118.502
867.713	188.982
872.241	275.455
876.767	291.846
881.29	267.541
885.81	39.8145
890.328	31.1328
894.843	185.422
899.356	141.56
903.866	261.768
908.373	40.9121
912.878	283.498
917.38	229.248
921.88	98.4688
926.377	214.004
930.872	234.525
935.364	137.178
939.853	235.24
944.34	189.664
948.824	50.6582
953.306	287.539
957.785	157.918
962.261	20.209
966.735	136.176
971.207	242.66
975.675	15.9531
980.141	336.703
984.605	99.6836
989.066	389.875
993.524	113.061
997.98	92.4219
1002.43	206.168
1006.88	34.627
1011.33	316.135
1015.78	12.5117
1020.22	289
1024.66	217.065
1029.1	269.164
1033.53	303.959
1037.97	126.037
1042.4	294.363
1046.82	137.328
1051.25	0.556641
1055.67	338.59
1060.09	326.719
1064.51	170.217
1068.92	146.93
1073.33	365.693
1077.74	413.666
1082.15	2994.44
1086.55	30823.4
1090.95	4230.18
1095.35	728.688
1099.75	232.898
1104.14	368.461
1108.53	193.539
1112.92	102.137
1117.31	257.758
1121.69	243.125
1126.07	161.664
1130.45	225.492
1134.82	213.246
1139.19	84.1094
1143.57	194.199
1147.93	520.875
1152.3	174.977
1156.66	98.6875
1161.02	193.715
1165.38	36.4453
1169.73	159.023
1174.08	36.0156
1178.43	171.891
1182.78	128.16
1187.12	136.086
1191.46	233.609
1195.8	135.41
1200.14	50.2812
1204.47	43.3828
1208.8	96.8359
1213.13	193.934
1217.46	86.3828
1221.78	321.402
1226.1	416.379
1230.42	378.531
1234.73	140.832
1239.04	416.039
1243.35	334.324
1247.66	202.266
1251.97	541.316
1256.27	278.008
1260.57	104.769
1264.86	171.191
1269.16	207.672
1273.45	185.957
1277.74	217.34
1282.03	396.66
1286.31	170.219
1290.59	295.547
1294.87	220.379
1299.14	381.758
1303.42	279.481
1307.69	356.227
1311.95	137.984
1316.22	273.91
1320.48	414.465
1324.74	235.992
1329	264.801
1333.26	165.328
1337.51	200.797
1341.76	49.2109
1346	382.883
1350.25	420.449
1354.49	408.316
1358.73	341.047
1362.96	250.438
1367.2	36.418
1371.43	43.4727
1375.66	294.512
1379.88	55.25
1384.11	50.5703
1388.33	8.78125
1392.54	342.379
1396.76	361.531
1400.97	256.379
1405.18	326.023
1409.39	179.519
1413.59	209.539
1417.8	29.5156
1421.99	510.234
1426.19	87.0078
1430.38	8.36328
1434.58	206.902
1438.77	379.715
1442.95	132.769
1447.13	390.32
1451.32	37.6367
1455.49	76.9727
1459.67	338.398
1463.84	315.051
1468.01	187.594
1472.18	166.207
1476.35	256.148
1480.51	444.414
1484.67	206.633
1488.83	311.066
1492.98	432.856
1497.13	561.41
1501.28	141.273
1505.43	288.566
1509.57	371.543
1513.71	276.871
1517.85	624.738
1521.99	395.273
1526.12	254.316
1530.25	247.543
1534.38	272.176
1538.5	480.84
1542.62	127.023
1546.74	227.297
1550.86	259.227
1554.98	229.656
1559.09	158.535
1563.2	199.109
1567.31	16.3086
1571.41	0
