Measurement: Raman, 514 nm, depolarized, Raman Data Processed
Mineral: Aragonite
Rruff sample: R040078
Ideal chemistry: CaCO_3_
Locality: Molina, Aragon, Spain
Source: University of Arizona Mineral Museum
Description: Orange pseudohexagonal prisms
Measured chemistry: Ca_1.00_CO_3_
Pin_id: L00344
Orientation: Laser parallel to a* (1 0 0). Fiducial mark perpendicular to laser is parallel to b [0 1 0]
Raman shift (cm-1)	intensity
101.036	0
105.212	92.813
109.387	101.722
113.559	151.046
117.729	201.048
121.897	128.866
126.063	160.339
130.228	178.53
134.39	168.426
138.55	552.26
142.709	1987.33
146.865	1112.05
151.019	1141.03
155.171	1437.08
159.322	1286.62
163.47	1314.46
167.617	551.396
171.761	382.777
175.904	682.463
180.044	1639.5
184.183	1035.63
188.319	509.564
192.454	463.48
196.586	670.452
200.717	1644.57
204.846	5031.96
208.972	5871.88
213.097	2133.13
217.22	990.492
221.341	449.192
225.46	182.369
229.577	102.532
233.692	81.66
237.805	127.456
241.916	266.514
246.025	584.131
250.132	787.673
254.237	537.677
258.34	502.604
262.442	413.478
266.541	129.866
270.639	85.328
274.734	53.317
278.828	169.724
282.919	247.011
287.009	182.742
291.097	120.253
295.183	82.66
299.266	1.798
303.348	0.433
307.428	9.727
311.507	37.704
315.583	51.281
319.657	46.184
323.729	27.845
327.8	25.469
331.868	44.109
335.935	26.583
339.999	14.663
344.062	6.972
348.123	55.971
352.182	16.738
356.239	12.877
360.294	70.235
364.347	29.153
368.398	7.298
372.448	63.858
376.495	58.102
380.54	19.468
384.584	14.507
388.626	41.391
392.666	48.239
396.704	37.061
400.74	26.66
404.774	76.745
408.806	81.949
412.836	62.233
416.865	69.815
420.891	45.515
424.916	53.624
428.939	14.822
432.959	10.318
436.978	48.583
440.996	132.083
445.011	74.142
449.024	3.863
453.036	37.69
457.045	31.771
461.053	102.188
465.059	83.518
469.063	87.645
473.065	59.951
477.065	138.347
481.063	91.417
485.06	1.484
489.054	30.606
493.047	71.328
497.038	163.407
501.027	87.932
505.014	38.739
508.999	75.182
512.982	25.337
516.964	52.191
520.944	46.979
524.921	108.582
528.897	53.476
532.871	82.81
536.844	54.755
540.814	99.868
544.783	91.523
548.749	181.419
552.714	37.861
556.677	13.729
560.638	76.48
564.597	71.938
568.555	54.287
572.511	16.582
576.464	27.501
580.416	127.575
584.366	88.749
588.315	119.428
592.261	50.516
596.206	58.917
600.148	56.814
604.089	84.371
608.028	136.492
611.965	39.491
615.901	97.671
619.834	96.199
623.766	94.017
627.696	9.538
631.624	54.258
635.551	121.25
639.475	85.913
643.398	28.618
647.318	27.702
651.237	10.878
655.155	87.972
659.07	146.526
662.984	59.775
666.895	28.91
670.805	43.521
674.713	43.895
678.62	126.142
682.524	118.513
686.427	159.035
690.328	114.786
694.227	140.115
698.124	286.11
702.02	805.141
705.913	2998.07
709.805	754.691
713.695	257.928
717.584	353.003
721.47	129.867
725.355	137.695
729.238	147.502
733.119	86.901
736.998	103.997
740.876	122.324
744.752	6.255
748.626	101.114
752.498	138.092
756.368	120.306
760.237	78.893
764.104	47.595
767.969	5.878
771.832	2.667
775.693	6.164
779.553	68.542
783.411	109.369
787.267	2.89
791.122	27.835
794.974	83.262
798.825	33.649
802.674	42.276
806.522	4.131
810.367	33.712
814.211	65.214
818.053	99.968
821.893	38.465
825.732	26.01
829.568	99.08
833.403	40.604
837.236	76.065
841.068	108.428
844.898	30.87
848.726	43.56
852.552	308.901
856.376	112.81
860.199	140.23
864.02	95.554
867.839	7.125
871.656	23.219
875.472	15.512
879.286	56.688
883.098	41.785
886.909	53.336
890.717	4.228
894.524	9.818
898.33	63.742
902.133	56.74
905.935	103.64
909.735	93.517
913.533	60.353
917.33	58.167
921.124	1.802
924.918	170.293
928.709	140.487
932.499	271.707
936.286	137.525
940.073	15.87
943.857	42.551
947.64	161.3
951.421	154.139
955.2	160.833
958.978	106.156
962.753	18.661
966.527	64.133
970.3	27.999
974.071	40.683
977.84	45.598
981.607	142.363
985.372	138.286
989.136	20.4
992.898	12.404
996.659	122.55
1000.42	207.881
1004.17	111.183
1007.93	96.925
1011.68	47.408
1015.43	57.586
1019.18	182.882
1022.93	304.839
1026.68	277.127
1030.42	105.078
1034.17	114.079
1037.91	122.038
1041.65	73.556
1045.39	239.822
1049.12	202.506
1052.86	325.412
1056.59	212.163
1060.33	362.304
1064.06	222.668
1067.78	313.585
1071.51	398.161
1075.23	638.364
1078.96	1307.04
1082.68	6097.76
1086.4	50748.7
1090.12	4067.97
1093.83	779.655
1097.55	367.159
1101.26	389.745
1104.97	469.451
1108.68	185.01
1112.39	180.457
1116.1	112.542
1119.8	37.244
1123.5	153.247
1127.2	285.165
1130.9	241.251
1134.6	200.614
1138.3	35.955
1141.99	137.213
1145.69	39.296
1149.38	62.103
1153.07	116.141
1156.76	235.767
1160.44	128.977
1164.13	185.625
1167.81	86.048
1171.49	8.495
1175.17	45.996
1178.85	128.384
1182.52	186.764
1186.2	142.637
1189.87	207.411
1193.54	78.94
1197.21	93.329
1200.88	12.743
1204.55	156.241
1208.21	134.189
1211.88	341.727
1215.54	319.192
1219.2	276.565
1222.86	214.116
1226.51	216.507
1230.17	133.544
1233.82	301.426
1237.47	237.94
1241.12	264.062
1244.77	280.422
1248.42	266.467
1252.06	302.209
1255.71	207.795
1259.35	53.195
1262.99	198.549
1266.63	163.17
1270.26	157.595
1273.9	141.673
1277.53	505.676
1281.16	309.236
1284.8	142.17
1288.42	144.838
1292.05	16.741
1295.68	131.266
1299.3	25.471
1302.92	66.464
1306.55	57.127
1310.16	114.84
1313.78	154.355
1317.4	103.293
1321.01	17.745
1324.62	1.115
1328.24	70.069
1331.85	22.038
1335.45	36.176
1339.06	202.708
1342.66	229.586
1346.27	184.988
1349.87	172.249
1353.47	119.056
1357.07	145.64
1360.66	52.424
1364.26	129.365
1367.85	26.361
1371.44	176.75
1375.04	123.396
1378.62	310.08
1382.21	381.417
1385.8	272.162
1389.38	222.914
1392.96	132.737
1396.54	131.671
1400.12	129.845
1403.7	79.78
1407.28	155.239
1410.85	238.001
1414.42	311.59
1417.99	483.419
1421.56	371.073
1425.13	363.094
1428.7	200.269
1432.26	65.147
1435.83	37.357
1439.39	80.013
1442.95	62.498
1446.51	203.04
1450.06	240.177
1453.62	168.939
1457.17	427.596
1460.73	535.459
1464.28	912.5
1467.83	590.9
1471.37	217.227
1474.92	205.432
1478.46	124.685
1482.01	264.084
1485.55	125.95
1489.09	298.574
1492.63	192.466
1496.16	288.201
1499.7	376.638
1503.23	278.544
1506.76	385.186
1510.29	507.514
1513.82	242.832
1517.35	124.353
