Measurement: Raman, 514 nm, depolarized, Raman Data Processed
Mineral: Aragonite
Rruff sample: R060195
Ideal chemistry: CaCO_3_
Locality: Cicov Hill, Horenec, Czech Republic
Source: Marcus Origlieri
Description: Colorless transparent elongated prismatic crystal
Measured chemistry: Ca_1.00_CO_3_
Pin_id: L01257
Orientation: Laser parallel to c* (0 0 1). Fiducial mark perpendicular to laser is parallel to a [1 0 0]
Raman shift (cm-1)	intensity
100.883	0
105.815	57.6504
110.744	214.264
115.671	235.248
120.596	276.323
125.519	383.31
130.439	189.697
135.356	576.909
140.271	613.765
145.184	1717.24
150.094	2094
155.002	4375.32
159.908	2812.85
164.811	1250.62
169.711	551.082
174.61	364.99
179.505	610.438
184.399	822.29
189.29	788.924
194.178	1069.54
199.064	759.274
203.948	763.004
208.829	1208.7
213.708	1025.91
218.585	1091.17
223.459	525.021
228.33	339.862
233.199	401.379
238.066	273.415
242.93	205.105
247.792	412.232
252.651	433.572
257.508	347.31
262.363	290.715
267.215	183.077
272.064	513.948
276.912	378.324
281.756	666.411
286.598	296.206
291.438	260.445
296.276	165.42
301.111	110.301
305.943	159.761
310.773	16.9785
315.601	211.331
320.426	174.023
325.248	60.0117
330.068	118.228
334.886	52.1055
339.701	110.67
344.514	35.252
349.324	11.7246
354.132	5.34473
358.938	89.9658
363.741	195.11
368.541	89.0938
373.339	133.017
378.135	9.26465
382.928	1.41894
387.718	45.1621
392.506	120.461
397.292	117.882
402.075	41.3477
406.856	194.603
411.634	75.0059
416.41	153.775
421.183	134.329
425.954	272.955
430.722	201.565
435.488	6.13184
440.251	84.6719
445.012	137.775
449.77	38.7207
454.526	81.8418
459.28	19.2773
464.03	10.4551
468.779	129.451
473.525	92.2734
478.268	71.7988
483.009	162.602
487.747	103.072
492.483	245.463
497.217	141.709
501.948	75.9394
506.676	79.5742
511.402	102.623
516.125	219.994
520.846	38.6152
525.565	218.426
530.281	9.24609
534.994	40.8105
539.705	28.4785
544.413	183.656
549.119	176.717
553.822	56.4473
558.523	179.826
563.222	109.717
567.917	111.713
572.611	141.654
577.302	219.004
581.99	14.4023
586.676	108.648
591.359	71.4414
596.04	94.4727
600.718	119.441
605.394	163.998
610.067	126.908
614.737	112.838
619.406	85.6191
624.071	133.088
628.734	228.088
633.395	175.643
638.053	234.81
642.708	181.527
647.361	142.283
652.012	333.766
656.66	276.818
661.305	288.658
665.948	166.482
670.588	277.586
675.226	205.615
679.861	112.588
684.494	89.7051
689.124	123.959
693.752	393.158
698.377	481.185
702.999	2022.83
707.619	2154
712.237	326.572
716.852	296.963
721.464	182.367
726.074	128.59
730.681	93.6738
735.286	37.6602
739.888	99.6836
744.488	291.869
749.085	117.242
753.68	189.815
758.272	238.047
762.861	176.387
767.448	182.232
772.033	130.279
776.614	4.15625
781.194	15.8359
785.77	184.598
790.345	110.643
794.916	199.734
799.485	226.102
804.052	231.389
808.616	72.5918
813.177	134.752
817.736	59.0449
822.292	105.027
826.846	168.736
831.397	243.289
835.945	355.607
840.491	186.029
845.035	335.066
849.576	114.981
854.114	138.078
858.65	36.2324
863.183	95
867.713	222.688
872.241	219.363
876.767	151.791
881.29	289.066
885.81	246.25
890.328	305.273
894.843	188.414
899.356	234.615
903.866	73.0977
908.373	227.93
912.878	199.449
917.38	71.2031
921.88	4.6543
926.377	7.61328
930.872	141.641
935.364	27.2891
939.853	229.531
944.34	140.41
948.824	193.848
953.306	271.592
957.785	132.371
962.261	187.699
966.735	67.0312
971.207	145.434
975.675	52.9883
980.141	226.531
984.605	102.561
989.066	256.123
993.524	313.371
997.98	232.193
1002.43	71.4941
1006.88	246.148
1011.33	197.769
1015.78	135.953
1020.22	53.707
1024.66	63.8223
1029.1	103.721
1033.53	247.789
1037.97	70.7422
1042.4	200.103
1046.82	354.984
1051.25	200.318
1055.67	190.719
1060.09	268.83
1064.51	184.303
1068.92	183.582
1073.33	297.815
1077.74	605.894
1082.15	3866.18
1086.55	30871.9
1090.95	4355.7
1095.35	439.644
1099.75	104.002
1104.14	14.6738
1108.53	231.109
1112.92	166.668
1117.31	245.486
1121.69	97.9785
1126.07	249.51
1130.45	145.315
1134.82	131.731
1139.19	133.816
1143.57	55.4219
1147.93	159.688
1152.3	11.5176
1156.66	230.217
1161.02	162.25
1165.38	114.936
1169.73	169.123
1174.08	107.641
1178.43	206.856
1182.78	290.828
1187.12	266.856
1191.46	148.07
1195.8	54.2812
1200.14	302.432
1204.47	309.715
1208.8	301.834
1213.13	52.7383
1217.46	64.3945
1221.78	225.967
1226.1	193.305
1230.42	82.8633
1234.73	296.059
1239.04	273.418
1243.35	281.43
1247.66	297.949
1251.97	198.34
1256.27	301.207
1260.57	318.891
1264.86	277.785
1269.16	296.562
1273.45	405.449
1277.74	77.4297
1282.03	439.356
1286.31	431.176
1290.59	470.387
1294.87	324.461
1299.14	246.461
1303.42	248.562
1307.69	364.324
1311.95	269.199
1316.22	285.133
1320.48	159.34
1324.74	455.059
1329	308.418
1333.26	184.082
1337.51	320.609
1341.76	145.309
1346	129.594
1350.25	48.25
1354.49	468.402
1358.73	348.57
1362.96	280.84
1367.2	153.238
1371.43	391.316
1375.66	222.422
1379.88	238.789
1384.11	38.2031
1388.33	69.1172
1392.54	348.098
1396.76	56.7656
1400.97	166.949
1405.18	236.629
1409.39	206.215
1413.59	150.496
1417.8	278.434
1421.99	290.141
1426.19	158.637
1430.38	55.7578
1434.58	114.809
1438.77	151.812
1442.95	61.2578
1447.13	75.4727
1451.32	81.7852
1455.49	117.113
1459.67	334.133
1463.84	462.211
1468.01	115.945
1472.18	216.547
1476.35	215.012
1480.51	314.156
1484.67	61.1875
1488.83	600.43
1492.98	121.219
1497.13	515.863
1501.28	330.168
1505.43	395.34
1509.57	367.129
1513.71	526.582
1517.85	56.5039
1521.99	265.676
1526.12	107.543
1530.25	313.125
1534.38	314.981
1538.5	565.269
1542.62	491.777
1546.74	185.902
1550.86	229.652
1554.98	112.59
1559.09	76.6445
1563.2	19.832
1567.31	201.57
1571.41	0
