Measurement: Raman, 514 nm, depolarized, Raman Data Processed
Mineral: Aragonite
Rruff sample: R040078
Ideal chemistry: CaCO_3_
Locality: Molina, Aragon, Spain
Source: University of Arizona Mineral Museum
Description: Orange pseudohexagonal prisms
Measured chemistry: Ca_1.00_CO_3_
Pin_id: L00299
Orientation: Laser parallel to c* (0 0 1). Fiducial mark perpendicular to laser is parallel to -a [-1 0 0]
Raman shift (cm-1)	intensity
117.729	0
121.897	11.727
126.063	18.994
130.228	158.955
134.39	151.331
138.55	492.423
142.709	965.156
146.865	1098.07
151.019	1209.53
155.171	1272.69
159.322	926.562
163.47	649.396
167.617	424.252
171.761	322.721
175.904	489.206
180.044	550.972
184.183	727.193
188.319	882.991
192.454	862.461
196.586	861.544
200.717	790.669
204.846	1060.07
208.972	1230.16
213.097	1450.79
217.22	1351.8
221.341	813.177
225.46	594.97
229.577	497.021
233.692	379.307
237.805	261.794
241.916	334.411
246.025	377.112
250.132	559.899
254.237	382.769
258.34	415.702
262.442	58.834
266.541	147.995
270.639	44.749
274.734	91.538
278.828	361.012
282.919	763.444
287.009	455.707
291.097	359.308
295.183	343.909
299.266	338.587
303.348	243.509
307.428	288.748
311.507	254.069
315.583	219.506
319.657	285.527
323.729	180.893
327.8	378.83
331.868	374.176
335.935	289.385
339.999	384.907
344.062	350.07
348.123	145.305
352.182	240.505
356.239	185.391
360.294	209.464
364.347	423.183
368.398	146.986
372.448	281.17
376.495	235.05
380.54	249.201
384.584	263.373
388.626	277.263
392.666	280.956
396.704	314.706
400.74	49.128
404.774	233.156
408.806	269.485
412.836	353.241
416.865	239.181
420.891	353.038
424.916	267.548
428.939	267.48
432.959	5.695
436.978	94.997
440.996	210.342
445.011	193.965
449.024	61.873
453.036	226.024
457.045	220.126
461.053	284.235
465.059	40.083
469.063	164.028
473.065	38.017
477.065	246.708
481.063	70.374
485.06	35.636
489.054	47.567
493.047	104.81
497.038	347.326
501.027	189.768
505.014	82.555
508.999	205.214
512.982	188.303
516.964	131.241
520.944	243.102
524.921	65.142
528.897	16.946
532.871	88.975
536.844	50.647
540.814	102.203
544.783	193.639
548.749	144.96
552.714	166.162
556.677	77.245
560.638	48.389
564.597	69.319
568.555	180.045
572.511	18.729
576.464	92.393
580.416	169.814
584.366	380.35
588.315	111.354
592.261	32.526
596.206	33.438
600.148	143.934
604.089	164.642
608.028	114.224
611.965	74.085
615.901	12.949
619.834	362.66
623.766	11.98
627.696	51.683
631.624	0.201
635.551	312.719
639.475	220.756
643.398	162.728
647.318	48.777
651.237	120.565
655.155	266.735
659.07	124.841
662.984	113.527
666.895	60.098
670.805	16.424
674.713	203.04
678.62	318.251
682.524	213.799
686.427	358.689
690.328	223.131
694.227	258.564
698.124	793.098
702.02	2727.42
705.913	2922.82
709.805	967.094
713.695	341.547
717.584	384.037
721.47	317.352
725.355	373.566
729.238	224.383
733.119	167.516
736.998	559.98
740.876	310.947
744.752	30.568
748.626	209.074
752.498	356.531
756.368	236.197
760.237	316.637
764.104	192.93
767.969	202.367
771.832	31.982
775.693	281.613
779.553	297.418
783.411	95.928
787.267	37.125
791.122	77.008
794.974	34.486
798.825	331.193
802.674	83.758
806.522	152.414
810.367	8.938
814.211	195.672
818.053	481.936
821.893	278.461
825.732	214.301
829.568	260.535
833.403	156.957
837.236	2.67
841.068	318.141
844.898	23.408
848.726	98.51
852.552	64.082
856.376	11.395
860.199	213.453
864.02	77.793
867.839	201.771
871.656	135.305
875.472	190.863
879.286	72.361
883.098	95.18
886.909	257.693
890.717	243.602
894.524	73.674
898.33	106.918
902.133	179.711
905.935	321.283
909.735	212.904
913.533	333.998
917.33	255.77
921.124	2.766
924.918	388.125
928.709	249.703
932.499	430.436
936.286	420.047
940.073	267.076
943.857	297.428
947.64	607.35
951.421	342.891
955.2	452.592
958.978	432.566
962.753	232.699
966.527	323.543
970.3	23.059
974.071	83.479
977.84	173.158
981.607	383.795
985.372	355.812
989.136	145.729
992.898	198.113
996.659	182.678
1000.42	144.383
1004.17	347.391
1007.93	87.193
1011.68	198.207
1015.43	318.676
1019.18	310.492
1022.93	440.463
1026.68	409.238
1030.42	328.572
1034.17	478.256
1037.91	278.729
1041.65	279.244
1045.39	585.955
1049.12	537.627
1052.86	639.754
1056.59	490.412
1060.33	450.375
1064.06	311.785
1067.78	160.836
1071.51	639.086
1075.23	768.561
1078.96	1217.4
1082.68	5436.92
1086.4	37706.4
1090.12	3665.24
1093.83	693.961
1097.55	192.211
1101.26	550.578
1104.97	668.797
1108.68	226.186
1112.39	33.545
1116.1	121.23
1119.8	118.629
1123.5	305.723
1127.2	113.473
1130.9	357.707
1134.6	346.107
1138.3	95.668
1141.99	258.898
1145.69	7.416
1149.38	71.363
1153.07	192.43
1156.76	408.322
1160.44	190.832
1164.13	359.826
1167.81	348.457
1171.49	164.279
1175.17	63.77
1178.85	389.564
1182.52	351.801
1186.2	258.434
1189.87	326.184
1193.54	223.318
1197.21	138.854
1200.88	328.357
1204.55	338.334
1208.21	348.145
1211.88	636.354
1215.54	684.762
1219.2	392.422
1222.86	462.289
1226.51	345.799
1230.17	462.186
1233.82	819.811
1237.47	445.629
1241.12	689.338
1244.77	652.18
1248.42	614.207
1252.06	836.146
1255.71	767.629
1259.35	436.809
1262.99	617.18
1266.63	504.818
1270.26	613.883
1273.9	700.947
1277.53	878.027
1281.16	521.895
1284.8	459.797
1288.42	753.447
1292.05	203.35
1295.68	187.26
1299.3	461.807
1302.92	130.75
1306.55	29.781
1310.16	106.852
1313.78	531.23
1317.4	166.256
1321.01	169.436
1324.62	222.104
1328.24	34.992
1331.85	86.096
1335.45	32.877
1339.06	315.963
1342.66	413.553
1346.27	341.363
1349.87	538.346
1353.47	676.023
1357.07	192.016
1360.66	458.516
1364.26	484.732
1367.85	130.99
1371.44	438.893
1375.04	141.398
1378.62	420.025
1382.21	568.891
1385.8	556.369
1389.38	813.24
1392.96	588.334
1396.54	661.203
1400.12	390.531
1403.7	108.266
1407.28	439.625
1410.85	172.633
1414.42	400.59
1417.99	662.793
1421.56	790.633
1425.13	719.766
1428.7	608.77
1432.26	535.695
1435.83	388.438
1439.39	0.004
1442.95	331.824
1446.51	24.555
1450.06	687.574
1453.62	223.812
1457.17	685.648
1460.73	683.289
1464.28	1172.92
1467.83	784.867
1471.37	611.199
1474.92	523.504
1478.46	221.957
1482.01	419.312
1485.55	234.246
1489.09	459.676
1492.63	246.656
1496.16	436.262
1499.7	419.148
1503.23	247.66
1506.76	819.121
1510.29	944.266
1513.82	646.242
