Measurement: Raman, 514 nm, depolarized, Raman Data Processed
Mineral: Aragonite
Rruff sample: R040078
Ideal chemistry: CaCO_3_
Locality: Molina, Aragon, Spain
Source: University of Arizona Mineral Museum
Description: Orange pseudohexagonal prisms
Measured chemistry: Ca_1.00_CO_3_
Pin_id: L00114
Orientation: Laser parallel to -b* (0 -1 0). Fiducial mark perpendicular to laser is parallel to -c [0 0 -1]
Raman shift (cm-1)	intensity
50.765	0
54.966	127.658
59.164	236.604
63.36	319.929
67.554	200.486
71.747	23.184
75.937	41.511
80.125	77.039
84.311	93.02
88.496	206.188
92.678	301.371
96.858	438.427
101.036	609.181
105.212	711.504
109.387	907.374
113.559	1177.67
117.729	1084.35
121.897	682.447
126.063	683.949
130.228	757.777
134.39	892.931
138.55	1195.46
142.709	2065.14
146.865	3938.68
151.019	9319.21
155.171	14284.9
159.322	6295.66
163.47	2537.74
167.617	1133.9
171.761	742.175
175.904	548.581
180.044	449.098
184.183	448.81
188.319	406.963
192.454	447.017
196.586	550.821
200.717	607.419
204.846	957.566
208.972	1421.22
213.097	2210.65
217.22	2601.72
221.341	1400.52
225.46	749.997
229.577	469.631
233.692	330.849
237.805	217.602
241.916	162.263
246.025	193.623
250.132	247.896
254.237	130.886
258.34	127.402
262.442	69.526
266.541	16.759
270.639	76.061
274.734	124.73
278.828	319.168
282.919	553.778
287.009	480.497
291.097	323.221
295.183	215.297
299.266	162.034
303.348	62.798
307.428	31.603
311.507	101.526
315.583	51.342
319.657	31.697
323.729	37.131
327.8	62.599
331.868	6.002
335.935	5.926
339.999	11.038
344.062	98.072
348.123	22.048
352.182	13.984
356.239	8.066
360.294	43.11
364.347	52.139
368.398	39.264
372.448	34.606
376.495	77.123
380.54	59.275
384.584	29.732
388.626	57.553
392.666	63.778
396.704	2.565
400.74	47.149
404.774	7.5
408.806	46.332
412.836	40.028
416.865	40.285
420.891	26.416
424.916	34.044
428.939	62.363
432.959	20.119
436.978	34.348
440.996	79.971
445.011	10.459
449.024	41.167
453.036	16.337
457.045	76.235
461.053	132.387
465.059	60.618
469.063	33.568
473.065	27.484
477.065	68.263
481.063	59.912
485.06	1.236
489.054	1.041
493.047	41.531
497.038	129.031
501.027	28.49
505.014	3.877
508.999	73.203
512.982	69.148
516.964	59.511
520.944	28.316
524.921	8.519
528.897	49.527
532.871	0.213
536.844	14.775
540.814	2.438
544.783	87.086
548.749	89.676
552.714	41.209
556.677	11.287
560.638	108.863
564.597	61.004
568.555	93.844
572.511	100.394
576.464	30.959
580.416	66.138
584.366	48.343
588.315	67.865
592.261	43.513
596.206	14.794
600.148	70.698
604.089	72.157
608.028	61.651
611.965	0.046
615.901	90.771
619.834	115.151
623.766	66.423
627.696	44.477
631.624	37.304
635.551	79.63
639.475	97.277
643.398	65.73
647.318	47.884
651.237	45.481
655.155	121.484
659.07	98.911
662.984	45.863
666.895	2.561
670.805	37.169
674.713	217.679
678.62	105.069
682.524	125.617
686.427	70.612
690.328	93.21
694.227	196.649
698.124	247.443
702.02	736.866
705.913	3862.18
709.805	1035.89
713.695	237.876
717.584	207.846
721.47	92.651
725.355	22.363
729.238	73.195
733.119	94.059
736.998	84.053
740.876	90.344
744.752	31.029
748.626	11.062
752.498	104.527
756.368	149.152
760.237	111.994
764.104	43.032
767.969	19.833
771.832	26.794
775.693	84.112
779.553	87.166
783.411	83.302
787.267	9.415
791.122	7.717
794.974	39.842
798.825	90.199
802.674	89.015
806.522	19.327
810.367	30.979
814.211	40.677
818.053	154.024
821.893	58.122
825.732	35.548
829.568	67.021
833.403	2.313
837.236	90.878
841.068	139.394
844.898	116.684
848.726	68.246
852.552	211.438
856.376	181.618
860.199	182.756
864.02	77.885
867.839	92.985
871.656	21.874
875.472	54.724
879.286	81.042
883.098	103.877
886.909	162.637
890.717	86.165
894.524	5.66
898.33	5.461
902.133	100.861
905.935	143.279
909.735	171.68
913.533	58.146
917.33	42.622
921.124	8.022
924.918	109.835
928.709	343.392
932.499	170.784
936.286	124.216
940.073	100.438
943.857	23.596
947.64	123.323
951.421	181.729
955.2	170.047
958.978	53.689
962.753	0.947
966.527	1.707
970.3	9.708
974.071	90.193
977.84	115.219
981.607	155.127
985.372	81.37
989.136	2.146
992.898	19.674
996.659	154.196
1000.42	140.464
1004.17	182.403
1007.93	34.471
1011.68	37.179
1015.43	54.018
1019.18	135.075
1022.93	186.294
1026.68	194.58
1030.42	104.778
1034.17	168.931
1037.91	80.918
1041.65	66.624
1045.39	176.667
1049.12	223.293
1052.86	266.658
1056.59	193.606
1060.33	328.354
1064.06	122.707
1067.78	211.472
1071.51	399.942
1075.23	648.341
1078.96	1369.85
1082.68	5452.68
1086.4	55072.5
1090.12	4571.98
1093.83	798.4
1097.55	357.068
1101.26	448.705
1104.97	408.041
1108.68	214.193
1112.39	200.46
1116.1	148.884
1119.8	19.312
1123.5	171.595
1127.2	174.718
1130.9	193.164
1134.6	300.032
1138.3	110.204
1141.99	42.761
1145.69	34.158
1149.38	2.069
1153.07	3.704
1156.76	143.128
1160.44	199.085
1164.13	215.908
1167.81	97.366
1171.49	48.638
1175.17	0.513
1178.85	104.944
1182.52	122.992
1186.2	260.945
1189.87	213.176
1193.54	137.267
1197.21	42.196
1200.88	77.147
1204.55	6.711
1208.21	85.971
1211.88	247.545
1215.54	282.858
1219.2	183.254
1222.86	204.431
1226.51	79.12
1230.17	72.176
1233.82	143.706
1237.47	144.336
1241.12	251.757
1244.77	304.513
1248.42	246.46
1252.06	233.792
1255.71	196.483
1259.35	98.456
1262.99	111.42
1266.63	186.956
1270.26	139.121
1273.9	275.272
1277.53	286.885
1281.16	288.74
1284.8	160.041
1288.42	145.552
1292.05	48.551
1295.68	32.122
1299.3	6.816
1302.92	18.083
1306.55	24.619
1310.16	179.478
1313.78	272.134
1317.4	146.61
1321.01	111.731
1324.62	79.922
1328.24	16.765
1331.85	9.724
1335.45	102.84
1339.06	119.875
1342.66	323.296
1346.27	304.936
1349.87	399.168
1353.47	350.211
1357.07	132.793
1360.66	70.99
1364.26	79.285
1367.85	50.165
1371.44	166.55
1375.04	82.514
1378.62	275.261
1382.21	349.245
1385.8	328.57
1389.38	221.368
1392.96	212.088
1396.54	210.033
1400.12	57.617
1403.7	21.386
1407.28	106.108
1410.85	254.938
1414.42	241.126
1417.99	415.917
1421.56	354.634
1425.13	402.077
1428.7	311.438
1432.26	82.676
1435.83	42.492
1439.39	35.082
1442.95	32.383
1446.51	118.142
1450.06	265.271
1453.62	219.815
1457.17	612.01
1460.73	965.114
1464.28	1346.88
1467.83	466.298
1471.37	330.277
1474.92	301.274
1478.46	12.61
1482.01	127.513
1485.55	67.859
1489.09	169.416
1492.63	286.686
1496.16	319.096
1499.7	235.653
1503.23	406.893
1506.76	486.916
1510.29	473.509
1513.82	300.667
1517.35	123.645
