Measurement: Raman, 514 nm, depolarized, Raman Data Processed
Mineral: Aragonite
Rruff sample: R060195
Ideal chemistry: CaCO_3_
Locality: Cicov Hill, Horenec, Czech Republic
Source: Marcus Origlieri
Description: Colorless transparent elongated prismatic crystal
Measured chemistry: Ca_1.00_CO_3_
Pin_id: L01088
Orientation: Laser parallel to b* (0 1 0). Fiducial mark perpendicular to laser is parallel to c [0 0 1]
Raman shift (cm-1)	intensity
100.883	0
105.815	147.201
110.744	197.125
115.671	238.304
120.596	179.092
125.519	319.51
130.439	139.204
135.356	467.703
140.271	700.589
145.184	1981.52
150.094	2813.5
155.002	5589.01
159.908	2990.82
164.811	1282.57
169.711	537.458
174.61	332.527
179.505	542.174
184.399	667.99
189.29	587.33
194.178	718.301
199.064	508.954
203.948	713.479
208.829	1217.66
213.708	1096.23
218.585	1014.97
223.459	533.337
228.33	339.731
233.199	356.79
238.066	120.309
242.93	211.422
247.792	309.725
252.651	302.603
257.508	157.914
262.363	220.356
267.215	215.312
272.064	415.066
276.912	391.725
281.756	375.151
286.598	423.228
291.438	383.87
296.276	196.009
301.111	85.5342
305.943	126.868
310.773	69.3125
315.601	7.43066
320.426	107.496
325.248	155.079
330.068	39.6953
334.886	146.773
339.701	160.587
344.514	64.2432
349.324	194.971
354.132	26.8057
358.938	17.6533
363.741	50.8135
368.541	45.1562
373.339	16.3633
378.135	53.1133
382.928	55.6045
387.718	27.5781
392.506	26.4395
397.292	173.491
402.075	177.4
406.856	57.3935
411.634	75.5547
416.41	62.8926
421.183	161.415
425.954	227.124
430.722	57.7754
435.488	94.5088
440.251	70.5615
445.012	139.368
449.77	56.1787
454.526	6.32324
459.28	71.5439
464.03	60.5576
468.779	122.081
473.525	21.2197
478.268	97.4502
483.009	98.7812
487.747	175.538
492.483	187.83
497.217	115.126
501.948	26.5029
506.676	162.438
511.402	79.7715
516.125	101.269
520.846	181.461
525.565	103.756
530.281	167.16
534.994	209.386
539.705	148.551
544.413	152.579
549.119	181.579
553.822	40.3682
558.523	49.1728
563.222	121.845
567.917	103.414
572.611	171.885
577.302	81.2481
581.99	21.4951
586.676	67.6797
591.359	207.651
596.04	177.007
600.718	105.806
605.394	76.5644
610.067	213.912
614.737	94.9414
619.406	186.589
624.071	31.1729
628.734	12.2217
633.395	115.597
638.053	94.3135
642.708	255.643
647.361	198.959
652.012	8.21582
656.66	31.1523
661.305	154.534
665.948	99.7978
670.588	357.934
675.226	13.6396
679.861	83.459
684.494	174.611
689.124	99.791
693.752	77.0449
698.377	406.117
702.999	1637.75
707.619	2289.36
712.237	421.975
716.852	234.31
721.464	170.481
726.074	65.4238
730.681	16.7949
735.286	211.299
739.888	249.352
744.488	120.188
749.085	47.3711
753.68	71.0586
758.272	145.627
762.861	130.404
767.448	178.231
772.033	188.475
776.614	433.352
781.194	145.129
785.77	92.4766
790.345	126.957
794.916	61.7285
799.485	131.494
804.052	96.9473
808.616	28.2129
813.177	43.2168
817.736	158.904
822.292	206.394
826.846	131.512
831.397	284.762
835.945	138.092
840.491	158.619
845.035	90.5644
849.576	172.238
854.114	214.744
858.65	67.2969
863.183	301.859
867.713	323.096
872.241	143.83
876.767	328.125
881.29	227.832
885.81	50.832
890.328	126.322
894.843	93.9961
899.356	433.543
903.866	211.357
908.373	299.67
912.878	181.977
917.38	140.002
921.88	222.272
926.377	161.795
930.872	248.07
935.364	260.016
939.853	288.662
944.34	135.336
948.824	239.01
953.306	48.8457
957.785	39.5039
962.261	259.945
966.735	90.9219
971.207	75.7969
975.675	98.6953
980.141	219.25
984.605	213.678
989.066	4.32422
993.524	113.516
997.98	8.39453
1002.43	290.93
1006.88	231.838
1011.33	241.863
1015.78	264.174
1020.22	345.56
1024.66	4.53906
1029.1	301.83
1033.53	121.228
1037.97	32.0527
1042.4	272.371
1046.82	63.2578
1051.25	13.2168
1055.67	215.701
1060.09	366.32
1064.51	148.066
1068.92	92.9492
1073.33	291.584
1077.74	514.615
1082.15	2786.14
1086.55	31007.4
1090.95	2971.19
1095.35	632.139
1099.75	287.877
1104.14	145.715
1108.53	60.2246
1112.92	42.0488
1117.31	260.783
1121.69	136.828
1126.07	62.4062
1130.45	221.637
1134.82	177.244
1139.19	216.662
1143.57	184.799
1147.93	75.6328
1152.3	97.3164
1156.66	162.902
1161.02	163.582
1165.38	323.51
1169.73	42.0898
1174.08	198.543
1178.43	30.2832
1182.78	4.03516
1187.12	106.811
1191.46	185.109
1195.8	149.92
1200.14	118.785
1204.47	72.1602
1208.8	178.598
1213.13	119.299
1217.46	60.8711
1221.78	226.672
1226.1	242.043
1230.42	79.4961
1234.73	150.977
1239.04	317.103
1243.35	196.174
1247.66	158.514
1251.97	222.893
1256.27	148.699
1260.57	395.705
1264.86	472.92
1269.16	62.375
1273.45	275.424
1277.74	175.965
1282.03	235.6
1286.31	250.361
1290.59	194.164
1294.87	57.8965
1299.14	476.82
1303.42	18.1504
1307.69	116.449
1311.95	191.986
1316.22	280.094
1320.48	50.3379
1324.74	113.934
1329	305.228
1333.26	563.25
1337.51	317.002
1341.76	242.555
1346	205.125
1350.25	4.57812
1354.49	231.463
1358.73	256.184
1362.96	124.846
1367.2	253.818
1371.43	166.17
1375.66	208.242
1379.88	315.225
1384.11	98.8711
1388.33	209.742
1392.54	56.2227
1396.76	57.0645
1400.97	67.1309
1405.18	278.293
1409.39	82.2559
1413.59	148.373
1417.8	5.71289
1421.99	179.426
1426.19	216
1430.38	333.188
1434.58	301.016
1438.77	94.0801
1442.95	143.824
1447.13	93.8731
1451.32	217.881
1455.49	28.9688
1459.67	265.33
1463.84	629.699
1468.01	349.223
1472.18	328.938
1476.35	434.072
1480.51	28.8828
1484.67	279.16
1488.83	23.6992
1492.98	191.086
1497.13	305.147
1501.28	176.377
1505.43	287.324
1509.57	291.631
1513.71	243.103
1517.85	220.496
1521.99	289.361
1526.12	250.135
1530.25	258.195
1534.38	267.713
1538.5	340.965
1542.62	379.449
1546.74	365.914
1550.86	269.938
1554.98	369.685
1559.09	104.846
1563.2	363.59
1567.31	2.52148
1571.41	0
