Measurement: Raman, 514 nm, depolarized, Raman Data Processed
Mineral: Arfvedsonite
Rruff sample: R040127
Ideal chemistry: NaNa_2_(Fe^2+^_4_Fe^3+^)Si_8_O_22_(OH)_2_
Locality: Mont Saint-Hilaire, Rouville County, Quebec, Canada
Source: Bob Downs
Description: Black prismatic crystal associated with white analcime, R040128
Measured chemistry: (Na_0.61_K_0.39_)Na_2.00_(Fe^2+^_2.40_Mg_0.80_Mn_0.75_Ca_0.05_)_=4_(Fe^3+^_0.60_Al_0.25_Mn_0.15_)(Si_0.99_Ti_0.01_)_8_O_22_((OH)_0.67_F_0.33_)_2_
Pin_id: M00446
Orientation: Laser parallel to (-1 0 -1). Fiducial mark perpendicular to laser is parallel to -b [0 -1 0]
Raman shift (cm-1)	intensity
131.306	0
136.25	1865.14
141.19	6763.36
146.128	3894.38
151.063	1107.38
155.995	766.059
160.925	2867.99
165.851	5720.52
170.775	5270
175.695	2867.38
180.613	2573.31
185.528	4823.02
190.44	8633.12
195.35	12784
200.256	15118.5
205.16	11911.9
210.061	9920.65
214.959	9601.81
219.854	7092.12
224.747	5204.38
229.636	3990.04
234.523	3565.63
239.407	3367.02
244.288	3433.66
249.166	2752.95
254.042	2074.64
258.915	2167.46
263.784	508.516
268.651	466.773
273.516	371.543
278.377	647.93
283.236	829.398
288.092	331.84
292.945	237.262
297.795	1092.57
302.642	1814.83
307.487	2337.17
312.329	3140.36
317.168	3113.91
322.004	2875.24
326.838	2279.45
331.668	1749.39
336.496	1994.38
341.321	2859.77
346.144	4074.03
350.963	6289.15
355.78	7988.91
360.594	8790.22
365.405	8389.58
370.214	7344.62
375.019	7045.23
379.822	6484.3
384.622	5859.8
389.42	4999.68
394.215	4039.65
399.006	3372.71
403.795	3419.95
408.582	4060.77
413.365	4778.54
418.146	5417.66
422.924	5271.88
427.7	4198.86
432.472	2854.25
437.242	1714.04
442.009	835.992
446.774	123.137
451.535	154.238
456.294	11.6445
461.05	89.6562
465.804	287.043
470.554	323.277
475.302	10.6172
480.047	231.75
484.79	269.461
489.529	928.297
494.266	1487.44
499.001	3177.53
503.732	3217.62
508.461	3924.36
513.187	4908.14
517.911	6096.83
522.631	8077.46
527.349	10771
532.065	13863.9
536.777	15748.1
541.487	14581.5
546.194	12527.8
550.898	10830.3
555.6	9259.22
560.299	8464.59
564.995	8082.68
569.689	7885.88
574.38	7097.88
579.068	5642.76
583.754	3260.66
588.437	1835.62
593.117	938.805
597.794	377.91
602.469	63.4688
607.141	80.2266
611.81	68.6992
616.477	203.246
621.141	110.231
625.802	121.555
630.461	215.727
635.117	547.035
639.77	741.738
644.421	1380.73
649.069	1592.09
653.714	2863.68
658.357	4517.62
662.997	7767.68
667.634	13432.6
672.269	20005.5
676.901	21556.7
681.53	15233
686.157	8338.38
690.781	5113.27
695.402	4019.79
700.021	3816.44
704.637	3478.79
709.251	3312.82
713.861	3013.44
718.469	2942.7
723.075	2886.59
727.678	2763.23
732.278	2678.23
736.876	2796.38
741.47	3120.65
746.063	1776.48
750.652	1186.33
755.239	947.824
759.824	1028.02
764.406	1037.64
768.985	867.262
773.561	857.473
778.135	766.66
782.706	710.859
787.275	824.09
791.841	409.394
796.404	448.793
800.965	432.32
805.523	6.03906
810.079	56.5156
814.632	346.34
819.182	291.75
823.73	363.652
828.275	594.633
832.818	339.848
837.358	177.383
841.895	60.8711
846.43	159.488
850.962	338.797
855.491	586.867
860.018	1138.75
864.543	1708.52
869.064	2549.22
873.583	3761.14
878.1	4547.67
882.614	5329.63
887.125	5659
891.634	6611.94
896.14	5872.69
900.644	5911.11
905.145	5961.04
909.644	5773.4
914.14	5802.27
918.633	5330.88
923.124	5164.41
927.612	4605.83
932.098	4640.61
936.581	4800.51
941.061	5078.35
945.539	5722.77
950.015	6451.3
954.487	7203.6
958.958	7627.32
963.425	9069.56
967.89	10696.8
972.353	12554.2
976.813	13553.8
981.271	13117.2
985.726	11364.2
990.178	9550.11
994.628	7675.8
999.075	6752.27
1003.52	6230.65
1007.96	6036.88
1012.4	6116.07
1016.84	5767.09
1021.27	6340.78
1025.71	5603.48
1030.13	5777.84
1034.56	5272.96
1038.99	5293.9
1043.41	5696.75
1047.83	5937.7
1052.24	6453.23
1056.66	6514.94
1061.07	7035.65
1065.48	7730.54
1069.89	7790.46
1074.29	7385.09
1078.69	7005.37
1083.09	6943.89
1087.49	6699.46
1091.88	7310.32
1096.28	7787.96
1100.66	8388.74
1105.05	8558.23
1109.43	8163.28
1113.82	7966.42
1118.2	7568
1122.57	7136.49
1126.95	6537.04
1131.32	6040.18
1135.69	5550.05
1140.05	4853.85
1144.42	4475.21
1148.78	3838.89
1153.14	2796.25
1157.5	1745.16
1161.85	933.379
1166.2	260.586
1170.55	24.0391
1174.9	58.6953
1179.24	262.551
1183.58	86.2891
1187.92	202.465
1192.26	155.559
1196.6	198.734
1200.93	329.328
1205.26	28.5898
1209.58	122.832
1213.91	303.25
1218.23	193.594
1222.55	146.129
1226.87	127.875
1231.18	17.7031
1235.49	58.3047
1239.8	208.93
1244.11	166.387
1248.41	263.688
1252.72	347.898
1257.02	125.516
1261.32	91.5547
1265.61	328.332
1269.9	119.016
1274.19	445.121
1278.48	322.32
1282.77	391.488
1287.05	401.789
1291.33	450.836
1295.61	377.789
1299.88	408.227
1304.15	101.031
1308.42	243.82
1312.69	729.559
1316.96	533.91
1321.22	456.606
1325.48	390.398
1329.74	434.695
1334	439.426
1338.25	635.5
1342.5	475.289
1346.75	315.965
1351	310.102
1355.24	218.922
1359.48	621.473
1363.72	492.348
1367.96	749.859
1372.19	223.688
1376.42	354.504
1380.65	968.598
1384.88	526.875
1389.11	590.141
1393.33	506.731
1397.55	512.492
1401.76	483.109
1405.98	423.523
1410.19	167.231
1414.4	452.406
1418.61	521.199
1422.82	607.504
1427.02	168.66
1431.22	591.918
1435.42	263.977
1439.61	368.758
1443.81	368.898
1448	42.9297
1452.18	36.7969
1456.37	406.879
1460.56	494.609
1464.74	361.051
1468.92	19.4414
1473.09	227.949
1477.27	20.3086
1481.44	27.4336
1485.61	26.9258
1489.78	332.809
1493.94	315.715
1498.1	358.957
1502.26	399.856
1506.42	199.234
1510.58	279.066
1514.73	469.133
1518.88	346.426
1523.03	435.566
1527.17	368.59
1531.32	132.809
1535.46	361.754
1539.6	426.098
1543.73	344.734
1547.87	67.5898
1552	329.676
1556.13	373.387
1560.26	438.852
1564.38	11.293
1568.5	223.312
