Measurement: Raman, 514 nm, depolarized, Raman Data Processed
Mineral: Arfvedsonite
Rruff sample: R040127
Ideal chemistry: NaNa_2_(Fe^2+^_4_Fe^3+^)Si_8_O_22_(OH)_2_
Locality: Mont Saint-Hilaire, Rouville County, Quebec, Canada
Source: Bob Downs
Description: Black prismatic crystal associated with white analcime, R040128
Measured chemistry: (Na_0.61_K_0.39_)Na_2.00_(Fe^2+^_2.40_Mg_0.80_Mn_0.75_Ca_0.05_)_=4_(Fe^3+^_0.60_Al_0.25_Mn_0.15_)(Si_0.99_Ti_0.01_)_8_O_22_((OH)_0.67_F_0.33_)_2_
Pin_id: M00386
Orientation: Laser parallel to -c* (0 0 -1). Fiducial mark perpendicular to laser is parallel to -a [-1 0 0]
Raman shift (cm-1)	intensity
154.762	0
159.692	490.5
164.62	810.006
169.544	506.891
174.465	95.9023
179.384	46.8027
184.3	500.769
189.213	1038.25
194.123	1899.16
199.03	2254.98
203.934	2825.76
208.836	2973.2
213.735	2957.99
218.631	2394.53
223.524	2100.93
228.414	1647.57
233.302	1893.86
238.186	1899.43
243.068	1992.79
247.947	1795.68
252.823	1668.13
257.697	1288.88
262.567	1025.89
267.435	734.082
272.3	417.432
277.162	134.885
282.021	148.471
286.878	127.406
291.732	138.932
296.583	228.096
301.431	691.412
306.276	1001.69
311.119	1541.63
315.958	1813.49
320.795	1474.34
325.629	894.312
330.461	614.133
335.289	366.676
340.115	650.123
344.938	302.199
349.759	783.512
354.576	896.969
359.391	1029.54
364.203	932.082
369.012	623.051
373.818	999.934
378.622	1029.85
383.423	716.775
388.221	796.652
393.016	691.467
397.809	519.193
402.598	404.828
407.386	604.359
412.17	799.785
416.951	1153.09
421.73	1071.28
426.506	896.269
431.279	852.053
436.05	453.578
440.818	390.324
445.583	109.393
450.345	122.434
455.105	43.7637
459.861	163.961
464.615	28.6016
469.367	175.277
474.115	188.988
478.861	33.7773
483.604	324.422
488.345	492.379
493.082	599.82
497.817	964.543
502.55	1098.99
507.279	1201.16
512.006	1297
516.73	1340.54
521.451	1909.77
526.17	2784.72
530.886	3355.38
535.599	3889.75
540.31	3594.84
545.017	3139.7
549.723	2479.56
554.425	2101.22
559.125	1919.59
563.822	1672.98
568.516	1998.09
573.207	1973.52
577.896	1547.47
582.583	932.094
587.266	535.613
591.947	458.398
596.625	43.6367
601.3	375.238
605.973	178.176
610.643	6.73828
615.311	70.9531
619.975	40.9141
624.637	142.731
629.297	253.656
633.953	363.453
638.607	499.586
643.259	784.043
647.907	525.789
652.553	1006.38
657.197	1437.17
661.837	1974.01
666.475	3379.3
671.111	5357.2
675.743	6073.02
680.373	4038.04
685.001	2118.21
689.625	1346.94
694.247	1016.2
698.867	830.812
703.483	502.691
708.097	836.051
712.709	473.269
717.318	329.918
721.924	285.723
726.527	480.992
731.128	266.906
735.726	572.078
740.322	375.34
744.915	285.93
749.505	132.07
754.093	213.621
758.678	400.543
763.26	272.516
767.84	103.672
772.417	2.46094
776.992	362.5
781.564	172.555
786.133	488.668
790.7	368.879
795.264	296.215
799.825	262.543
804.384	13.0938
808.94	108.246
813.494	70.582
818.045	427.848
822.593	145.106
827.139	175.074
831.682	57.4531
836.223	181.519
840.761	134.668
845.296	186.59
849.829	482.426
854.359	47.957
858.887	107.418
863.412	219.125
867.934	158.867
872.454	396.231
876.971	121.891
881.486	93.4961
885.998	229.688
890.507	493.996
895.014	353.008
899.518	549.523
904.02	809.609
908.519	713.699
913.016	897.457
917.51	484.914
922.001	796.297
926.49	868.301
930.976	675.012
935.46	662.969
939.941	985.141
944.42	1000.08
948.896	1033.84
953.369	1116.08
957.84	1493.5
962.309	1898.56
966.774	2544.22
971.238	2981.56
975.698	3077.16
980.156	2879.42
984.612	2294.27
989.065	1808.55
993.516	1242.45
997.964	905
1002.41	854.559
1006.85	325.289
1011.29	546.719
1015.73	297.938
1020.16	495.16
1024.6	387.644
1029.03	392.438
1033.46	362.75
1037.88	682.481
1042.3	748.144
1046.72	680.172
1051.14	1000.7
1055.56	1076.81
1059.97	1464.36
1064.38	1444.56
1068.79	1923.59
1073.19	1655.63
1077.59	1366.86
1081.99	1395.9
1086.39	1489.59
1090.79	1555.55
1095.18	1773.02
1099.57	2102.85
1103.95	1857.32
1108.34	1685.17
1112.72	2056.18
1117.1	2003.22
1121.48	2216.29
1125.85	2133.36
1130.23	1881.46
1134.6	1756.71
1138.96	1700.1
1143.33	1054.57
1147.69	1130.08
1152.05	813.926
1156.41	662.289
1160.76	259.551
1165.11	226.516
1169.46	28.6914
1173.81	48.5234
1178.16	68.1328
1182.5	145.773
1186.84	196.477
1191.18	3.69922
1195.51	203.617
1199.84	127.441
1204.17	307.844
1208.5	255.059
1212.83	227.168
1217.15	335.184
1221.47	76.1133
1225.79	266.941
1230.1	417.629
1234.41	266.188
1238.73	222.668
1243.03	267.078
1247.34	619.434
1251.64	395.723
1255.94	372.973
1260.24	385.254
1264.54	370.582
1268.83	323.879
1273.12	298.051
1277.41	498.926
1281.69	282.434
1285.98	343.59
1290.26	379.606
1294.54	791.519
1298.81	674.488
1303.09	997.551
1307.36	836.371
1311.63	928.656
1315.89	645.086
1320.16	783.293
1324.42	779.246
1328.68	863.125
1332.93	846.07
1337.19	749.965
1341.44	883.207
1345.69	883.047
1349.94	1052.91
1354.18	807.203
1358.42	848.254
1362.66	1208.29
1366.9	713.758
1371.13	855.746
1375.37	776.238
1379.6	724.394
1383.82	602.445
1388.05	412.727
1392.27	510.59
1396.49	548.523
1400.71	498.672
1404.92	539.176
1409.14	378.555
1413.35	458.019
1417.56	445.242
1421.76	232.914
1425.97	579.906
1430.17	486.965
1434.37	55.5039
1438.56	495.539
1442.76	257.203
1446.95	12.3867
1451.14	447.965
1455.33	332.691
1459.51	195.324
1463.69	26.418
1467.87	409.883
1472.05	315.223
1476.22	393.184
1480.4	353.824
1484.57	433.41
1488.73	425.41
1492.9	88.7305
1497.06	165.062
1501.22	287.156
1505.38	577.648
1509.54	485.254
1513.69	374.547
1517.84	291.324
