Measurement: Raman, 514 nm, depolarized, Raman Data Processed
Mineral: Arfvedsonite
Rruff sample: R040127
Ideal chemistry: NaNa_2_(Fe^2+^_4_Fe^3+^)Si_8_O_22_(OH)_2_
Locality: Mont Saint-Hilaire, Rouville County, Quebec, Canada
Source: Bob Downs
Description: Black prismatic crystal associated with white analcime, R040128
Measured chemistry: (Na_0.61_K_0.39_)Na_2.00_(Fe^2+^_2.40_Mg_0.80_Mn_0.75_Ca_0.05_)_=4_(Fe^3+^_0.60_Al_0.25_Mn_0.15_)(Si_0.99_Ti_0.01_)_8_O_22_((OH)_0.67_F_0.33_)_2_
Pin_id: L01975
Orientation: Laser parallel to b* (0 1 0). Fiducial mark perpendicular to laser is parallel to c [0 0 1]
Raman shift (cm-1)	intensity
180.613	0
185.528	964.615
190.44	5168.87
195.35	9520.25
200.256	12120.9
205.16	8179.34
210.061	2931.95
214.959	3269.38
219.854	1987.1
224.747	1263.59
229.636	1478.62
234.523	2484.46
239.407	3170.22
244.288	3308.95
249.166	3046.79
254.042	2673.28
258.915	2094.5
263.784	1248.84
268.651	857.481
273.516	188.308
278.377	64.499
283.236	370.975
288.092	324.819
292.945	25.2305
297.795	636.707
302.642	1188.71
307.487	2728.34
312.329	3847.09
317.168	4443.32
322.004	3702.85
326.838	2465.21
331.668	1569.91
336.496	1437.12
341.321	1837.4
346.144	2641.62
350.963	3964.22
355.78	4650.9
360.594	4763.88
365.405	4186.66
370.214	3547.52
375.019	2997.23
379.822	2721.1
384.622	2526
389.42	2329.53
394.215	1816.36
399.006	1509.39
403.795	1311.53
408.582	1646.97
413.365	2194.88
418.146	2661.35
422.924	2412.58
427.7	1840.94
432.472	1018.3
437.242	377.008
442.009	4.92773
446.774	26.4795
451.535	141.912
456.294	1.04688
461.05	151.21
465.804	318.171
470.554	587.062
475.302	692.026
480.047	705.642
484.79	946.202
489.529	1072.3
494.266	1491.49
499.001	2089.82
503.732	2833.65
508.461	3452.76
513.187	3743.2
517.911	4277.07
522.631	5455.56
527.349	7248.94
532.065	10205.8
536.777	12220.6
541.487	11588.3
546.194	9877.62
550.898	8188.31
555.6	6978.4
560.299	6164.97
564.995	5930.21
569.689	5815.06
574.38	5622.98
579.068	4559.1
583.754	2286.81
588.437	1111.87
593.117	470.494
597.794	45.541
602.469	561.811
607.141	200.468
611.81	157.301
616.477	145.134
621.141	55.9658
625.802	2.47656
630.461	184.349
635.117	415.92
639.77	824.535
644.421	1057.28
649.069	1141.17
653.714	1707.23
658.357	2965.25
662.997	4041.35
667.634	7267.53
672.269	12430.4
676.901	15901.6
681.53	10563.5
686.157	5570.58
690.781	3645.56
695.402	3003.2
700.021	2928.1
704.637	2612.82
709.251	2756.55
713.861	2765.57
718.469	2673.58
723.075	2781.63
727.678	2616.89
732.278	2267.83
736.876	2066.49
741.47	1849.37
746.063	1678.86
750.652	1636.42
755.239	1435.3
759.824	901.848
764.406	765.977
768.985	813.488
773.561	720.271
778.135	502.095
782.706	646.208
787.275	568.563
791.841	655.186
796.404	574.106
800.965	487.356
805.523	448.964
810.079	207.949
814.632	120.766
819.182	201.402
823.73	427.22
828.275	270.749
832.818	168.144
837.358	227.664
841.895	63.3037
846.43	143.863
850.962	338.851
855.491	278.509
860.018	290.046
864.543	597.504
869.064	897.923
873.583	1381.43
878.1	2047.11
882.614	2262.26
887.125	2853.83
891.634	2951.29
896.14	3080.75
900.644	3266.07
905.145	3353.89
909.644	3757.14
914.14	3814.79
918.633	3828.91
923.124	3923.67
927.612	3584.68
932.098	3703.55
936.581	3750.26
941.061	4003.81
945.539	4529.11
950.015	5376.95
954.487	6141.84
958.958	6884.71
963.425	8011.22
967.89	9785.47
972.353	12370
976.813	14076
981.271	14205.8
985.726	12257
990.178	10052.2
994.628	8510.83
999.075	6997.42
1003.52	5765.6
1007.96	4369.45
1012.4	4027.35
1016.84	3563.61
1021.27	3292.19
1025.71	2899.16
1030.13	2707.49
1034.56	2597.11
1038.99	2856.08
1043.41	3084.49
1047.83	3154.62
1052.24	3655.58
1056.66	3811
1061.07	4256.59
1065.48	4672.5
1069.89	5251.73
1074.29	4881.39
1078.69	4638.7
1083.09	4365.47
1087.49	4432.04
1091.88	3943.39
1096.28	4401.4
1100.66	4603.26
1105.05	4743.3
1109.43	4767.49
1113.82	4787.14
1118.2	4834.44
1122.57	4750.27
1126.95	4443.78
1131.32	3899.2
1135.69	3650.64
1140.05	3436.47
1144.42	3010.79
1148.78	2568.12
1153.14	2013.79
1157.5	1369.85
1161.85	682.851
1166.2	246.703
1170.55	197.609
1174.9	21.4648
1179.24	24.0635
1183.58	32.9482
1187.92	49.0537
1192.26	81.9981
1196.6	39.5254
1200.93	94.8428
1205.26	163.574
1209.58	109.419
1213.91	44.1914
1218.23	83.0703
1222.55	139.312
1226.87	100.725
1231.18	59.3828
1235.49	158.052
1239.8	44.4863
1244.11	108.872
1248.41	114.349
1252.72	256.644
1257.02	188.493
1261.32	261.5
1265.61	156.477
1269.9	274.183
1274.19	98.374
1278.48	316.884
1282.77	151.106
1287.05	159.73
1291.33	206.535
1295.61	401.496
1299.88	230.85
1304.15	194.891
1308.42	279.292
1312.69	175.191
1316.96	233.348
1321.22	263.144
1325.48	419.113
1329.74	431.893
1334	475.316
1338.25	302.819
1342.5	424.409
1346.75	234.501
1351	286.532
1355.24	271.326
1359.48	210.119
1363.72	295.636
1367.96	295.766
1372.19	236.239
1376.42	194.886
1380.65	131.289
1384.88	108.503
1389.11	98.2227
1393.33	273.07
1397.55	196.071
1401.76	359.256
1405.98	273.213
1410.19	155.724
1414.4	155.696
1418.61	107.254
1422.82	122.103
1427.02	89.8877
1431.22	199.439
1435.42	224.946
1439.61	252.416
1443.81	102.376
1448	274.914
1452.18	132.686
1456.37	82.6055
1460.56	289.118
1464.74	41.8086
1468.92	118.686
1473.09	175.358
1477.27	225.566
1481.44	88.6045
1485.61	130.709
1489.78	115.392
1493.94	237.503
1498.1	149.666
1502.26	203.831
1506.42	81.8916
1510.58	184.283
1514.73	5.53711
1518.88	200.292
1523.03	22.1963
1527.17	20.1953
1531.32	58.5967
1535.46	246.4
1539.6	69.6728
1543.73	28.1387
1547.87	111.055
1552	6.75098
1556.13	26.5781
1560.26	192.231
