Measurement: Raman, 514 nm, depolarized, Raman Data Processed
Mineral: Arsenopyrite
Rruff sample: R050071
Ideal chemistry: Fe^3+^(AsS)^3-^
Locality: Yaogangxian mine, Yizhang County, Hunan Province, China
Source: Rock Currier
Description: Steel-gray tabular
Measured chemistry: FeAsS
Pin_id: L00187
Orientation: Laser parallel to a* (1 0 0). Fiducial mark perpendicular to laser is parallel to b [0 1 0]
Raman shift (cm-1)	intensity
71.241	0
76.187	19832.6
81.131	5292.48
86.072	274.894
91.012	967.473
95.948	625.074
100.883	0.960938
105.815	5677.82
110.744	12453.1
115.671	25612.6
120.596	20109.7
125.519	827.055
130.439	138.031
135.356	137.035
140.271	488.508
145.184	150.609
150.094	510.727
155.002	822.607
159.908	1081.63
164.811	1151.82
169.711	806.867
174.61	784.383
179.505	521.84
184.399	497.102
189.29	734.701
194.178	1362.01
199.064	1638.71
203.948	1203.69
208.829	201.791
213.708	395.035
218.585	85.5606
223.459	158.486
228.33	5.2832
233.199	156.32
238.066	75.543
242.93	82.2266
247.792	195.297
252.651	337.019
257.508	1478.32
262.363	2047.99
267.215	1636.05
272.064	837.949
276.912	955.805
281.756	733.146
286.598	725.545
291.438	574.356
296.276	630.746
301.111	804.691
305.943	833.891
310.773	1071.97
315.601	891.324
320.426	1011.24
325.248	990.082
330.068	1024.94
334.886	1204.75
339.701	904.035
344.514	1157.84
349.324	1154.21
354.132	957.172
358.938	1264.17
363.741	701.762
368.541	726.719
373.339	808.496
378.135	717.207
382.928	448.004
387.718	449.719
392.506	298.707
397.292	467.41
402.075	580.488
406.856	314.078
411.634	800.227
416.41	425.031
421.183	570.777
425.954	620.609
430.722	526.769
435.488	717.078
440.251	662.981
445.012	690.809
449.77	807.703
454.526	666.746
459.28	624.25
464.03	867.203
468.779	676.699
473.525	700.82
478.268	940.519
483.009	970.762
487.747	868.551
492.483	818.977
497.217	932.297
501.948	731.801
506.676	997.68
511.402	889.781
516.125	1126.68
520.846	1212.69
525.565	1034.98
530.281	1002.56
534.994	993.613
539.705	1205.43
544.413	1252.87
549.119	1276.92
553.822	1292.91
558.523	1368.9
563.222	1481.85
567.917	1308.38
572.611	1339.43
577.302	963.234
581.99	533.281
586.676	486.422
591.359	397.453
596.04	218.285
600.718	665.215
605.394	478.934
610.067	448.438
614.737	269.555
619.406	269.051
624.071	357.883
628.734	422.066
633.395	254.91
638.053	244.379
642.708	191.445
647.361	102.074
652.012	653.285
656.66	112.121
661.305	192.094
665.948	53.4453
670.588	302.434
675.226	108.594
679.861	43.5273
684.494	93.0977
689.124	35.1211
693.752	0.480469
698.377	44.1055
702.999	52.6523
707.619	102.519
712.237	82.7227
716.852	21.0391
721.464	33.9688
726.074	125.785
730.681	306.984
735.286	212.863
739.888	184.07
744.488	181.973
749.085	293.301
753.68	195.859
758.272	263.266
762.861	337.703
767.448	192.066
772.033	138.281
776.614	279.457
781.194	215.531
785.77	19.4688
790.345	297.965
794.916	357.762
799.485	221.391
804.052	404.891
808.616	268.926
813.177	196.34
817.736	56.6602
822.292	122.805
826.846	211.594
831.397	292.586
835.945	181.641
840.491	174.328
845.035	167.719
849.576	129.488
854.114	394.043
858.65	200.148
863.183	50.0859
867.713	59.8594
872.241	130.191
876.767	321.461
881.29	202.168
885.81	246.836
890.328	340.656
894.843	176.535
899.356	77.4219
903.866	90.418
908.373	205.516
912.878	303.762
917.38	313.144
921.88	361.902
926.377	468.344
930.872	402.066
935.364	753.262
939.853	363.723
944.34	367.121
948.824	308.211
953.306	311.406
957.785	691.281
962.261	547.152
966.735	1039.36
971.207	338.875
975.675	689.406
980.141	1017.48
984.605	441.356
989.066	640.188
993.524	1086.91
997.98	882.336
1002.43	964.711
1006.88	988.664
1011.33	1001.43
1015.78	995.641
1020.22	885.902
1024.66	925.359
1029.1	956.426
1033.53	976.906
1037.97	985.914
1042.4	1237.44
1046.82	990.68
1051.25	1344.39
1055.67	1267.69
1060.09	1416.8
1064.51	1120.25
1068.92	1179.8
1073.33	1309.83
1077.74	1206.42
1082.15	1293.84
1086.55	1079.59
1090.95	1015.41
1095.35	947.461
1099.75	1018.85
1104.14	1061.15
1108.53	927.938
1112.92	874.195
1117.31	1192.83
1121.69	1413.01
1126.07	1182.32
1130.45	638.926
1134.82	790.656
1139.19	388.402
1143.57	659.875
1147.93	434.758
1152.3	406.168
1156.66	576.941
1161.02	234.133
1165.38	220.723
1169.73	346.672
1174.08	15.0352
1178.43	333.348
1182.78	427.352
1187.12	88.7383
1191.46	29.5742
1195.8	32.625
1200.14	184.551
1204.47	25.9453
1208.8	16.4141
1213.13	138.172
1217.46	111.875
1221.78	19.1758
1226.1	212.93
1230.42	209.008
1234.73	139.879
1239.04	160.137
1243.35	1.63281
1247.66	18.6641
1251.97	201.144
1256.27	289.969
1260.57	76.7188
1264.86	267.434
1269.16	218.414
1273.45	144.125
1277.74	96.1914
1282.03	185.906
1286.31	105.996
1290.59	220.336
1294.87	263.582
1299.14	219.746
1303.42	218.731
1307.69	76.3242
1311.95	253.941
1316.22	343.816
1320.48	336.676
1324.74	521.707
1329	281.961
1333.26	302.871
1337.51	351.086
1341.76	543.785
1346	482.731
1350.25	326.039
1354.49	346.16
1358.73	333.695
1362.96	585.562
1367.2	494.938
1371.43	191.113
1375.66	253.625
1379.88	259.727
1384.11	698.926
1388.33	264.188
1392.54	328.578
1396.76	580.742
1400.97	433.301
1405.18	117.129
1409.39	12.4961
1413.59	335.285
1417.8	392.727
1421.99	413.418
1426.19	409.992
1430.38	323.695
1434.58	230.664
1438.77	328.867
1442.95	136.371
1447.13	405.445
1451.32	440.219
1455.49	502.246
1459.67	528.5
1463.84	326.18
1468.01	465.039
1472.18	101.227
1476.35	620.785
1480.51	590.324
1484.67	413.934
1488.83	143.359
1492.98	265.758
1497.13	550.441
1501.28	397.992
1505.43	339.016
1509.57	304.348
1513.71	135.992
1517.85	211.82
1521.99	287.859
1526.12	312.219
1530.25	201.981
1534.38	48.207
1538.5	202.75
1542.62	330.312
1546.74	0
