Measurement: Raman, 514 nm, depolarized, Raman Data Processed
Mineral: Arsenopyrite
Rruff sample: R050071
Ideal chemistry: Fe^3+^(AsS)^3-^
Locality: Yaogangxian mine, Yizhang County, Hunan Province, China
Source: Rock Currier
Description: Steel-gray tabular
Measured chemistry: FeAsS
Pin_id: L00055
Orientation: Laser parallel to b* (0 1 0). Fiducial mark perpendicular to laser is parallel to c [0 0 1]
Raman shift (cm-1)	intensity
72.477	0
77.423	19799.9
82.367	2003.2
87.308	167.898
92.246	1178.61
97.182	60.8047
102.116	386.371
107.047	8927.47
111.976	13313
116.903	29782.8
121.827	13285.2
126.749	286.912
131.668	353.746
136.585	426.377
141.5	234.815
146.412	148.478
151.321	876.926
156.229	904.377
161.134	1388.55
166.036	834.668
170.936	910.416
175.834	738.414
180.729	486.951
185.622	331.697
190.512	1365.92
195.4	1345.42
200.286	1298.19
205.169	364.986
210.049	223.469
214.928	14.5059
219.803	159.051
224.677	134.522
229.548	256.869
234.416	163.959
239.282	135.789
244.146	134.5
249.007	86.791
253.866	206.06
258.722	3368.83
263.576	1305.31
268.427	1494.62
273.276	1545.87
278.123	535.109
282.967	428.861
287.809	241.969
292.648	501.217
297.485	601.25
302.319	566.809
307.151	524.871
311.98	648.481
316.807	829.793
321.631	725.062
326.454	779.512
331.273	803.223
336.09	725.898
340.905	803.621
345.717	568.121
350.527	996.418
355.334	788.769
360.139	866.438
364.941	547.383
369.741	722.785
374.538	550.711
379.333	437.602
384.126	230.465
388.916	430.789
393.703	454.84
398.488	238.731
403.271	474.762
408.051	308.902
412.828	609.016
417.603	391.129
422.376	359.984
427.146	569.648
431.914	473.152
436.679	412.519
441.442	423.074
446.202	672.625
450.96	660.816
455.715	459.551
460.467	653.938
465.218	282.977
469.965	632.734
474.711	626.324
479.454	543.699
484.194	769.719
488.932	823.422
493.667	608.922
498.4	777.699
503.13	744.289
507.858	815.269
512.583	587.207
517.306	1101.86
522.026	1067.64
526.744	937.516
531.459	887.805
536.172	998.648
540.882	1053.05
545.59	1093.49
550.295	1204.68
554.998	956.644
559.698	1319.54
564.396	1126.76
569.091	1251.84
573.784	885.188
578.474	1000.98
583.162	600.34
587.847	348.527
592.529	585.504
597.209	222.215
601.887	385.691
606.562	66.9219
611.235	260.902
615.905	603.602
620.572	382.957
625.237	288.973
629.9	40.5586
634.56	254.828
639.217	298.414
643.872	343.031
648.524	577.785
653.174	92.9141
657.821	26.7031
662.466	120.953
667.108	213.086
671.748	78.875
676.385	32.5
681.02	315.648
685.652	249.316
690.281	60.332
694.908	106.172
699.533	85.3438
704.155	114.199
708.774	25.7188
713.391	76.2695
718.005	11.4688
722.617	162.844
727.226	139.328
731.833	55.5859
736.437	353.488
741.039	113.715
745.638	185.703
750.234	227.188
754.828	193.324
759.419	264.41
764.008	122.426
768.595	322.352
773.178	62.9844
777.759	198.441
782.338	216.793
786.914	126.949
791.488	82.3555
796.059	214.5
800.627	366.918
805.193	166.898
809.756	99.9453
814.317	157.918
818.875	219.441
823.431	23.2539
827.984	267.875
832.534	178.957
837.082	191.109
841.627	194.731
846.17	106.391
850.71	217.617
855.248	62.9883
859.783	150.059
864.316	25.2109
868.846	54.5
873.373	157.812
877.898	47.8789
882.42	60.6211
886.94	733.586
891.457	252.875
895.971	420.254
900.483	390.734
904.993	192.402
909.5	217.434
914.004	129.309
918.505	221.164
923.004	548.598
927.501	347.832
931.995	377.082
936.486	346.996
940.975	590.656
945.461	739.977
949.945	517.609
954.426	368.984
958.904	524.766
963.38	797.953
967.853	387.129
972.324	539.148
976.792	661.992
981.258	539.106
985.72	727.652
990.181	553.523
994.639	688.91
999.094	717.102
1003.55	921.801
1008	528.297
1012.44	754.215
1016.89	781.18
1021.33	717.027
1025.77	930.504
1030.21	626.492
1034.64	829.016
1039.07	801.078
1043.5	927.793
1047.93	823.019
1052.35	891.758
1056.78	1099.08
1061.19	961.043
1065.61	1043.54
1070.02	1020.05
1074.43	1212.01
1078.84	985.555
1083.25	1075.25
1087.65	827.945
1092.05	1021.85
1096.45	965.066
1100.85	804.75
1105.24	780.445
1109.63	720.477
1114.02	625.231
1118.4	901.465
1122.78	1174.86
1127.16	1316.23
1131.54	550.168
1135.92	615.32
1140.29	393.961
1144.66	400.934
1149.02	681.16
1153.39	388.777
1157.75	450.129
1162.11	405.742
1166.46	309.371
1170.82	270.152
1175.17	243.312
1179.52	102.703
1183.86	39.3086
1188.21	254.113
1192.55	293.113
1196.89	175.285
1201.22	140.606
1205.55	14.8984
1209.88	346.481
1214.21	17.207
1218.54	289.203
1222.86	24.6172
1227.18	15.0352
1231.5	198.57
1235.81	295.277
1240.12	344.516
1244.43	91.9297
1248.74	89.625
1253.04	182.481
1257.34	294.445
1261.64	289.621
1265.94	165.512
1270.23	83.332
1274.52	99.8906
1278.81	4.9375
1283.1	243.766
1287.38	315.754
1291.66	195.598
1295.94	410.543
1300.21	157.34
1304.48	134.207
1308.75	241.512
1313.02	109.848
1317.29	318.547
1321.55	332.551
1325.81	460.684
1330.06	262.457
1334.32	573.648
1338.57	396.938
1342.82	274.199
1347.06	249.336
1351.31	114.383
1355.55	99.4648
1359.79	436.598
1364.02	192.609
1368.26	161.992
1372.49	309.637
1376.71	181.418
1380.94	214.531
1385.16	161.527
1389.38	166.367
1393.6	415.254
1397.81	90.3164
1402.02	329.938
1406.23	150.902
1410.44	491.184
1414.64	205.394
1418.85	118.344
1423.04	185.328
1427.24	297.367
1431.43	131.137
1435.62	92.6211
1439.81	208.734
1444	498.926
1448.18	84.0469
1452.36	355.066
1456.54	92.4414
1460.71	507.418
1464.89	267.769
1469.06	233.894
1473.22	288.356
1477.39	189.426
1481.55	43.8906
1485.71	154.074
1489.86	379.172
1494.02	278.66
1498.17	297.32
1502.32	164.281
1506.46	54.5547
1510.61	383.172
1514.75	397.887
1518.88	277.426
1523.02	278.031
1527.15	404.668
1531.28	469.574
1535.41	31.2109
1539.53	449.477
1543.66	24.6719
