Measurement: Raman, 514 nm, depolarized, Raman Data Processed
Mineral: Arsenopyrite
Rruff sample: R050071
Ideal chemistry: Fe^3+^(AsS)^3-^
Locality: Yaogangxian mine, Yizhang County, Hunan Province, China
Source: Rock Currier
Description: Steel-gray tabular
Measured chemistry: FeAsS
Pin_id: L00167
Orientation: Laser parallel to (1 0 1). Fiducial mark perpendicular to laser is parallel to b [0 1 0]
Raman shift (cm-1)	intensity
72.477	0
77.423	14366.6
82.367	3797.75
87.308	253.062
92.246	639.231
97.182	116.93
102.116	89.2129
107.047	4960.52
111.976	8049.58
116.903	21364.4
121.827	20439
126.749	485.022
131.668	67.1289
136.585	190.707
141.5	237.738
146.412	9.16016
151.321	148.059
156.229	428.764
161.134	1055.19
166.036	1190.8
170.936	569.43
175.834	768.729
180.729	378.133
185.622	512.471
190.512	941.408
195.4	1345.34
200.286	1357.15
205.169	573.846
210.049	77.5391
214.928	330.574
219.803	80.0215
224.677	36.2168
229.548	70.4961
234.416	68.8086
239.282	142.84
244.146	166.984
249.007	166.318
253.866	187.059
258.722	2056.21
263.576	863.688
268.427	1299.29
273.276	507.326
278.123	678.061
282.967	589.754
287.809	663
292.648	530.279
297.485	493.223
302.319	996.807
307.151	695.947
311.98	682.314
316.807	792.953
321.631	818.037
326.454	1001.53
331.273	1112.36
336.09	958.65
340.905	751.484
345.717	1120.89
350.527	978.9
355.334	1029.16
360.139	879.332
364.941	898.414
369.741	657.102
374.538	823.588
379.333	632.732
384.126	439.152
388.916	469.258
393.703	287.916
398.488	334.66
403.271	481.893
408.051	672.49
412.828	551.715
417.603	612.32
422.376	468.541
427.146	516.473
431.914	577.326
436.679	564.957
441.442	712.945
446.202	556.385
450.96	866.764
455.715	541.451
460.467	575.551
465.218	811.029
469.965	808.064
474.711	751.481
479.454	501.812
484.194	949.564
488.932	894.281
493.667	853.455
498.4	1072.57
503.13	1201.03
507.858	838.644
512.583	944.803
517.306	1117
522.026	1017.41
526.744	1266.46
531.459	1042.22
536.172	918.369
540.882	1111.26
545.59	1135.08
550.295	1330.25
554.998	1242.91
559.698	965.076
564.396	1464.98
569.091	1366.86
573.784	993.533
578.474	701.598
583.162	657.867
587.847	323.043
592.529	128.879
597.209	314.856
601.887	313.168
606.562	440.609
611.235	281.195
615.905	331.414
620.572	240.297
625.237	423.215
629.9	29.3125
634.56	26
639.217	192.328
643.872	328.141
648.524	251.477
653.174	299.152
657.821	181.926
662.466	95.3906
667.108	185.16
671.748	3.875
676.385	145.875
681.02	151.133
685.652	246.231
690.281	82.2422
694.908	130.523
699.533	212.332
704.155	53.6172
708.774	46.0039
713.391	132.43
718.005	78.5156
722.617	14.5898
727.226	130.387
731.833	65.9141
736.437	445.137
741.039	4.05078
745.638	96.8086
750.234	131.328
754.828	407.656
759.419	97.1562
764.008	144.695
768.595	199.219
773.178	60.7344
777.759	131.234
782.338	127.711
786.914	104.156
791.488	219.527
796.059	136.602
800.627	237.301
805.193	267.391
809.756	81.4805
814.317	170.473
818.875	98
823.431	4.54688
827.984	176.762
832.534	30.1602
837.082	274.211
841.627	229.098
846.17	314.375
850.71	290.398
855.248	122.328
859.783	114.894
864.316	19.668
868.846	90.3047
873.373	231.418
877.898	100.769
882.42	306.016
886.94	17.2852
891.457	78.5117
895.971	150.246
900.483	38.7344
904.993	180.773
909.5	247.894
914.004	336.258
918.505	48.7891
923.004	221.508
927.501	444.586
931.995	398.223
936.486	318.617
940.975	408.195
945.461	452.426
949.945	473.066
954.426	328.027
958.904	242.047
963.38	407.016
967.853	356.949
972.324	568.086
976.792	534.586
981.258	452.289
985.72	615.031
990.181	696.863
994.639	655.227
999.094	702.922
1003.55	455.656
1008	533.125
1012.44	915.312
1016.89	783.09
1021.33	498.625
1025.77	770.484
1030.21	446.387
1034.64	827.484
1039.07	830.719
1043.5	670.551
1047.93	719.738
1052.35	948.406
1056.78	1046.85
1061.19	1134.97
1065.61	1091.46
1070.02	706.602
1074.43	1183.53
1078.84	824.633
1083.25	855.293
1087.65	1051.27
1092.05	969.312
1096.45	840.629
1100.85	816.551
1105.24	909.719
1109.63	702.902
1114.02	786.227
1118.4	773.18
1122.78	748.883
1127.16	590.754
1131.54	475.137
1135.92	554.012
1140.29	327.375
1144.66	429.102
1149.02	562.188
1153.39	517.211
1157.75	350.082
1162.11	180.32
1166.46	359.848
1170.82	280.644
1175.17	100.918
1179.52	96.8086
1183.86	87.6055
1188.21	19.0508
1192.55	345.156
1196.89	171.629
1201.22	37.3047
1205.55	140.164
1209.88	40.2031
1214.21	133.019
1218.54	41.1328
1222.86	173.504
1227.18	71.2031
1231.5	159.941
1235.81	30.5039
1240.12	383.227
1244.43	127.481
1248.74	148.258
1253.04	155.801
1257.34	185.547
1261.64	210.219
1265.94	113.141
1270.23	301.859
1274.52	260.758
1278.81	42.4609
1283.1	269.133
1287.38	255.691
1291.66	305.172
1295.94	10.6094
1300.21	217.234
1304.48	153.738
1308.75	366.832
1313.02	55.8359
1317.29	8.84375
1321.55	173.785
1325.81	110.324
1330.06	111.699
1334.32	333.641
1338.57	440.809
1342.82	178.773
1347.06	504.152
1351.31	324.602
1355.55	365.141
1359.79	300.07
1364.02	23.9219
1368.26	265.797
1372.49	187.348
1376.71	160.883
1380.94	382.387
1385.16	143.758
1389.38	74.8203
1393.6	33.4805
1397.81	92.9062
1402.02	265.84
1406.23	265.078
1410.44	256.219
1414.64	270.078
1418.85	265.676
1423.04	410.703
1427.24	283.832
1431.43	400.844
1435.62	332.117
1439.81	212.5
1444	559.797
1448.18	430.457
1452.36	342.269
1456.54	402.106
1460.71	248.856
1464.89	328.059
1469.06	229.484
1473.22	246.117
1477.39	240.719
1481.55	488.031
1485.71	158.156
1489.86	189.312
1494.02	275.238
1498.17	388.152
1502.32	11.957
1506.46	208.871
1510.61	248.289
1514.75	378.902
1518.88	335.254
1523.02	274.539
1527.15	284.539
1531.28	63.9609
1535.41	225.949
1539.53	166.812
