Measurement: Raman, 514 nm, depolarized, Raman Data Processed
Mineral: Arsenopyrite
Rruff sample: R050071
Ideal chemistry: Fe^3+^(AsS)^3-^
Locality: Yaogangxian mine, Yizhang County, Hunan Province, China
Source: Rock Currier
Description: Steel-gray tabular
Measured chemistry: FeAsS
Pin_id: L00162
Orientation: Laser parallel to -c* (0 0 -1). Fiducial mark perpendicular to laser is parallel to -a [-1 0 0]
Raman shift (cm-1)	intensity
71.241	0
76.187	16008.7
81.131	3628.21
86.072	313.512
91.012	1513
95.948	1039.94
100.883	231.102
105.815	5577.91
110.744	13736.4
115.671	19096
120.596	12501.6
125.519	888.742
130.439	152.582
135.356	286.75
140.271	596.68
145.184	85.6836
150.094	123.047
155.002	595.269
159.908	600.551
164.811	738.723
169.711	879.805
174.61	630.168
179.505	551.723
184.399	813.203
189.29	1117.58
194.178	1681.29
199.064	1749.64
203.948	1542.5
208.829	226.938
213.708	268.027
218.585	365.078
223.459	70.0078
228.33	100.883
233.199	181.262
238.066	176.297
242.93	99.5898
247.792	127.871
252.651	529.586
257.508	1167.02
262.363	2137.55
267.215	1345.27
272.064	1053.65
276.912	842.473
281.756	952.68
286.598	887.324
291.438	1023.54
296.276	789.992
301.111	886.684
305.943	993.891
310.773	1271.54
315.601	1068.73
320.426	1159.36
325.248	1254.54
330.068	1256.59
334.886	1372.52
339.701	1184.38
344.514	1429.29
349.324	1369.27
354.132	1044.23
358.938	1239.9
363.741	842
368.541	723.168
373.339	679.039
378.135	633.336
382.928	456.5
387.718	623.102
392.506	481.176
397.292	730.613
402.075	424.191
406.856	389.84
411.634	1509.68
416.41	432.586
421.183	647.957
425.954	538.613
430.722	411.195
435.488	747.914
440.251	487.481
445.012	745.195
449.77	715.769
454.526	513.316
459.28	717.836
464.03	805.512
468.779	677.359
473.525	744.512
478.268	938.91
483.009	1035.59
487.747	1037.63
492.483	1002.97
497.217	1202.05
501.948	925.465
506.676	1306.16
511.402	1005.07
516.125	1243
520.846	1535.43
525.565	1314.53
530.281	1264.65
534.994	1201.95
539.705	1441.15
544.413	1355.57
549.119	1790.97
553.822	1587.77
558.523	1872.47
563.222	1863.92
567.917	1793.01
572.611	1701.53
577.302	1209.34
581.99	942.82
586.676	572.848
591.359	475.602
596.04	378.465
600.718	511.824
605.394	772.231
610.067	280.961
614.737	394.617
619.406	345.949
624.071	606.856
628.734	372.352
633.395	212.418
638.053	283.086
642.708	328.543
647.361	464.211
652.012	160.344
656.66	289.871
661.305	101.773
665.948	47.0781
670.588	64.2969
675.226	357.215
679.861	46.0547
684.494	143.992
689.124	268.102
693.752	85.4844
698.377	42.1836
702.999	40.9023
707.619	95.8125
712.237	99.4062
716.852	93.5195
721.464	60.0703
726.074	125.227
730.681	316.598
735.286	401.863
739.888	110.188
744.488	179.047
749.085	200.711
753.68	262.301
758.272	116.777
762.861	590.051
767.448	386.117
772.033	97.7539
776.614	348.59
781.194	475.242
785.77	199.598
790.345	227.816
794.916	447.504
799.485	337.445
804.052	332.109
808.616	191.496
813.177	276.953
817.736	185.293
822.292	234.531
826.846	235.141
831.397	130.535
835.945	65.2891
840.491	26.3164
845.035	25.5273
849.576	95.8789
854.114	320.426
858.65	43.3828
863.183	19.2578
867.713	23.3047
872.241	122.469
876.767	115.621
881.29	134.66
885.81	436.301
890.328	515.078
894.843	177.906
899.356	415.887
903.866	123.035
908.373	216.332
912.878	232.746
917.38	452.09
921.88	57.918
926.377	349.969
930.872	564.269
935.364	456.824
939.853	197.769
944.34	327.215
948.824	721.641
953.306	371.797
957.785	494.137
962.261	477.082
966.735	597.566
971.207	575.789
975.675	719.695
980.141	746.887
984.605	678.602
989.066	672.902
993.524	794.019
997.98	1252.16
1002.43	1113.11
1006.88	856.754
1011.33	836.668
1015.78	643.562
1020.22	807.934
1024.66	966.949
1029.1	1201.58
1033.53	1173.82
1037.97	1166.62
1042.4	1252.39
1046.82	1086.39
1051.25	1377.01
1055.67	1138.26
1060.09	1173.29
1064.51	1241.01
1068.92	1391.22
1073.33	1371.82
1077.74	1359.11
1082.15	1479.02
1086.55	984.559
1090.95	1427.75
1095.35	917.359
1099.75	1023.37
1104.14	1171.41
1108.53	993.793
1112.92	1069.14
1117.31	1328.31
1121.69	1687.73
1126.07	1306.96
1130.45	715.125
1134.82	699.359
1139.19	453.512
1143.57	651.582
1147.93	464.168
1152.3	505.328
1156.66	321.894
1161.02	205.828
1165.38	265.109
1169.73	175.559
1174.08	292.516
1178.43	239.828
1182.78	434.656
1187.12	382.57
1191.46	175.945
1195.8	79.2422
1200.14	240.996
1204.47	248.019
1208.8	246.938
1213.13	32.7188
1217.46	154.871
1221.78	68.2227
1226.1	14.25
1230.42	184.059
1234.73	63.8008
1239.04	239.641
1243.35	175.769
1247.66	9.61719
1251.97	256.231
1256.27	242.422
1260.57	161.856
1264.86	9.75391
1269.16	129.129
1273.45	218.41
1277.74	135.043
1282.03	65.6484
1286.31	439.332
1290.59	290.356
1294.87	65.125
1299.14	266.617
1303.42	313.508
1307.69	250.106
1311.95	218.184
1316.22	227.504
1320.48	122.231
1324.74	427.816
1329	54.8086
1333.26	213.777
1337.51	188.434
1341.76	252.109
1346	269.535
1350.25	215.836
1354.49	281.633
1358.73	206
1362.96	67.3945
1367.2	186.742
1371.43	417.184
1375.66	232.566
1379.88	214.41
1384.11	254.688
1388.33	344.82
1392.54	87.0117
1396.76	215.562
1400.97	60.0664
1405.18	128.402
1409.39	200.5
1413.59	0.472656
1417.8	405.91
1421.99	40.7539
1426.19	41.8555
1430.38	472.43
1434.58	58.1289
1438.77	351.336
1442.95	460.383
1447.13	442.258
1451.32	124.293
1455.49	210.137
1459.67	160.199
1463.84	216.555
1468.01	462.769
1472.18	425.953
1476.35	210.246
1480.51	309.004
1484.67	3.39453
1488.83	100.711
1492.98	391.336
1497.13	307.301
1501.28	183.461
1505.43	385.535
1509.57	70.082
1513.71	67.0625
1517.85	217.676
1521.99	227.547
1526.12	497.266
1530.25	278.801
1534.38	212.207
1538.5	292.363
1542.62	1.78906
