Measurement: Raman, 514 nm, depolarized, Raman Data Processed
Mineral: Astrophyllite
Rruff sample: R060103
Ideal chemistry: K_2_NaFe^2+^_7_Ti^4+^_2_(Si_4_O_12_)_2_O_2_(OH)_4_F
Locality: Brivik, Norway
Source: University of Arizona Mineral Museum
Description: Brown fragment embedded in matrix
Measured chemistry: K_2.00_Na_1.00_(Fe^2+^_0.55_Mn_0.32_Fe^3+^_0.04_Mg_0.04_Ca_0.04_)_7_(Ti_0.66_Zr_0.18_Al_0.16_)_2_Si_8.00_O_26_(OH)_4_F_1.00_
Pin_id: L00382
Orientation: Laser parallel to b* (0 1 0). Fiducial mark perpendicular to laser is parallel to c [0 0 1]
Raman shift (cm-1)	intensity
80.654	0
85.584	1093.41
90.512	1790.21
95.438	1644.32
100.362	716.205
105.284	351.76
110.203	36.5137
115.12	673.027
120.035	597.918
124.948	571.698
129.858	407.057
134.766	262.748
139.672	152.112
144.576	266.078
149.478	168.731
154.377	375.542
159.274	1174.79
164.169	2418.49
169.061	3364.54
173.951	3451.81
178.839	2257.67
183.725	994.947
188.609	402.538
193.49	96.5947
198.369	298.379
203.246	585.654
208.12	964.41
212.992	1089.53
217.862	1525.03
222.73	1996.08
227.595	2490.71
232.458	2868.69
237.319	2978.71
242.178	2922.94
247.034	2576.82
251.888	1909.66
256.739	1475.28
261.588	1077.08
266.435	862.349
271.28	891.349
276.123	883.486
280.963	632.619
285.8	717.016
290.636	866.745
295.469	985.664
300.3	1043.84
305.128	1040.87
309.954	966.8
314.778	1021.63
319.6	971.363
324.419	1111.39
329.236	1529.55
334.05	1862.04
338.862	2512.57
343.672	3101.36
348.479	3172.99
353.284	2984.35
358.087	2652.79
362.887	2258.79
367.685	1771.02
372.481	1910.86
377.274	1341.27
382.065	1259.97
386.854	1187.15
391.64	876.02
396.424	712.879
401.205	669.209
405.984	439.335
410.761	288.308
415.535	261.066
420.307	395.582
425.077	410.907
429.844	93.0723
434.609	45.7139
439.371	143.491
444.131	147.731
448.888	37.7529
453.643	3.73828
458.396	147.817
463.146	554.611
467.894	570.394
472.64	627.21
477.383	609.076
482.124	523.016
486.862	419.038
491.598	310.147
496.331	105.334
501.062	16.5488
505.791	31.6396
510.517	163.707
515.24	62.1348
519.962	126.108
524.68	45.9473
529.397	228.613
534.111	100.774
538.822	267.894
543.531	839.955
548.238	1415.86
552.942	2364.6
557.643	3388.84
562.343	3288.11
567.039	2825.68
571.734	2145.71
576.425	1567.15
581.115	1041.29
585.802	1124.94
590.486	1180.07
595.168	1249.88
599.848	1321.99
604.524	1289.78
609.199	1278.02
613.871	1672.42
618.541	1907.83
623.208	2115.89
627.872	2273.07
632.534	2909.81
637.194	3650.68
641.851	4710.01
646.506	6542.86
651.158	8656.25
655.807	9332.43
660.454	7992.82
665.099	6392.03
669.741	6073.39
674.381	6644.44
679.018	7654.16
683.652	8882.78
688.284	9928.88
692.914	11059.5
697.541	12533.8
702.165	13364.2
706.787	13943.6
711.406	14087.7
716.023	13951.8
720.638	13397.5
725.249	11992.8
729.859	10596.3
734.465	9101.13
739.07	7579.75
743.671	6707.01
748.27	6173.64
752.867	5749.64
757.461	5548.99
762.053	5099.72
766.641	4476.82
771.228	4031.31
775.812	3730.19
780.393	3565.5
784.972	3330.35
789.548	3310.98
794.121	2788.58
798.692	2254.9
803.261	1669.14
807.827	978.442
812.39	563.699
816.951	382.289
821.509	360.15
826.064	181.899
830.617	32.6143
835.168	47.6103
839.716	14.7607
844.261	8.61914
848.804	168.83
853.344	243.385
857.881	59.0137
862.416	127.615
866.948	45.0801
871.478	95.75
876.005	415.485
880.53	421.377
885.052	768.387
889.571	1193.65
894.088	1393.24
898.602	1754.98
903.113	1965.86
907.622	2291.01
912.128	2555.48
916.632	2790.04
921.133	2739.69
925.631	2860.49
930.127	2357.42
934.62	2317.39
939.111	2108.32
943.599	1735.2
948.084	1695.01
952.567	1422.75
957.047	1246.44
961.524	853.057
965.999	1015.84
970.471	625.926
974.941	562.612
979.408	712.189
983.872	697.088
988.333	795.961
992.792	860.947
997.249	1478.19
1001.7	2052.8
1006.15	2599.39
1010.6	3830.44
1015.05	5005.73
1019.49	6546.67
1023.93	8199.28
1028.37	9467.22
1032.8	9990.74
1037.24	9497.3
1041.66	8559.53
1046.09	6821.39
1050.52	5002.74
1054.94	3718.49
1059.36	3033.33
1063.77	2554.76
1068.19	2049.25
1072.6	1854.71
1077.01	1602.46
1081.41	1590.92
1085.82	1391.76
1090.22	1025.51
1094.61	1041.88
1099.01	897.489
1103.4	727.703
1107.79	577.632
1112.18	426.826
1116.56	309.166
1120.94	5.94824
1125.32	140.142
1129.7	95.1777
1134.07	158.516
1138.44	162.327
1142.81	46.0029
1147.18	92.2744
1151.54	47.7432
1155.9	89.4434
1160.26	121.115
1164.61	30.9102
1168.96	63.874
1173.31	132.844
1177.66	50.0352
1182	61.749
1186.34	230.035
1190.68	70.2695
1195.02	4.80664
1199.35	191.639
1203.68	114.983
1208.01	40.127
1212.33	123.797
1216.65	76.46
1220.97	172.385
1225.29	207.204
1229.6	157.02
1233.91	133.172
1238.22	239.415
1242.53	194.257
1246.83	194.155
1251.13	208.63
1255.43	235.773
1259.72	347.147
1264.01	191.742
1268.3	440.441
1272.59	421.447
1276.87	200.641
1281.15	408.227
1285.43	517.715
1289.7	304.398
1293.98	475.982
1298.25	340.273
1302.51	316.234
1306.78	270.613
1311.04	310.691
1315.3	168.332
1319.56	296.051
1323.81	229.805
1328.06	158.129
1332.31	64.2344
1336.55	98.3633
1340.79	230.482
1345.03	224.113
1349.27	4.01953
1353.5	42.5488
1357.73	27.0762
1361.96	16.1172
1366.19	19.3555
1370.41	28.3301
1374.63	82.8106
1378.85	3.02539
1383.06	4.36523
1387.27	96.3262
1391.48	30.6133
1395.69	33.3105
1399.89	11.6641
1404.09	77.5781
1408.29	37.7324
1412.48	196.162
1416.68	85.1367
1420.87	81.0469
1425.05	70.0156
1429.24	173.273
1433.42	435.611
1437.6	590.615
1441.77	773.473
1445.94	764.18
1450.11	755.094
1454.28	887.467
1458.44	500.008
1462.61	544.35
1466.76	398.68
1470.92	406.131
1475.07	353.996
1479.22	133.986
1483.37	99.7031
1487.52	278.342
1491.66	90.4199
1495.8	220.6
1499.93	81.5957
1504.06	21.7559
1508.19	179.148
1512.32	256.398
1516.45	196.69
1520.57	191.027
1524.69	273.357
1528.8	116.924
1532.92	286.975
1537.03	145.815
1541.14	232.731
1545.24	230.94
1549.34	160.93
1553.44	350.525
1557.54	257.227
1561.63	59.252
1565.72	209.252
1569.81	137.764
1573.9	115.598
