Measurement: Raman, 514 nm, ccw, Raman Data Processed
Mineral: Astrophyllite
Rruff sample: R060103
Ideal chemistry: K_2_NaFe^2+^_7_Ti^4+^_2_(Si_4_O_12_)_2_O_2_(OH)_4_F
Locality: Brivik, Norway
Source: University of Arizona Mineral Museum
Description: Brown fragment embedded in matrix
Measured chemistry: K_2.00_Na_1.00_(Fe^2+^_0.55_Mn_0.32_Fe^3+^_0.04_Mg_0.04_Ca_0.04_)_7_(Ti_0.66_Zr_0.18_Al_0.16_)_2_Si_8.00_O_26_(OH)_4_F_1.00_
Pin_id: L00382
Orientation: Laser parallel to b* (0 1 0). Fiducial mark perpendicular to laser is parallel to c [0 0 1]
Raman shift (cm-1)	intensity
80.654	0
85.584	1237.16
90.512	2204.6
95.438	1742.05
100.362	897.694
105.284	302.978
110.203	51.5703
115.12	752.596
120.035	798.361
124.948	1085.82
129.858	883.661
134.766	496.856
139.672	138.602
144.576	279.254
149.478	238.631
154.377	341.978
159.274	982.029
164.169	2003.46
169.061	2508.73
173.951	2397.07
178.839	1500.76
183.725	709.652
188.609	280.136
193.49	333.828
198.369	611.079
203.246	850.299
208.12	1247.66
212.992	1615.91
217.862	2085.18
222.73	2676.8
227.595	3277.15
232.458	3895.99
237.319	4239.93
242.178	4301.85
247.034	3738.63
251.888	2869.07
256.739	2238.06
261.588	1771.98
266.435	1596.82
271.28	1375.46
276.123	1283.42
280.963	1254.82
285.8	1371.11
290.636	1742.04
295.469	1847.3
300.3	1886.37
305.128	1641.61
309.954	1559.42
314.778	1479.16
319.6	1579.15
324.419	1851
329.236	2380.55
334.05	3114.86
338.862	4160.77
343.672	4960.9
348.479	5195.22
353.284	4755.64
358.087	4169.33
362.887	3451.17
367.685	2517.78
372.481	1882.79
377.274	1706.87
382.065	1499.06
386.854	1313.91
391.64	1074.91
396.424	612.703
401.205	506.694
405.984	387.911
410.761	481.369
415.535	486.097
420.307	645.103
425.077	732.389
429.844	412.014
434.609	163.572
439.371	25.4185
444.131	160.379
448.888	171.885
453.643	6.96924
458.396	319.502
463.146	495.07
467.894	755.912
472.64	662.063
477.383	655.545
482.124	634.411
486.862	625.351
491.598	411.178
496.331	261.053
501.062	86.2002
505.791	105.861
510.517	153.786
515.24	178.74
519.962	112.803
524.68	31.9546
529.397	94.5791
534.111	243.732
538.822	549.354
543.531	987.431
548.238	1783.23
552.942	2921.82
557.643	3854.53
562.343	4153.22
567.039	3336.93
571.734	2452.3
576.425	1977.09
581.115	1281.58
585.802	1384.42
590.486	1334.92
595.168	1448.5
599.848	1399.32
604.524	1393.15
609.199	1484.15
613.871	1590.06
618.541	1694.88
623.208	2178.64
627.872	2519.36
632.534	3035.05
637.194	3778.68
641.851	5127.48
646.506	7072.75
651.158	9466.64
655.807	10264.2
660.454	8613.75
665.099	6784.33
669.741	6466.44
674.381	6866.15
679.018	9628.71
683.652	9156.3
688.284	10353.2
692.914	11668.6
697.541	12442.1
702.165	13352.2
706.787	14057.9
711.406	14256.8
716.023	14079.6
720.638	13329.4
725.249	11838
729.859	10391.1
734.465	8864.48
739.07	7460.91
743.671	6341.61
748.27	5792.51
752.867	5572.63
757.461	5204.95
762.053	4772.48
766.641	4088.22
771.228	3556.18
775.812	3214.36
780.393	3043.81
784.972	2801.9
789.548	2629.81
794.121	2155.67
798.692	1845.5
803.261	1400.26
807.827	947.59
812.39	708.34
816.951	346.339
821.509	174.519
826.064	106.87
830.617	73.375
835.168	37.1728
839.716	34.7773
844.261	134.892
848.804	126.289
853.344	200.004
857.881	169.342
862.416	61.2549
866.948	43.9707
871.478	131.568
876.005	456.437
880.53	806.44
885.052	1049.47
889.571	1502.52
894.088	1845.63
898.602	2349.92
903.113	2630.29
907.622	3138.71
912.128	3384.1
916.632	3643.1
921.133	3746.82
925.631	3629.62
930.127	3233.66
934.62	2835.53
939.111	2394.73
943.599	1980.99
948.084	1647.81
952.567	1382.38
957.047	1273.41
961.524	1030.35
965.999	869.203
970.471	724.26
974.941	518.937
979.408	341.528
983.872	474.427
988.333	490.36
992.792	616.525
997.249	853.07
1001.7	1231.67
1006.15	1811.54
1010.6	2314.49
1015.05	3163.23
1019.49	4145.06
1023.93	5269.02
1028.37	5931.52
1032.8	6290.34
1037.24	5917.88
1041.66	5315.25
1046.09	4390.5
1050.52	3203.08
1054.94	2453.9
1059.36	1968.34
1063.77	1535.12
1068.19	1387.63
1072.6	1379.77
1077.01	1212.14
1081.41	1194.26
1085.82	963.036
1090.22	887.843
1094.61	692.414
1099.01	629.314
1103.4	433.535
1107.79	314.373
1112.18	119.752
1116.56	131.866
1120.94	14.4912
1125.32	8.31934
1129.7	62.0293
1134.07	45.1455
1138.44	116.284
1142.81	44.2998
1147.18	31.9258
1151.54	78.4072
1155.9	2.23633
1160.26	17.3643
1164.61	34.666
1168.96	151.554
1173.31	155.5
1177.66	70.7041
1182	10.3438
1186.34	80.3633
1190.68	60.082
1195.02	30.5586
1199.35	61.332
1203.68	38.8213
1208.01	23.9834
1212.33	132.796
1216.65	137.163
1220.97	46.6494
1225.29	0.78418
1229.6	139.007
1233.91	133.902
1238.22	90.1074
1242.53	68.2051
1246.83	134.191
1251.13	211.782
1255.43	336.156
1259.72	97.7803
1264.01	135.22
1268.3	377.644
1272.59	332.087
1276.87	322.176
1281.15	280.336
1285.43	305.542
1289.7	311.133
1293.98	277.799
1298.25	292.909
1302.51	343.104
1306.78	344.597
1311.04	357.557
1315.3	288.036
1319.56	282.918
1323.81	162.054
1328.06	120.63
1332.31	95.833
1336.55	295.94
1340.79	44.4385
1345.03	181.828
1349.27	109.51
1353.5	133.94
1357.73	103.291
1361.96	35.1211
1366.19	127.774
1370.41	120.172
1374.63	183.122
1378.85	61.7812
1383.06	183.215
1387.27	33.4805
1391.48	27.5723
1395.69	107.309
1399.89	7.23633
1404.09	5.76758
1408.29	111.465
1412.48	63.166
1416.68	115.426
1420.87	63.3125
1425.05	302.521
1429.24	292.946
1433.42	339.94
1437.6	526.455
1441.77	461.805
1445.94	551.339
1450.11	405.131
1454.28	409.836
1458.44	383.294
1462.61	267.495
1466.76	188.463
1470.92	358.218
1475.07	121.397
1479.22	235.959
1483.37	75.7998
1487.52	2.46973
1491.66	1.84277
1495.8	150.871
1499.93	103.608
1504.06	128.087
1508.19	104.485
1512.32	59.7188
1516.45	279.706
1520.57	168.356
1524.69	246.825
1528.8	219.259
1532.92	271.666
1537.03	181.256
1541.14	10.958
1545.24	162.032
1549.34	263.641
1553.44	306.182
1557.54	161.264
1561.63	219.859
1565.72	190.556
1569.81	20.6543
1573.9	293.928
