Measurement: Raman, 514 nm, depolarized, Raman Data Processed
Mineral: Astrophyllite
Rruff sample: R060103
Ideal chemistry: K_2_NaFe^2+^_7_Ti^4+^_2_(Si_4_O_12_)_2_O_2_(OH)_4_F
Locality: Brivik, Norway
Source: University of Arizona Mineral Museum
Description: Brown fragment embedded in matrix
Measured chemistry: K_2.00_Na_1.00_(Fe^2+^_0.55_Mn_0.32_Fe^3+^_0.04_Mg_0.04_Ca_0.04_)_7_(Ti_0.66_Zr_0.18_Al_0.16_)_2_Si_8.00_O_26_(OH)_4_F_1.00_
Pin_id: M01031
Orientation: Laser parallel to c* (0 0 1). Fiducial mark perpendicular to laser is parallel to a [1 0 0]
Raman shift (cm-1)	intensity
150.165	0
155.096	46.4102
160.024	473.592
164.949	864.59
169.872	1129.34
174.791	1024.44
179.708	636.587
184.622	100.269
189.533	25.3389
194.441	190.764
199.347	146.876
204.249	496.96
209.149	625.165
214.046	1087.97
218.94	1714.01
223.832	2675.65
228.72	3296.48
233.606	3955.27
238.489	4075.95
243.369	3778.29
248.247	3623.44
253.121	3164.58
257.993	3163.68
262.862	2396.64
267.728	1583.61
272.592	1024.25
277.452	423.503
282.31	156.985
287.165	92.4912
292.017	122.509
296.867	112.837
301.714	120.562
306.558	151.057
311.399	176.773
316.237	325.972
321.073	488.106
325.906	346.512
330.736	640.606
335.563	747.069
340.387	1090.28
345.209	1547.06
350.028	1939.43
354.844	2254.07
359.658	2233.09
364.469	2176.62
369.277	1664.46
374.082	1329.2
378.884	1341.22
383.684	1397.29
388.481	1260.12
393.275	1143.09
398.066	987.304
402.855	889.086
407.641	837.954
412.424	773.781
417.205	1013.54
421.983	1037.12
426.758	936.966
431.53	444.854
436.299	238.651
441.066	128.185
445.83	45.2002
450.591	34.0674
455.35	16.875
460.106	352.512
464.859	526.026
469.609	637.976
474.357	500.437
479.102	400.927
483.844	765.532
488.584	762.159
493.321	771.812
498.055	1079.5
502.786	832.255
507.515	679.086
512.241	275.04
516.964	23.041
521.685	21.7822
526.402	131.535
531.118	183.767
535.83	53.2559
540.54	159.334
545.247	426.92
549.951	1396.31
554.653	2177.81
559.352	2915.37
564.048	2719.69
568.742	2203.59
573.432	1462.61
578.121	1150.55
582.806	930.003
587.489	1149.65
592.169	1349.22
596.847	1255.01
601.521	1407.02
606.193	1300.68
610.863	1493.17
615.53	1571.93
620.194	1934.05
624.855	2107.06
629.514	2321.47
634.17	2307.2
638.823	3080.17
643.474	4570.11
648.122	6857.03
652.767	8698.01
657.41	8112.45
662.05	5808.95
666.688	4255.52
671.322	3671.12
675.954	3537.31
680.584	4213.44
685.211	5042.33
689.835	5674.13
694.456	6472.56
699.075	7069.12
703.691	7486.37
708.305	7578.56
712.916	7681.41
717.524	7352.02
722.13	6648.15
726.733	6056.63
731.333	4814.7
735.931	3983.2
740.526	3213.37
745.118	2602.97
749.708	2402.97
754.295	2143.36
758.88	1979.15
763.462	1936.34
768.041	1562.93
772.618	1162.91
777.192	1045.3
781.763	816.09
786.332	1016.29
790.898	532.926
795.462	432.619
800.023	215.682
804.581	205.865
809.137	517.371
813.69	490.053
818.24	61.3164
822.788	150.658
827.334	251.332
831.876	176.272
836.416	69.0781
840.954	18.9609
845.489	487.781
850.021	1584.41
854.551	2511.64
859.078	2968.8
863.602	2260.43
868.124	1472.35
872.644	1268.56
877.16	1276.12
881.675	1909.06
886.186	2119.78
890.695	2829
895.202	3620.85
899.705	3985.06
904.207	4795.24
908.705	5363.74
913.201	5997.45
917.695	6001.36
922.186	6096.47
926.674	5542.76
931.16	5155.38
935.643	4437.68
940.124	3579.45
944.602	2861.73
949.077	2196.53
953.55	2051.84
958.021	1258.55
962.489	892.441
966.954	254.291
971.417	37.7539
975.877	18.6934
980.334	187.279
984.789	9.60742
989.242	40.8691
993.692	188.619
998.139	1121.19
1002.58	1753.83
1007.03	1112.54
1011.47	1107.57
1015.9	1694.15
1020.34	2069.8
1024.77	2455.69
1029.2	2596.54
1033.63	2437.39
1038.05	1922.23
1042.47	1707.25
1046.89	1174.05
1051.31	841.527
1055.72	360.137
1060.14	292.5
1064.55	266.477
1068.95	373.406
1073.36	525.422
1077.76	650.9
1082.16	1079.13
1086.55	829.131
1090.95	789.74
1095.34	644.307
1099.73	906.365
1104.12	1081.85
1108.5	1472.3
1112.88	1272
1117.26	1076.29
1121.64	571.519
1126.01	330.406
1130.38	164.162
1134.75	173.764
1139.12	4.79297
1143.48	97.2109
1147.84	6.89844
1152.2	157.086
1156.56	297.086
1160.91	302.918
1165.27	439.584
1169.61	301.088
1173.96	146.424
1178.31	194.584
1182.65	247.568
1186.98	109.365
1191.32	33.0391
1195.66	17.1738
1199.99	138.486
1204.32	3.60742
1208.64	300.67
1212.97	124.186
1217.29	205.889
1221.61	347.935
1225.93	388.324
1230.24	280.553
1234.55	765.258
1238.86	569.652
1243.17	719.781
1247.47	942.795
1251.78	631.449
1256.07	897.014
1260.37	647.445
1264.67	874.768
1268.96	1121.72
1273.25	1310.23
1277.54	936.012
1281.82	960.012
1286.1	759.066
1290.38	771.106
1294.66	950.086
1298.93	1133
1303.21	839.684
1307.48	959.521
1311.74	1137.63
1316.01	1004.51
1320.27	988.113
1324.53	641.434
1328.79	396.133
1333.05	112.834
1337.3	76.9062
1341.55	69.7012
1345.8	34.3574
1350.04	150.154
1354.29	203.357
1358.53	18.7051
1362.76	57.3086
1367	120.836
1371.23	262.799
1375.46	96.6191
1379.69	325.779
1383.92	348.156
1388.14	303.506
1392.36	227.844
1396.58	328.062
1400.8	451.769
1405.01	206.867
1409.22	158.25
1413.43	149.002
1417.64	278.305
1421.85	286.215
1426.05	504.203
1430.25	893.231
1434.44	1646.76
1438.64	2556
1442.83	3439.06
1447.02	3751.58
1451.21	3836.99
1455.39	3992.4
1459.58	3219.84
1463.76	2335.95
1467.94	1908.08
1472.11	1620.04
1476.28	1598.03
1480.45	1201.13
1484.62	902.502
1488.79	404.346
1492.95	503.723
1497.11	190.779
1501.27	186.484
1505.43	300.301
1509.58	242.256
1513.73	332.236
1517.88	235.699
1522.03	69.4981
1526.18	127.904
1530.32	331.283
1534.46	487.92
1538.6	163.438
1542.73	380.736
1546.86	188.269
1550.99	421.07
1555.12	148.115
1559.25	364.232
