Measurement: Raman, 514 nm, depolarized, Raman Data Processed
Mineral: Astrophyllite
Rruff sample: R060202
Ideal chemistry: K_2_NaFe^2+^_7_Ti^4+^_2_(Si_4_O_12_)_2_O_2_(OH)_4_F
Locality: Demix Quarry, Mont Saint-Hilaire, Rouville County, Quebec, Canada
Source: Royal Ontario Museum
Description: Aggregate of brown splintered wafers
Measured chemistry: (K_0.56_Na_0.38_Ca_0.06_)_3_(Fe^2+^_0.52_Mn_0.44_Mg_0.04_)_7_(Ti_0.75_Zr_0.15_Al_0.15_)_2_Si_8_O_24_(O_0.27_OH_0.73_)_7_
Pin_id: M00255
Orientation: Laser parallel to (0 1 1). Fiducial mark perpendicular to laser is parallel to a [1 0 0]
Raman shift (cm-1)	intensity
87.308	0
92.246	1154.7
97.182	2092.14
102.116	1958.61
107.047	1508.76
111.976	1111.26
116.903	1724.68
121.827	1273.84
126.749	1310
131.668	1009.32
136.585	214.779
141.5	90.4473
146.412	253.428
151.321	282.092
156.229	1055.75
161.134	2090.48
166.036	3148.36
170.936	2785.44
175.834	1770.35
180.729	1191.78
185.622	709.635
190.512	1010.2
195.4	1608.45
200.286	2466.86
205.169	2914.66
210.049	2792.63
214.928	3660.69
219.803	4538.82
224.677	5731.79
229.548	7051.52
234.416	7684.35
239.282	7872.66
244.146	7273.54
249.007	6663
253.866	5966.84
258.722	5063.62
263.576	3650.74
268.427	2013.27
273.276	1184.63
278.123	486.623
282.967	412.014
287.809	306.328
292.648	270.772
297.485	290.125
302.319	332.705
307.151	507.121
311.98	464.572
316.807	479.977
321.631	499.435
326.454	932.777
331.273	984.312
336.09	1129.98
340.905	1516.66
345.717	1953.63
350.527	1879.27
355.334	2082.33
360.139	2028.71
364.941	2152.95
369.741	2019.33
374.538	2046.15
379.333	2103.35
384.126	2149.97
388.916	1654.29
393.703	1628.56
398.488	1405.52
403.271	1215.93
408.051	1032.75
412.828	1027
417.603	1059.65
422.376	884.678
427.146	471.055
431.914	28.7832
436.679	10.8027
441.442	280.783
446.202	114.725
450.96	214.443
455.715	48.3242
460.467	304.588
465.218	692.025
469.965	758.623
474.711	624.373
479.454	615.264
484.194	292.26
488.932	308.346
493.667	0.570313
498.4	64.8828
503.13	69.8457
507.858	233.5
512.583	62.8242
517.306	111.293
522.026	197.06
526.744	110.303
531.459	330.275
536.172	615.217
540.882	1376.79
545.59	2499.89
550.295	3943.76
554.998	4715.41
559.698	4879.85
564.396	4274.73
569.091	3736.91
573.784	2949.3
578.474	2776.52
583.162	2414.31
587.847	2696.77
592.529	2699.32
597.209	2767.89
601.887	2753.13
606.562	2800.89
611.235	3018.1
615.905	3186.76
620.572	3593.89
625.237	4180.39
629.9	4724.23
634.56	5867.87
639.217	7518.19
643.872	10552.2
648.524	14365.8
653.174	15830.4
657.821	13530.2
662.466	12151.4
667.108	9597.55
671.748	9489.57
676.385	10448.4
681.02	11451.9
685.652	12741.1
690.281	13650.9
694.908	14045.4
699.533	14462
704.155	14920.4
708.774	14654.9
713.391	14167.5
718.005	12918.7
722.617	11731.1
727.226	10342.8
731.833	8688.16
736.437	7831.88
741.039	6686.46
745.638	6133.69
750.234	5493.6
754.828	5116.17
759.419	4375.43
764.008	3922.38
768.595	3201.05
773.178	2412.53
777.759	2088
782.338	1937.56
786.914	1546.29
791.488	959.652
796.059	928.266
800.627	675.398
805.193	508.066
809.756	23.5977
814.317	102.344
818.875	84.707
823.431	38.2227
827.984	48.5625
832.534	134.078
837.082	296.246
841.627	203.277
846.17	60.9766
850.71	4.52344
855.248	282.84
859.783	566.469
864.316	1101.95
868.846	1404.16
873.373	2070.32
877.898	2729.71
882.42	3491.86
886.94	4073.21
891.457	5004.37
895.971	5993.31
900.483	7091.52
904.993	8021.5
909.5	8516.09
914.004	9355.31
918.505	9746.11
923.004	9284.5
927.501	8815.42
931.995	8598.89
936.486	7602.88
940.975	6642.38
945.461	5833.01
949.945	4788.62
954.426	4342.43
958.904	2972.02
963.38	2126.05
967.853	1333.74
972.324	1030.44
976.792	783.039
981.258	439.816
985.72	250.141
990.181	464.762
994.639	889.484
999.094	1132.36
1003.55	1679.65
1008	2087.52
1012.44	2904.37
1016.89	3930.51
1021.33	4442.04
1025.77	4829.19
1030.21	4976.44
1034.64	4351.16
1039.07	3598.4
1043.5	2696.75
1047.93	2617.27
1052.35	1933.43
1056.78	1484.03
1061.19	1573.32
1065.61	1389.29
1070.02	1054.95
1074.43	1464.02
1078.84	1065.46
1083.25	831.871
1087.65	1226.69
1092.05	880.066
1096.45	744.902
1100.85	569.984
1105.24	142.766
1109.63	236.602
1114.02	268.824
1118.4	73.957
1122.78	135.137
1127.16	300.004
1131.54	350.523
1135.92	157.418
1140.29	115.152
1144.66	225.762
1149.02	87.5
1153.39	177.887
1157.75	260.707
1162.11	89.3516
1166.46	234.074
1170.82	321.125
1175.17	58.8516
1179.52	397.309
1183.86	271.527
1188.21	384.625
1192.55	415.34
1196.89	283.953
1201.22	30.4258
1205.55	90.8594
1209.88	139.106
1214.21	180.293
1218.54	586.527
1222.86	389.684
1227.18	328.684
1231.5	521.523
1235.81	637.891
1240.12	381.207
1244.43	157.367
1248.74	738.195
1253.04	351.438
1257.34	466.969
1261.64	939.965
1265.94	378.07
1270.23	253.891
1274.52	210.168
1278.81	614.227
1283.1	440.344
1287.38	450.363
1291.66	556.102
1295.94	387.461
1300.21	600.316
1304.48	759.664
1308.75	360.648
1313.02	385.379
1317.29	834.027
1321.55	284.668
1325.81	537.16
1330.06	705.246
1334.32	442.699
1338.57	389.731
1342.82	677.996
1347.06	970.418
1351.31	570.906
1355.55	687.644
1359.79	677.688
1364.02	531.488
1368.26	683.492
1372.49	264.027
1376.71	86
1380.94	534.051
1385.16	627.106
1389.38	564.938
1393.6	385.805
1397.81	478.453
1402.02	481.707
1406.23	451.629
1410.44	353.289
1414.64	355.891
1418.85	288.727
1423.04	266.098
1427.24	278.094
1431.43	243.789
1435.62	259.359
1439.81	79.582
1444	386.164
1448.18	406.43
1452.36	83.418
1456.54	497.586
1460.71	411.629
1464.89	141.219
1469.06	149.375
1473.22	581.492
1477.39	118.144
1481.55	51.3203
1485.71	127.035
1489.86	295.723
1494.02	167.156
1498.17	149.144
1502.32	641.812
1506.46	208.008
1510.61	339.289
1514.75	427.027
1518.88	689.172
1523.02	45.082
1527.15	87.5
1531.28	348.773
1535.41	161.539
1539.53	452.562
1543.66	535.82
1547.78	78.7656
1551.89	488.352
1556.01	757.699
1560.12	510.231
1564.23	786.457
1568.33	170.949
