Measurement: Raman, 514 nm, depolarized, Raman Data Processed
Mineral: Astrophyllite
Rruff sample: R060202
Ideal chemistry: K_2_NaFe^2+^_7_Ti^4+^_2_(Si_4_O_12_)_2_O_2_(OH)_4_F
Locality: Demix Quarry, Mont Saint-Hilaire, Rouville County, Quebec, Canada
Source: Royal Ontario Museum
Description: Aggregate of brown splintered wafers
Measured chemistry: (K_0.56_Na_0.38_Ca_0.06_)_3_(Fe^2+^_0.52_Mn_0.44_Mg_0.04_)_7_(Ti_0.75_Zr_0.15_Al_0.15_)_2_Si_8_O_24_(O_0.27_OH_0.73_)_7_
Pin_id: M00349
Orientation: Laser parallel to a* (1 0 0). Fiducial mark perpendicular to laser is parallel to b [0 1 0]
Raman shift (cm-1)	intensity
129.209	0
134.127	130.643
139.043	333.891
143.956	210.178
148.867	540.504
153.775	732.055
158.681	1013.19
163.585	1768.67
168.486	2301.05
173.385	1647.88
178.282	663.529
183.176	83.2363
188.067	15.7773
192.956	46.1816
197.843	591.781
202.727	1067.76
207.609	133.301
212.489	423.902
217.366	851.893
222.24	1208.06
227.112	1567.85
231.982	2070.66
236.849	2268.04
241.714	2365.17
246.577	2284.01
251.437	2382.06
256.294	2342.53
261.149	2568.9
266.002	1149.77
270.852	797.723
275.7	338.914
280.545	226.701
285.388	127.002
290.229	48.1523
295.067	138.217
299.902	222.312
304.735	44.1562
309.566	275.227
314.394	417.947
319.22	513.035
324.043	578.916
328.864	666.07
333.682	943.66
338.498	972.871
343.311	1267.33
348.122	1254.65
352.931	1275.02
357.737	1156.44
362.54	1082.55
367.341	1030.44
372.14	1206.96
376.936	965.998
381.73	1030
386.521	935.484
391.31	987.432
396.096	1033.27
400.88	725.977
405.661	805.4
410.44	595.434
415.216	749.127
419.99	686.443
424.761	633.426
429.53	197.143
434.297	161.344
439.061	583.141
443.822	381.682
448.581	188.152
453.337	294.074
458.091	45.0156
462.843	302.736
467.592	14.6602
472.338	318.973
477.082	27.8438
481.824	91.0938
486.563	144.781
491.3	90.918
496.034	133.41
500.765	159.184
505.494	91.9648
510.221	51.1348
514.945	26.5332
519.666	29.1152
524.385	177.674
529.102	106.078
533.816	220.113
538.527	637.758
543.236	748.576
547.943	1237.24
552.647	1654.36
557.348	1857.47
562.047	2017.39
566.744	1607.14
571.438	1389.78
576.129	1207.27
580.818	1183.9
585.504	1154.08
590.188	1330.18
594.87	1432.07
599.549	1633.69
604.225	1617.45
608.899	1747.75
613.57	1707.89
618.239	2134.08
622.905	2230.86
627.569	2565.28
632.23	3214.66
636.889	3589.38
641.545	4652.88
646.198	6025.99
650.849	7695.27
655.498	7881.48
660.144	6682.99
664.787	5864.99
669.428	5566.9
674.067	5872.47
678.703	6618.37
683.336	7021.51
687.967	7555.37
692.595	7690.41
697.221	8064.77
701.844	7802.04
706.465	7734.19
711.083	7554.48
715.698	7352.77
720.311	6062.47
724.922	5318.39
729.53	4951.4
734.135	4119.47
738.738	3650.77
743.338	3347.25
747.936	2897.7
752.531	2906.03
757.124	2777.27
761.714	2786.47
766.302	2471.61
770.887	2478.69
775.469	2377.8
780.049	2439.19
784.626	2096.84
789.201	2018.33
793.773	1538.27
798.343	1089.91
802.91	1077.53
807.475	604.07
812.037	353.527
816.596	186.836
821.153	78.8242
825.707	188.488
830.259	79.7617
834.808	156.066
839.355	166.812
843.899	355.184
848.441	94.7188
852.98	25.7227
857.516	57.0977
862.05	168.438
866.581	220.672
871.11	595.676
875.636	610.684
880.159	821.09
884.68	1539.75
889.199	1657.63
893.714	2186.41
898.228	2309.42
902.738	3011.54
907.246	3606.56
911.752	4133.4
916.255	4606.02
920.755	4940.37
925.253	4603.6
929.748	5106.72
934.241	4539.55
938.731	4381.08
943.218	3792.3
947.703	3422.23
952.186	2820.3
956.665	2375.23
961.142	1741.88
965.617	1208.12
970.089	1001.13
974.558	412.75
979.025	782.848
983.489	683.141
987.951	806.324
992.41	1251.97
996.866	1283.56
1001.32	2326.12
1005.77	2803.05
1010.22	3677.08
1014.67	4988
1019.11	6240.6
1023.55	7176.11
1027.99	7548.69
1032.42	7660.97
1036.86	6600.03
1041.29	5264.72
1045.72	3918.77
1050.14	3104.15
1054.56	2240.77
1058.98	1846.25
1063.4	1743.58
1067.82	1511.57
1072.23	1504.88
1076.64	1381.26
1081.05	1562.84
1085.45	1492.78
1089.85	1019.84
1094.25	954.762
1098.65	573.137
1103.04	607.941
1107.43	415.484
1111.82	176.156
1116.21	305.707
1120.59	531.996
1124.97	668.238
1129.35	298.805
1133.73	89.3242
1138.1	121.074
1142.47	346.344
1146.84	123.172
1151.21	120.418
1155.57	53.2188
1159.93	113.144
1164.29	195.477
1168.64	117.75
1172.99	14.4688
1177.34	225.465
1181.69	318.941
1186.04	62.9062
1190.38	306.93
1194.72	109.34
1199.05	270.269
1203.39	219.75
1207.72	160.773
1212.05	423.25
1216.37	269.289
1220.7	307.938
1225.02	158.172
1229.34	406.856
1233.65	361.281
1237.97	308.719
1242.28	340.258
1246.59	462.133
1250.89	346.398
1255.19	337.102
1259.49	426.137
1263.79	382.965
1268.09	498.703
1272.38	445.84
1276.67	134.488
1280.95	45.1523
1285.24	41.5
1289.52	22.6992
1293.8	251.172
1298.08	475.699
1302.35	300.477
1306.62	332.961
1310.89	350.738
1315.15	408.481
1319.42	233.5
1323.68	511.008
1327.94	420.023
1332.19	498.059
1336.44	453.332
1340.69	435.949
1344.94	390.805
1349.19	544.57
1353.43	533.496
1357.67	452.809
1361.9	721.648
1366.14	561.996
1370.37	259.582
1374.6	503.582
1378.83	276.352
1383.05	341.43
1387.27	261.586
1391.49	74.0938
1395.7	593.469
1399.92	317.273
1404.13	187.519
1408.34	354.949
1412.54	333.945
1416.74	260.711
1420.94	130.059
1425.14	46.8906
1429.34	148.965
1433.53	163.762
1437.72	221.508
1441.9	111.305
1446.09	59.3047
1450.27	43.1211
1454.45	34.875
1458.63	76.6367
1462.8	91.7734
1466.97	162.652
1471.14	458.223
1475.31	108.031
1479.47	52.7969
1483.63	129.059
1487.79	50.168
1491.94	135.691
1496.09	237.359
1500.24	44.7227
1504.39	450.789
1508.54	292.473
1512.68	395.309
1516.82	436.715
1520.95	260.926
1525.09	416.41
1529.22	257.594
1533.35	110.082
1537.47	286.555
1541.6	323.359
1545.72	162.719
1549.83	356.578
1553.95	300.129
1558.06	284.371
1562.17	593.938
1566.28	281.356
1570.38	97.9688
