Measurement: Raman, 514 nm, depolarized, Raman Data Processed
Mineral: Astrophyllite
Rruff sample: R060202
Ideal chemistry: K_2_NaFe^2+^_7_Ti^4+^_2_(Si_4_O_12_)_2_O_2_(OH)_4_F
Locality: Demix Quarry, Mont Saint-Hilaire, Rouville County, Quebec, Canada
Source: Royal Ontario Museum
Description: Aggregate of brown splintered wafers
Measured chemistry: (K_0.56_Na_0.38_Ca_0.06_)_3_(Fe^2+^_0.52_Mn_0.44_Mg_0.04_)_7_(Ti_0.75_Zr_0.15_Al_0.15_)_2_Si_8_O_24_(O_0.27_OH_0.73_)_7_
Pin_id: M00260
Orientation: Laser parallel to -b* (0 -1 0). Fiducial mark perpendicular to laser is parallel to c [0 0 1]
Raman shift (cm-1)	intensity
143.956	0
148.867	405.879
153.775	1165.45
158.681	1797.42
163.585	2595.16
168.486	1799.43
173.385	653.894
178.282	85.6738
183.176	315.42
188.067	830.801
192.956	2022.32
197.843	3148.37
202.727	2971.39
207.609	3230.82
212.489	4960.65
217.366	6110.46
222.24	8184.98
227.112	9600.11
231.982	10463.9
236.849	10415.5
241.714	9242.5
246.577	8540.52
251.437	7572.56
256.294	7510.42
261.149	4206.78
266.002	2687.22
270.852	1403.51
275.7	323.459
280.545	171.143
285.388	34.4004
290.229	251.652
295.067	114.086
299.902	112.012
304.735	235.988
309.566	370.228
314.394	453.807
319.22	732.506
324.043	778.396
328.864	1480.75
333.682	1948.84
338.498	2332.31
343.311	2435.19
348.122	2559.53
352.931	2569.55
357.737	3016.39
362.54	2647.64
367.341	2274.12
372.14	2598.24
376.936	2609.92
381.73	2450.33
386.521	2267.55
391.31	2165.09
396.096	2141.39
400.88	1814.47
405.661	1864.31
410.44	2104.88
415.216	2205.22
419.99	1960.43
424.761	1026.25
429.53	590.742
434.297	296.039
439.061	10.998
443.822	187.459
448.581	177.865
453.337	328.158
458.091	959.008
462.843	1151.08
467.592	1078.13
472.338	1088.2
477.082	994.318
481.824	775.508
486.563	443.816
491.3	390.275
496.034	54.8828
500.765	42.4141
505.494	214.012
510.221	60.7754
514.945	150.494
519.666	24.8965
524.385	50.7324
529.102	198.525
533.816	1069.87
538.527	2159.86
543.236	4360.76
547.943	6423.19
552.647	7951.38
557.348	7100.23
562.047	5878.77
566.744	4339.11
571.438	3536.47
576.129	2843.24
580.818	2751.65
585.504	2543.3
590.188	2567.44
594.87	2700.19
599.549	2479.47
604.225	2744.6
608.899	2742.02
613.57	3093.77
618.239	3928.87
622.905	4646.33
627.569	5576.2
632.23	7360.48
636.889	10750
641.545	15082.3
646.198	21283.8
650.849	21295.8
655.498	16896
660.144	13883.4
664.787	12690.5
669.428	13433.6
674.067	15081.2
678.703	16615.3
683.336	18641
687.967	20038.3
692.595	20849.7
697.221	21258.7
701.844	21400.5
706.465	20654
711.083	19712.3
715.698	18160.3
720.311	15899.2
724.922	13190.9
729.53	11385.6
734.135	9345.59
738.738	8063.08
743.338	7328.94
747.936	6692.15
752.531	6347.73
757.124	5416.66
761.714	4796.96
766.302	4110.62
770.887	3595.65
775.469	3294.01
780.049	2830.69
784.626	2253.75
789.201	1991.14
793.773	1605.52
798.343	1234.73
802.91	547.197
807.475	210.217
812.037	95.5312
816.596	54.9785
821.153	175.025
825.707	330.582
830.259	497.342
834.808	398.924
839.355	299.606
843.899	69.7598
848.441	170.281
852.98	381.227
857.516	839.383
862.05	1318.73
866.581	2270.34
871.11	2754.13
875.636	3805.21
880.159	4815.58
884.68	5849.28
889.199	7308.6
893.714	8457.19
898.228	10088.3
902.738	11798.1
907.246	13250.1
911.752	14744.3
916.255	15180.5
920.755	15349
925.253	14959.6
929.748	14250.5
934.241	12530.9
938.731	10616.3
943.218	8193.94
947.703	6757.94
952.186	5275.79
956.665	3796.28
961.142	2592.08
965.617	1776.99
970.089	1147.67
974.558	736.996
979.025	806.293
983.489	799.088
987.951	718.057
992.41	1013.24
996.866	1368.01
1001.32	2015.43
1005.77	2692.66
1010.22	3773.36
1014.67	4663.7
1019.11	5712.04
1023.55	6474.74
1027.99	6647.65
1032.42	5831.13
1036.86	4993.74
1041.29	4120.99
1045.72	3377.32
1050.14	2628.99
1054.56	2028.25
1058.98	1726.28
1063.4	1771.47
1067.82	1549.91
1072.23	1720.74
1076.64	1609.1
1081.05	1645.27
1085.45	1463.18
1089.85	1201.02
1094.25	1005.38
1098.65	890.312
1103.04	728.996
1107.43	275.367
1111.82	268.238
1116.21	211.414
1120.59	369.051
1124.97	318.705
1129.35	76.0508
1133.73	140.004
1138.1	8.44141
1142.47	66.8184
1146.84	23.3105
1151.21	25.5664
1155.57	19.9727
1159.93	239.455
1164.29	31.3926
1168.64	39.7227
1172.99	200.572
1177.34	61.1719
1181.69	3.77148
1186.04	60.7988
1190.38	89.1953
1194.72	103.096
1199.05	95.8848
1203.39	1.78906
1207.72	124.912
1212.05	90.707
1216.37	92.9629
1220.7	300.666
1225.02	136.881
1229.34	303.59
1233.65	139.457
1237.97	518.197
1242.28	224.047
1246.59	433.197
1250.89	502.795
1255.19	482.342
1259.49	341.018
1263.79	513.734
1268.09	561.248
1272.38	614.686
1276.67	367.334
1280.95	595.041
1285.24	408.435
1289.52	452.246
1293.8	434.135
1298.08	237.586
1302.35	240.654
1306.62	457.781
1310.89	508.559
1315.15	429.328
1319.42	221.713
1323.68	312.031
1327.94	227.594
1332.19	180.143
1336.44	172.328
1340.69	146.197
1344.94	111.088
1349.19	68.0156
1353.43	189.695
1357.67	187.144
1361.9	28.5488
1366.14	111.203
1370.37	68.3086
1374.6	400.684
1378.83	293.861
1383.05	142.44
1387.27	357.732
1391.49	238.303
1395.7	26.5605
1399.92	364.387
1404.13	377.453
1408.34	127.728
1412.54	68.5957
1416.74	191.371
1420.94	194.582
1425.14	178.482
1429.34	330.795
1433.53	355.822
1437.72	767.545
1441.9	581.713
1446.09	437.473
1450.27	651.371
1454.45	633.055
1458.63	757.811
1462.8	567
1466.97	519.215
1471.14	423.981
1475.31	328.568
1479.47	325.543
1483.63	304.977
1487.79	317.318
1491.94	328.248
1496.09	124.158
1500.24	472.898
1504.39	211.113
1508.54	146.238
1512.68	108.141
1516.82	101.014
1520.95	20.6406
1525.09	172.178
1529.22	241.176
1533.35	323.443
1537.47	69.1719
1541.6	325.703
1545.72	147.51
1549.83	212.211
1553.95	220.508
1558.06	47.3438
1562.17	64.4961
1566.28	125.082
1570.38	0
