Measurement: Raman, 514 nm, depolarized, Raman Data Processed
Mineral: Astrophyllite
Rruff sample: R060202
Ideal chemistry: K_2_NaFe^2+^_7_Ti^4+^_2_(Si_4_O_12_)_2_O_2_(OH)_4_F
Locality: Demix Quarry, Mont Saint-Hilaire, Rouville County, Quebec, Canada
Source: Royal Ontario Museum
Description: Aggregate of brown splintered wafers
Measured chemistry: (K_0.56_Na_0.38_Ca_0.06_)_3_(Fe^2+^_0.52_Mn_0.44_Mg_0.04_)_7_(Ti_0.75_Zr_0.15_Al_0.15_)_2_Si_8_O_24_(O_0.27_OH_0.73_)_7_
Pin_id: M00495
Orientation: Laser parallel to c* (0 0 1). Fiducial mark perpendicular to laser is parallel to a [1 0 0]
Raman shift (cm-1)	intensity
147.639	0
152.549	1354.29
157.455	745.283
162.359	1385.29
167.261	2221.68
172.161	2225.76
177.058	1192.73
181.952	652.986
186.845	719.971
191.734	1674.13
196.622	2688.53
201.507	3819.9
206.389	2616.77
211.269	2694.18
216.147	3960.12
221.022	5240.53
225.895	6622.99
230.765	7579.23
235.633	8260.06
240.498	8240.63
245.361	7493.71
250.222	6944.1
255.08	6334.68
259.936	5211.99
264.789	3554.15
269.64	2529.39
274.488	1011.27
279.334	700.566
284.178	131.678
289.019	221.451
293.857	265.539
298.693	278.582
303.527	121.68
308.358	334.58
313.187	358.879
318.013	684.994
322.837	977.211
327.659	694.799
332.478	1343.43
337.294	1573.55
342.108	1905.23
346.92	1998.6
351.729	2172.74
356.535	2384.72
361.34	2317.51
366.141	2191.25
370.94	2053.39
375.737	1948.51
380.531	1919.06
385.323	1917.74
390.113	1680.2
394.9	1879.83
399.684	1584.64
404.466	1493.66
409.245	1513.91
414.022	1572.41
418.797	1398.21
423.569	1259.37
428.338	977.867
433.105	458.717
437.87	79.1016
442.632	79.4922
447.391	161.652
452.149	375.287
456.903	10.8594
461.655	371.41
466.405	651.481
471.152	527.938
475.897	628.871
480.639	439.312
485.378	534.297
490.116	347.859
494.85	216.035
499.582	49.8594
504.312	168.356
509.039	46.293
513.764	147.691
518.486	214.035
523.206	83.3281
527.923	161.773
532.638	241.777
537.35	670.867
542.059	1710.85
546.766	2976.38
551.471	4464.26
556.173	5565.36
560.873	5337.43
565.57	4686.82
570.264	3995.25
574.957	3169.39
579.646	2445.3
584.333	2327
589.018	2821.6
593.7	2095
598.379	2277.37
603.056	1858.88
607.73	2045.27
612.402	2316.24
617.072	2396.78
621.739	2868.91
626.403	3372.64
631.065	4238.97
635.724	5624.93
640.381	8138.52
645.035	11034.8
649.687	14602.1
654.336	15077.7
658.983	13157.7
663.627	10312.3
668.268	9069.7
672.907	9307.07
677.544	10264.7
682.178	11310.7
686.809	12394.9
691.438	13293.2
696.065	13897.7
700.688	14534.5
705.31	14850.2
709.929	14678.7
714.545	14564.1
719.158	13263
723.77	11781
728.378	10199.7
732.984	8873.88
737.588	7756.53
742.189	6430.85
746.787	6073.75
751.383	5640.88
755.976	5259.21
760.567	4573.73
765.155	3893.45
769.741	3136.36
774.324	2707.45
778.904	2231.7
783.482	1669.13
788.058	1384.92
792.631	827.965
797.201	869.199
801.769	1090.82
806.334	514.816
810.897	22.0703
815.457	19.1367
820.014	185.711
824.569	225.664
829.122	493.008
833.671	201.684
838.219	166.852
842.763	122.617
847.306	20.6602
851.845	262.617
856.382	323.637
860.917	658.711
865.448	1414.84
869.978	1988.01
874.505	2898.19
879.029	3658.41
883.55	4497.66
888.069	5504.95
892.586	6546.41
897.1	7420.97
901.611	8530.91
906.12	9787.98
910.626	10595.4
915.129	11685.9
919.63	12261.6
924.129	11525.6
928.625	11226.7
933.118	10718.2
937.609	9446.07
942.097	8181.28
946.582	7131.53
951.065	5630.56
955.546	4548.91
960.023	3606.36
964.499	2687.32
968.971	1983.17
973.441	1313.55
977.909	798.527
982.374	800.09
986.836	1175.18
991.295	929.926
995.753	1168.18
1000.21	1377.1
1004.66	2021.73
1009.11	2622.23
1013.55	3386.17
1018	4299.1
1022.44	5168.41
1026.88	5159.22
1031.32	5454.57
1035.75	4907.26
1040.18	4280.86
1044.61	3627.68
1049.04	2600.6
1053.46	2496.91
1057.88	1970.3
1062.3	2087.07
1066.71	1667.36
1071.13	1857.82
1075.54	1548.69
1079.94	1855.88
1084.35	1502.43
1088.75	1706.52
1093.15	1537.7
1097.55	1419.11
1101.94	942.773
1106.34	724.621
1110.73	384.461
1115.11	256.703
1119.5	866.531
1123.88	754.422
1128.26	288.309
1132.63	287.281
1137.01	150.672
1141.38	150.055
1145.75	18.1211
1150.12	104.363
1154.48	237.758
1158.84	16.4023
1163.2	96.043
1167.55	1.93359
1171.91	6.36328
1176.26	193.875
1180.61	28.8477
1184.95	64.9453
1189.29	0.246094
1193.63	70.7617
1197.97	65.4453
1202.31	118.469
1206.64	20.3984
1210.97	73.0039
1215.29	194.312
1219.62	25.0117
1223.94	88.543
1228.26	22.0352
1232.57	268.945
1236.89	182.168
1241.2	101.484
1245.51	209.961
1249.81	154.492
1254.12	232.121
1258.42	22.7812
1262.72	137.281
1267.01	212.684
1271.3	136.894
1275.59	115.25
1279.88	762.562
1284.17	163.297
1288.45	169.312
1292.73	195.152
1297.01	228.523
1301.28	106.492
1305.55	13.4531
1309.82	76.2227
1314.09	230.883
1318.35	205.262
1322.61	244.863
1326.87	393.965
1331.13	10.3867
1335.38	252.113
1339.63	118.668
1343.88	350.836
1348.12	295.469
1352.37	344.094
1356.61	359.898
1360.85	459.609
1365.08	433.012
1369.31	488.231
1373.54	308.129
1377.77	221.027
1381.99	284.633
1386.22	327.906
1390.43	232.012
1394.65	216.297
1398.87	379.492
1403.08	103.219
1407.29	20.1055
1411.49	318.434
1415.69	395.262
1419.89	151.926
1424.09	381.562
1428.29	164.91
1432.48	310.973
1436.67	105.246
1440.86	267.359
1445.04	253.254
1449.23	114.707
1453.4	363.016
1457.58	145.977
1461.76	91.1016
1465.93	241.969
1470.1	187.504
1474.26	136.711
1478.43	80.543
1482.59	280.508
1486.75	231.082
1490.9	376.57
1495.06	5.45703
1499.21	71.4805
1503.35	15.0273
1507.5	243.789
1511.64	283.172
1515.78	376.762
1519.92	129.441
1524.05	380.109
1528.18	87.8789
1532.31	197.934
1536.44	204.43
1540.56	145.106
1544.69	305.422
1548.8	313.309
1552.92	225.25
1557.03	152
1561.14	39.6367
1565.25	4.92578
1569.36	0.625
