Measurement: Raman, 514 nm, depolarized, Raman Data Processed
Mineral: Astrophyllite
Rruff sample: R060103
Ideal chemistry: K_2_NaFe^2+^_7_Ti^4+^_2_(Si_4_O_12_)_2_O_2_(OH)_4_F
Locality: Brivik, Norway
Source: University of Arizona Mineral Museum
Description: Brown fragment embedded in matrix
Measured chemistry: K_2.00_Na_1.00_(Fe^2+^_0.55_Mn_0.32_Fe^3+^_0.04_Mg_0.04_Ca_0.04_)_7_(Ti_0.66_Zr_0.18_Al_0.16_)_2_Si_8.00_O_26_(OH)_4_F_1.00_
Pin_id: M01746
Orientation: Laser parallel to a* (1 0 0). Fiducial mark perpendicular to laser is parallel to b [0 1 0]
Raman shift (cm-1)	intensity
151.398	0
156.328	387.766
161.256	1227.12
166.18	2583.98
171.102	3543.75
176.021	2676.96
180.937	1263.24
185.85	438.787
190.76	193.935
195.668	1.61035
200.572	309.619
205.474	102.72
210.374	446.426
215.27	1162
220.163	1735.69
225.054	1998.58
229.942	2258.3
234.827	2352.7
239.709	2083.52
244.589	1700.16
249.465	1258.9
254.339	924.419
259.21	836.051
264.079	705.387
268.944	610.795
273.807	469.417
278.667	554.521
283.524	564.223
288.378	637.71
293.23	794.611
298.079	967.927
302.925	1125.28
307.768	1144.9
312.609	1250.46
317.446	1342.61
322.281	1202.8
327.113	1249.85
331.943	1089.08
336.769	1253.31
341.593	1568.36
346.414	1531.34
351.233	1616.54
356.048	1487.66
360.861	1395.26
365.671	1654.06
370.478	1503.91
375.283	1643.94
380.084	1631.4
384.883	1806.54
389.68	1560.96
394.473	1245.14
399.264	1001.13
404.052	782.598
408.837	560.908
413.62	427.057
418.4	376.034
423.177	440.852
427.951	327.526
432.722	105.048
437.491	10.4565
442.257	173.381
447.021	151.33
451.781	88.1397
456.539	130.268
461.294	44.9336
466.047	82.4561
470.797	195.634
475.544	167.701
480.288	60.6123
485.03	141.212
489.768	215.742
494.504	118.226
499.238	228.667
503.969	180.119
508.697	91.5547
513.422	50.8857
518.144	28.1196
522.864	106.419
527.582	11.8706
532.296	117.084
537.008	113.432
541.717	377.018
546.423	793.904
551.127	1267.6
555.828	2009.5
560.526	2434.13
565.222	2210.31
569.915	1629.1
574.605	1086.88
579.292	716.124
583.977	750.704
588.659	841.659
593.339	934.267
598.016	1034.84
602.69	994.277
607.361	1076.2
612.03	1132.27
616.696	1290.01
621.359	1641.76
626.02	1806.65
630.678	2235.43
635.333	2826.6
639.986	3521.21
644.636	5241.55
649.284	7101.07
653.928	9232.52
658.57	8417.47
663.21	6498.54
667.846	5443.06
672.481	5401.72
677.112	6023.34
681.741	6870.54
686.367	7979.4
690.99	9107.73
695.611	9856.57
700.229	10880.4
704.845	11492.4
709.458	11930.9
714.068	11996.9
718.676	11649.5
723.281	10763.9
727.883	9719.52
732.483	8511.98
737.08	7360.05
741.674	6316.77
746.266	5863.28
750.855	5552.33
755.442	5346.92
760.025	5184.24
764.607	4756.88
769.185	4407.23
773.761	4081.1
778.335	3816.5
782.906	3660.43
787.474	3448.9
792.039	2938.01
796.602	2464.83
801.162	2020.39
805.72	1544.68
810.275	1088.6
814.828	783.008
819.378	567.897
823.925	302.244
828.47	165.041
833.012	44.2803
837.551	24.9331
842.088	129.105
846.622	156.267
851.154	139.079
855.683	88.6377
860.209	189.044
864.733	136.573
869.254	12.9434
873.773	122.716
878.289	137.738
882.803	555.057
887.314	757.715
891.822	1053.69
896.328	1091.04
900.831	1410.72
905.332	1810.8
909.83	2286.36
914.325	2686.22
918.818	2801.35
923.308	2864.71
927.796	2846.76
932.281	2680.86
936.764	2638.11
941.244	2480.4
945.721	2521.91
950.196	2470.18
954.668	1896.44
959.138	1435.36
963.605	1233.36
968.07	1000.89
972.532	827.262
976.991	856.351
981.448	956.875
985.903	1135.87
990.355	1297.01
994.804	1891.07
999.251	2521.64
1003.7	3230.45
1008.14	4575.32
1012.58	6204.93
1017.01	8478.35
1021.45	11294.3
1025.88	13343
1030.31	14517.4
1034.73	14460.2
1039.16	12922.4
1043.58	10486.1
1048	7918.6
1052.41	5553.22
1056.83	3975.34
1061.24	3083.36
1065.65	2492.67
1070.05	2038.24
1074.46	1844.51
1078.86	1793.91
1083.26	1617.54
1087.65	1478.88
1092.05	1397.09
1096.44	1210.56
1100.83	1182.14
1105.21	910.139
1109.6	618.161
1113.98	267.431
1118.36	256.28
1122.73	173.287
1127.1	0.700684
1131.47	33.0742
1135.84	24.7793
1140.21	5.70752
1144.57	7.43359
1148.93	16.2441
1153.29	33.3613
1157.65	12.7056
1162	42.5308
1166.35	1.79981
1170.7	114.276
1175.05	64.0303
1179.39	146.637
1183.73	51.6245
1188.07	156.409
1192.41	45.1065
1196.74	77.3691
1201.07	58.648
1205.4	38.2817
1209.72	22.0557
1214.05	192.555
1218.37	61.8252
1222.69	144.817
1227.01	135.364
1231.32	171.573
1235.63	205.748
1239.94	127.002
1244.24	168.217
1248.55	167.09
1252.85	338.606
1257.15	268.116
1261.44	124.029
1265.74	130.756
1270.03	72.3579
1274.32	88.3257
1278.61	158.846
1282.89	94.0352
1287.17	198.052
1291.45	251.111
1295.73	183.471
1300	86.2485
1304.27	88.5352
1308.54	68.1797
1312.81	161.481
1317.08	56.5571
1321.34	84.4004
1325.6	122.018
1329.85	39.9834
1334.11	1.42481
1338.36	135.531
1342.61	54.3184
1346.86	67.188
1351.1	151.038
1355.35	136.621
1359.59	278.867
1363.82	246.322
1368.06	214.409
1372.29	87.5435
1376.52	132.381
1380.75	102.185
1384.97	152.958
1389.2	196.44
1393.42	170.84
1397.64	175.021
1401.85	101.132
1406.07	76.249
1410.28	27.2168
1414.49	8.19434
1418.69	57.8901
1422.9	142.643
1427.1	208.779
1431.3	48.0859
1435.49	143.999
1439.69	307.783
1443.88	238.049
1448.07	229.285
1452.26	194.673
1456.44	244.029
1460.62	236.37
1464.8	164.731
1468.98	224.129
1473.15	165.624
1477.33	235.695
1481.5	198.272
1485.66	206.401
1489.83	64.6108
1493.99	186.593
1498.15	125.963
1502.31	5.51123
1506.47	115.231
1510.62	47.1567
1514.77	28.6909
1518.92	154.832
1523.07	99.2178
1527.21	135.599
1531.35	41.9399
1535.49	69.7822
1539.63	77.2744
1543.76	0
