Measurement: Raman, 514 nm, depolarized, Raman Data Processed
Mineral: Astrophyllite
Rruff sample: R060103
Ideal chemistry: K_2_NaFe^2+^_7_Ti^4+^_2_(Si_4_O_12_)_2_O_2_(OH)_4_F
Locality: Brivik, Norway
Source: University of Arizona Mineral Museum
Description: Brown fragment embedded in matrix
Measured chemistry: K_2.00_Na_1.00_(Fe^2+^_0.55_Mn_0.32_Fe^3+^_0.04_Mg_0.04_Ca_0.04_)_7_(Ti_0.66_Zr_0.18_Al_0.16_)_2_Si_8.00_O_26_(OH)_4_F_1.00_
Pin_id: M01528
Orientation: Laser parallel to (1 0 1). Fiducial mark perpendicular to laser is parallel to c [0 0 1]
Raman shift (cm-1)	intensity
150.165	0
155.096	330.574
160.024	899.135
164.949	1843.37
169.872	2012.95
174.791	1991.14
179.708	1135.67
184.622	347.412
189.533	300.211
194.441	241.59
199.347	61.3477
204.249	208.285
209.149	606.572
214.046	1371.25
218.94	1849.72
223.832	2600.97
228.72	2794.3
233.606	3269.57
238.489	3237.67
243.369	2987.83
248.247	2854.01
253.121	3061.12
257.993	2722.24
262.862	2688.56
267.728	2268.9
272.592	1912.01
277.452	1312.9
282.31	1182.3
287.165	970.613
292.017	1019.1
296.867	1351.41
301.714	1835.47
306.558	2033.33
311.399	2154.1
316.237	2098.24
321.073	1974.08
325.906	1884.2
330.736	2056.9
335.563	2321.69
340.387	2896.33
345.209	3459.36
350.028	3705.42
354.844	3234.63
359.658	2668.28
364.469	2201.18
369.277	1829.96
374.082	1682.36
378.884	1944.37
383.684	1908.21
388.481	2181.54
393.275	1856.66
398.066	1402.55
402.855	756.252
407.641	635.924
412.424	519.109
417.205	982.791
421.983	971.066
426.758	926.846
431.53	760.121
436.299	341.012
441.066	49.1621
445.83	119.455
450.591	231.283
455.35	12.1562
460.106	40.5234
464.859	114.981
469.609	262.666
474.357	305.732
479.102	311.254
483.844	42.2617
488.584	69.0352
493.321	107.877
498.055	22.0488
502.786	0.761719
507.515	9.85156
512.241	176.916
516.964	1.12305
521.685	105.291
526.402	79.4394
531.118	188.713
535.83	92.4434
540.54	14.6641
545.247	422.978
549.951	1096.07
554.653	2029.04
559.352	2610.64
564.048	2298.21
568.742	1842.12
573.432	1297.5
578.121	798.879
582.806	950.67
587.489	1233
592.169	1178.23
596.847	1380
601.521	1253.06
606.193	1335.2
610.863	1752.44
615.53	2377.86
620.194	4622.68
624.855	6290.85
629.514	5276.9
634.17	3747.39
638.823	4722.59
643.474	6882.44
648.122	9572.74
652.767	10493.6
657.41	8989.59
662.05	5966.2
666.688	3968.3
671.322	3595.4
675.954	3612
680.584	4734.37
685.211	5306.99
689.835	6169.16
694.456	6636.76
699.075	7625.82
703.691	7939.05
708.305	7963.57
712.916	7971.46
717.524	7673.16
722.13	7266.14
726.733	5714.98
731.333	5061.28
735.931	3804.66
740.526	2840.04
745.118	2427.14
749.708	2093.69
754.295	1793.63
758.88	1540.01
763.462	1681.89
768.041	1712.32
772.618	966.471
777.192	875.453
781.763	1096.33
786.332	728.229
790.898	649.394
795.462	663.342
800.023	638.123
804.581	310.912
809.137	24.3086
813.69	50.3164
818.24	219.484
822.788	184.394
827.334	97.1289
831.876	131.574
836.416	633.656
840.954	829.691
845.489	1443.23
850.021	2158.02
854.551	3768.63
859.078	4656.03
863.602	4136.4
868.124	2885.7
872.644	2213
877.16	1997.18
881.675	2102.05
886.186	2069.71
890.695	2605.69
895.202	3347.74
899.705	3882.59
904.207	4373.09
908.705	5306.2
913.201	5484.88
917.695	5506.08
922.186	5282.75
926.674	5293.86
931.16	5133.36
935.643	4681.2
940.124	3902.38
944.602	3240.95
949.077	2409.23
953.55	2417.29
958.021	1541.67
962.489	1054.14
966.954	535.254
971.417	12.1367
975.877	381.621
980.334	190.262
984.789	28.4531
989.242	580.191
993.692	1102.89
998.139	3272.53
1002.58	5346.09
1007.03	3325.35
1011.47	3274.59
1015.9	5143.93
1020.34	6980.65
1024.77	8233.51
1029.2	8697.87
1033.63	7840.36
1038.05	7056.38
1042.47	5748.93
1046.89	4301.97
1051.31	3243.52
1055.72	2118.54
1060.14	1276.03
1064.55	1030.44
1068.95	1021
1073.36	1586.64
1077.76	2287.51
1082.16	2710.29
1086.55	2364.67
1090.95	1734.73
1095.34	1364.68
1099.73	1578.14
1104.12	1323.07
1108.5	1397.85
1112.88	845.879
1117.26	625.098
1121.64	430.062
1126.01	436.66
1130.38	417.906
1134.75	60.7969
1139.12	189.223
1143.48	312.66
1147.84	36.6055
1152.2	267.766
1156.56	213.195
1160.91	161.754
1165.27	677.394
1169.61	722.789
1173.96	470.961
1178.31	606.926
1182.65	435.707
1186.98	624.316
1191.32	314.781
1195.66	170.117
1199.99	201.34
1204.32	172.555
1208.64	551.144
1212.97	658.805
1217.29	618.445
1221.61	402.086
1225.93	372.742
1230.24	928.523
1234.55	1075.14
1238.86	1447.12
1243.17	1430.64
1247.47	1705.57
1251.78	1143.15
1256.07	1790.13
1260.37	2473.45
1264.67	2536.42
1268.96	2942.66
1273.25	3276.94
1277.54	2705.3
1281.82	2329.34
1286.1	2237.21
1290.38	2552.33
1294.66	2901.06
1298.93	2902.32
1303.21	2819.11
1307.48	3634.42
1311.74	3732.3
1316.01	3753.69
1320.27	3093.64
1324.53	2356.2
1328.79	1582.73
1333.05	871.144
1337.3	670.633
1341.55	684.824
1345.8	551.746
1350.04	625.414
1354.29	544.832
1358.53	310.008
1362.76	110.973
1367	518.727
1371.23	572.262
1375.46	1213.75
1379.69	1335.21
1383.92	917.336
1388.14	768.344
1392.36	735.398
1396.58	432.535
1400.8	499.644
1405.01	198.727
1409.22	359.793
1413.43	194.266
1417.64	525.332
1421.85	541.324
1426.05	823.035
1430.25	1752.19
1434.44	3097.51
1438.64	4952.66
1442.83	6817.51
1447.02	7472.6
1451.21	8265.22
1455.39	8138.31
1459.58	7199.04
1463.76	5867.53
1467.94	3979.82
1472.11	3578.86
1476.28	2744.23
1480.45	2815.24
1484.62	2028.3
1488.79	1082.31
1492.95	673.422
1497.11	460.938
1501.27	213.965
1505.43	226.086
1509.58	89.8828
1513.73	33.9141
1517.88	311.977
1522.03	565.008
1526.18	878.516
1530.32	767.887
1534.46	695.258
1538.6	681.234
1542.73	570.211
1546.86	309.59
1550.99	272.023
1555.12	92.4883
1559.25	199.812
