Measurement: Raman, 514 nm, depolarized, Raman Data Processed
Mineral: Astrophyllite
Rruff sample: R060103
Ideal chemistry: K_2_NaFe^2+^_7_Ti^4+^_2_(Si_4_O_12_)_2_O_2_(OH)_4_F
Locality: Brivik, Norway
Source: University of Arizona Mineral Museum
Description: Brown fragment embedded in matrix
Measured chemistry: K_2.00_Na_1.00_(Fe^2+^_0.55_Mn_0.32_Fe^3+^_0.04_Mg_0.04_Ca_0.04_)_7_(Ti_0.66_Zr_0.18_Al_0.16_)_2_Si_8.00_O_26_(OH)_4_F_1.00_
Pin_id: M01690
Orientation: Laser parallel to (0 1 1). Fiducial mark perpendicular to laser is parallel to a [1 0 0]
Raman shift (cm-1)	intensity
150.165	0
155.096	176.099
160.024	361.384
164.949	855.217
169.872	1173.25
174.791	900.636
179.708	369.262
184.622	1.875
189.533	61.9815
194.441	106.844
199.347	401.993
204.249	746.839
209.149	820.44
214.046	1134.39
218.94	1541.34
223.832	2088.73
228.72	2445.38
233.606	2927.14
238.489	3235.55
243.369	3078.76
248.247	2623.83
253.121	2297.84
257.993	2147.94
262.862	1931
267.728	1245.65
272.592	1047.18
277.452	751.159
282.31	416.44
287.165	253.949
292.017	310.675
296.867	379.023
301.714	467.838
306.558	456.977
311.399	775.129
316.237	585
321.073	798.699
325.906	728.034
330.736	797.505
335.563	850.394
340.387	1162.23
345.209	1409.15
350.028	1616.06
354.844	1414.1
359.658	1415.55
364.469	1105.73
369.277	1087.23
374.082	1211.13
378.884	1199.55
383.684	1220.67
388.481	1055.18
393.275	1148.54
398.066	914.756
402.855	802.257
407.641	655.067
412.424	512.297
417.205	655.902
421.983	396.857
426.758	441.163
431.53	295.829
436.299	90.8633
441.066	29.7676
445.83	131.382
450.591	98.3457
455.35	142.28
460.106	144.676
464.859	297.977
469.609	631.705
474.357	470.857
479.102	358.446
483.844	423.448
488.584	361.859
493.321	369.675
498.055	199.875
502.786	137.416
507.515	68.2598
512.241	94.7158
516.964	76.6318
521.685	93.7656
526.402	17.9072
531.118	98.5557
535.83	6.69629
540.54	209.16
545.247	365.345
549.951	1106.05
554.653	1954.35
559.352	2791.31
564.048	2770.99
568.742	1917.43
573.432	1458.54
578.121	986.815
582.806	881.721
587.489	756.2
592.169	720.501
596.847	692.388
601.521	830.104
606.193	691.665
610.863	798.582
615.53	717.72
620.194	1141.65
624.855	1423.39
629.514	1450.95
634.17	1912.34
638.823	2455.05
643.474	3567.16
648.122	5228.11
652.767	7186.38
657.41	7815.83
662.05	5911.33
666.688	4288.29
671.322	3745.03
675.954	4259.87
680.584	4828.31
685.211	5641.31
689.835	6452.77
694.456	6851.84
699.075	7393.68
703.691	7751.88
708.305	7944.36
712.916	8195.64
717.524	7918.36
722.13	7181.4
726.733	6166.33
731.333	5090.03
735.931	4480.11
740.526	3380.32
745.118	3063.48
749.708	2679.89
754.295	2384.53
758.88	2325.41
763.462	1859.55
768.041	1846.94
772.618	1655.6
777.192	1534.55
781.763	1430.8
786.332	1263.4
790.898	1057.45
795.462	1153.4
800.023	993.208
804.581	711.85
809.137	399.262
813.69	159.356
818.24	187.923
822.788	226.779
827.334	37.8213
831.876	58.126
836.416	109.782
840.954	90.6269
845.489	21.0059
850.021	52.9277
854.551	84.1641
859.078	141.168
863.602	189.076
868.124	8.86719
872.644	279.225
877.16	297.6
881.675	429.379
886.186	938.34
890.695	1441.57
895.202	1748.08
899.705	2229.76
904.207	2518.65
908.705	3420.85
913.201	4042.24
917.695	4375.73
922.186	4271.33
926.674	4065.01
931.16	4034.76
935.643	3813.59
940.124	3201.48
944.602	2548.55
949.077	1743.68
953.55	1619.8
958.021	915.709
962.489	734.85
966.954	560.199
971.417	187.654
975.877	14.7422
980.334	59.7168
984.789	67.5723
989.242	102.201
993.692	278.951
998.139	477.211
1002.58	811.299
1007.03	580.402
1011.47	959.393
1015.9	1326.97
1020.34	1741.85
1024.77	2380
1029.2	2350.76
1033.63	2628.16
1038.05	2581.55
1042.47	1929.3
1046.89	1692.01
1051.31	1307.38
1055.72	978.625
1060.14	615.738
1064.55	562.092
1068.95	349.514
1073.36	610.521
1077.76	530.275
1082.16	746.689
1086.55	455.951
1090.95	347.07
1095.34	393.059
1099.73	340.045
1104.12	390.078
1108.5	411.596
1112.88	644.953
1117.26	208.227
1121.64	67.1738
1126.01	146.529
1130.38	88.7012
1134.75	37.7012
1139.12	150.467
1143.48	25.2402
1147.84	234.514
1152.2	50.9199
1156.56	34.1211
1160.91	24.8008
1165.27	66.2129
1169.61	120.631
1173.96	155.883
1178.31	200.166
1182.65	215.258
1186.98	650.162
1191.32	338.875
1195.66	163.398
1199.99	103.686
1204.32	132.481
1208.64	26.2891
1212.97	292.82
1217.29	371.555
1221.61	217.424
1225.93	430.33
1230.24	430.188
1234.55	357.496
1238.86	588.543
1243.17	499.762
1247.47	539.422
1251.78	579.269
1256.07	596.461
1260.37	365.82
1264.67	499.26
1268.96	438.998
1273.25	486.119
1277.54	387.342
1281.82	405.602
1286.1	456.397
1290.38	526.121
1294.66	378.008
1298.93	527.404
1303.21	429.373
1307.48	359.912
1311.74	487.559
1316.01	339.094
1320.27	465.527
1324.53	252.467
1328.79	296.953
1333.05	52.8965
1337.3	112.973
1341.55	53.5488
1345.8	85.1777
1350.04	220.703
1354.29	243.102
1358.53	225.289
1362.76	26.6523
1367	26.2578
1371.23	225.965
1375.46	103.488
1379.69	95.6816
1383.92	199.144
1388.14	95.9414
1392.36	30.3359
1396.58	59.6035
1400.8	153.31
1405.01	277.91
1409.22	165.508
1413.43	6.16211
1417.64	164.508
1421.85	158.76
1426.05	348.992
1430.25	292.391
1434.44	476.244
1438.64	837.018
1442.83	847.104
1447.02	1048.19
1451.21	860.271
1455.39	875.697
1459.58	1065.98
1463.76	726.918
1467.94	614.844
1472.11	492.394
1476.28	373.109
1480.45	480.353
1484.62	407.477
1488.79	356.641
1492.95	201.137
1497.11	194.033
1501.27	154.885
1505.43	86.5684
1509.58	302.158
1513.73	219.455
1517.88	17.6445
1522.03	27.6816
1526.18	98.0977
1530.32	175.797
1534.46	170.35
1538.6	180.662
1542.73	170.236
1546.86	171.268
1550.99	65.0391
1555.12	30.3965
1559.25	131.33
