Measurement: Raman, 514 nm, depolarized, Raman Data Processed
Mineral: Astrophyllite
Rruff sample: R060202
Ideal chemistry: K_2_NaFe^2+^_7_Ti^4+^_2_(Si_4_O_12_)_2_O_2_(OH)_4_F
Locality: Demix Quarry, Mont Saint-Hilaire, Rouville County, Quebec, Canada
Source: Royal Ontario Museum
Description: Aggregate of brown splintered wafers
Measured chemistry: (K_0.56_Na_0.38_Ca_0.06_)_3_(Fe^2+^_0.52_Mn_0.44_Mg_0.04_)_7_(Ti_0.75_Zr_0.15_Al_0.15_)_2_Si_8_O_24_(O_0.27_OH_0.73_)_7_
Pin_id: M00170
Orientation: Laser parallel to (-1 0 -1). Fiducial mark perpendicular to laser is parallel to -b [0 -1 0]
Raman shift (cm-1)	intensity
124.288	0
129.209	376.641
134.127	690.414
139.043	1153.55
143.956	25.668
148.867	184.982
153.775	746.863
158.681	1842.38
163.585	3031.84
168.486	3570.1
173.385	2950.67
178.282	1522.9
183.176	519.998
188.067	400.9
192.956	88.0469
197.843	705.809
202.727	1069.06
207.609	1136.99
212.489	1301.16
217.366	1757.86
222.24	2329.15
227.112	2919.42
231.982	3216.47
236.849	3757.41
241.714	3903.91
246.577	3546.95
251.437	3704.22
256.294	3697.54
261.149	4029.63
266.002	2672.76
270.852	1963.91
275.7	1357.45
280.545	953.523
285.388	827.266
290.229	977.537
295.067	879.269
299.902	605.731
304.735	776.697
309.566	822.834
314.394	953.391
319.22	1109.71
324.043	1147.38
328.864	1199.25
333.682	1442
338.498	1702.52
343.311	1888.26
348.122	1754.59
352.931	1468.03
357.737	1268.51
362.54	1257.99
367.341	1643.98
372.14	1241.71
376.936	1413.11
381.73	899.019
386.521	1241.52
391.31	1069.49
396.096	1172.61
400.88	952.289
405.661	1026.89
410.44	920.414
415.216	912.887
419.99	1276.51
424.761	1150.31
429.53	831.316
434.297	632.519
439.061	163.086
443.822	157.684
448.581	55.9141
453.337	85.4297
458.091	326.344
462.843	445.152
467.592	399.894
472.338	527.586
477.082	420.258
481.824	312.82
486.563	123.231
491.3	116.059
496.034	4.19922
500.765	304.981
505.494	51.457
510.221	209.738
514.945	358.691
519.666	122.074
524.385	151.891
529.102	95.7891
533.816	192.723
538.527	573.492
543.236	1189.25
547.943	1675.12
552.647	2447.25
557.348	2551.8
562.047	2472.33
566.744	2037.09
571.438	1726.14
576.129	1183.72
580.818	1270.2
585.504	1741.12
590.188	1896.9
594.87	1738.6
599.549	2181.38
604.225	2158.74
608.899	2642.71
613.57	3058.28
618.239	3048.23
622.905	3671.46
627.569	3974.33
632.23	4357.79
636.889	5228.83
641.545	6539.36
646.198	8745.59
650.849	10879.8
655.498	11067.2
660.144	9432.43
664.787	9100.78
669.428	8003.52
674.067	8445.61
678.703	9799.03
683.336	10307
687.967	11332.9
692.595	11843.6
697.221	12114
701.844	11968.1
706.465	11992.7
711.083	11554.1
715.698	11008
720.311	10087.6
724.922	8813.22
729.53	7438.98
734.135	6350.32
738.738	5741.79
743.338	5470.35
747.936	4991.98
752.531	4416.69
757.124	4195.5
761.714	4139.47
766.302	3983.63
770.887	3613.03
775.469	3866.79
780.049	3502.52
784.626	3771.26
789.201	3451.27
793.773	2856.89
798.343	2221.74
802.91	1713.51
807.475	1333.13
812.037	841.305
816.596	657.738
821.153	181.398
825.707	147.141
830.259	46.6797
834.808	225.227
839.355	330.012
843.899	400.699
848.441	333.461
852.98	375.762
857.516	386.57
862.05	249.984
866.581	424.945
871.11	715.168
875.636	883.766
880.159	1489.68
884.68	1937.64
889.199	2382.45
893.714	2867.41
898.228	3537.5
902.738	4424.4
907.246	5384.94
911.752	5754.82
916.255	6409.97
920.755	6632.51
925.253	6990.27
929.748	7098.21
934.241	6792.26
938.731	5985.57
943.218	5456.09
947.703	4486.66
952.186	3697.29
956.665	2945.97
961.142	2630.91
965.617	1728.16
970.089	1328.74
974.558	1201.62
979.025	1033.77
983.489	1019.43
987.951	1271.2
992.41	1662.61
996.866	2133.18
1001.32	2830.47
1005.77	3875.82
1010.22	5220.03
1014.67	7673.12
1019.11	9657.49
1023.55	11249
1027.99	12990.7
1032.42	12753.7
1036.86	12202.9
1041.29	10319.5
1045.72	7790.04
1050.14	5857.69
1054.56	4291.78
1058.98	3302.92
1063.4	2710.78
1067.82	2446.17
1072.23	2130.81
1076.64	2227.38
1081.05	1503.03
1085.45	1645.94
1089.85	1453.39
1094.25	1446.46
1098.65	1019.03
1103.04	998.914
1107.43	506.906
1111.82	360.812
1116.21	347.715
1120.59	266.898
1124.97	170.41
1129.35	226.824
1133.73	16.2344
1138.1	94.0273
1142.47	104.766
1146.84	26.9062
1151.21	66.3008
1155.57	139.488
1159.93	58.5781
1164.29	354.844
1168.64	122.832
1172.99	133.859
1177.34	330.387
1181.69	37.3398
1186.04	110.68
1190.38	236.574
1194.72	342.117
1199.05	138.664
1203.39	272.766
1207.72	339.754
1212.05	124.539
1216.37	358.098
1220.7	401.359
1225.02	423.312
1229.34	732.941
1233.65	304.25
1237.97	380.203
1242.28	634.785
1246.59	388.938
1250.89	459.59
1255.19	206.707
1259.49	582.648
1263.79	520.609
1268.09	598.191
1272.38	231.871
1276.67	26.5156
1280.95	225.512
1285.24	395.348
1289.52	449.594
1293.8	300.617
1298.08	608.519
1302.35	607.211
1306.62	835.66
1310.89	1054.91
1315.15	388.215
1319.42	411.973
1323.68	835.672
1327.94	533.031
1332.19	531.766
1336.44	630.711
1340.69	640.555
1344.94	746.629
1349.19	413.047
1353.43	969.516
1357.67	739.586
1361.9	844.031
1366.14	583.098
1370.37	674.789
1374.6	854.5
1378.83	582.394
1383.05	674.465
1387.27	513.215
1391.49	427.664
1395.7	619.754
1399.92	256.781
1404.13	621.406
1408.34	577.336
1412.54	537.777
1416.74	647.461
1420.94	529.773
1425.14	494.09
1429.34	555.539
1433.53	469.387
1437.72	311.312
1441.9	670.266
1446.09	385.547
1450.27	351.945
1454.45	461.609
1458.63	433.941
1462.8	86.3164
1466.97	494.523
1471.14	506.68
1475.31	530.551
1479.47	172.332
1483.63	321.688
1487.79	256.344
