Measurement: Raman, 514 nm, ccw, Raman Data Processed
Mineral: Astrophyllite
Rruff sample: R060103
Ideal chemistry: K_2_NaFe^2+^_7_Ti^4+^_2_(Si_4_O_12_)_2_O_2_(OH)_4_F
Locality: Brivik, Norway
Source: University of Arizona Mineral Museum
Description: Brown fragment embedded in matrix
Measured chemistry: K_2.00_Na_1.00_(Fe^2+^_0.55_Mn_0.32_Fe^3+^_0.04_Mg_0.04_Ca_0.04_)_7_(Ti_0.66_Zr_0.18_Al_0.16_)_2_Si_8.00_O_26_(OH)_4_F_1.00_
Pin_id: L00382
Orientation: Laser parallel to b* (0 1 0). Fiducial mark perpendicular to laser is parallel to c [0 0 1]
Raman shift (cm-1)	intensity
80.654	0
85.584	889.142
90.512	1725.17
95.438	1749.47
100.362	1016.38
105.284	962.577
110.203	435.376
115.12	662.355
120.035	368.097
124.948	134.043
129.858	144.418
134.766	110.095
139.672	214.069
144.576	78.5781
149.478	41.0742
154.377	873.635
159.274	2816.03
164.169	4890.6
169.061	6719.94
173.951	6871.1
178.839	4424.4
183.725	2280.95
188.609	938.293
193.49	362.085
198.369	301.97
203.246	345.336
208.12	680.822
212.992	936.442
217.862	1093.2
222.73	1192.09
227.595	1027.12
232.458	752.017
237.319	695.332
242.178	573.805
247.034	288.84
251.888	159.622
256.739	39.9404
261.588	224.392
266.435	298.829
271.28	336.151
276.123	325.015
280.963	605.062
285.8	740.062
290.636	717.966
295.469	935.642
300.3	1101.1
305.128	966.743
309.954	1100.82
314.778	1136.9
319.6	1074.19
324.419	1238.01
329.236	1273.77
334.05	1352.99
338.862	1792.73
343.672	1923.74
348.479	1836.24
353.284	1721.67
358.087	1549.98
362.887	1321.12
367.685	1303.75
372.481	1117.93
377.274	1059.9
382.065	1022.95
386.854	897.981
391.64	764.426
396.424	520.408
401.205	462.897
405.984	287.749
410.761	112.932
415.535	38.2793
420.307	162.506
425.077	124.373
429.844	53.2529
434.609	116.893
439.371	138.545
444.131	65.4121
448.888	8.54297
453.643	159.871
458.396	260.117
463.146	431.46
467.894	494.677
472.64	456.674
477.383	365.954
482.124	359.379
486.862	154.127
491.598	236.207
496.331	185.679
501.062	126.578
505.791	70.1846
510.517	42.2109
515.24	74.043
519.962	143.228
524.68	90.5029
529.397	68.4678
534.111	49.7246
538.822	145.818
543.531	327.199
548.238	1034.91
552.942	1609.9
557.643	2057.49
562.343	1946.42
567.039	1338.24
571.734	849.318
576.425	596.363
581.115	491.172
585.802	748.24
590.486	684.572
595.168	1178.65
599.848	1394.68
604.524	1614.02
609.199	1856.02
613.871	2112.2
618.541	2340.22
623.208	2855.57
627.872	3199.28
632.534	3857.22
637.194	4351.86
641.851	5476.31
646.506	7084.42
651.158	8517.28
655.807	9190.98
660.454	7963.77
665.099	7146.1
669.741	7265.08
674.381	7981.49
679.018	9395.77
683.652	11023.9
688.284	12590.1
692.914	14293.5
697.541	15569.5
702.165	16939.4
706.787	18045.3
711.406	18484
716.023	18478.8
720.638	17679.3
725.249	16374.9
729.859	14658.4
734.465	12792.2
739.07	11353.1
743.671	10147.3
748.27	9462.24
752.867	9193.04
757.461	8883.07
762.053	8254.26
766.641	7876.72
771.228	7265.1
775.812	7090.39
780.393	6775.59
784.972	6522.81
789.548	6204.08
794.121	5348.38
798.692	4536.88
803.261	3477.6
807.827	2727.35
812.39	2021.12
816.951	1600.74
821.509	1096.14
826.064	985.281
830.617	546.195
835.168	338.87
839.716	97.9033
844.261	60.8467
848.804	72.1543
853.344	218.57
857.881	341.606
862.416	223.866
866.948	114.514
871.478	108.286
876.005	164.532
880.53	215.775
885.052	489.721
889.571	646.313
894.088	896.748
898.602	976.984
903.113	1167.98
907.622	1393.46
912.128	1529.26
916.632	1920.37
921.133	1838.77
925.631	2154.57
930.127	1948.66
934.62	1859.99
939.111	1787.52
943.599	1836.28
948.084	1836.18
952.567	1596.2
957.047	1710.33
961.524	1589.54
965.999	1516.8
970.471	1485.06
974.941	1501.31
979.408	1543.52
983.872	1718.71
988.333	2384.7
992.792	2964.84
997.249	3847
1001.7	5223.68
1006.15	6840.13
1010.6	9277.38
1015.05	12807.2
1019.49	16902.3
1023.93	21144.5
1028.37	23920.8
1032.8	24809.4
1037.24	23658.5
1041.66	20930.2
1046.09	16329.5
1050.52	12074
1054.94	8720.31
1059.36	6340.05
1063.77	4920.83
1068.19	4184.05
1072.6	3622.15
1077.01	3262.75
1081.41	3026.19
1085.82	2555.6
1090.22	2284.49
1094.61	2200.45
1099.01	1904.38
1103.4	1686.43
1107.79	1132.92
1112.18	693.311
1116.56	398.261
1120.94	372.282
1125.32	180.11
1129.7	3.25781
1134.07	11.4414
1138.44	82.5625
1142.81	20.0557
1147.18	44.7559
1151.54	3.41211
1155.9	105.623
1160.26	26.3584
1164.61	62.8799
1168.96	33.5576
1173.31	107.252
1177.66	44.4473
1182	183.054
1186.34	0.96875
1190.68	79.1856
1195.02	2.72168
1199.35	172.707
1203.68	58.0029
1208.01	192.685
1212.33	146.767
1216.65	18.5244
1220.97	160.572
1225.29	168.602
1229.6	237.409
1233.91	218.102
1238.22	205.926
1242.53	208.483
1246.83	181.529
1251.13	160.478
1255.43	377.09
1259.72	332.328
1264.01	312.397
1268.3	308.648
1272.59	226.06
1276.87	228.865
1281.15	161.247
1285.43	270.81
1289.7	145.288
1293.98	295.558
1298.25	207.602
1302.51	138.378
1306.78	171.745
1311.04	192.353
1315.3	198.997
1319.56	198.152
1323.81	162.844
1328.06	233.739
1332.31	140.061
1336.55	120.106
1340.79	173.407
1345.03	43.917
1349.27	35.5244
1353.5	73.5049
1357.73	51.4102
1361.96	132.164
1366.19	95.9473
1370.41	40.4248
1374.63	11.5801
1378.85	10.8486
1383.06	61.0674
1387.27	134.017
1391.48	63.7422
1395.69	83.0703
1399.89	127.959
1404.09	104.967
1408.29	6.22754
1412.48	114.252
1416.68	133.525
1420.87	201.371
1425.05	222.117
1429.24	313.504
1433.42	295.837
1437.6	595.938
1441.77	638.654
1445.94	733.834
1450.11	685.373
1454.28	521.382
1458.44	643.462
1462.61	439.188
1466.76	410.758
1470.92	202.777
1475.07	129.737
1479.22	232.526
1483.37	94.7158
1487.52	242.005
1491.66	53.5566
1495.8	4.00977
1499.93	9.53906
1504.06	245.227
1508.19	133.991
1512.32	122.795
1516.45	45.7549
1520.57	330.926
1524.69	50.21
1528.8	194.645
1532.92	153.505
1537.03	17.7676
1541.14	53.3672
1545.24	80.5977
1549.34	158.956
1553.44	282.512
1557.54	146.669
1561.63	233.359
1565.72	59.4785
1569.81	79.4551
1573.9	0.15625
