Measurement: Raman, 514 nm, ccw, Raman Data Processed
Mineral: Astrophyllite
Rruff sample: R060103
Ideal chemistry: K_2_NaFe^2+^_7_Ti^4+^_2_(Si_4_O_12_)_2_O_2_(OH)_4_F
Locality: Brivik, Norway
Source: University of Arizona Mineral Museum
Description: Brown fragment embedded in matrix
Measured chemistry: K_2.00_Na_1.00_(Fe^2+^_0.55_Mn_0.32_Fe^3+^_0.04_Mg_0.04_Ca_0.04_)_7_(Ti_0.66_Zr_0.18_Al_0.16_)_2_Si_8.00_O_26_(OH)_4_F_1.00_
Pin_id: L00382
Orientation: Laser parallel to b* (0 1 0). Fiducial mark perpendicular to laser is parallel to c [0 0 1]
Raman shift (cm-1)	intensity
80.654	0
85.584	1379.28
90.512	2333.89
95.438	2110.43
100.362	1293.65
105.284	672.806
110.203	47.6475
115.12	917.227
120.035	961.967
124.948	1158
129.858	943.86
134.766	575.019
139.672	5.55469
144.576	350.644
149.478	183.032
154.377	603.87
159.274	1600.06
164.169	2639.22
169.061	3309.77
173.951	3120.85
178.839	2151.09
183.725	1218.42
188.609	943.057
193.49	1158.46
198.369	1611.18
203.246	2041.62
208.12	2565.59
212.992	2888.12
217.862	3443.45
222.73	4401.23
227.595	5677.52
232.458	6685.51
237.319	7074.36
242.178	6542.99
247.034	5853.47
251.888	3874.15
256.739	2693.13
261.588	1927.17
266.435	1519.3
271.28	1124.33
276.123	924.993
280.963	644.856
285.8	519.402
290.636	196.878
295.469	218.591
300.3	158.169
305.128	207.602
309.954	297.523
314.778	295.736
319.6	312.762
324.419	613.836
329.236	920.764
334.05	1416.59
338.862	2196.1
343.672	2686.55
348.479	3150.98
353.284	3181.33
358.087	3041.33
362.887	2811.95
367.685	2386.7
372.481	2054.86
377.274	1901.45
382.065	1822.69
386.854	1799.61
391.64	1434.6
396.424	1097.34
401.205	744.735
405.984	575.038
410.761	450.352
415.535	499.626
420.307	512.865
425.077	369.092
429.844	168.297
434.609	114.483
439.371	230.731
444.131	266.396
448.888	241.464
453.643	6.31445
458.396	445.478
463.146	913.473
467.894	1308.07
472.64	1488.86
477.383	1458.9
482.124	1288.21
486.862	1157.81
491.598	1132.73
496.331	526.989
501.062	262.622
505.791	98.6157
510.517	132.203
515.24	157.233
519.962	154.709
524.68	177.955
529.397	130.835
534.111	213.125
538.822	662.383
543.531	1555.47
548.238	3042.68
552.942	5022.56
557.643	7119.04
562.343	7255.5
567.039	5788.03
571.734	4431.56
576.425	3017.76
581.115	2576.88
585.802	2240.5
590.486	2189.3
595.168	2152.49
599.848	2179.2
604.524	2126.97
609.199	2035.63
613.871	2110.63
618.541	2488.97
623.208	2994.7
627.872	3424.81
632.534	4149.33
637.194	5573.29
641.851	7574.54
646.506	10904.1
651.158	14824
655.807	16473.8
660.454	13974.2
665.099	10749.4
669.741	9804.49
674.381	10295.8
679.018	11937
683.652	13721.9
688.284	15639.6
692.914	17319
697.541	18907.3
702.165	19928.8
706.787	20560.5
711.406	21145.2
716.023	20274.7
720.638	19254.6
725.249	17176.3
729.859	14812.9
734.465	12582
739.07	10517.2
743.671	9183.84
748.27	7910.27
752.867	7457.36
757.461	6723.27
762.053	6145.6
766.641	5388.35
771.228	4607.49
775.812	4082.02
780.393	3699.94
784.972	3499.07
789.548	3038.09
794.121	2739.75
798.692	1992.42
803.261	1431.11
807.827	1163.49
812.39	759.269
816.951	403.303
821.509	109.566
826.064	162.038
830.617	12.5469
835.168	58.0605
839.716	99.126
844.261	218.776
848.804	129.791
853.344	188.454
857.881	208.807
862.416	30.9238
866.948	43.1055
871.478	2.04004
876.005	199.006
880.53	503.944
885.052	920.832
889.571	1099.65
894.088	1481.61
898.602	1869.59
903.113	2183.47
907.622	2540.23
912.128	2794.84
916.632	2986.4
921.133	2849.82
925.631	2841.08
930.127	2567.16
934.62	2340.1
939.111	2005.83
943.599	1631.3
948.084	1408.5
952.567	1097.65
957.047	1046.1
961.524	760.38
965.999	615.332
970.471	470.755
974.941	424.643
979.408	259.575
983.872	146.474
988.333	276.33
992.792	159.987
997.249	585.186
1001.7	817.965
1006.15	908.564
1010.6	1319.27
1015.05	1722.58
1019.49	2263.01
1023.93	2836.04
1028.37	3236.56
1032.8	3308.06
1037.24	3113.63
1041.66	2872.51
1046.09	2271.23
1050.52	2067.74
1054.94	1617.94
1059.36	1496.11
1063.77	1300.02
1068.19	1418.8
1072.6	1111.96
1077.01	1188.35
1081.41	1224.43
1085.82	971.38
1090.22	830.689
1094.61	587.857
1099.01	489.166
1103.4	424.081
1107.79	217.051
1112.18	153.047
1116.56	64.5459
1120.94	95.1494
1125.32	63.0713
1129.7	21.5264
1134.07	75.2266
1138.44	29.082
1142.81	8.48535
1147.18	62.8291
1151.54	167.86
1155.9	103.914
1160.26	5.95606
1164.61	12.5664
1168.96	46.3047
1173.31	50.7969
1177.66	37.9072
1182	3.4707
1186.34	132.694
1190.68	135.486
1195.02	49.1103
1199.35	89.7227
1203.68	83.5762
1208.01	25.0088
1212.33	80.9014
1216.65	152.227
1220.97	223.881
1225.29	137.761
1229.6	188.435
1233.91	192.336
1238.22	227.123
1242.53	212.357
1246.83	303.462
1251.13	91.5234
1255.43	330.595
1259.72	253.93
1264.01	190.202
1268.3	267.419
1272.59	276.992
1276.87	290.277
1281.15	466.95
1285.43	415.488
1289.7	387.737
1293.98	481.394
1298.25	370.921
1302.51	517.972
1306.78	449.548
1311.04	373.772
1315.3	387.566
1319.56	179.218
1323.81	272.284
1328.06	60.5772
1332.31	105.772
1336.55	331.777
1340.79	201.678
1345.03	113.02
1349.27	91.1963
1353.5	225.829
1357.73	5.86035
1361.96	181.373
1366.19	59.999
1370.41	131.167
1374.63	84.6494
1378.85	83.1348
1383.06	103.77
1387.27	63.918
1391.48	40.0869
1395.69	36.9072
1399.89	22.6748
1404.09	63.0635
1408.29	125.234
1412.48	173.347
1416.68	105.543
1420.87	251.676
1425.05	216.537
1429.24	224.333
1433.42	404.079
1437.6	585.824
1441.77	644.67
1445.94	656.556
1450.11	602.387
1454.28	629.038
1458.44	542.898
1462.61	419.089
1466.76	319.782
1470.92	194.984
1475.07	97.8418
1479.22	180.566
1483.37	175.958
1487.52	161.753
1491.66	104.993
1495.8	17.2285
1499.93	134.488
1504.06	139.076
1508.19	37.7627
1512.32	184.216
1516.45	160.414
1520.57	149.89
1524.69	154.909
1528.8	191.622
1532.92	194.152
1537.03	72.1357
1541.14	161.449
1545.24	138.532
1549.34	147.484
1553.44	178.553
1557.54	119.929
1561.63	29.4434
1565.72	21.0742
1569.81	97.9062
1573.9	79.0908
