Measurement: Raman, 514 nm, depolarized, Raman Data Processed
Mineral: Astrophyllite
Rruff sample: R060202
Ideal chemistry: K_2_NaFe^2+^_7_Ti^4+^_2_(Si_4_O_12_)_2_O_2_(OH)_4_F
Locality: Demix Quarry, Mont Saint-Hilaire, Rouville County, Quebec, Canada
Source: Royal Ontario Museum
Description: Aggregate of brown splintered wafers
Measured chemistry: (K_0.56_Na_0.38_Ca_0.06_)_3_(Fe^2+^_0.52_Mn_0.44_Mg_0.04_)_7_(Ti_0.75_Zr_0.15_Al_0.15_)_2_Si_8_O_24_(O_0.27_OH_0.73_)_7_
Pin_id: M00215
Orientation: Laser parallel to (1 1 0). Fiducial mark perpendicular to laser is parallel to -c [0 0 -1]
Raman shift (cm-1)	intensity
79.895	0
84.837	2815.84
89.777	5556.5
94.714	6600.44
99.649	6783.36
104.582	4745.51
109.512	3901.58
114.44	2772.89
119.365	2487.55
124.288	2685.5
129.209	3315.2
134.127	1182.88
139.043	504.209
143.956	499.938
148.867	284.785
153.775	383.469
158.681	1525.72
163.585	3126.3
168.486	4418.61
173.385	4000.75
178.282	2184.61
183.176	1165.08
188.067	901.398
192.956	1544.34
197.843	2787.14
202.727	4312.77
207.609	3658.46
212.489	4595.88
217.366	5837.71
222.24	7741.27
227.112	9446.31
231.982	11669.3
236.849	13417.4
241.714	13925.9
246.577	11974.1
251.437	10847
256.294	10011.9
261.149	9214.74
266.002	6245.85
270.852	3752.99
275.7	2044.73
280.545	868.744
285.388	229.606
290.229	11.1973
295.067	83.8965
299.902	272.512
304.735	59.8613
309.566	134.139
314.394	449.426
319.22	728.584
324.043	1035.43
328.864	1237.82
333.682	1743.3
338.498	2210.49
343.311	2803.1
348.122	3095.94
352.931	3200.06
357.737	3297.18
362.54	3563.28
367.341	3249.29
372.14	2858.47
376.936	2750.53
381.73	3437.31
386.521	3464.42
391.31	2927.99
396.096	2650.84
400.88	2459.3
405.661	2380.38
410.44	2434.21
415.216	2416.81
419.99	2837.16
424.761	2531.25
429.53	1689.1
434.297	805.619
439.061	329.369
443.822	229.217
448.581	344.947
453.337	149.441
458.091	244.289
462.843	1068.04
467.592	1442.65
472.338	1798.13
477.082	1463.49
481.824	1144.77
486.563	1147.02
491.3	652.264
496.034	468.522
500.765	50.6992
505.494	123.236
510.221	72.2481
514.945	254.353
519.666	267.316
524.385	213.141
529.102	37.2051
533.816	296.262
538.527	1077.99
543.236	2180.07
547.943	4409.15
552.647	7854.76
557.348	9900.25
562.047	9654.89
566.744	7462.64
571.438	5464.29
576.129	4180.19
580.818	3518.02
585.504	3520.27
590.188	4163.02
594.87	3902.28
599.549	3698.81
604.225	3765.34
608.899	3857.98
613.57	4088.74
618.239	4779.68
622.905	5283.82
627.569	5912.18
632.23	7250.81
636.889	9045.72
641.545	12488.5
646.198	18052.2
650.849	26155.3
655.498	29684.4
660.144	22766.7
664.787	16904.4
669.428	15512.9
674.067	16549.8
678.703	18369.9
683.336	21056.8
687.967	23124.2
692.595	25066.5
697.221	26072.4
701.844	26940.5
706.465	26715.7
711.083	26834.7
715.698	25583.1
720.311	23338.4
724.922	20207
729.53	16958.1
734.135	14299.8
738.738	11707.2
743.338	9973.24
747.936	9209.79
752.531	8465.87
757.124	8004.01
761.714	6930.63
766.302	5929.33
770.887	4847.59
775.469	4307.4
780.049	3832.89
784.626	3489.3
789.201	3156.9
793.773	2681.88
798.343	2008.18
802.91	1421.47
807.475	874.318
812.037	446.852
816.596	45.8809
821.153	200.617
825.707	239.805
830.259	335.641
834.808	445.109
839.355	367.525
843.899	413.588
848.441	67.75
852.98	147.57
857.516	793.996
862.05	1132.01
866.581	1445.02
871.11	2205.75
875.636	3272.07
880.159	4669.95
884.68	5694.56
889.199	7228.97
893.714	8892.95
898.228	10528.5
902.738	12381.6
907.246	14468.3
911.752	16509.6
916.255	18073.2
920.755	18671.3
925.253	18967.6
929.748	18843.2
934.241	17707
938.731	15996.9
943.218	13426.9
947.703	10985.9
952.186	8772.95
956.665	7102.84
961.142	4992.7
965.617	3272.43
970.089	2228.65
974.558	1542.89
979.025	876.418
983.489	722.957
987.951	798.262
992.41	806.586
996.866	1247.43
1001.32	1670.89
1005.77	2337.67
1010.22	3342.59
1014.67	4530.93
1019.11	6000.03
1023.55	7258.21
1027.99	8142.01
1032.42	8373.07
1036.86	7620.34
1041.29	6446.62
1045.72	5169.11
1050.14	4131.85
1054.56	3112.19
1058.98	2560.03
1063.4	2202.24
1067.82	2289.06
1072.23	2182.77
1076.64	2284.67
1081.05	2191.12
1085.45	2158.89
1089.85	1920.87
1094.25	1606.01
1098.65	1240.44
1103.04	928.092
1107.43	729.615
1111.82	450.43
1116.21	370.826
1120.59	286.865
1124.97	229.312
1129.35	68.1211
1133.73	173.156
1138.1	191.238
1142.47	20.3691
1146.84	213.383
1151.21	137.113
1155.57	34.6523
1159.93	90.2188
1164.29	34.0547
1168.64	132.144
1172.99	99.6133
1177.34	139.516
1181.69	112.531
1186.04	44.7539
1190.38	28.209
1194.72	165.945
1199.05	70.0644
1203.39	97.582
1207.72	68.9121
1212.05	298.461
1216.37	219.043
1220.7	130.463
1225.02	237.685
1229.34	167.107
1233.65	409.072
1237.97	513.584
1242.28	326.699
1246.59	336.059
1250.89	506.459
1255.19	196.812
1259.49	515.856
1263.79	560.922
1268.09	425.576
1272.38	507.268
1276.67	450.055
1280.95	301.572
1285.24	223.461
1289.52	355.918
1293.8	449.685
1298.08	415.69
1302.35	298.217
1306.62	485.875
1310.89	419.545
1315.15	475.389
1319.42	463.498
1323.68	454.209
1327.94	351.289
1332.19	191.949
1336.44	154.881
1340.69	122.772
1344.94	340.162
1349.19	180.752
1353.43	11.0957
1357.67	300.352
1361.9	50.252
1366.14	8.30859
1370.37	90.3418
1374.6	173.193
1378.83	95.1836
1383.05	272.871
1387.27	12.3105
1391.49	180.791
1395.7	207.603
1399.92	8.33594
1404.13	191.772
1408.34	83.3691
1412.54	184.176
1416.74	225.443
1420.94	83.3769
1425.14	40.8398
1429.34	147.74
1433.53	307.635
1437.72	436.717
1441.9	542.428
1446.09	509.227
1450.27	581.715
1454.45	594.115
1458.63	570.59
1462.8	402.203
1466.97	300.262
1471.14	302.025
1475.31	427.318
1479.47	436.723
1483.63	252.234
1487.79	284.769
1491.94	179.062
1496.09	172.603
1500.24	103.014
1504.39	130.772
1508.54	273.492
1512.68	123.68
1516.82	269.508
1520.95	60.1719
1525.09	361.719
1529.22	248.26
1533.35	180.092
1537.47	76.4492
1541.6	227.883
1545.72	17.8105
