Measurement: Raman, 514 nm, depolarized, Raman Data Processed
Mineral: Atacamite
Rruff sample: R050098
Ideal chemistry: Cu^2+^_2_Cl(OH)_3_
Locality: La Farola mine, Tierra Amarilla, Atacama, Chile
Source: Rock Currier
Description: Green prismatic single crystals
Measured chemistry: Cu_2.00_Cl_1.00_(OH)_3_
Pin_id: M00116
Orientation: Laser parallel to -a* (-1 0 0). Fiducial mark perpendicular to laser is parallel to b [0 1 0]
Raman shift (cm-1)	intensity
54.966	0
59.164	183.582
63.36	381.598
67.554	69.17
71.747	82.575
75.937	116.293
80.125	991.734
84.311	2320.87
88.496	4423.66
92.678	6598.16
96.858	8137.14
101.036	9302.38
105.212	10810.4
109.387	15459.9
113.559	30279.7
117.729	41469.3
121.897	41531.8
126.063	27152.7
130.228	20785.4
134.39	22662.6
138.55	23062
142.709	26132.6
146.865	28415.9
151.019	25537.2
155.171	15257.8
159.322	8460.29
163.47	6620.16
167.617	6062.63
171.761	5589.85
175.904	5362.32
180.044	4972.05
184.183	4819.06
188.319	4616.35
192.454	4678.93
196.586	4826.76
200.717	4873.81
204.846	5333.08
208.972	5873.55
213.097	6546.16
217.22	6918.93
221.341	6189.8
225.46	4937.76
229.577	4073.85
233.692	3520.84
237.805	3328.66
241.916	3320.71
246.025	3364.73
250.132	3505.12
254.237	3939.35
258.34	4368.82
262.442	4739.08
266.541	4892.04
270.639	4407.94
274.734	3402.41
278.828	2461.04
282.919	1835.44
287.009	1292.6
291.097	1090.43
295.183	827.843
299.266	762.8
303.348	611.294
307.428	407.297
311.507	464.83
315.583	287.919
319.657	218.483
323.729	133.46
327.8	117.787
331.868	215.371
335.935	273.147
339.999	563.189
344.062	1026.54
348.123	1833.31
352.182	2864.43
356.239	3564.86
360.294	4098.62
364.347	3506.63
368.398	2304.86
372.448	1528.21
376.495	1304.54
380.54	1461.73
384.584	1736.74
388.626	2106.86
392.666	2322.16
396.704	2029.66
400.74	1447.4
404.774	780.285
408.806	337.126
412.836	96.863
416.865	71.608
420.891	285.699
424.916	490.972
428.939	411.906
432.959	418.438
436.978	201.562
440.996	284.261
445.011	1065.61
449.024	1942.5
453.036	1953.88
457.045	1379.31
461.053	1062.62
465.059	806.692
469.063	929.34
473.065	1034.62
477.065	1244.63
481.063	1816.39
485.06	2623.69
489.054	3780.86
493.047	5567.82
497.038	8734.79
501.027	12372.8
505.014	17591.2
508.999	23561.1
512.982	26907.4
516.964	24927.1
520.944	17521.6
524.921	11323.6
528.897	7295.83
532.871	5147.84
536.844	3684.95
540.814	2591.29
544.783	1997.68
548.749	1638.43
552.714	1207.84
556.677	1200.11
560.638	1108.98
564.597	1112.51
568.555	1140.65
572.511	1373.39
576.464	1677.39
580.416	1917.14
584.366	2180.03
588.315	2174.97
592.261	1733.52
596.206	1154.84
600.148	773.406
604.089	475.839
608.028	253.853
611.965	97.433
615.901	91.545
619.834	79.087
623.766	38.96
627.696	23.809
631.624	10.542
635.551	29.969
639.475	142.763
643.398	29.866
647.318	100.196
651.237	69.831
655.155	38.697
659.07	85.366
662.984	105.656
666.895	21.333
670.805	113.208
674.713	124.458
678.62	43.092
682.524	115.958
686.427	1.169
690.328	4.539
694.227	33.376
698.124	87.048
702.02	113.884
705.913	92.718
709.805	246.977
713.695	276.718
717.584	235.957
721.47	376.704
725.355	292.965
729.238	286.748
733.119	287.124
736.998	298.349
740.876	346.666
744.752	300.229
748.626	273.97
752.498	344.848
756.368	419.495
760.237	396.732
764.104	465.569
767.969	529.639
771.832	604.968
775.693	650.278
779.553	641.015
783.411	750.924
787.267	721.903
791.122	776.606
794.974	893.12
798.825	954.465
802.674	1109.02
806.522	1480.8
810.367	1852.25
814.211	2452.55
818.053	3540.08
821.893	5231.81
825.732	6765.02
829.568	6365.76
833.403	5047.47
837.236	4619.93
841.068	5868.73
844.898	6908.81
848.726	5155.33
852.552	3074.56
856.376	1697.75
860.199	1206.59
864.02	894.132
867.839	791.342
871.656	750.713
875.472	870.201
879.286	1003.82
883.098	1331.57
886.909	1624.46
890.717	2319.15
894.524	3548.75
898.33	5849.13
902.133	11111.7
905.935	20824.4
909.735	29520.4
913.533	28131.5
917.33	17943.9
921.124	9074.59
924.918	4888.2
928.709	3374.31
932.499	2403.94
936.286	1822.83
940.073	1536.15
943.857	1361.03
947.64	1087.43
951.421	1080.91
955.2	1043.29
958.978	1055.51
962.753	1118.54
966.527	1159.73
970.3	1375.89
974.071	1571.46
977.84	1837.62
981.607	2149.47
985.372	3024.93
989.136	3361.25
992.898	2712.27
996.659	2326.49
1000.42	2357.69
1004.17	2256.65
1007.93	2186.91
1011.68	2107.44
1015.43	1880.23
1019.18	1666.49
1022.93	1509.5
1026.68	1376.98
1030.42	1264.67
1034.17	1039.58
1037.91	870.559
1041.65	765.079
1045.39	609.661
1049.12	405.277
1052.86	347.362
1056.59	284.369
1060.33	201.658
1064.06	91.995
1067.78	37.088
1071.51	25.32
1075.23	49.607
1078.96	9.714
1082.68	85.238
1086.4	60.094
1090.12	70.129
1093.83	66.688
1097.55	42.766
1101.26	63.928
1104.97	8.092
1108.68	9.372
1112.39	43.215
1116.1	8.406
1119.8	117.404
1123.5	219.055
1127.2	74.179
1130.9	51.663
1134.6	84.693
1138.3	4.469
1141.99	64.057
1145.69	10.098
1149.38	69.05
1153.07	126.668
1156.76	115.295
1160.44	155.416
1164.13	159.178
1167.81	162.805
1171.49	147.097
1175.17	118.559
1178.85	76.089
1182.52	30.853
1186.2	2.294
1189.87	51.012
1193.54	13.18
1197.21	45.594
1200.88	28.965
1204.55	13.746
1208.21	27.52
1211.88	27.388
1215.54	6.072
1219.2	7.035
1222.86	19.782
1226.51	6.104
1230.17	4.297
1233.82	2.83
1237.47	8.332
1241.12	27.605
1244.77	9.47
1248.42	44.347
1252.06	30.685
1255.71	35.437
1259.35	22.762
1262.99	65.69
1266.63	28.474
1270.26	48.947
1273.9	97.11
1277.53	88.539
1281.16	29.551
1284.8	100.258
1288.42	112.179
1292.05	41.199
1295.68	19.528
1299.3	24.558
1302.92	107.292
1306.55	42.737
1310.16	57.893
1313.78	72.88
1317.4	87.566
1321.01	57.903
1324.62	54.018
1328.24	107.136
1331.85	124.646
1335.45	195.97
1339.06	103.177
1342.66	148.741
1346.27	138.818
1349.87	145.374
1353.47	92.909
1357.07	154.546
1360.66	123.587
1364.26	87.067
1367.85	36.09
1371.44	108.532
1375.04	99.379
1378.62	109.479
1382.21	132.543
1385.8	120.483
1389.38	115.868
1392.96	139.236
1396.54	126.953
1400.12	95.408
1403.7	117.378
1407.28	119.041
1410.85	152.305
1414.42	114.962
1417.99	110.638
1421.56	167.744
1425.13	122.298
1428.7	134.958
1432.26	139.023
1435.83	117.176
1439.39	149.409
1442.95	53.99
1446.51	55.107
1450.06	64.036
1453.62	64.145
1457.17	71.608
1460.73	40.257
1464.28	12.728
1467.83	10.064
1471.37	14.069
1474.92	26.311
1478.46	21.756
1482.01	50.464
1485.55	22.275
1489.09	57.25
1492.63	21.019
1496.16	35.944
1499.7	36.5
1503.23	27.624
1506.76	8.233
1510.29	58.036
1513.82	93.256
1517.35	63.387
1520.88	0.579
1524.4	45.018
1527.92	0
