Measurement: Raman, 514 nm, depolarized, Raman Data Processed
Mineral: Atacamite
Rruff sample: R050098
Ideal chemistry: Cu^2+^_2_Cl(OH)_3_
Locality: La Farola mine, Tierra Amarilla, Atacama, Chile
Source: Rock Currier
Description: Green prismatic single crystals
Measured chemistry: Cu_2.00_Cl_1.00_(OH)_3_
Pin_id: M00436
Orientation: Laser parallel to c* (0 0 1). Fiducial mark perpendicular to laser is parallel to a [1 0 0]
Raman shift (cm-1)	intensity
54.966	0
59.164	297.754
63.36	515.191
67.554	452.486
71.747	296.599
75.937	22.104
80.125	85.592
84.311	425.355
88.496	1382.97
92.678	2970.11
96.858	4176.14
101.036	5240.78
105.212	6865.59
109.387	10473.5
113.559	18889.1
117.729	24763.1
121.897	24361.7
126.063	14577.8
130.228	9760.02
134.39	9114.49
138.55	10190.2
142.709	13292.3
146.865	15520.6
151.019	15948
155.171	10756
159.322	6813.84
163.47	5590.66
167.617	4719.55
171.761	4188.34
175.904	4042.13
180.044	3937.23
184.183	3874.09
188.319	3903.49
192.454	4009.23
196.586	4375.27
200.717	4869.62
204.846	5955.29
208.972	7119.76
213.097	8234.77
217.22	8434.62
221.341	7109.32
225.46	4926.58
229.577	3345.6
233.692	2416.84
237.805	1930.89
241.916	1765.75
246.025	1361.7
250.132	1248.51
254.237	1088.99
258.34	797.692
262.442	668.501
266.541	531.318
270.639	506.065
274.734	326.68
278.828	237.109
282.919	147.286
287.009	128.886
291.097	77.516
295.183	239.623
299.266	149.317
303.348	150.647
307.428	127.618
311.507	102.231
315.583	75.411
319.657	169.89
323.729	452.73
327.8	757.133
331.868	1259.17
335.935	2237.01
339.999	3948.59
344.062	6678.69
348.123	10191.5
352.182	12593.3
356.239	12088.1
360.294	9094.97
364.347	6089.69
368.398	4088.3
372.448	2984.55
376.495	2515.32
380.54	2752.44
384.584	2824.85
388.626	2690.61
392.666	2222.72
396.704	1878.24
400.74	2371.21
404.774	3855.15
408.806	5680.66
412.836	6457.11
416.865	5199.8
420.891	2969.7
424.916	1629.78
428.939	1137
432.959	862.345
436.978	1321.78
440.996	2672.27
445.011	4780.53
449.024	6304.96
453.036	5480.05
457.045	3332.66
461.053	2109.93
465.059	1354.06
469.063	1105.21
473.065	1019.47
477.065	1026.06
481.063	1378.5
485.06	2125.24
489.054	2982.96
493.047	4612.03
497.038	7110.93
501.027	10928.6
505.014	16706.4
508.999	22960.4
512.982	26882.9
516.964	24476
520.944	17581.7
524.921	11362.2
528.897	7367.34
532.871	5084.43
536.844	3530.58
540.814	2575.54
544.783	2015.84
548.749	1635.71
552.714	1415.94
556.677	1366.75
560.638	1409.4
564.597	1507.66
568.555	1823.87
572.511	2168.01
576.464	2674.04
580.416	3321.94
584.366	4018.69
588.315	4394.25
592.261	4764.62
596.206	4691.75
600.148	4674.64
604.089	3707.26
608.028	2649.6
611.965	1503.71
615.901	928.55
619.834	579.182
623.766	379.593
627.696	177.722
631.624	29.559
635.551	108.944
639.475	57.983
643.398	67.149
647.318	5.252
651.237	81.678
655.155	105.548
659.07	190.938
662.984	159.066
666.895	135.115
670.805	225.11
674.713	153.218
678.62	107.195
682.524	31.99
686.427	4.473
690.328	16.286
694.227	102.718
698.124	111.806
702.02	252.009
705.913	351.398
709.805	253.369
713.695	281.061
717.584	353.385
721.47	480.07
725.355	493.118
729.238	525.53
733.119	548.307
736.998	462.45
740.876	531.96
744.752	546.844
748.626	540.103
752.498	586.74
756.368	565.762
760.237	638.173
764.104	621.987
767.969	525.208
771.832	727.838
775.693	784.886
779.553	849.772
783.411	885.335
787.267	907.219
791.122	1076.89
794.974	1151.35
798.825	1297.11
802.674	1425.25
806.522	1699.71
810.367	1933.89
814.211	2337.65
818.053	2725.95
821.893	3148.65
825.732	3745.96
829.568	4462
833.403	6238.08
837.236	9406.41
841.068	14801.3
844.898	17846
848.726	13725
852.552	8182.92
856.376	4916.39
860.199	3645.74
864.02	2865.38
867.839	2618.86
871.656	2524.26
875.472	2598.63
879.286	2711.97
883.098	3262.28
886.909	4204.6
890.717	5932.91
894.524	9055.29
898.33	14367.7
902.133	23918.2
905.935	38024.7
909.735	39275.4
913.533	24169.7
917.33	13624.7
921.124	8303.27
924.918	5832.54
928.709	4463.2
932.499	3658.02
936.286	3182.17
940.073	2983.04
943.857	2814.39
947.64	2882.33
951.421	3415.73
955.2	3578.63
958.978	3096.91
962.753	2413.21
966.527	2038.58
970.3	1888.15
974.071	1817.8
977.84	1566.37
981.607	1223
985.372	1115.55
989.136	1006.22
992.898	909.692
996.659	835.565
1000.42	812.977
1004.17	827.025
1007.93	799.366
1011.68	730.39
1015.43	601.805
1019.18	589.853
1022.93	411.093
1026.68	394.514
1030.42	297.105
1034.17	230.918
1037.91	245.065
1041.65	228.224
1045.39	160.408
1049.12	116.11
1052.86	95.284
1056.59	8.11
1060.33	105.065
1064.06	40.92
1067.78	20.971
1071.51	4.896
1075.23	30.541
1078.96	88.9
1082.68	5.881
1086.4	65.778
1090.12	85.137
1093.83	8.098
1097.55	20.603
1101.26	30.544
1104.97	45.417
1108.68	15.894
1112.39	27.748
1116.1	17.013
1119.8	31.801
1123.5	306.793
1127.2	17.608
1130.9	79.399
1134.6	78.72
1138.3	10.711
1141.99	1.079
1145.69	27.547
1149.38	123.95
1153.07	125.226
1156.76	107.929
1160.44	196.291
1164.13	225.872
1167.81	235.513
1171.49	145.176
1175.17	108.18
1178.85	129.743
1182.52	46.105
1186.2	84.794
1189.87	36.244
1193.54	52.216
1197.21	31.52
1200.88	57.513
1204.55	75.166
1208.21	44.62
1211.88	53.588
1215.54	34.869
1219.2	18.25
1222.86	27.645
1226.51	27.781
1230.17	58.336
1233.82	20.314
1237.47	30.964
1241.12	46.333
1244.77	39.881
1248.42	103.071
1252.06	62.471
1255.71	43.506
1259.35	44.898
1262.99	9.62
1266.63	92.869
1270.26	59.157
1273.9	102.096
1277.53	169.465
1281.16	109.328
1284.8	113.443
1288.42	77.815
1292.05	70.201
1295.68	75.458
1299.3	117.284
1302.92	46.821
1306.55	56.055
1310.16	72.987
1313.78	59.634
1317.4	127.008
1321.01	189.123
1324.62	125.984
1328.24	95.388
1331.85	154.66
1335.45	194.468
1339.06	155.809
1342.66	138.415
1346.27	173.607
1349.87	169.729
1353.47	134.265
1357.07	136.304
1360.66	100.212
1364.26	63.099
1367.85	140.509
1371.44	94.794
1375.04	132.243
1378.62	110.128
1382.21	119.706
1385.8	117.068
1389.38	114.423
1392.96	99.174
1396.54	98.335
1400.12	149.767
1403.7	122.481
1407.28	127.906
1410.85	56.672
1414.42	96.771
1417.99	101.997
1421.56	94.833
1425.13	53.06
1428.7	130.065
1432.26	95.854
1435.83	14.46
1439.39	88.817
1442.95	54.058
1446.51	114.337
1450.06	116.595
1453.62	96.598
1457.17	73.397
1460.73	115.432
1464.28	75.454
1467.83	116.426
1471.37	62.316
1474.92	96.52
1478.46	123.773
1482.01	103.707
1485.55	50.273
1489.09	60.247
1492.63	32.563
1496.16	74.138
1499.7	61.095
1503.23	54.548
1506.76	56.431
1510.29	63.356
1513.82	48.383
1517.35	47.416
1520.88	59.732
1524.4	0
