Measurement: Raman, 514 nm, depolarized, Raman Data Processed
Mineral: Atacamite
Rruff sample: R050098
Ideal chemistry: Cu^2+^_2_Cl(OH)_3_
Locality: La Farola mine, Tierra Amarilla, Atacama, Chile
Source: Rock Currier
Description: Green prismatic single crystals
Measured chemistry: Cu_2.00_Cl_1.00_(OH)_3_
Pin_id: M00220
Orientation: Laser parallel to -b* (0 -1 0). Fiducial mark perpendicular to laser is parallel to c [0 0 1]
Raman shift (cm-1)	intensity
54.966	0
59.164	459.729
63.36	653.893
67.554	14.672
71.747	89.13
75.937	123.915
80.125	950.277
84.311	2777.74
88.496	5648.27
92.678	9076.19
96.858	12848.6
101.036	18818.8
105.212	21924.5
109.387	24997.3
113.559	30579
117.729	39814.7
121.897	41859.2
126.063	29830
130.228	26818.3
134.39	29235.8
138.55	33552.8
142.709	36515.9
146.865	36571.8
151.019	35979.1
155.171	20629
159.322	12120
163.47	9769.63
167.617	8933.94
171.761	8485.23
175.904	8105.54
180.044	7595.9
184.183	7264.3
188.319	7173.74
192.454	7098.21
196.586	6926.65
200.717	6866.04
204.846	7065.34
208.972	7250.55
213.097	6741.69
217.22	6627.77
221.341	6586.16
225.46	6526.01
229.577	6535.34
233.692	6532.57
237.805	6350.45
241.916	5773.65
246.025	4911.66
250.132	4012.32
254.237	3458.78
258.34	2969.38
262.442	2604.07
266.541	2359.64
270.639	2232.67
274.734	1668.88
278.828	1308.9
282.919	1201.41
287.009	1143.44
291.097	804.596
295.183	729.035
299.266	647.58
303.348	649.14
307.428	518.659
311.507	560.132
315.583	540.551
319.657	476.883
323.729	664.072
327.8	799.002
331.868	1117.58
335.935	1526.76
339.999	2453.52
344.062	3933.95
348.123	5313.21
352.182	6414.53
356.239	5979.98
360.294	4560.59
364.347	3119.3
368.398	1837.03
372.448	1392.65
376.495	1403
380.54	1691.98
384.584	1787.46
388.626	1749.75
392.666	1277.02
396.704	675.254
400.74	135.465
404.774	17.449
408.806	103.017
412.836	10.271
416.865	228.386
420.891	546.021
424.916	642.157
428.939	451.051
432.959	344.371
436.978	211.357
440.996	1417.04
445.011	2715.68
449.024	4010.25
453.036	3226.71
457.045	1735.01
461.053	963.114
465.059	693.993
469.063	619.609
473.065	785.924
477.065	954.901
481.063	1744
485.06	2681.2
489.054	4326.95
493.047	7117.24
497.038	11201
501.027	16323
505.014	22184.7
508.999	28213.7
512.982	30987
516.964	27926
520.944	20695.9
524.921	13542.2
528.897	8932.85
532.871	6492.16
536.844	4627.66
540.814	3397.77
544.783	2716.09
548.749	2210.45
552.714	2087.54
556.677	2034.27
560.638	2037.77
564.597	2153.43
568.555	2365.94
572.511	2725.38
576.464	3366.35
580.416	3845.68
584.366	4403.75
588.315	4291.96
592.261	3634.24
596.206	2567.19
600.148	1762.62
604.089	1144.63
608.028	833.207
611.965	449.322
615.901	413.962
619.834	557.104
623.766	707.732
627.696	553.832
631.624	308.385
635.551	278.377
639.475	369.783
643.398	442.585
647.318	521.784
651.237	470.366
655.155	321.321
659.07	28.584
662.984	36.231
666.895	115.569
670.805	217.893
674.713	219.393
678.62	168.13
682.524	131.1
686.427	64.202
690.328	93.142
694.227	23.205
698.124	10.026
702.02	120.592
705.913	89.909
709.805	90.304
713.695	66.552
717.584	55.896
721.47	82.358
725.355	157
729.238	220.02
733.119	286.504
736.998	231.903
740.876	287.594
744.752	295.595
748.626	303.715
752.498	344.572
756.368	462.871
760.237	568.621
764.104	617.838
767.969	685.533
771.832	935.729
775.693	1000.44
779.553	1170.67
783.411	1482.44
787.267	1716.42
791.122	2162.65
794.974	2617.63
798.825	3394.69
802.674	4669.36
806.522	6686.66
810.367	9684.6
814.211	13943.6
818.053	17151.9
821.893	15932.9
825.732	11755.3
829.568	8125.41
833.403	6601.07
837.236	6420.57
841.068	7704.67
844.898	8028.3
848.726	6181.93
852.552	4414.07
856.376	3423.92
860.199	3452.14
864.02	3336.98
867.839	2730.38
871.656	2126.26
875.472	1928.71
879.286	1858.12
883.098	2101.51
886.909	2482.5
890.717	3271.76
894.524	4573.15
898.33	7095.4
902.133	12392
905.935	19916.2
909.735	21199.7
913.533	14597.8
917.33	8632.34
921.124	5301.3
924.918	3500.83
928.709	2793.8
932.499	2299.37
936.286	1981.44
940.073	1976.98
943.857	1794.89
947.64	1876.3
951.421	2181.01
955.2	2564.19
958.978	3151.71
962.753	4456.63
966.527	7048.04
970.3	12558.2
974.071	18086.2
977.84	13971.4
981.607	7561.18
985.372	4863.44
989.136	3606.66
992.898	3131.06
996.659	3116.74
1000.42	3392.9
1004.17	3284.32
1007.93	2829.48
1011.68	2741.11
1015.43	2379.48
1019.18	2212.38
1022.93	1917.3
1026.68	1839.21
1030.42	1567.07
1034.17	1514.71
1037.91	991.291
1041.65	855.567
1045.39	751.962
1049.12	651.38
1052.86	452.943
1056.59	335.999
1060.33	201.449
1064.06	106.503
1067.78	60.633
1071.51	76.496
1075.23	28.535
1078.96	103.153
1082.68	191.052
1086.4	178.004
1090.12	85.611
1093.83	127.501
1097.55	55.948
1101.26	26.908
1104.97	69.753
1108.68	65.59
1112.39	14.331
1116.1	1.691
1119.8	34.197
1123.5	231.676
1127.2	46.175
1130.9	45.339
1134.6	8.903
1138.3	20.439
1141.99	96.434
1145.69	99.635
1149.38	89.173
1153.07	41.06
1156.76	33.851
1160.44	53.058
1164.13	133.802
1167.81	149.369
1171.49	24.716
1175.17	41.842
1178.85	71.256
1182.52	21.241
1186.2	31.415
1189.87	18.233
1193.54	25.403
1197.21	0.371
1200.88	44.478
1204.55	0.023
1208.21	14.252
1211.88	52.118
1215.54	20.578
1219.2	47.464
1222.86	41.478
1226.51	31.983
1230.17	15.718
1233.82	85.836
1237.47	211.46
1241.12	148.736
1244.77	76.54
1248.42	251.043
1252.06	232.103
1255.71	103.854
1259.35	146.224
1262.99	166.184
1266.63	399.797
1270.26	335.031
1273.9	401.882
1277.53	377.117
1281.16	380.064
1284.8	302.322
1288.42	385.337
1292.05	458.547
1295.68	429.127
1299.3	376.953
1302.92	430.656
1306.55	441.953
1310.16	471.897
1313.78	502.502
1317.4	443.548
1321.01	565.162
1324.62	464.554
1328.24	456.548
1331.85	277.065
1335.45	315.635
1339.06	350.527
1342.66	302.622
1346.27	296.195
1349.87	333.947
1353.47	227.688
1357.07	271.405
1360.66	289.473
1364.26	227.263
1367.85	171.006
1371.44	240.256
1375.04	208.764
1378.62	248.576
1382.21	241.078
1385.8	322.275
1389.38	316.621
1392.96	295.455
1396.54	235.803
1400.12	254.102
1403.7	237.212
1407.28	239.707
1410.85	182.866
1414.42	191.856
1417.99	138.295
1421.56	208.097
1425.13	207.287
1428.7	264.952
1432.26	261.271
1435.83	393.531
1439.39	568.275
1442.95	711.688
1446.51	781.618
1450.06	833.456
1453.62	944.343
1457.17	955.542
1460.73	934.681
1464.28	726.817
1467.83	645.9
1471.37	552.022
1474.92	465.283
1478.46	412.887
1482.01	390.072
1485.55	338.993
1489.09	241.633
1492.63	64.877
1496.16	46.699
1499.7	93.31
1503.23	86.009
1506.76	64.085
1510.29	88.774
1513.82	16.465
1517.35	0.18
1520.88	104.912
1524.4	60.738
1527.92	0
