Measurement: Raman, 514 nm, depolarized, Raman Data Processed
Mineral: Augelite
Rruff sample: R050060
Ideal chemistry: Al_2_PO_4_(OH)_3_
Locality: Machacamarca, Potosi Department, Bolivia
Source: Rock Currier
Description: Colorless prismatic crystals
Measured chemistry: Al_2.00_(P_1.00_O_4_)(OH)_3_; OH estimated by difference
Pin_id: L00872
Orientation: Laser parallel to -b* (0 -1 0). Fiducial mark perpendicular to laser is parallel to -c [0 0 -1]
Raman shift (cm-1)	intensity
113.978	0
118.95	576.889
123.92	2798.37
128.886	4242.41
133.85	2576.92
138.81	713.422
143.767	1663.46
148.72	5303.1
153.671	11539.3
158.619	20557.8
163.563	26157.2
168.504	18202
173.442	8994.42
178.377	4100.52
183.309	1762.75
188.238	702.868
193.163	255.969
198.086	290.49
203.005	441.763
207.921	677.24
212.834	1702.07
217.744	3605.06
222.651	6176.39
227.555	6265.98
232.456	2085.01
237.354	905.592
242.248	1374.37
247.14	2780.84
252.028	4370.72
256.914	1927.27
261.796	306.999
266.675	167.062
271.551	321.108
276.425	340.646
281.295	254.632
286.162	212.446
291.026	128.898
295.887	154.833
300.745	35.8567
305.6	61.3345
310.451	50.4028
315.3	262.579
320.146	656.96
324.989	1048.03
329.829	1293.08
334.666	1172.34
339.5	989.561
344.33	964.145
349.158	1153.93
353.983	1165.44
358.805	1462.48
363.624	2502
368.44	3876.12
373.253	2501.89
378.062	977.33
382.869	563.477
387.673	524.367
392.474	636.039
397.273	1152.27
402.068	2445.61
406.86	4755.04
411.649	5494.65
416.435	4945.79
421.219	4476.63
425.999	3730.02
430.776	2907.99
435.551	2904.93
440.323	3013.45
445.091	3283.95
449.857	2987.16
454.62	2311.51
459.38	1944.43
464.137	1688.31
468.891	1325.35
473.642	951.155
478.39	621.66
483.136	415.499
487.878	418.969
492.618	458.225
497.355	588.318
502.089	946.301
506.82	1426.99
511.548	2466.42
516.273	3862.69
520.996	5792.71
525.715	6790.34
530.432	6613.57
535.146	6096.42
539.857	5486.87
544.565	5724.93
549.27	6208.21
553.972	7443.61
558.672	9030.68
563.369	9785.64
568.063	9648.06
572.754	8576.18
577.442	6829.23
582.127	5070.72
586.81	3348.05
591.49	1859.64
596.167	1320.62
600.841	1195.56
605.513	1369.12
610.181	1948.24
614.847	2674.92
619.51	4077.47
624.17	7038.22
628.828	13609
633.482	23849.7
638.134	25407.4
642.783	13414
647.43	6132.19
652.073	3165.8
656.714	1867.56
661.352	1153.62
665.987	683.018
670.62	438.858
675.25	181.91
679.877	164.09
684.501	36.3721
689.122	17.3491
693.741	113.252
698.357	93.7266
702.97	137.441
707.581	129.598
712.189	59.2549
716.794	172.674
721.396	229.841
725.996	151.728
730.593	213.306
735.187	422.54
739.779	606.4
744.368	556.865
748.954	264.915
753.538	42.5308
758.118	11.5757
762.696	79.479
767.272	16.8525
771.845	27.5552
776.415	46.4023
780.982	84.2026
785.547	77.1431
790.109	86.103
794.668	98.0205
799.225	189.587
803.779	198.096
808.33	242.257
812.879	287.881
817.425	376.397
821.968	485.95
826.509	577.901
831.047	673.815
835.583	968.457
840.116	1238.15
844.646	1793.65
849.174	2414.42
853.699	3009.72
858.221	3561.56
862.741	3457.93
867.258	2911.85
871.772	2280.32
876.284	1708.35
880.793	1426.96
885.3	1397.16
889.804	1531.19
894.306	1796.39
898.805	1520.31
903.301	972.034
907.795	685.308
912.286	292.627
916.774	173.445
921.26	123.244
925.744	96.2505
930.225	21.2954
934.703	22.6631
939.179	12.1118
943.652	13.3032
948.122	27.6387
952.59	77.9668
957.056	61.5337
961.519	66.1055
965.979	47.7607
970.437	57.8081
974.892	67.4058
979.345	70.6113
983.795	170.21
988.243	65.957
992.688	136.836
997.131	277.884
1001.57	526.164
1006.01	750.602
1010.44	1070.21
1014.88	1250.99
1019.31	1106.96
1023.73	925.188
1028.16	771.804
1032.58	673.086
1037	751.997
1041.42	853.606
1045.83	1094.89
1050.25	1543.71
1054.66	2299.97
1059.06	3026.76
1063.47	2833.05
1067.87	2166.24
1072.27	2029.85
1076.67	2113.01
1081.07	2372.82
1085.46	3048.12
1089.85	4185.94
1094.24	6084.19
1098.62	9568.25
1103.01	15562.2
1107.38	21572.7
1111.76	21147.7
1116.14	13845.4
1120.51	8242.28
1124.88	5511.31
1129.25	4160.87
1133.62	3317.53
1137.98	2558.54
1142.34	2135.18
1146.7	1725.07
1151.06	1488.9
1155.41	1290.51
1159.76	1368.34
1164.11	1243.42
1168.46	1076.83
1172.8	817.529
1177.14	602.486
1181.48	448.388
1185.82	420.706
1190.15	204.726
1194.48	201.874
1198.81	140.295
1203.14	184.858
1207.47	72.5591
1211.79	1.61572
1216.11	79.4941
1220.43	58.4595
1224.74	6.57959
1229.06	0.031738
1233.37	49.856
1237.67	57.1196
1241.98	3.04688
1246.28	40.1074
1250.59	117.663
1254.88	26.5801
1259.18	39.9624
1263.47	43.6226
1267.77	106.427
1272.06	62.9541
1276.34	99.3564
1280.63	4.30859
1284.91	10.9009
1289.19	10.4766
1293.47	22.8213
1297.74	19.2109
1302.02	58.873
1306.29	25.4365
1310.56	62.896
1314.82	157.464
1319.09	104.794
1323.35	86.0376
1327.61	169.186
1331.87	92.2353
1336.12	27.0405
1340.37	125.367
1344.62	94.811
1348.87	156.452
1353.12	38.0073
1357.36	58.9004
1361.6	118.038
1365.84	113.783
1370.08	106.5
1374.31	69.8452
1378.54	108.349
1382.77	98.0644
1387	31.7593
1391.22	25.0376
1395.45	135.543
1399.67	50.7602
1403.88	103.614
1408.1	12.4766
1412.32	10.5708
1416.53	60.8721
1420.74	26.0293
1424.94	57.8638
1429.15	54.7153
1433.35	74.0098
1437.55	88.2461
1441.75	42.5054
1445.94	117.979
1450.14	102.735
1454.33	165.717
1458.52	134.917
1462.71	152.652
1466.89	30.8457
1471.07	110.122
1475.25	167.41
1479.43	93.1572
1483.61	121.319
1487.78	148.968
1491.95	24.7705
1496.12	173.727
1500.29	176.266
1504.45	10.2529
1508.62	117.445
1512.78	91.5449
1516.94	74.894
1521.09	84.2593
1525.25	70.6157
1529.4	64.7852
1533.55	54.5503
1537.69	83.2988
1541.84	81.0127
1545.98	33.8467
1550.12	34.7524
1554.26	109.809
1558.4	28.2241
1562.54	0
