Measurement: Raman, 514 nm, depolarized, Raman Data Processed
Mineral: Augelite
Rruff sample: R050060
Ideal chemistry: Al_2_PO_4_(OH)_3_
Locality: Machacamarca, Potosi Department, Bolivia
Source: Rock Currier
Description: Colorless prismatic crystals
Measured chemistry: Al_2.00_(P_1.00_O_4_)(OH)_3_; OH estimated by difference
Pin_id: L00994
Orientation: Laser parallel to -c* (0 0 -1). Fiducial mark perpendicular to laser is parallel to -a [-1 0 0]
Raman shift (cm-1)	intensity
146.244	0
151.196	424.926
156.145	1136.58
161.091	1934.25
166.034	1963.29
170.973	999.117
175.91	340.786
180.843	179.349
185.774	54.5376
190.701	147.677
195.625	142.152
200.546	189.27
205.463	44.1685
210.378	5.17358
215.29	300.458
220.198	755.067
225.104	1260.8
230.006	759.303
234.905	217.209
239.801	155.226
244.694	137.888
249.584	153.116
254.471	74.0732
259.355	116.222
264.236	23.7644
269.114	35.7993
273.988	17.9282
278.86	0.333984
283.729	26.9758
288.594	49.2585
293.457	25.2476
298.316	74.5112
303.173	0.11792
308.026	55.8833
312.876	86.0576
317.724	124.332
322.568	259.751
327.409	369.171
332.248	295.786
337.083	280.696
341.915	68.1138
346.745	183.993
351.571	70.6497
356.394	119.261
361.215	200.348
366.032	301.395
370.846	283.016
375.658	120.323
380.466	73.6106
385.272	61.615
390.074	156.179
394.874	192.61
399.67	444.932
404.464	948.698
409.255	1539.36
414.043	1186.9
418.827	812.979
423.609	752.061
428.388	509.422
433.164	441.714
437.937	413.944
442.707	328.86
447.475	279.978
452.239	226.994
457	336.763
461.759	445.253
466.514	588.968
471.267	511.659
476.017	373.366
480.764	242.129
485.508	165.725
490.249	106.46
494.987	138.123
499.722	127.486
504.455	244.49
509.184	574.955
513.911	908.948
518.635	1495.07
523.356	1877.25
528.074	2008.29
532.789	1547.43
537.501	1114.7
542.211	812.8
546.918	637.937
551.621	464.332
556.323	372.804
561.021	319.319
565.716	204.352
570.409	156.919
575.098	169.832
579.785	15.0493
584.469	27.4534
589.15	17.0139
593.829	49.4939
598.504	73.8201
603.177	184.81
607.847	208.885
612.514	400.513
617.179	592.915
621.84	956.241
626.499	1621.85
631.155	3094.44
635.809	5028.18
640.459	3939.57
645.107	2011.49
649.752	980.685
654.394	509.411
659.033	360.909
663.67	155.602
668.304	137.368
672.935	44.3721
677.563	42.2659
682.189	38.5693
686.812	43.5732
691.432	9.10962
696.049	17.1582
700.664	40.6875
705.276	31.2883
709.885	102.087
714.492	90.904
719.096	104.6
723.697	132.21
728.295	118.728
732.891	8.14746
737.484	128.457
742.074	156.661
746.661	98.7537
751.246	90.7322
755.828	16.4519
760.408	26.8418
764.984	76.533
769.559	46.2888
774.13	81.5305
778.699	39.9863
783.265	20.519
787.828	88.6013
792.389	90.4294
796.947	4.09912
801.502	79.3127
806.055	95.231
810.605	70.7346
815.152	136.556
819.697	38.083
824.239	155.446
828.779	151.607
833.315	106.281
837.85	123.607
842.381	218.192
846.91	264.016
851.436	430.933
855.96	516.51
860.481	484.964
865	530.3
869.515	403.381
874.029	324.484
878.539	305.476
883.047	209.358
887.553	280.018
892.055	342.158
896.556	278.994
901.053	284.998
905.548	189.159
910.041	167.365
914.53	164.713
919.018	31.2207
923.502	59.167
927.985	74.8467
932.464	107.969
936.941	42.1924
941.416	69.959
945.887	52.3682
950.357	26.9111
954.824	3.2041
959.288	8.46143
963.749	40.1948
968.208	39.04
972.665	24.9102
977.119	35.792
981.571	3.72998
986.02	28.6802
990.466	70.6455
994.91	36.6309
999.351	94.6392
1003.79	145.676
1008.23	125.757
1012.66	135.872
1017.09	192.066
1021.52	143.318
1025.95	179.676
1030.37	118.138
1034.79	178.701
1039.21	106.369
1043.63	271.212
1048.04	123.226
1052.45	359.016
1056.86	446.131
1061.27	456.426
1065.67	364.807
1070.07	382.535
1074.47	367.668
1078.87	425.901
1083.26	591.778
1087.65	769.891
1092.04	1013.28
1096.43	1569.95
1100.81	2446.56
1105.19	3680.52
1109.57	4123.44
1113.95	2977.86
1118.33	1847.5
1122.7	1224.11
1127.07	948.007
1131.43	708.691
1135.8	644.75
1140.16	669.952
1144.52	587.769
1148.88	674.951
1153.23	752.03
1157.59	842.656
1161.94	912.946
1166.28	817.315
1170.63	572.766
1174.97	426.275
1179.31	255.838
1183.65	156.482
1187.99	112.195
1192.32	122.965
1196.65	12.7798
1200.98	121.644
1205.3	14.6035
1209.63	45.331
1213.95	58.6577
1218.27	10.3726
1222.59	24.6069
1226.9	60.3677
1231.21	119.545
1235.52	0.119629
1239.83	67.1187
1244.13	3.51758
1248.43	55.5732
1252.73	87.5615
1257.03	9.63721
1261.33	121.592
1265.62	95.666
1269.91	38.7344
1274.2	48.6397
1278.49	92.3711
1282.77	4.99023
1287.05	85.917
1291.33	106.255
1295.61	161.912
1299.88	53.1582
1304.15	64.1187
1308.42	134.94
1312.69	80.749
1316.96	149.97
1321.22	115.256
1325.48	133.778
1329.74	135.154
1333.99	177.197
1338.25	154.619
1342.5	173.766
1346.75	142.117
1350.99	177.68
1355.24	21.2744
1359.48	148.166
1363.72	83.4746
1367.96	128.398
1372.19	37.7178
1376.43	38.1758
1380.66	139.749
1384.88	34.0718
1389.11	62.2847
1393.34	90.1021
1397.56	0.703125
1401.78	225.283
1405.99	85.4102
1410.21	72.6372
1414.42	0.746582
1418.63	106.924
1422.84	1.48486
1427.05	39.9595
1431.25	64.3272
1435.45	62.6841
1439.65	175.377
1443.85	184.798
1448.04	148.174
1452.23	117.536
1456.42	243.052
1460.61	279.592
1464.8	190.7
1468.98	152.016
1473.16	70.1875
1477.34	159.152
1481.52	106.452
1485.69	244.522
1489.87	99.0024
1494.04	97.3325
1498.21	124.209
1502.37	129.329
1506.54	84.4287
1510.7	164.436
1514.86	55.4502
1519.02	58.0029
1523.17	113.452
1527.32	136.24
1531.47	175.171
1535.62	65.4258
1539.77	80.4775
1543.91	193.677
1548.06	33.7559
1552.19	126.232
1556.33	25.4126
1560.47	114.362
