Measurement: Raman, 514 nm, depolarized, Raman Data Processed
Mineral: Augelite
Rruff sample: R050060
Ideal chemistry: Al_2_PO_4_(OH)_3_
Locality: Machacamarca, Potosi Department, Bolivia
Source: Rock Currier
Description: Colorless prismatic crystals
Measured chemistry: Al_2.00_(P_1.00_O_4_)(OH)_3_; OH estimated by difference
Pin_id: L01372
Orientation: Laser parallel to -a* (-1 0 0). Fiducial mark perpendicular to laser is parallel to -b [0 -1 0]
Raman shift (cm-1)	intensity
200.546	0
205.463	31.1885
210.378	169.734
215.29	868.182
220.198	1831.39
225.104	3028.97
230.006	1935.29
234.905	666.589
239.801	944.684
244.694	1795.59
249.584	3369.09
254.471	3232.24
259.355	1352.66
264.236	552.696
269.114	347.926
273.988	277.293
278.86	73.3682
283.729	29.3418
288.594	44.2041
293.457	86.3232
298.316	187.585
303.173	25.3008
308.026	150.73
312.876	98.6768
317.724	1.77734
322.568	122.989
327.409	147.845
332.248	46.8652
337.083	141.02
341.915	355.008
346.745	445.843
351.571	720.477
356.394	739.519
361.215	1207.35
366.032	2335.55
370.846	2176.98
375.658	863.575
380.466	346.221
385.272	125.137
390.074	258.805
394.874	404.655
399.67	907.938
404.464	1983.62
409.255	2967.33
414.043	2436.96
418.827	2040.63
423.609	1810.56
428.388	1200.96
433.164	1129.25
437.937	1042.1
442.707	1285.75
447.475	1488.6
452.239	1441.3
457	1579.67
461.759	1529.92
466.514	1484.83
471.267	1247.45
476.017	990.226
480.764	399.736
485.508	108.973
490.249	79.9219
494.987	11.96
499.722	326.672
504.455	449.762
509.184	958.506
513.911	1764.76
518.635	3019.45
523.356	3960.52
528.074	4256
532.789	3616.87
537.501	2810.15
542.211	2342.83
546.918	2148.4
551.621	2203.5
556.323	2597.04
561.021	2811.07
565.716	3399.07
570.409	2369.25
575.098	1988
579.785	1536.21
584.469	1155.76
589.15	723.604
593.829	381.069
598.504	534.514
603.177	527.641
607.847	752.081
612.514	1322.75
617.179	1858.35
621.84	3083.13
626.499	5531.01
631.155	9205.99
635.809	12846
640.459	9705.28
645.107	4787.86
649.752	2477.28
654.394	1472.15
659.033	850.423
663.67	597.863
668.304	467.904
672.935	195.87
677.563	242.163
682.189	57.4736
686.812	57.1904
691.432	157.169
696.049	122.078
700.664	37.001
705.276	43.4121
709.885	158.872
714.492	133.957
719.096	424.821
723.697	231.443
728.295	297.813
732.891	347.925
737.484	238.74
742.074	258.239
746.661	186.408
751.246	38.7656
755.828	194.492
760.408	53.0635
764.984	30.0947
769.559	5.42773
774.13	26.4023
778.699	26.6807
783.265	140.852
787.828	72.8848
792.389	125.772
796.947	204.017
801.502	109.571
806.055	115.016
810.605	175.65
815.152	273.64
819.697	274.126
824.239	300.37
828.779	414.398
833.315	494.099
837.85	725.101
842.381	920.067
846.91	1328.01
851.436	1534.33
855.96	2138.73
860.481	2046.82
865	1777.12
869.515	1512.39
874.029	1127.3
878.539	811.842
883.047	850.028
887.553	948.106
892.055	1034.63
896.556	974.592
901.053	710.932
905.548	521.713
910.041	516.943
914.53	329.996
919.018	324.26
923.502	40.5996
927.985	164.884
932.464	253.502
936.941	44.085
941.416	111.203
945.887	161.828
950.357	120.829
954.824	65.1504
959.288	107.545
963.749	86.7422
968.208	106.248
972.665	87.0762
977.119	16.8643
981.571	124.594
986.02	89.2832
990.466	69.9248
994.91	156.56
999.351	397.116
1003.79	693.6
1008.23	724.049
1012.66	985.531
1017.09	848.994
1021.52	576.561
1025.95	486.256
1030.37	372.123
1034.79	411.996
1039.21	450.955
1043.63	490.996
1048.04	589.107
1052.45	766.494
1056.86	1406.48
1061.27	1206.29
1065.67	1324.94
1070.07	962.65
1074.47	1164.35
1078.87	1202.38
1083.26	1446.82
1087.65	1774.08
1092.04	2663.02
1096.43	3827.22
1100.81	6097.15
1105.19	8631.83
1109.57	9163.69
1113.95	6467.05
1118.33	3874.13
1122.7	2347.29
1127.07	1681.32
1131.43	1200.39
1135.8	1010.49
1140.16	917.816
1144.52	1132.93
1148.88	1049.72
1153.23	1725.21
1157.59	2193.14
1161.94	2610.01
1166.28	2222.9
1170.63	1475.65
1174.97	979.307
1179.31	787.938
1183.65	600.705
1187.99	252.301
1192.32	317.342
1196.65	195.533
1200.98	171.656
1205.3	93.8613
1209.63	53.8594
1213.95	2.55859
1218.27	13.3945
1222.59	129.744
1226.9	80.5254
1231.21	0.011719
1235.52	116.512
1239.83	159.877
1244.13	81.8164
1248.43	17.3809
1252.73	82.8438
1257.03	216
1261.33	233.287
1265.62	12.3984
1269.91	64.9844
1274.2	154.01
1278.49	94.0391
1282.77	168.492
1287.05	335.318
1291.33	210.428
1295.61	232.514
1299.88	205.984
1304.15	291.859
1308.42	205.24
1312.69	234.496
1316.96	118.236
1321.22	185.094
1325.48	133.756
1329.74	225.647
1333.99	190.258
1338.25	206.445
1342.5	227.185
1346.75	358.402
1350.99	83.3438
1355.24	333.69
1359.48	81.334
1363.72	307.359
1367.96	166.393
1372.19	115.353
1376.43	20.3008
1380.66	100.865
1384.88	20.4863
1389.11	154.078
1393.34	48.9355
1397.56	145.781
1401.78	19.5547
1405.99	91.959
1410.21	223.559
1414.42	218.736
1418.63	119.504
1422.84	113.795
1427.05	171.791
1431.25	202.975
1435.45	220.348
1439.65	514.635
1443.85	505.473
1448.04	241.826
1452.23	353.361
1456.42	266.768
1460.61	200.107
1464.8	341.039
1468.98	224.236
1473.16	30.8926
1477.34	265.307
1481.52	267.369
1485.69	192.996
1489.87	32.7793
1494.04	75.1836
1498.21	220.289
1502.37	8.23438
1506.54	232.879
1510.7	176.801
1514.86	222.478
1519.02	286.41
1523.17	257.06
1527.32	151.01
1531.47	235.242
1535.62	199.275
1539.77	219.471
1543.91	30.7461
1548.06	134.508
1552.19	199.965
1556.33	175.475
1560.47	119.748
