Measurement: Raman, 514 nm, depolarized, Raman Data Processed
Mineral: Augelite
Rruff sample: R050060
Ideal chemistry: Al_2_PO_4_(OH)_3_
Locality: Machacamarca, Potosi Department, Bolivia
Source: Rock Currier
Description: Colorless prismatic crystals
Measured chemistry: Al_2.00_(P_1.00_O_4_)(OH)_3_; OH estimated by difference
Pin_id: L01787
Orientation: Laser parallel to (1 0 1). Fiducial mark perpendicular to laser is parallel to -b [0 -1 0]
Raman shift (cm-1)	intensity
140.049	0
145.005	330.717
149.958	1737.43
154.908	4749.91
159.855	8857.77
164.798	10230.1
169.739	6068.51
174.676	2827.91
179.61	1131.42
184.541	382.08
189.469	23.3992
194.394	21.6814
199.316	4.38599
204.234	22.4473
209.15	505.033
214.062	1768.2
218.971	3623.22
223.877	5189.4
228.781	3684.11
233.681	1613.93
238.577	1380.81
243.471	2180.1
248.362	4029.23
253.25	4771.88
258.134	1829.74
263.016	444.825
267.894	2.74023
272.77	78.8372
277.642	126.501
282.512	242.844
287.378	213.197
292.241	15.1209
297.101	126.677
301.959	33.1362
306.813	67.6858
311.664	147.573
316.512	378.707
321.357	864.519
326.199	1501.12
331.038	1675.5
335.874	1508.71
340.708	1383.63
345.538	1469.75
350.365	1705.4
355.189	1772.15
360.01	2605.18
364.828	4861.94
369.643	5877.77
374.455	2899.78
379.265	1181.92
384.071	618.251
388.874	616.768
393.674	644.483
398.472	1042.41
403.266	2122.59
408.057	3534.62
412.846	4149.53
417.631	4390.19
422.414	4372.98
427.194	3058.39
431.97	2191.71
436.744	1961.37
441.515	2061.09
446.283	2271.78
451.048	2510.41
455.81	2461.76
460.569	2446.04
465.326	2196.49
470.079	1951.14
474.83	1502.06
479.577	799.357
484.322	559.284
489.064	405.806
493.803	413.981
498.539	548.929
503.272	895.66
508.002	1480.21
512.729	2631.55
517.454	4172.63
522.176	5747.41
526.895	6448.88
531.61	5674.1
536.324	4333.74
541.034	3257.11
545.741	2692.5
550.446	2515.51
555.148	2382.51
559.846	2395.78
564.542	2086.7
569.236	1786.62
573.926	1281.96
578.614	761.896
583.298	489.582
587.98	301.853
592.659	312.017
597.336	258.957
602.009	548.389
606.68	920.231
611.348	1590.46
616.013	2456.03
620.675	4100.47
625.335	7701.33
629.992	15272.2
634.646	25545.5
639.297	23018.2
643.945	11134.7
648.591	5056.54
653.234	2659.96
657.874	1458.18
662.511	1009.36
667.146	619.734
671.777	311.713
676.407	179.687
681.033	9.3103
685.656	17.6226
690.277	59.4492
694.895	114.844
699.511	132.928
704.123	81.0903
708.733	27.2371
713.34	19.1599
717.945	67.4477
722.547	121.753
727.146	184.761
731.742	191.448
736.336	329.793
740.926	634.778
745.515	413.386
750.1	177.605
754.683	10.4006
759.263	38.5102
763.841	4.40308
768.415	11.9065
772.987	43.6091
777.557	51.8269
782.123	0.688965
786.687	74.853
791.249	50.6457
795.807	114.766
800.363	57.2961
804.917	150.284
809.468	204.904
814.016	324.6
818.561	398.874
823.104	457.647
827.644	624.009
832.181	772.535
836.716	1045.84
841.248	1404.83
845.778	1905.02
850.305	2660.49
854.829	3388.3
859.351	3801.73
863.87	3581.8
868.387	3016.5
872.9	2342.85
877.412	1826.87
881.92	1590.56
886.426	1704.42
890.93	2109.95
895.431	2326.94
899.929	1828.77
904.425	1144.55
908.918	692.474
913.408	470.906
917.896	307.676
922.382	148.167
926.864	132.932
931.345	72.4294
935.822	12.3398
940.297	34.2971
944.77	21.5088
949.24	44.6343
953.707	50.7593
958.172	53.1123
962.634	33.9941
967.094	6.22998
971.551	5.80078
976.006	56.9199
980.458	87.4487
984.908	94.3052
989.355	50.3364
993.799	227.514
998.241	339.82
1002.68	735.293
1007.12	1142.96
1011.55	1769.85
1015.98	1828.93
1020.41	1560.25
1024.84	1210.91
1029.27	905.05
1033.69	780.656
1038.11	739.723
1042.52	781.262
1046.94	774.356
1051.35	890.952
1055.76	1153.01
1060.17	1438.44
1064.57	1388.26
1068.97	1265.52
1073.37	1356.83
1077.77	1517.91
1082.16	1929.04
1086.56	2522.3
1090.95	3660.28
1095.33	5324.22
1099.72	8253.7
1104.1	13001.8
1108.48	16951.5
1112.86	14800.6
1117.23	9354.85
1121.61	5723.56
1125.97	4007.35
1130.34	3107.13
1134.71	2605.47
1139.07	2341.71
1143.43	2089.06
1147.79	2060.68
1152.14	2246.32
1156.5	2585.07
1160.85	2787.82
1165.2	2394.55
1169.54	1662.44
1173.89	1066.43
1178.23	752.975
1182.57	443.74
1186.9	374.447
1191.24	201.158
1195.57	197.505
1199.9	1.66309
1204.22	108.052
1208.55	74.251
1212.87	82.4253
1217.19	13.2466
1221.51	42.9214
1225.82	170.023
1230.13	54.0908
1234.44	85.2949
1238.75	69.1904
1243.06	166.372
1247.36	90.9551
1251.66	132.029
1255.96	29.062
1260.26	29.731
1264.55	14.6831
1268.84	18.5068
1273.13	94.3418
1277.41	21.7095
1281.7	28.9741
1285.98	91.0703
1290.26	134.531
1294.54	78.0952
1298.81	8.68701
1303.09	112.813
1307.36	50.4853
1311.62	75.0918
1315.89	50.5102
1320.15	11.6899
1324.41	8.35889
1328.67	59.4194
1332.93	145.464
1337.18	32.3008
1341.43	139.928
1345.68	59.6211
1349.93	101.557
1354.18	73.2778
1358.42	173.048
1362.66	87.8096
1366.9	45.2368
1371.13	82.2935
1375.37	124.212
1379.6	0.76709
1383.83	185.706
1388.06	72.1084
1392.28	61.5171
1396.5	64.021
1400.72	119.323
1404.94	113.578
1409.15	73.5181
1413.37	35.1357
1417.58	60.2065
1421.79	23.3394
1425.99	68.7505
1430.2	50.0478
1434.4	141.204
1438.6	147.705
1442.8	126.46
1446.99	161.46
1451.19	151.084
1455.38	49.6519
1459.57	108.889
1463.75	85.936
1467.94	47.3066
1472.12	122.457
1476.3	51.6504
1480.48	147.018
1484.65	138.593
1488.83	117.565
1493	47.5688
1497.16	30.5825
1501.33	94.4522
1505.49	8.46289
1509.66	49.3945
1513.82	73.3472
1517.97	22.4961
1522.13	66.2754
1526.29	34.4053
1530.44	6.31982
1534.59	83.1167
1538.73	93.9336
1542.88	76.9258
1547.02	71.1348
1551.16	7.96094
1555.3	81.1553
1559.43	13.2979
