Measurement: Raman, 514 nm, depolarized, Raman Data Processed
Mineral: Augite
Rruff sample: R061086
Ideal chemistry: (Ca,Mg,Fe^2+^,Fe^3+^)_2_(Si,Al)_2_O_6_
Locality: Boreslav, Teplitz, Bohemia, Czech Republic
Source: Michael Scott
Description: Black to dark green tabular euhedral crystal
Measured chemistry: (Ca_0.88_Mg_0.83_Fe_0.13_Al_0.08_Na_0.04_Ti_0.03_Cr_0.01_)_Σ=2_(Si_1.89_Al_0.11_)_Σ=2_O_6_
Pin_id: M00244
Orientation: Laser parallel to -b* (0 -1 0). Fiducial mark perpendicular to laser is parallel to c [0 0 1]
Raman shift (cm-1)	intensity
173.562	0
178.479	124.621
183.394	198.903
188.305	121.763
193.214	306.094
198.12	278.497
203.024	122.424
207.924	3.87256
212.822	3.72412
217.717	1.16064
222.609	115.219
227.498	243.127
232.385	192.785
237.269	207.149
242.149	262.291
247.027	279.384
251.903	456.161
256.775	337.446
261.645	314.04
266.512	94.728
271.376	87.3672
276.237	85.3965
281.096	97.8306
285.952	215.661
290.805	294.879
295.655	430.464
300.502	710.41
305.347	977.825
310.189	1482.61
315.028	2035.87
319.864	2791.37
324.698	3494.17
329.528	3412.75
334.356	2868.81
339.182	2501.16
344.004	2213.96
348.824	2178.08
353.641	2331.88
358.455	2458.71
363.266	2027.11
368.075	1941.65
372.881	1735.48
377.684	1833.59
382.484	2171.95
387.282	2883.55
392.077	3279.39
396.869	2692.42
401.658	1586.66
406.445	780.081
411.229	369.205
416.01	220.149
420.788	104.574
425.564	148.439
430.337	98.6992
435.107	112.095
439.875	109.59
444.639	51.7666
449.401	32.917
454.161	31.6821
458.917	8.95605
463.671	128.25
468.422	161.706
473.17	106.478
477.916	259.899
482.659	224.069
487.399	109.199
492.137	265.334
496.872	379.474
501.604	721.691
506.333	1074.95
511.06	950.176
515.784	711.339
520.505	807.431
525.223	798.44
529.939	970.356
534.652	840.165
539.363	929.862
544.07	778.433
548.775	828.87
553.478	751.164
558.177	661.306
562.874	679.728
567.568	578.096
572.26	437.726
576.949	422.15
581.635	220.397
586.319	145.069
590.999	2.32178
595.677	54.9639
600.353	26.6621
605.026	2.00293
609.696	45.2163
614.363	172.63
619.028	256.313
623.69	294.866
628.349	365.056
633.006	580.885
637.66	864.35
642.311	1245.45
646.96	1851.18
651.606	3264.55
656.25	5712.56
660.89	9518.19
665.528	12878.5
670.164	9809.4
674.797	5504.98
679.427	3046.2
684.054	1731.08
688.679	1076.62
693.301	750.542
697.921	546.608
702.537	490.255
707.152	365.497
711.763	285.433
716.372	379.08
720.978	3.46435
725.582	49.4766
730.183	102.161
734.781	53.5347
739.377	103.127
743.97	88.3311
748.561	66.2827
753.149	52.3398
757.734	131.139
762.316	153.075
766.896	262.973
771.474	244.797
776.048	293.57
780.62	377.309
785.19	232.035
789.757	344.765
794.321	349.519
798.883	338.316
803.442	331.175
807.998	466.111
812.552	428.144
817.103	523.292
821.652	451.568
826.198	513.993
830.741	464.584
835.282	549.356
839.82	365.325
844.355	447.51
848.888	701.924
853.419	909.583
857.946	1162.17
862.472	1160.79
866.994	989.831
871.514	779.741
876.032	543.599
880.546	418.497
885.059	358.518
889.568	467.279
894.075	342.872
898.58	244.913
903.082	227.851
907.581	277.557
912.078	278.965
916.572	367.025
921.063	460.705
925.552	481.101
930.039	383.154
934.523	422.835
939.004	419.139
943.483	500.057
947.959	488.544
952.432	561.586
956.903	603.215
961.372	616.507
965.838	799.375
970.301	721.788
974.762	945.939
979.22	1019.29
983.676	1416.35
988.129	1624.94
992.58	2586.07
997.028	3781.74
1001.47	5918.11
1005.92	8426.57
1010.36	9364.95
1014.79	6618.14
1019.23	3611.17
1023.66	2181.1
1028.09	1490.73
1032.52	1385.82
1036.94	1166.85
1041.37	1221.71
1045.79	1066.56
1050.2	857.262
1054.62	676.225
1059.03	516.569
1063.44	410.987
1067.85	375.693
1072.26	337.207
1076.66	243.106
1081.06	380.666
1085.45	296.037
1089.85	214.539
1094.24	291.858
1098.63	297.31
1103.02	215.609
1107.4	242.52
1111.79	352.043
1116.17	216.583
1120.54	146.144
1124.92	43.7978
1129.29	198.768
1133.66	50.7437
1138.03	129.369
1142.39	15.874
1146.75	48.1108
1151.11	20.9473
1155.47	31.6811
1159.83	56.3438
1164.18	4.18213
1168.53	124.63
1172.87	36.2158
1177.22	19.3648
1181.56	72.8159
1185.9	11.4463
1190.24	24.5186
1194.57	20.0303
1198.9	15.0938
1203.23	19.6582
1207.56	119.363
1211.89	97.8486
1216.21	188.926
1220.53	54.4912
1224.85	155.148
1229.16	142.026
1233.47	41.1797
1237.78	141.802
1242.09	134.034
1246.4	172.795
1250.7	102.364
1255	304.427
1259.3	222.918
1263.59	192.971
1267.88	110.475
1272.17	234.297
1276.46	21.3594
1280.75	117.061
1285.03	274.793
1289.31	274.413
1293.59	263.039
1297.87	286.92
1302.14	220.048
1306.41	230.948
1310.68	244.905
1314.94	109.671
1319.21	243.165
1323.47	219.038
1327.72	148.867
1331.98	197.203
1336.23	316.148
1340.49	199.612
1344.73	169.316
1348.98	79.5273
1353.22	146.576
1357.47	227.675
1361.7	180.566
1365.94	125.135
1370.17	146.924
1374.41	251.442
1378.64	22.2266
1382.86	151.4
1387.09	119.734
1391.31	171.864
1395.53	38.9775
1399.75	130.165
1403.96	238.773
1408.17	172.777
1412.38	96.9912
1416.59	194.593
1420.8	113.339
1425	118.952
1429.2	66.9004
1433.4	127.147
1437.59	237.982
1441.78	180.904
1445.97	125.716
1450.16	180.539
1454.35	75.0811
1458.53	181.777
1462.71	17.9697
1466.89	58.3935
1471.07	64.6397
1475.24	38.081
1479.41	202.894
1483.58	55.8057
1487.75	73.1602
1491.91	36.1279
1496.07	14.4951
1500.23	52.3037
1504.39	171.35
1508.55	51.6934
1512.7	164.355
1516.85	141.212
1520.99	38.9629
1525.14	109.163
1529.28	171.193
1533.42	141.504
1537.56	25.7412
1541.7	217.084
1545.83	145.458
1549.96	106.314
1554.09	59.5039
1558.22	39.7158
1562.34	0
