Measurement: Raman, 514 nm, depolarized, Raman Data Processed
Mineral: Augite
Rruff sample: R061108
Ideal chemistry: (Ca,Mg,Fe^2+^,Fe^3+^)_2_(Si,Al)_2_O_6_
Locality: Monti Rossi, near Mt. Etna, Sicily, Italy
Source: Michael Scott
Description: Euhedral, short prismatic, black crystals in vesicular basalt.
Measured chemistry: (Ca_0.86_Mg_0.74_Fe^2+^_0.18_Fe^3+^_0.08_Al_0.05_Ti_0.04_Na_0.04_Mn_0.01_)_Σ=2_(Si_1.83_Al_0.17_)_Σ=2_O_6_
Pin_id: L01906
Orientation: Laser parallel to (1 0 1). Fiducial mark perpendicular to laser is parallel to -b [0 -1 0]
Raman shift (cm-1)	intensity
161.166	0
166.1	228.599
171.032	385.556
175.961	243.531
180.887	165.084
185.809	194.219
190.729	317.727
195.645	384.975
200.559	632.104
205.469	3.04492
210.376	161.853
215.281	861.387
220.182	1473.61
225.08	1461.56
229.976	1419.16
234.868	830.803
239.757	444.076
244.643	280.213
249.527	232.315
254.407	176.717
259.284	92.6406
264.158	146.756
269.029	313.566
273.898	2.49023
278.763	302.043
283.625	953.856
288.485	2012.25
293.341	3078.54
298.194	4597.62
303.045	5990.09
307.892	8634.07
312.736	11591.3
317.578	15813.4
322.417	18691.2
327.252	18931.6
332.085	16974.1
336.914	14735.8
341.741	13696
346.565	14705
351.386	15190.3
356.204	15097.8
361.019	13960.6
365.831	12691.3
370.64	12305
375.447	13640.3
380.25	17279.3
385.05	22382.8
389.848	25395.7
394.643	20704
399.434	12803.5
404.223	6728.07
409.009	3632.17
413.792	2230.72
418.573	1478.56
423.35	1320.31
428.124	885.171
432.896	459.281
437.665	376.216
442.431	67.9883
447.194	75.2051
451.954	434.215
456.711	785.548
461.465	1195.11
466.217	1310.26
470.966	1508.01
475.712	1631.94
480.455	1842.76
485.195	1905.84
489.932	2107.04
494.667	2165.78
499.399	2328.37
504.128	2813.26
508.854	3283.72
513.577	4222.31
518.297	5157.39
523.015	6308.87
527.73	7111.68
532.442	7458.72
537.151	7132.92
541.858	6502.21
546.561	5876.52
551.262	5747.83
555.96	5523.35
560.656	5078.99
565.348	4461.4
570.038	3918.52
574.725	3160.75
579.409	2354.06
584.091	1359.7
588.769	592.567
593.445	122.258
598.119	281.813
602.789	176.58
607.457	10.9815
612.122	231.731
616.784	302.433
621.443	410.706
626.1	952.315
630.754	1502.33
635.405	2226.07
640.054	3656.57
644.7	5929.85
649.343	10304
653.983	17319.9
658.621	28270.8
663.256	37607.7
667.888	32831.5
672.518	21083.4
677.144	11896.4
681.769	6898.61
686.39	4129.07
691.009	2549.84
695.625	1580.01
700.238	1001.65
704.849	697.828
709.457	429.641
714.062	67.1309
718.665	242.935
723.265	536.503
727.863	530.764
732.457	606.344
737.049	536.898
741.639	98.9004
746.225	372.138
750.81	1331.39
755.391	2141.89
759.97	3246.34
764.546	3830.64
769.12	4042.1
773.69	3741.68
778.259	3293.58
782.824	2793.98
787.387	2113.03
791.948	1873.89
796.506	1739.7
801.061	2121.61
805.613	2331.78
810.163	2794.33
814.711	3010.42
819.255	2928.18
823.797	2762.74
828.337	2143.24
832.874	1849.82
837.408	1805.59
841.94	1917.78
846.469	2644.24
850.996	3893.58
855.52	5055.32
860.041	5269.81
864.56	4808.48
869.077	4054.2
873.59	3546.3
878.101	3343.35
882.61	3246.46
887.116	2983.95
891.62	3084.39
896.121	3007.49
900.619	3024.1
905.115	3044.81
909.608	3027.35
914.099	3265.44
918.587	3535.01
923.073	3877.8
927.556	3684.5
932.037	3793.15
936.515	3140.78
940.991	3023.33
945.464	2906.57
949.934	3084.44
954.403	3510.89
958.868	3964.9
963.331	4556.39
967.792	5181.31
972.25	5899.02
976.705	6696.2
981.158	7804.06
985.609	9780.19
990.057	12870.5
994.503	17911.8
998.946	25257.4
1003.39	34460.4
1007.83	38219.3
1012.26	31320.6
1016.69	18910.9
1021.12	11657.6
1025.55	8060.02
1029.98	7139.82
1034.4	6537.56
1038.82	6027.21
1043.24	5466.2
1047.66	4665.05
1052.07	3678.2
1056.48	3118.49
1060.89	2642.93
1065.3	2455.6
1069.7	2114.34
1074.1	2159.94
1078.5	1943
1082.9	1970.86
1087.29	1935.39
1091.68	2031.23
1096.07	1779.29
1100.46	1926.65
1104.84	1862.62
1109.23	1655.02
1113.61	1538.57
1117.98	1438.61
1122.36	1307.21
1126.73	916.623
1131.1	394.309
1135.47	180.68
1139.83	143.535
1144.19	310.203
1148.56	430.304
1152.91	327.786
1157.27	331.784
1161.62	328.804
1165.97	329.151
1170.32	190.847
1174.67	94.3369
1179.01	186.161
1183.35	37.6065
1187.69	159.352
1192.03	248.838
1196.36	166.92
1200.7	297.585
1205.03	366.853
1209.35	452.03
1213.68	572.246
1218	498.457
1222.32	684.597
1226.64	806.766
1230.95	782.042
1235.27	889.34
1239.58	889.583
1243.89	945.128
1248.19	1063.92
1252.5	914.356
1256.8	1077.73
1261.1	1066.06
1265.4	1053.19
1269.69	1137.56
1273.98	1215.89
1278.27	1129.12
1282.56	1022.28
1286.85	1067.68
1291.13	935.392
1295.41	815.496
1299.69	872.893
1303.97	689.848
1308.24	832.94
1312.51	661.901
1316.78	669.492
1321.05	704.843
1325.31	702.994
1329.58	663.898
1333.84	695.185
1338.1	539.581
1342.35	769.885
1346.61	612.665
1350.86	548.541
1355.11	620.218
1359.35	577.223
1363.6	572.139
1367.84	482.611
1372.08	513.601
1376.32	354.742
1380.55	402.178
1384.79	460.595
1389.02	363.756
1393.25	372.018
1397.47	267.131
1401.7	226.362
1405.92	252.58
1410.14	153.451
1414.36	224.419
1418.57	209.137
1422.79	76.2207
1427	153.386
1431.21	27.502
1435.41	10.7695
1439.62	88.6465
1443.82	114.132
1448.02	140.903
1452.22	78.8359
1456.41	55.4473
1460.61	37.8457
1464.8	34.8096
1468.99	3.50977
1473.17	46.625
1477.36	178.607
1481.54	20.126
1485.72	79.418
1489.9	93.7207
1494.08	156.039
1498.25	217.304
1502.42	148.152
1506.59	302.873
1510.76	263.411
1514.93	246.866
1519.09	280.566
1523.25	297.851
1527.41	143.004
1531.57	145.666
1535.72	217.42
1539.87	203.973
1544.02	76.7022
1548.17	192.897
1552.32	159.247
1556.46	81.3135
1560.6	47.4453
