Measurement: Raman, 514 nm, depolarized, Raman Data Processed
Mineral: Augite
Rruff sample: R061086
Ideal chemistry: (Ca,Mg,Fe^2+^,Fe^3+^)_2_(Si,Al)_2_O_6_
Locality: Boreslav, Teplitz, Bohemia, Czech Republic
Source: Michael Scott
Description: Black to dark green tabular euhedral crystal
Measured chemistry: (Ca_0.88_Mg_0.83_Fe_0.13_Al_0.08_Na_0.04_Ti_0.03_Cr_0.01_)_Σ=2_(Si_1.89_Al_0.11_)_Σ=2_O_6_
Pin_id: M00179
Orientation: Laser parallel to a* (1 0 0). Fiducial mark perpendicular to laser is parallel to b [0 1 0]
Raman shift (cm-1)	intensity
157.56	0
162.487	128.898
167.411	214.628
172.332	215.541
177.25	229.461
182.165	335.623
187.078	244.326
191.987	310.859
196.894	320.785
201.798	201.417
206.699	108.845
211.598	288.346
216.493	544.797
221.386	784.258
226.276	815.692
231.163	650.486
236.048	438.155
240.929	356.381
245.808	332.332
250.684	363.334
255.557	211.662
260.428	116.71
265.295	127.519
270.16	0.791992
275.022	90.6201
279.882	85.9321
284.738	328.632
289.592	564.177
294.443	798.98
299.291	1096.99
304.136	1536.89
308.978	2232.34
313.818	3113.4
318.655	4153.56
323.489	4965.12
328.321	4722.71
333.15	3842.97
337.976	3134.8
342.799	2710.02
347.619	2705.57
352.437	2731.42
357.252	2606.42
362.064	2504.01
366.873	2345.72
371.68	2424.69
376.483	2652.9
381.284	3396.3
386.083	4651.89
390.878	5449.66
395.671	4428.57
400.461	2507.62
405.249	1210.79
410.033	660.398
414.815	289.043
419.594	286.276
424.37	271.592
429.144	134.07
433.915	100.575
438.683	32.9185
443.448	8.66113
448.211	38.6074
452.971	4.29785
457.728	67.1484
462.483	155.42
467.235	152.55
471.984	180.362
476.73	162.4
481.474	206.246
486.214	237.799
490.953	280.81
495.688	319.101
500.421	416.026
505.151	688.695
509.878	858.1
514.603	975.227
519.325	1024.06
524.044	1176.59
528.76	1314.8
533.474	1233.68
538.185	1210.21
542.894	995.39
547.599	944.202
552.302	941.693
557.003	932.967
561.7	940.481
566.395	852.588
571.087	788.79
575.777	540.755
580.464	520.389
585.148	395.336
589.829	246.621
594.508	19.8091
599.184	23.6606
603.858	36.9692
608.528	59.9541
613.197	84.0523
617.862	36.1465
622.525	113.293
627.185	208.749
631.842	346.601
636.497	566.874
641.149	790.585
645.798	1336.74
650.445	2253.34
655.089	3900.39
659.73	6555.91
664.369	8552.89
669.005	7069.35
673.639	4199.29
678.269	2516.73
682.898	1433.67
687.523	764.122
692.146	557.104
696.766	457.62
701.384	278.682
705.998	261.299
710.611	92.4868
715.22	104.253
719.827	16.395
724.431	22.1875
729.033	47.1108
733.632	63.2383
738.229	75.2891
742.822	10.5942
747.413	12.813
752.002	42.0356
756.588	134.254
761.171	298.048
765.752	385.548
770.33	501.621
774.905	411.256
779.478	509.878
784.048	376.516
788.615	460.192
793.18	335.932
797.742	410.756
802.302	538.691
806.859	611.759
811.414	675.982
815.965	795.381
820.515	782.981
825.061	890.8
829.605	696.86
834.147	898.185
838.686	563.793
843.222	633.707
847.755	794.929
852.286	933.344
856.815	1030.79
861.341	1017.16
865.864	781.93
870.384	677.222
874.902	535.009
879.418	672.66
883.931	412.628
888.441	523.116
892.949	470.852
897.454	600.579
901.956	371.121
906.456	421.422
910.954	488.582
915.448	535.402
919.941	633.466
924.43	575.016
928.917	526.313
933.402	544.389
937.884	594.169
942.363	507.634
946.84	514.79
951.314	624.612
955.786	613.135
960.255	672.34
964.722	753.243
969.186	947.831
973.647	1119.09
978.106	1186.99
982.562	1443.52
987.016	1939.67
991.467	2689.98
995.916	3939.47
1000.36	5851.77
1004.8	8136.81
1009.25	8843.65
1013.68	6385.58
1018.12	3438.96
1022.55	2199.8
1026.98	1570.17
1031.41	1543.51
1035.84	1357.2
1040.26	1320.07
1044.68	1438.6
1049.1	1111.81
1053.52	838.114
1057.93	726.481
1062.34	538.807
1066.75	346.615
1071.15	443.61
1075.56	428.864
1079.96	253.542
1084.36	363.344
1088.75	310.406
1093.14	427.899
1097.53	331.079
1101.92	277.296
1106.31	305.413
1110.69	173.956
1115.07	181.386
1119.45	224.629
1123.82	207.199
1128.2	134.314
1132.57	125.976
1136.93	21.6255
1141.3	7.19189
1145.66	12.0835
1150.02	103.94
1154.38	101.249
1158.74	11.9624
1163.09	35.3438
1167.44	95.105
1171.79	10.7349
1176.13	12.5649
1180.48	4.0625
1184.82	131.993
1189.15	9.40576
1193.49	11.6055
1197.82	62.6963
1202.15	65.7036
1206.48	77.0703
1210.81	130.766
1215.13	60.5693
1219.45	118.925
1223.77	155.259
1228.08	169.033
1232.4	193.29
1236.71	178.051
1241.02	169.701
1245.32	186.541
1249.62	255.935
1253.92	176.88
1258.22	32.3525
1262.52	149.065
1266.81	248.463
1271.1	158.939
1275.39	184.943
1279.68	122.292
1283.96	226.855
1288.24	231.424
1292.52	268.137
1296.8	169.157
1301.07	257.909
1305.34	171.201
1309.61	260.048
1313.88	264.944
1318.14	29.2988
1322.4	181.356
1326.66	356.441
1330.92	355.626
1335.17	154.663
1339.42	187.258
1343.67	182.637
1347.92	150.326
1352.16	159.535
1356.41	250.763
1360.64	236.835
1364.88	259.112
1369.12	150.34
1373.35	289.512
1377.58	115.982
1381.81	75.5225
1386.03	191.671
1390.25	123.199
1394.47	105.585
1398.69	287.607
1402.91	81.2715
1407.12	137.031
1411.33	68.9609
1415.54	74.4238
1419.74	63.083
1423.95	107.281
1428.15	67.8301
1432.35	54.8984
1436.54	121.554
1440.74	181.819
1444.93	31.416
1449.12	35.6611
1453.3	92.9072
1457.49	21.7686
1461.67	84.7373
1465.85	103.065
1470.02	59.6865
1474.2	124.493
1478.37	102.599
1482.54	113.125
1486.71	2.21973
1490.87	70.4609
1495.03	59.9111
1499.19	11.3301
1503.35	133.289
1507.51	51.3535
1511.66	109.182
1515.81	27.4053
1519.96	39.2246
1524.1	131.353
1528.25	204.246
1532.39	198.947
1536.53	103.416
1540.66	143.586
1544.8	211.466
1548.93	212.815
1553.06	110.486
1557.18	48.374
1561.31	65.7266
