Measurement: Raman, 514 nm, depolarized, Raman Data Processed
Mineral: Augite
Rruff sample: R061086
Ideal chemistry: (Ca,Mg,Fe^2+^,Fe^3+^)_2_(Si,Al)_2_O_6_
Locality: Boreslav, Teplitz, Bohemia, Czech Republic
Source: Michael Scott
Description: Black to dark green tabular euhedral crystal
Measured chemistry: (Ca_0.88_Mg_0.83_Fe_0.13_Al_0.08_Na_0.04_Ti_0.03_Cr_0.01_)_Σ=2_(Si_1.89_Al_0.11_)_Σ=2_O_6_
Pin_id: M00162
Orientation: Laser parallel to c* (0 0 1). Fiducial mark perpendicular to laser is parallel to a [1 0 0]
Raman shift (cm-1)	intensity
131.649	0
136.591	173.759
141.529	235.673
146.465	209.231
151.398	142.484
156.328	12.6685
161.256	63.7505
166.18	35.4448
171.102	195.115
176.021	35.4795
180.937	122.441
185.85	167.992
190.76	217.803
195.668	297.319
200.572	274.129
205.474	37.46
210.374	103.969
215.27	32.7671
220.163	91.8428
225.054	120.185
229.942	178.382
234.827	148.425
239.709	26.5195
244.589	15.1987
249.465	126.256
254.339	117.876
259.21	164.695
264.079	114.556
268.944	19.4092
273.807	69.7471
278.667	59.7515
283.524	22.688
288.378	52.9038
293.23	156.404
298.079	330.299
302.925	329.771
307.768	406.684
312.609	552.171
317.446	970.254
322.281	1070.52
327.113	1316.01
331.943	1232.25
336.769	1012.89
341.593	805.643
346.414	666.82
351.233	794.092
356.048	841.932
360.861	801.841
365.671	719.362
370.478	674.945
375.283	630.59
380.084	691.29
384.883	1045.04
389.68	1347.53
394.473	1474.84
399.264	1170.19
404.052	550.063
408.837	302.949
413.62	153.44
418.4	152.32
423.177	37.2334
427.951	61.1821
432.722	16.9233
437.491	109.941
442.257	24.9844
447.021	40.2798
451.781	14.1484
456.539	84.4785
461.294	170.086
466.047	165.839
470.797	7.54541
475.544	11.9072
480.288	18.7314
485.03	52.5947
489.768	81.9795
494.504	82.2993
499.238	79.3462
503.969	125.273
508.697	201.075
513.422	150.754
518.144	241.305
522.864	212.723
527.582	265.974
532.296	266.136
537.008	269.124
541.717	236.957
546.423	219.628
551.127	175.135
555.828	300.742
560.526	300.522
565.222	236.276
569.915	149.745
574.605	183.616
579.292	136.499
583.977	72.9199
588.659	114.954
593.339	63.4233
598.016	37.3843
602.69	17.0479
607.361	157.64
612.03	119.933
616.696	151.065
621.359	32.791
626.02	83.5391
630.678	98.2852
635.333	153.738
639.986	189.916
644.636	340.352
649.284	577.952
653.928	922.306
658.57	1585.39
663.21	2452.2
667.846	3011.74
672.481	1953.01
677.112	1031.01
681.741	613.752
686.367	303.231
690.99	349.451
695.611	218.409
700.229	125.105
704.845	69.5469
709.458	139.727
714.068	106.712
718.676	58.4522
723.281	20.3184
727.883	69.3921
732.483	11.6982
737.08	34.6533
741.674	46.0234
746.266	60.3218
750.855	71.8286
755.442	27.856
760.025	77.8066
764.607	291.427
769.185	163.856
773.761	105.224
778.335	208.495
782.906	171.67
787.474	191.756
792.039	93.7617
796.602	114.696
801.162	198.567
805.72	164.387
810.275	267.16
814.828	71.8975
819.378	193.606
823.925	196.299
828.47	130.981
833.012	277.392
837.551	509.896
842.088	438.25
846.622	335.47
851.154	212.856
855.683	302.043
860.209	322.418
864.733	237.421
869.254	231.784
873.773	228.153
878.289	144.356
882.803	205.39
887.314	193.305
891.822	159.344
896.328	67.4053
900.831	74.0938
905.332	94.3369
909.83	56.2432
914.325	119.919
918.818	135.927
923.308	152.319
927.796	182.949
932.281	162.844
936.764	80.9697
941.244	74.3086
945.721	150.867
950.196	158.643
954.668	89.6377
959.138	113.852
963.605	194.285
968.07	216.939
972.532	382.819
976.991	355.948
981.448	483.388
985.903	553.118
990.355	844.112
994.804	1146.44
999.251	1843.09
1003.7	2700.06
1008.14	3695.4
1012.58	3710.71
1017.01	2303.61
1021.45	1286.8
1025.88	711.392
1030.31	502.42
1034.73	587.405
1039.16	455.902
1043.58	432.483
1048	395.795
1052.41	354.478
1056.83	387.086
1061.24	139.012
1065.65	259.603
1070.05	49.6963
1074.46	160.48
1078.86	176.924
1083.26	197.439
1087.65	235.012
1092.05	55.582
1096.44	128.978
1100.83	91.4678
1105.21	56.1387
1109.6	106.044
1113.98	64.043
1118.36	114.256
1122.73	147.204
1127.1	78.6152
1131.47	74.415
1135.84	168.731
1140.21	67.3457
1144.57	74.4981
1148.93	21.5771
1153.29	45.1836
1157.65	168.776
1162	81.2373
1166.35	40.5791
1170.7	142.785
1175.05	85.3057
1179.39	163.874
1183.73	56.3574
1188.07	51.0498
1192.41	37.4551
1196.74	99.9668
1201.07	140.683
1205.4	67.1455
1209.72	73.4258
1214.05	119.07
1218.37	147.464
1222.69	97.3682
1227.01	146.951
1231.32	82.3467
1235.63	188.548
1239.94	53.4414
1244.24	170.012
1248.55	163.334
1252.85	134.288
1257.15	114.28
1261.44	205.876
1265.74	21.1514
1270.03	325.118
1274.32	250.307
1278.61	269.519
1282.89	261.224
1287.17	322.226
1291.45	276.472
1295.73	301.555
1300	234.811
1304.27	267.945
1308.54	159.989
1312.81	88.0186
1317.08	305.041
1321.34	263.981
1325.6	194.444
1329.85	265.196
1334.11	286.072
1338.36	217.284
1342.61	224.484
1346.86	115.762
1351.1	110.654
1355.35	160.401
1359.59	130.829
1363.82	87.1094
1368.06	133.664
1372.29	106.634
1376.52	134.992
1380.75	47.5078
1384.97	67.3838
1389.2	80.7607
1393.42	223.134
1397.64	83.8428
1401.85	61.5518
1406.07	79.6758
1410.28	74.1641
1414.49	142.179
1418.69	94.1621
1422.9	23.1143
1427.1	193.776
1431.3	140.29
1435.49	282.841
1439.69	67.7363
1443.88	112.519
1448.07	99.0791
1452.26	360.659
1456.44	223.262
1460.62	132.91
1464.8	140.8
1468.98	196.559
1473.15	59.3447
1477.33	130.191
1481.5	248.581
1485.66	156.296
1489.83	140.74
1493.99	120.728
1498.15	36.7178
1502.31	154.572
1506.47	83.5478
1510.62	70.5928
1514.77	51.2998
1518.92	139.168
1523.07	38.6025
1527.21	216.86
1531.35	193.875
1535.49	113.615
1539.63	5.81152
1543.76	1.76562
