Measurement: Raman, 514 nm, depolarized, Raman Data Processed
Mineral: Augite
Rruff sample: R061108
Ideal chemistry: (Ca,Mg,Fe^2+^,Fe^3+^)_2_(Si,Al)_2_O_6_
Locality: Monti Rossi, near Mt. Etna, Sicily, Italy
Source: Michael Scott
Description: Euhedral, short prismatic, black crystals in vesicular basalt.
Measured chemistry: (Ca_0.86_Mg_0.74_Fe^2+^_0.18_Fe^3+^_0.08_Al_0.05_Ti_0.04_Na_0.04_Mn_0.01_)_Σ=2_(Si_1.83_Al_0.17_)_Σ=2_O_6_
Pin_id: L00942
Orientation: Laser parallel to -a* (-1 0 0). Fiducial mark perpendicular to laser is parallel to b [0 1 0]
Raman shift (cm-1)	intensity
157.427	0
162.334	200.723
167.238	1259.63
172.14	1456.05
177.04	1607.39
181.937	2120.43
186.831	2468.33
191.723	2852.75
196.613	2809.49
201.5	2919.16
206.384	1565.29
211.267	1745.88
216.146	2626.71
221.024	3003.05
225.898	3032.85
230.771	3561.25
235.64	1746.12
240.508	1272.85
245.373	1144.06
250.235	734.865
255.095	445.019
259.952	225.522
264.807	185.578
269.659	442.264
274.509	105.49
279.357	232.885
284.202	847.148
289.044	1414.26
293.884	2418.16
298.721	3732.65
303.556	5404.56
308.389	8140.71
313.219	11291.4
318.046	15148.3
322.871	17680.6
327.694	17175.9
332.514	14817.2
337.331	12831.3
342.146	10972.8
346.959	10131.1
351.769	9690.07
356.576	8809.1
361.381	8316.29
366.184	8001.61
370.984	8404.84
375.781	10028.9
380.576	13053.7
385.369	16664.1
390.159	18747.2
394.946	15992.7
399.731	9834.54
404.514	5122.72
409.293	2962.28
414.071	1812.02
418.846	1318.1
423.618	968.486
428.388	724.182
433.155	347.842
437.92	215.459
442.682	19.2617
447.442	22.8379
452.2	102.83
456.954	346.977
461.707	535.168
466.456	606.053
471.204	659.236
475.948	929.92
480.69	1309.62
485.43	1260.97
490.167	1588.19
494.902	2051.03
499.634	2736.47
504.363	3736.51
509.09	4820.16
513.815	5259.37
518.537	5724.07
523.256	6173.21
527.973	6727.74
532.687	6780.6
537.399	6830.73
542.108	6295.17
546.815	5750.78
551.519	5810.84
556.221	5557.02
560.92	5440.35
565.617	5323.08
570.311	4764.83
575.003	4060.59
579.692	3100.3
584.378	1922.39
589.062	1050.68
593.743	317.24
598.422	20.8418
603.099	148.834
607.772	38.4453
612.444	153.315
617.112	96.5352
621.778	245.125
626.442	499.611
631.103	964.055
635.762	1750.97
640.418	2854.47
645.071	4715.6
649.722	8166.39
654.37	14156.9
659.016	23139.1
663.659	31390.1
668.3	25676
672.938	15909.8
677.574	9248.47
682.207	5285.18
686.837	3179.95
691.465	2118.85
696.09	1431.93
700.713	1258.23
705.333	783.82
709.951	546.762
714.566	163.133
719.179	133.951
723.789	400.603
728.396	586.363
733.001	465.523
737.604	492.777
742.203	162.56
746.801	9.26367
751.395	488.828
755.987	826.018
760.577	1157.21
765.164	1807.61
769.748	1737.14
774.33	1876.33
778.909	1720
783.486	1153.28
788.06	1253.28
792.632	1294.1
797.201	1459.88
801.767	1625.71
806.331	1760.7
810.893	2019.96
815.451	2593.59
820.008	2377.7
824.561	2355.38
829.112	2087.72
833.661	1807.84
838.207	1717.81
842.75	1616.74
847.291	1919.71
851.829	2351.81
856.365	2974.15
860.898	2628.18
865.428	2560.58
869.956	1982
874.481	1746.09
879.004	1694.07
883.524	1621.44
888.042	1436.5
892.557	1633.26
897.069	1392.62
901.579	1466.09
906.087	1561.88
910.591	1651.17
915.093	2079.7
919.593	2471.22
924.09	2644.41
928.584	2875.4
933.076	2451.3
937.565	2393.78
942.052	2040.94
946.536	2110.14
951.018	2384.95
955.496	2352.71
959.973	2876.86
964.446	3394.36
968.918	3806.17
973.386	4841.24
977.852	5526.57
982.316	6552.1
986.776	8498.81
991.235	11426.7
995.69	16208.5
1000.14	22465.8
1004.59	28645
1009.04	29151.4
1013.49	21935.2
1017.93	13438.6
1022.37	9290.02
1026.81	7606.91
1031.24	7227.79
1035.67	7154.62
1040.1	6885.5
1044.53	5823.32
1048.96	5422.04
1053.38	4352.85
1057.8	3672.25
1062.21	3125.77
1066.63	2928.2
1071.04	2506.4
1075.45	2462.8
1079.86	2315.96
1084.26	2105.76
1088.66	1970.72
1093.06	1824.13
1097.45	1999.72
1101.85	1660.57
1106.24	1604.52
1110.63	1498.78
1115.01	1440.15
1119.4	1509.51
1123.78	1240.95
1128.15	884.164
1132.53	359.709
1136.9	58.4336
1141.27	168.295
1145.64	356.033
1150	91.2129
1154.37	270.602
1158.73	220.861
1163.08	204.289
1167.44	225.334
1171.79	122.143
1176.14	38.3418
1180.48	48.6035
1184.83	141.33
1189.17	37.9844
1193.51	240.779
1197.85	200.039
1202.18	259.441
1206.51	292.449
1210.84	314.154
1215.16	495.596
1219.49	421.82
1223.81	542.955
1228.13	453.047
1232.44	628.981
1236.75	577.797
1241.06	739.441
1245.37	653.906
1249.68	580.127
1253.98	669.1
1258.28	874.842
1262.58	742.365
1266.87	725.037
1271.16	730.984
1275.45	759.535
1279.74	695.373
1284.02	667.725
1288.3	549.379
1292.58	584.17
1296.86	465.678
1301.13	550.09
1305.4	475.094
1309.67	484.65
1313.94	590.924
1318.2	323.873
1322.46	536.738
1326.72	593.744
1330.97	516.018
1335.23	468.164
1339.48	731.394
1343.72	480.586
1347.97	576.633
1352.21	419.744
1356.45	672.33
1360.69	496.621
1364.92	434.965
1369.15	523.428
1373.38	485.307
1377.61	398.769
1381.84	514.119
1386.06	547.451
1390.28	157.373
1394.49	400.137
1398.7	357.758
1402.92	264.603
1407.12	296.285
1411.33	364.394
1415.53	304.701
1419.73	193.4
1423.93	264.478
1428.13	186.754
1432.32	163.922
1436.51	30.2383
1440.7	220.986
1444.88	91.5059
1449.06	229.19
1453.24	244.254
1457.42	33.3203
1461.59	19.8867
1465.77	115.262
1469.93	117.518
1474.1	129.242
1478.27	217.701
1482.43	190.336
1486.58	83.4473
1490.74	304.529
1494.89	168.826
1499.04	236.273
1503.19	212.656
1507.34	326.09
1511.48	186.17
1515.62	21.2598
1519.76	118.904
1523.89	74.1875
1528.03	252.082
1532.15	0.296875
1536.28	126.768
1540.41	102.244
1544.53	330.912
1548.65	123.357
1552.77	200.281
1556.88	278.369
1560.99	16.5527
