Measurement: Raman, 514 nm, depolarized, Raman Data Processed
Mineral: Augite
Rruff sample: R061086
Ideal chemistry: (Ca,Mg,Fe^2+^,Fe^3+^)_2_(Si,Al)_2_O_6_
Locality: Boreslav, Teplitz, Bohemia, Czech Republic
Source: Michael Scott
Description: Black to dark green tabular euhedral crystal
Measured chemistry: (Ca_0.88_Mg_0.83_Fe_0.13_Al_0.08_Na_0.04_Ti_0.03_Cr_0.01_)_Σ=2_(Si_1.89_Al_0.11_)_Σ=2_O_6_
Pin_id: M00351
Orientation: Laser parallel to (1 0 1). Fiducial mark perpendicular to laser is parallel to b [0 1 0]
Raman shift (cm-1)	intensity
158.619	0
163.563	76.5769
168.504	131.982
173.442	53.9175
178.377	142.602
183.309	141.769
188.238	196.481
193.163	331.334
198.086	308.82
203.005	225.644
207.921	22.4619
212.834	51.0969
217.744	114.127
222.651	180.249
227.555	234.074
232.456	158.811
237.354	178.045
242.248	34.4587
247.14	51.176
252.028	125.24
256.914	142.664
261.796	198.404
266.675	15.8723
271.551	41.9316
276.425	47.6953
281.295	67.7703
286.162	121.139
291.026	250.737
295.887	326.597
300.745	466.84
305.6	501.659
310.451	760.094
315.3	1124.93
320.146	1553.69
324.989	1801.04
329.829	1840.84
334.666	1546
339.5	1330.55
344.33	1190.43
349.158	1197.59
353.983	1327.26
358.805	1367.5
363.624	1257.27
368.44	1080.23
373.253	1030.37
378.062	1149.67
382.869	1543.11
387.673	1995.69
392.474	2323.41
397.273	1851.25
402.068	1071.2
406.86	640.264
411.649	200.14
416.435	184.38
421.219	114.699
425.999	80.0859
430.776	36.5317
435.551	7.06201
440.323	23.376
445.091	47.8364
449.857	15.8384
454.62	45.5493
459.38	157.607
464.137	127.059
468.891	100.752
473.642	114.083
478.39	79.0352
483.136	172.322
487.878	117.344
492.618	137.055
497.355	135.551
502.089	101.976
506.82	293.31
511.548	384.543
516.273	358.666
520.996	480.671
525.715	415.548
530.432	534.292
535.146	546.894
539.857	481.345
544.565	419.641
549.27	464.772
553.972	488.724
558.672	480.542
563.369	464.168
568.063	361.606
572.754	330.523
577.442	213.262
582.127	159.259
586.81	85.9185
591.49	10.7578
596.167	20.1587
600.841	74.5894
605.513	35.1138
610.181	49.4048
614.847	26.0747
619.51	112.223
624.17	105.958
628.828	124.371
633.482	240.385
638.134	347.144
642.783	560.605
647.43	759.769
652.073	1220.24
656.714	2116.21
661.352	3583.49
665.987	4682.49
670.62	3842.19
675.25	2262.62
679.877	1254.76
684.501	612.628
689.122	345.226
693.741	306.557
698.357	105.627
702.97	169.439
707.581	83.001
712.189	28.3047
716.794	81.3091
721.396	64.1016
725.996	32.3306
730.593	56.5967
735.187	45.0093
739.779	105.664
744.368	33.7305
748.954	22.0064
753.538	91.6943
758.118	8.35107
762.696	219.693
767.272	157.269
771.845	295.943
776.415	248.706
780.982	322.429
785.547	218.126
790.109	205.809
794.668	209.49
799.225	199.183
803.779	193.898
808.33	242.645
812.879	278.44
817.425	223.291
821.968	258.211
826.509	309.21
831.047	298.302
835.583	139.499
840.116	194.81
844.646	105.249
849.174	249.097
853.699	327.5
858.221	556.387
862.741	474.035
867.258	285.56
871.772	395.97
876.284	361.064
880.793	193.448
885.3	278.375
889.804	255.003
894.306	264.099
898.805	68.604
903.301	77.5059
907.795	167.856
912.286	101.7
916.774	189.057
921.26	231.769
925.744	281.885
930.225	251.374
934.703	200.227
939.179	261.42
943.652	305.948
948.122	352.811
952.59	180.027
957.056	269.602
961.519	298.571
965.979	430.928
970.437	507.625
974.892	533.722
979.345	639.171
983.795	804.96
988.243	966.117
992.688	1402.6
997.131	2252.47
1001.57	3188.12
1006.01	4590.71
1010.44	5277.94
1014.88	3928.86
1019.31	2105.4
1023.73	1276.12
1028.16	887.845
1032.58	854.592
1037	785.518
1041.42	635.303
1045.83	672.767
1050.25	492.191
1054.66	390.627
1059.06	370.279
1063.47	240.636
1067.87	267.826
1072.27	200.367
1076.67	130.087
1081.07	133.83
1085.46	211.359
1089.85	186.775
1094.24	120.451
1098.62	146.211
1103.01	189.051
1107.38	139.383
1111.76	154.486
1116.14	99.0147
1120.51	185.488
1124.88	135.358
1129.25	93.3408
1133.62	120.733
1137.98	100.615
1142.34	79.3662
1146.7	25.7876
1151.06	3.52637
1155.41	11.0185
1159.76	78.606
1164.11	9.14502
1168.46	45.8262
1172.8	50.9077
1177.14	19.7754
1181.48	39.8442
1185.82	95.6152
1190.15	37.9502
1194.48	76.0068
1198.81	111.974
1203.14	61.5576
1207.47	55.9292
1211.79	12.1221
1216.11	63.043
1220.43	21.3086
1224.74	33.0225
1229.06	70.0015
1233.37	9.8794
1237.67	119.753
1241.98	84.1856
1246.28	90.0264
1250.59	86.5938
1254.88	121.921
1259.18	82.0181
1263.47	197.985
1267.77	60.6235
1272.06	163.364
1276.34	116.4
1280.63	141.567
1284.91	78.5737
1289.19	187.091
1293.47	147.803
1297.74	126.511
1302.02	44.4331
1306.29	82.3237
1310.56	77.4922
1314.82	126.572
1319.09	212.586
1323.35	78.4946
1327.61	165.72
1331.87	96.6743
1336.12	159.426
1340.37	154.128
1344.62	170.662
1348.87	198.57
1353.12	194.523
1357.36	141.245
1361.6	42.9663
1365.84	2.08643
1370.08	65.6802
1374.31	177.699
1378.54	142.747
1382.77	99.7837
1387	104.902
1391.22	96.2481
1395.45	154.598
1399.67	51.4482
1403.88	71.2065
1408.1	29.7998
1412.32	100.532
1416.53	46.3281
1420.74	76.5459
1424.94	12.1465
1429.15	151.25
1433.35	90.2647
1437.55	89.8257
1441.75	171.142
1445.94	212.289
1450.14	113.578
1454.33	17.7602
1458.52	70.019
1462.71	7.32227
1466.89	78.3345
1471.07	90.0151
1475.25	109.781
1479.43	25.5767
1483.61	67.376
1487.78	40.355
1491.95	52.5327
1496.12	43.542
1500.29	68.9316
1504.45	5.49609
1508.62	63.2378
1512.78	57.4585
1516.94	58.0767
1521.09	43.6938
1525.25	18.2388
1529.4	254.676
1533.55	45.9302
1537.69	117.781
1541.84	52.8325
1545.98	128.467
1550.12	29.0127
1554.26	223.333
1558.4	1.95703
1562.54	0
