Measurement: Raman, 514 nm, depolarized, Raman Data Processed
Mineral: Augite
Rruff sample: R061108
Ideal chemistry: (Ca,Mg,Fe^2+^,Fe^3+^)_2_(Si,Al)_2_O_6_
Locality: Monti Rossi, near Mt. Etna, Sicily, Italy
Source: Michael Scott
Description: Euhedral, short prismatic, black crystals in vesicular basalt.
Measured chemistry: (Ca_0.86_Mg_0.74_Fe^2+^_0.18_Fe^3+^_0.08_Al_0.05_Ti_0.04_Na_0.04_Mn_0.01_)_Σ=2_(Si_1.83_Al_0.17_)_Σ=2_O_6_
Pin_id: L01693
Orientation: Laser parallel to -c* (0 0 -1). Fiducial mark perpendicular to laser is parallel to a [1 0 0]
Raman shift (cm-1)	intensity
158.697	0
163.633	47.1084
168.567	228.965
173.497	199.656
178.424	452.729
183.348	499.283
188.269	1074.73
193.187	1286.91
198.102	746.008
203.014	645.882
207.923	192.33
212.829	216.37
217.732	415.284
222.632	522.704
227.528	568.094
232.422	340.845
237.313	259.634
242.201	386.542
247.085	421.692
251.967	674.526
256.846	502.517
261.722	387.699
266.594	106.395
271.464	169.046
276.331	327.761
281.194	661.33
286.055	1166.55
290.913	1838.2
295.768	2764.07
300.62	4129.97
305.469	5360.69
310.315	7640.71
315.158	10096.3
319.998	12502.5
324.835	13540.9
329.669	13056.5
334.5	11313.1
339.328	9388.42
344.154	8011.66
348.976	7420.09
353.795	6803.48
358.612	6553.73
363.425	6044.37
368.236	5917.43
373.044	6698.76
377.849	8130.24
382.651	10331.8
387.45	12214.2
392.246	12212.6
397.039	9455.83
401.829	5828.71
406.617	3100.18
411.401	1779.14
416.183	1020.47
420.962	706.11
425.738	615.95
430.511	386.897
435.281	172.864
440.048	20.7676
444.812	56.9912
449.574	106.105
454.333	331.117
459.089	626.627
463.842	863.55
468.592	908.321
473.339	1088.87
478.084	1113.34
482.825	1398.29
487.564	1313.98
492.3	1522.42
497.033	1722.12
501.763	2310.41
506.491	2767.13
511.216	3206.21
515.938	3403.56
520.657	3408.95
525.373	3780.85
530.086	4093.66
534.797	3751.51
539.505	3887.34
544.21	3731.1
548.912	3770.74
553.612	3810.21
558.308	3785.48
563.002	3274.51
567.693	2892.26
572.382	2436.7
577.067	1704.81
581.75	949.544
586.43	245.433
591.108	5.80176
595.782	332.97
600.454	293.988
605.123	87.4258
609.789	66.4033
614.453	133.81
619.114	185.49
623.772	491.651
628.427	768.682
633.08	1519.27
637.73	2478.25
642.377	3946.66
647.021	6713.54
651.663	11057.9
656.302	18849.9
660.939	26282.5
665.572	29804.8
670.203	23130.9
674.831	13762.8
679.457	7532.61
684.08	4148.37
688.7	2640.18
693.317	1722.11
697.932	1403.25
702.544	1154.68
707.153	861.477
711.76	769.742
716.364	570.562
720.965	103.03
725.564	243
730.16	399.94
734.754	454.654
739.344	412.363
743.932	206.895
748.518	313.723
753.101	849.449
757.681	1511.44
762.258	2286.73
766.833	2595.59
771.405	2673.03
775.975	2504.34
780.542	2169.64
785.106	1796.08
789.668	1562.76
794.227	1281.83
798.783	1354.39
803.337	1539.58
807.889	1820.5
812.437	2080.27
816.983	2281.99
821.527	2131.78
826.067	1651.74
830.606	1343.97
835.141	1036.57
839.674	637.642
844.205	603.278
848.733	712.569
853.258	621.607
857.781	1040.48
862.301	1138.83
866.819	967.852
871.334	920.148
875.846	909.257
880.356	903.285
884.863	1013.67
889.368	1448.15
893.87	1631.04
898.37	1746.05
902.867	1869.4
907.362	2129.86
911.854	2336.16
916.344	2592.11
920.831	2977.58
925.315	3433.35
929.797	3393.13
934.276	3229.87
938.753	3093.28
943.228	3105.63
947.699	3265.88
952.169	3360.96
956.636	3598.81
961.1	3841.37
965.562	4462.6
970.021	5044.43
974.478	6190.78
978.932	7389.65
983.384	9458.93
987.833	12433.6
992.28	17366.5
996.725	24642.9
1001.17	33952.2
1005.61	40641.2
1010.04	38919.7
1014.48	28124.5
1018.91	17109.8
1023.34	11132.4
1027.77	8427.99
1032.19	6974.67
1036.61	6545
1041.03	5730.32
1045.45	6254.72
1049.86	4100.88
1054.28	3504.74
1058.69	2781.77
1063.09	2419.08
1067.5	2201.15
1071.9	2053.15
1076.3	1942.17
1080.7	1890.32
1085.1	1841.47
1089.49	1898.09
1093.88	1800.38
1098.27	1639.3
1102.65	1672.28
1107.04	1739.42
1111.42	1566.45
1115.79	1613.48
1120.17	1440.03
1124.54	1235.89
1128.91	747.562
1133.28	509.579
1137.65	220.174
1142.01	151.055
1146.38	158.824
1150.73	166.364
1155.09	253.952
1159.45	182.971
1163.8	226.405
1168.15	159.545
1172.5	169.024
1176.84	39.4624
1181.18	163.391
1185.52	73.2978
1189.86	65.0757
1194.2	99.7891
1198.53	184.383
1202.86	363.349
1207.19	384.835
1211.52	519.589
1215.84	560.897
1220.16	536.67
1224.48	534.931
1228.8	667.749
1233.11	802.991
1237.42	639.907
1241.73	796.191
1246.04	791.313
1250.35	954.818
1254.65	877.627
1258.95	928.294
1263.25	975.41
1267.54	972.996
1271.84	1147.86
1276.13	982.632
1280.42	910.577
1284.7	880.379
1288.99	777.251
1293.27	807.617
1297.55	650.013
1301.83	581.61
1306.1	570.079
1310.38	676.45
1314.65	634.388
1318.91	548.923
1323.18	593.818
1327.44	510.802
1331.71	477.282
1335.97	644.923
1340.22	582.286
1344.48	514.056
1348.73	558.973
1352.98	449.745
1357.23	535.303
1361.47	524.975
1365.72	475.46
1369.96	409.681
1374.2	424.224
1378.43	254.506
1382.67	409.563
1386.9	333.452
1391.13	380.088
1395.36	214.842
1399.59	209.749
1403.81	298.072
1408.03	256.374
1412.25	237.614
1416.47	116.266
1420.68	155.914
1424.89	158.882
1429.1	163.402
1433.31	93.8906
1437.52	34.2974
1441.72	184.552
1445.92	177.818
1450.12	5.90332
1454.32	101.238
1458.51	118.966
1462.7	57.2974
1466.89	34.2144
1471.08	104.371
1475.27	76.1973
1479.45	85.6587
1483.63	23.146
1487.81	150.987
1491.99	88.0283
1496.16	193.678
1500.34	111.784
1504.51	124.733
1508.68	249.495
1512.84	126.47
1517.01	183.028
1521.17	178.68
1525.33	150.181
1529.49	86.1245
1533.64	143.327
1537.8	52.5376
1541.95	70.1611
1546.1	53.9023
1550.24	124.547
1554.39	71.2773
1558.53	109.308
1562.67	21.1899
