Measurement: Raman, 514 nm, depolarized, Raman Data Processed
Mineral: Augite
Rruff sample: R070231
Ideal chemistry: (Ca,Mg,Fe^2+^,Fe^3+^)_2_(Si,Al)_2_O_6_
Locality: Old Goose Creek Quarry, Leesburg, Loudoun County, Virginia, USA
Source: Michael Scott
Description: Very dark grey-green prismatic crystals frozen in quartz
Measured chemistry: (Mg_0.44_Fe_0.37_Ca_0.17_Ti_0.01_Mn_0.01_)_Σ=1_(Si_0.98_Al_0.02_)_Σ=1_O_3_
Pin_id: M00250
Orientation: Laser parallel to (-1 0 -1). Fiducial mark perpendicular to laser is parallel to b [0 1 0]
Raman shift (cm-1)	intensity
143.66	0
148.596	110.147
153.53	248.935
158.46	32.6484
163.388	135.491
168.313	244.207
173.235	380.535
178.155	654.227
183.071	993.026
187.985	1292.18
192.896	1196.02
197.803	730.216
202.709	810.551
207.611	14.9463
212.51	195.69
217.407	665.596
222.301	1117.87
227.192	1404.99
232.08	1657.11
236.965	1315.37
241.848	1264.02
246.728	1028.12
251.604	943.618
256.479	532.914
261.35	411.715
266.218	18.8008
271.084	62.1504
275.947	114.743
280.807	74.4561
285.664	391.958
290.518	923.697
295.37	1806.65
300.219	2514.69
305.065	3748.83
309.908	5921.63
314.749	9625.43
319.586	14459.8
324.421	16738.5
329.253	13337.7
334.083	9165.59
338.909	6086.34
343.733	4746.89
348.554	4855.44
353.372	5480.51
358.187	5391.27
363	4962.72
367.81	4797.29
372.617	5582.93
377.421	7384.64
382.223	10708.4
387.022	14298.2
391.818	14671.1
396.611	10399
401.401	6142.85
406.189	3128.73
410.974	1429.31
415.756	637.046
420.536	228.092
425.312	78.5732
430.086	94.1719
434.858	172.539
439.626	129.398
444.392	175.867
449.155	26.293
453.915	254.64
458.672	337.478
463.427	358.867
468.179	410.585
472.928	226.613
477.675	187.871
482.419	97.2949
487.16	288.01
491.898	475.501
496.634	755.723
501.367	1609.71
506.097	2637.39
510.825	3033.67
515.549	2543.57
520.271	2387.05
524.991	2724.1
529.707	2973.33
534.421	2909.79
539.132	2514.41
543.841	2229.52
548.547	2305.11
553.25	3150.19
557.95	3268.45
562.648	2444.86
567.343	1738.64
572.035	1241.69
576.724	868.254
581.411	560.764
586.095	129.072
590.777	117.647
595.456	29.7979
600.132	28.2578
604.805	12.0508
609.476	267.637
614.144	498.99
618.809	730.153
623.472	1102.67
628.132	1626.36
632.789	1998.28
637.444	2633.71
642.096	3864.39
646.745	6114.23
651.392	10559.8
656.036	17645
660.677	27947.2
665.316	33852.9
669.952	26600.8
674.585	16704
679.216	9849.34
683.844	5343.97
688.469	3214.87
693.092	1974.05
697.712	1491.53
702.329	1321.3
706.944	845.405
711.556	556.858
716.166	377.834
720.773	223.477
725.377	9.89355
729.978	30.9805
734.577	51.3848
739.173	8.69824
743.767	61.6582
748.358	115.193
752.946	56.9609
757.532	155.436
762.115	95.5
766.695	66.1504
771.273	19.3096
775.848	88.1641
780.421	84.6133
784.991	99.8281
789.558	121.895
794.123	1.81836
798.685	73.6611
803.245	130.685
807.802	232.256
812.356	243.102
816.907	657.02
821.456	1063.05
826.003	1292.21
830.547	1110.55
835.088	1076.09
839.627	733.852
844.163	555.878
848.696	640.195
853.227	563.83
857.755	748.684
862.281	668.874
866.804	723.345
871.324	660.356
875.842	501.967
880.357	473.762
884.87	622.832
889.38	469.848
893.888	718.872
898.393	552.218
902.895	578.695
907.395	751.234
911.892	1009.75
916.387	1104.89
920.879	1209.61
925.368	1404.11
929.855	1212.15
934.339	1246.5
938.821	1231.68
943.301	1411.05
947.777	1374.37
952.251	1519.64
956.723	1628.91
961.192	2004.12
965.658	2444.23
970.122	3055.25
974.583	4065.21
979.042	5792.08
983.498	8773.85
987.952	13769.5
992.403	20628
996.852	24787.5
1001.3	28756.2
1005.74	37791
1010.18	47495
1014.62	40858.9
1019.06	22372.5
1023.49	11640
1027.92	7593.29
1032.35	6024.27
1036.78	5104.73
1041.2	4723.28
1045.62	4284.85
1050.04	3072
1054.45	2358.04
1058.87	1713.16
1063.28	1389.51
1067.68	1032.18
1072.09	860.541
1076.49	537.428
1080.89	514.71
1085.29	674.008
1089.69	638.251
1094.08	631.496
1098.47	531.627
1102.86	575.325
1107.24	394.718
1111.63	368.669
1116.01	583.732
1120.38	510.508
1124.76	487.251
1129.13	475.616
1133.5	263.528
1137.87	30.2334
1142.24	158.961
1146.6	88.8184
1150.96	26.8818
1155.32	64.1494
1159.67	77.3144
1164.03	17.5801
1168.38	43.7324
1172.72	98.8984
1177.07	104.501
1181.41	26.3379
1185.75	141.922
1190.09	73.4189
1194.43	5.97461
1198.76	7.67188
1203.09	24.2812
1207.42	60.8565
1211.75	77.7432
1216.07	39.9199
1220.39	178.301
1224.71	219.033
1229.02	248.13
1233.34	105.56
1237.65	218.304
1241.96	123.399
1246.26	242.818
1250.57	231.584
1254.87	196.676
1259.17	389.052
1263.46	446.758
1267.76	312.818
1272.05	281.388
1276.34	363.409
1280.62	315.921
1284.91	401.201
1289.19	335.092
1293.47	396.543
1297.74	343.629
1302.02	483.982
1306.29	331.504
1310.56	298.898
1314.83	433.966
1319.09	428.11
1323.35	197.39
1327.61	420.45
1331.87	244.572
1336.12	245.068
1340.38	525.856
1344.63	553.722
1348.87	428.022
1353.12	310.121
1357.36	289.224
1361.6	389.035
1365.84	261.434
1370.08	333.351
1374.31	173.426
1378.54	153.03
1382.77	414.964
1386.99	232.559
1391.22	213.105
1395.44	172.463
1399.66	213.964
1403.87	201.177
1408.09	223.227
1412.3	109.561
1416.51	173.573
1420.71	322.371
1424.92	265.849
1429.12	154.54
1433.32	179.487
1437.51	359.304
1441.71	273.03
1445.9	167.447
1450.09	457.3
1454.28	264.524
1458.46	148.03
1462.65	190.75
1466.83	34.4746
1471	162.363
1475.18	196.345
1479.35	21.5381
1483.52	72.9961
1487.69	51.0645
1491.86	114.996
1496.02	109.885
1500.18	125.215
1504.34	9.99219
1508.5	44.8379
1512.65	32.7871
1516.8	122.826
1520.95	1.65039
1525.1	156.289
1529.24	261.75
1533.39	141.522
1537.53	1.88086
1541.66	283.828
1545.8	178.779
1549.93	321.461
1554.06	551.258
1558.19	182.94
1562.32	259.031
1566.44	91.1465
1570.56	0
