Measurement: Raman, 514 nm, depolarized, Raman Data Processed
Mineral: Augite
Rruff sample: R061108
Ideal chemistry: (Ca,Mg,Fe^2+^,Fe^3+^)_2_(Si,Al)_2_O_6_
Locality: Monti Rossi, near Mt. Etna, Sicily, Italy
Source: Michael Scott
Description: Euhedral, short prismatic, black crystals in vesicular basalt.
Measured chemistry: (Ca_0.86_Mg_0.74_Fe^2+^_0.18_Fe^3+^_0.08_Al_0.05_Ti_0.04_Na_0.04_Mn_0.01_)_Σ=2_(Si_1.83_Al_0.17_)_Σ=2_O_6_
Pin_id: L01364
Orientation: Laser parallel to b* (0 1 0). Fiducial mark perpendicular to laser is parallel to c [0 0 1]
Raman shift (cm-1)	intensity
163.56	0
168.464	146.987
173.365	578.487
178.264	908.662
183.16	868.002
188.054	1444.44
192.946	1305.29
197.835	1147.28
202.721	1142.13
207.605	31.0967
212.487	169.224
217.366	78.2236
222.243	156.401
227.117	430.397
231.988	650.512
236.857	762.696
241.724	922.523
246.588	1203.96
251.45	1339.73
256.309	1387.37
261.166	1156.6
266.02	611.817
270.872	501.39
275.721	748.845
280.568	702.055
285.412	1283.89
290.254	1717.21
295.094	2572.9
299.93	3625.82
304.765	5259.99
309.597	7701.19
314.426	10829
319.253	13710.2
324.077	15589.2
328.899	15125
333.718	13934
338.535	12132.4
343.35	11375.1
348.162	10725.1
352.971	10342.2
357.778	9201.58
362.582	7842.19
367.384	6994.61
372.183	6474.61
376.98	6920.33
381.775	8069.71
386.566	9105.67
391.356	8953.12
396.143	7027.65
400.927	4018.27
405.709	2346.84
410.488	1318.7
415.265	771.793
420.039	724.053
424.811	424.42
429.58	407.835
434.347	177.24
439.111	155.577
443.873	26.2256
448.632	42.5264
453.388	153.249
458.143	478.262
462.894	790.97
467.643	676.671
472.39	806.371
477.134	910.692
481.875	1035.26
486.614	1213.91
491.351	1833.57
496.085	2719.2
500.816	4335.24
505.545	5408.46
510.272	5082.58
514.995	4315.45
519.717	4125.02
524.436	4529.23
529.152	4877.06
533.866	5171.85
538.577	4885.37
543.285	4369.78
547.992	3955.66
552.695	3831.97
557.396	3380.63
562.095	3371.76
566.791	3143.19
571.484	2822.95
576.175	2221.01
580.863	1620.37
585.549	752.923
590.233	283.434
594.913	315.511
599.592	231.65
604.267	8.25488
608.94	132.732
613.611	276.823
618.279	437.839
622.945	892.886
627.608	1346.69
632.268	2147.47
636.926	3527.26
641.581	5879.1
646.234	9605.01
650.884	16365
655.532	28129.2
660.177	43012.6
664.82	50296.2
669.46	41812.1
674.097	24954.4
678.732	14005.1
683.364	8006.27
687.994	5329.98
692.622	3807.29
697.246	3038.26
701.868	2944.97
706.488	2984.49
711.105	2695.22
715.72	2299.23
720.332	1388.61
724.941	629.126
729.548	59.1748
734.152	462.429
738.754	561.293
743.353	557.673
747.949	230.923
752.544	181.175
757.135	605.738
761.724	850.731
766.31	1077.43
770.894	1150.79
775.475	1134.93
780.054	1084.98
784.63	734.042
789.203	738.244
793.774	670.695
798.343	707.5
802.909	645.764
807.472	1077.34
812.033	1055.18
816.591	1218.98
821.146	1168.37
825.699	1137.38
830.25	1011.41
834.798	722.562
839.343	581.906
843.885	623.527
848.426	1035.51
852.963	1960.92
857.498	2714.85
862.031	2727.35
866.56	2560.05
871.088	1809.79
875.612	1347.19
880.134	1163.11
884.654	990.406
889.171	1184.57
893.685	1221.29
898.197	1175.96
902.706	1265.33
907.213	1408.3
911.717	1560.84
916.218	2033.05
920.717	2450.64
925.214	2766.57
929.707	2955.54
934.199	3171.77
938.687	3017.18
943.173	3186.55
947.657	2971.55
952.137	3069.11
956.616	3291.17
961.091	3323.68
965.564	3850.88
970.035	4313.8
974.503	5227.3
978.968	6106.79
983.431	7879.85
987.891	10830.8
992.349	14867.8
996.804	21469.7
1001.26	30323.7
1005.71	39305.3
1010.15	40588.6
1014.6	30535.2
1019.04	18293.9
1023.48	11664.2
1027.92	8900.86
1032.35	7316.65
1036.78	6873.34
1041.21	6405.77
1045.64	5416.56
1050.06	4615.09
1054.48	3869.6
1058.9	3385.91
1063.32	2978.21
1067.73	2714.22
1072.14	2706.77
1076.55	2556.15
1080.96	2282.41
1085.36	2300.24
1089.76	2179.58
1094.16	2068.01
1098.55	2027.9
1102.95	1951.23
1107.34	1991.62
1111.72	1912.4
1116.11	1801.04
1120.49	1790.37
1124.87	1604.56
1129.25	995.881
1133.62	572.156
1137.99	216.596
1142.36	28.5449
1146.73	134.76
1151.1	254.027
1155.46	175.228
1159.82	262.591
1164.17	229.225
1168.53	160.983
1172.88	107.447
1177.22	192.69
1181.57	65.7051
1185.91	56.4756
1190.26	74.6611
1194.59	11.5498
1198.93	239.024
1203.26	247.572
1207.59	279.06
1211.92	384.949
1216.24	488.291
1220.57	424.134
1224.89	376.475
1229.2	465.331
1233.52	696.702
1237.83	739.686
1242.14	653.275
1246.45	750.434
1250.75	705.172
1255.05	859.484
1259.35	683.368
1263.65	754.739
1267.94	949.938
1272.23	1005.68
1276.52	925.819
1280.81	854.004
1285.09	790.302
1289.37	912.913
1293.65	791.023
1297.93	736.396
1302.2	645.984
1306.47	514.328
1310.74	633.977
1315	653.323
1319.27	509.307
1323.53	551.884
1327.78	549.412
1332.04	556.023
1336.29	556.401
1340.54	523.327
1344.79	570.846
1349.03	490.53
1353.27	476.962
1357.51	535.84
1361.75	432.981
1365.98	518.069
1370.21	394.762
1374.44	418.269
1378.67	507.029
1382.89	381.431
1387.11	383.623
1391.33	383.655
1395.55	331.778
1399.76	306.848
1403.97	317.179
1408.18	433.443
1412.38	435.285
1416.58	327.688
1420.78	380.4
1424.98	448.222
1429.17	322.535
1433.37	285.966
1437.56	387.374
1441.74	325.072
1445.93	261.008
1450.11	147.48
1454.29	157.295
1458.46	109.274
1462.64	242.382
1466.81	115.601
1470.98	4.00488
1475.14	139.798
1479.31	75.1436
1483.47	77.209
1487.62	79.0928
1491.78	122.911
1495.93	70.3906
1500.08	97.4121
1504.23	24.9062
1508.37	81.8477
1512.52	133.254
1516.65	126.054
1520.79	61.5117
1524.93	15.9775
1529.06	98.9902
1533.19	104.532
1537.31	50.3389
1541.44	125.638
1545.56	218.826
1549.68	34.1738
1553.79	123.764
1557.91	217.17
1562.02	36.8057
