Measurement: Raman, 514 nm, depolarized, Raman Data Processed
Mineral: Augite
Rruff sample: R070231
Ideal chemistry: (Ca,Mg,Fe^2+^,Fe^3+^)_2_(Si,Al)_2_O_6_
Locality: Old Goose Creek Quarry, Leesburg, Loudoun County, Virginia, USA
Source: Michael Scott
Description: Very dark grey-green prismatic crystals frozen in quartz
Measured chemistry: (Mg_0.44_Fe_0.37_Ca_0.17_Ti_0.01_Mn_0.01_)_Σ=1_(Si_0.98_Al_0.02_)_Σ=1_O_3_
Pin_id: M00062
Orientation: Laser parallel to -c* (0 0 -1). Fiducial mark perpendicular to laser is parallel to a [1 0 0]
Raman shift (cm-1)	intensity
149.83	0
153.53	86.4902
157.228	82.2539
160.925	352.502
164.62	859.182
168.313	695.623
172.005	1020.79
175.695	1241.48
179.384	2285.93
183.071	2922.78
186.757	3952.45
190.44	3636.24
194.123	2841.56
197.803	2258.55
201.483	2295.66
205.16	972.5
208.836	431.783
212.51	233.504
216.183	327.457
219.854	474.688
223.524	425.721
227.192	585.826
230.858	749.934
234.523	810.219
238.186	660.51
241.848	428.941
245.508	425.621
249.166	917.707
252.823	1187.16
256.479	1328
260.132	1234.21
263.784	800.773
267.435	77.9981
271.084	189.537
274.731	2.53711
278.377	93.6719
282.021	220.375
285.664	194.029
289.305	227.338
292.945	340.799
296.583	624.477
300.219	1011.23
303.854	1440.92
307.487	2130.84
311.119	2664.52
314.749	2995.99
318.377	3621.81
322.004	3323.78
325.629	3281.83
329.253	3017.9
332.876	2494.93
336.496	2586.86
340.115	2861.43
343.733	2328.01
347.349	2588.05
350.963	2278.33
354.576	2166.36
358.187	2056.1
361.797	1631.56
365.405	1448.69
369.012	1595.5
372.617	1895.98
376.22	2166.11
379.822	2892.9
383.423	2408.38
387.022	2384.55
390.619	2138.45
394.215	1295.07
397.809	763.436
401.401	303.545
404.992	132.613
408.582	449.367
412.17	229.199
415.756	66.9609
419.341	381.701
422.924	436.15
426.506	131.133
430.086	211.328
433.665	4.74414
437.242	166.859
440.818	90.8125
444.392	69.1504
447.964	79.3398
451.535	86.5117
455.105	136.188
458.672	420.66
462.239	882.957
465.804	1187.08
469.367	1476.02
472.928	1145.77
476.489	759.338
480.047	382.721
483.604	9.92578
487.16	395.902
490.714	381.719
494.266	535.389
497.817	596.943
501.367	818.443
504.915	1005.88
508.461	1224.37
512.006	1537
515.549	1404.89
519.091	1635.29
522.631	2349.15
526.17	2521.69
529.707	2639.4
533.243	3491.41
536.777	3473.77
540.31	3808.07
543.841	3994.15
547.37	4060.66
550.898	3987.13
554.425	4006.05
557.95	3528.85
561.473	3071.92
564.995	2653.82
568.516	2385.49
572.035	2024.26
575.552	2019.81
579.068	1677.54
582.583	1959.95
586.095	1774.69
589.607	2149.8
593.117	2659.79
596.625	3263.66
600.132	3578.83
603.637	4148.97
607.141	4663.23
610.643	4208.18
614.144	4498.01
617.643	4479.72
621.141	4285.11
624.637	4180.41
628.132	4067.13
631.625	4146.81
635.117	4628.51
638.607	4385.84
642.096	4536.5
645.583	4889.19
649.069	5250.09
652.553	6809.03
656.036	8434.68
659.517	10833.6
662.997	12573.1
666.475	12632.3
669.952	11082.5
673.427	9283.09
676.901	6850.15
680.373	5680.4
683.844	4348.01
687.313	3544.18
690.781	2904.3
694.247	2449.45
697.712	2159.33
701.175	1839.9
704.637	1482.02
708.097	1339.01
711.556	1647.19
715.014	1058.9
718.469	1176.23
721.924	994.41
725.377	797.426
728.828	845.641
732.278	762.035
735.726	705.281
739.173	635.644
742.619	634.086
746.063	655.621
749.505	578.578
752.946	605.945
756.386	487.727
759.824	471.887
763.26	481.629
766.695	244.391
770.129	226.633
773.561	25.1758
776.992	69.0508
780.421	86.7852
783.849	48.207
787.275	16.582
790.7	279.801
794.123	158.008
797.545	193.078
800.965	46.3203
804.384	20.4492
807.802	49.9453
811.217	103.059
814.632	35.4258
818.045	278.031
821.456	72.2734
824.867	270.523
828.275	344.016
831.682	99.6133
835.088	317.387
838.492	557.5
841.895	591.961
845.296	760.832
848.696	998.137
852.094	1345.88
855.491	1586.07
858.887	1318.73
862.281	1243.81
865.673	1284.36
869.064	1390.38
872.454	1352.88
875.842	1330.86
879.229	967.324
882.614	859.074
885.998	905.238
889.38	894.57
892.761	769.984
896.14	497.172
899.518	700.113
902.895	890.383
906.27	972.172
909.644	962.289
913.016	966.344
916.387	871.938
919.756	838.523
923.124	768.457
926.49	428.984
929.855	719.555
933.219	439.594
936.581	538.016
939.941	419.812
943.301	519.734
946.658	562.301
950.015	359.527
953.369	582.598
956.723	750.473
960.075	817.879
963.425	964.141
966.774	976.34
970.122	1234.69
973.468	1370.82
976.813	1313.28
980.156	1827.47
983.498	2153.11
986.839	2559.86
990.178	3012.74
993.516	3872.76
996.852	4948.95
1000.19	5798.3
1003.52	8439.81
1006.85	10579.5
1010.18	14325.4
1013.51	13716.5
1016.84	9027.8
1020.16	5715.38
1023.49	3974.03
1026.81	3059.89
1030.13	3061.16
1033.46	2980.58
1036.78	2797.27
1040.09	2906.34
1043.41	2601.26
1046.72	2520.04
1050.04	2364.22
1053.35	2212.2
1056.66	2034.69
1059.97	1979.87
1063.28	1525.08
1066.58	1260.87
1069.89	1066.54
1073.19	1109.9
1076.49	1160.66
1079.79	921.773
1083.09	1272.54
1086.39	1292.3
1089.69	1140.01
1092.98	729.309
1096.28	698.184
1099.57	876.637
1102.86	587.332
1106.15	968.441
1109.43	641.66
1112.72	443.754
1116.01	745.828
1119.29	729.57
1122.57	724.742
1125.85	646.078
1129.13	628.094
1132.41	553.246
1135.69	265.328
1138.96	207.801
1142.24	232.281
1145.51	216.246
1148.78	282.898
1152.05	54.4648
1155.32	414.289
1158.59	174.902
1161.85	53.2617
1165.11	84.5977
1168.38	58.3086
1171.64	220.988
1174.9	318.211
1178.16	10.0586
1181.41	63.1211
1184.67	163.633
1187.92	135.703
1191.18	121.328
1194.43	56.4961
1197.68	29.7812
1200.93	33.5547
1204.17	35.5938
1207.42	251.211
1210.66	196.434
1213.91	321.668
1217.15	196.176
1220.39	432.231
1223.63	137.977
1226.87	388.269
1230.1	443.641
1233.34	167.332
1236.57	236.734
1239.8	416.758
1243.03	362.312
1246.26	122.32
1249.49	359.574
1252.72	182.949
1255.94	381.574
1259.17	159.484
1262.39	83.2812
1265.61	113.133
1268.83	242.176
1272.05	0.742188
