Measurement: Raman, 514 nm, depolarized, Raman Data Processed
Mineral: Augite
Rruff sample: R070231
Ideal chemistry: (Ca,Mg,Fe^2+^,Fe^3+^)_2_(Si,Al)_2_O_6_
Locality: Old Goose Creek Quarry, Leesburg, Loudoun County, Virginia, USA
Source: Michael Scott
Description: Very dark grey-green prismatic crystals frozen in quartz
Measured chemistry: (Mg_0.44_Fe_0.37_Ca_0.17_Ti_0.01_Mn_0.01_)_Σ=1_(Si_0.98_Al_0.02_)_Σ=1_O_3_
Pin_id: M00357
Orientation: Laser parallel to b* (0 1 0). Fiducial mark perpendicular to laser is parallel to c [0 0 1]
Raman shift (cm-1)	intensity
136.25	0
141.19	934.67
146.128	1461.1
151.063	2488.28
155.995	1188.2
160.925	340.875
165.851	202.005
170.775	733.116
175.695	1297.11
180.613	1431.3
185.528	1180.49
190.44	1281.8
195.35	1454.82
200.256	1933.97
205.16	1681
210.061	1613.29
214.959	2520.68
219.854	3260.18
224.747	2910.75
229.636	2299.08
234.523	1506.52
239.407	1006.57
244.288	563.332
249.166	126.37
254.042	144.141
258.915	25.9609
263.784	11.7188
268.651	59.958
273.516	104.845
278.377	209.919
283.236	488.084
288.092	988.91
292.945	1663.14
297.795	2424.09
302.642	3438.11
307.487	5814.15
312.329	8443.59
317.168	9968.89
322.004	9621.61
326.838	8266.35
331.668	7243.52
336.496	6764.99
341.321	7030.68
346.144	7337.7
350.963	7252.87
355.78	6658.07
360.594	6240.56
365.405	5299.52
370.214	5908.02
375.019	6931.34
379.822	8878.39
384.622	10258.9
389.42	9282.63
394.215	6190.7
399.006	3740.36
403.795	2089.49
408.582	1360.55
413.365	1129.59
418.146	997.672
422.924	1042.68
427.7	876.267
432.472	683.7
437.242	459.704
442.009	238.056
446.774	21.7686
451.535	39.6455
456.294	45.0772
461.05	31.9512
465.804	50.0215
470.554	78.7676
475.302	74.8311
480.047	50.1846
484.79	164.905
489.529	569.668
494.266	1016.75
499.001	1859.34
503.732	2321.49
508.461	2612.2
513.187	2686.49
517.911	3084.36
522.631	3742.83
527.349	4114.93
532.065	4309.82
536.777	4190.74
541.487	3879.81
546.194	3634.1
550.898	3888.13
555.6	3709.61
560.299	3210.84
564.995	2772.83
569.689	2012.35
574.38	1393.16
579.068	767.244
583.754	233.111
588.437	55.4688
593.117	215.422
597.794	90.4463
602.469	92.1152
607.141	313.547
611.81	552.856
616.477	926.064
621.141	1556
625.802	2190.5
630.461	3253.31
635.117	4339.3
639.77	6568.86
644.421	9848.37
649.069	14833.5
653.714	24282.7
658.357	37891.4
662.997	47652.8
667.634	41162.8
672.269	25698
676.901	14432.1
681.53	8886.51
686.157	6100.17
690.781	4808.54
695.402	4321.02
700.021	4315.5
704.637	4606.02
709.251	4921.43
713.861	5157.35
718.469	5362.2
723.075	5232.62
727.678	4919.52
732.278	4214.88
736.876	3705.33
741.47	2975.87
746.063	2123.8
750.652	1630.05
755.239	1912.36
759.824	983.652
764.406	924.684
768.985	775.716
773.561	685.622
778.135	786.439
782.706	480.857
787.275	482.917
791.841	371.659
796.404	279.118
800.965	146.327
805.523	11.2822
810.079	21.8203
814.632	27.2598
819.182	90.7412
823.73	150.867
828.275	65.1269
832.818	277.973
837.358	181.064
841.895	156.413
846.43	395.518
850.962	1246.37
855.491	2230.77
860.018	2413.29
864.543	1638.57
869.064	1182.86
873.583	931.568
878.1	983.266
882.614	1213.38
887.125	1386.92
891.634	1566.89
896.14	1722.45
900.644	1742.42
905.145	2059.89
909.644	2175.07
914.14	2670.22
918.633	3290.74
923.124	3051.41
927.612	3000.12
932.098	2725.87
936.581	2519.06
941.061	2196.54
945.539	2269.89
950.015	2700.59
954.487	2620.71
958.958	2767.57
963.425	3140.46
967.89	3590.88
972.353	4281.73
976.813	5499.3
981.271	7944.14
985.726	11902
990.178	14960.1
994.628	15509.2
999.075	17506.4
1003.52	23761.6
1007.96	34011.7
1012.4	36998.8
1016.84	24789.2
1021.27	14500.1
1025.71	10622.2
1030.13	8979.22
1034.56	8641.15
1038.99	8281.61
1043.41	7804.28
1047.83	6776.95
1052.24	5774.24
1056.66	5062.62
1061.07	4295.28
1065.48	3729.04
1069.89	3063.77
1074.29	2553.31
1078.69	2344.21
1083.09	2182.58
1087.49	1848.85
1091.88	1653.8
1096.28	1543.06
1100.66	1527.48
1105.05	976.363
1109.43	902.302
1113.82	1032.62
1118.2	941.198
1122.57	904.459
1126.95	525.306
1131.32	646.764
1135.69	221.403
1140.05	334.282
1144.42	88.3828
1148.78	137.113
1153.14	141.356
1157.5	42.6826
1161.85	1.41211
1166.2	27.8701
1170.55	14.3135
1174.9	135.179
1179.24	147.095
1183.58	92.6973
1187.92	41.3115
1192.26	81.0215
1196.6	0.052734
1200.93	159.739
1205.26	51.3565
1209.58	238.95
1213.91	232.607
1218.23	190.358
1222.55	292.43
1226.87	374.276
1231.18	164.663
1235.49	498.661
1239.8	424.796
1244.11	411.911
1248.41	321.072
1252.72	269.276
1257.02	374.507
1261.32	382.074
1265.61	343.226
1269.9	413.662
1274.19	386.701
1278.48	244.252
1282.77	342.063
1287.05	336.924
1291.33	318.672
1295.61	280.529
1299.88	255.44
1304.15	402.557
1308.42	213.381
1312.69	251.551
1316.96	262.268
1321.22	245.713
1325.48	313.975
1329.74	175.877
1334	151.255
1338.25	244.452
1342.5	265.558
1346.75	40.1523
1351	307.934
1355.24	19.2939
1359.48	265.823
1363.72	184.434
1367.96	178.639
1372.19	121.284
1376.42	110.539
1380.65	339.044
1384.88	70.4131
1389.11	18.0957
1393.33	44.3565
1397.55	137.665
1401.76	90.4121
1405.98	102.946
1410.19	38.3438
1414.4	18.7285
1418.61	91.8008
1422.82	199.09
1427.02	132.032
1431.22	152.807
1435.42	155.94
1439.61	89.9199
1443.81	158.663
1448	161.983
1452.18	180.034
1456.37	91.5469
1460.56	46.7695
1464.74	223.999
1468.92	101.726
1473.09	116.519
1477.27	0.386719
1481.44	187.107
1485.61	115.076
1489.78	58.2949
1493.94	78.5967
1498.1	216.522
1502.26	224.11
1506.42	144.123
1510.58	176.517
1514.73	202.395
1518.88	170.805
1523.03	67.8662
1527.17	26.5986
1531.32	126.445
1535.46	60.9111
1539.6	195.595
1543.73	65.4307
1547.87	121.051
1552	117.634
1556.13	240.128
1560.26	135.932
1564.38	186.599
1568.5	91.4912
