Measurement: Raman, 514 nm, depolarized, Raman Data Processed
Mineral: Axinite-(Fe)
Rruff sample: R060183
Ideal chemistry: Ca_4_Fe^2+^_2_Al_4_[B_2_Si_8_O_30_](OH)_2_
Locality: Skagit Bluffs, near Manning Park, British Columbia, Canada
Source: Lloyd Twaites
Description: Light-pink transparent axe-head-shaped single crystal
Measured chemistry: Ca_2.00_(Fe^2+^_0.58_Mn_0.23_Mg_0.19_)Al_2.00_B_1.00_Si_4.00_O_15_(OH)
Pin_id: L01506
Orientation: Laser parallel to (-1 -1 0). Fiducial mark perpendicular to laser is parallel to c [0 0 1]
Raman shift (cm-1)	intensity
52.671	0
57.626	313.769
62.579	311.947
67.529	126.497
72.477	9.51672
77.423	411.961
82.367	1171.29
87.308	2510.89
92.246	5772.14
97.182	7170.81
102.116	8800.87
107.047	14399.4
111.976	10850.6
116.903	7635.81
121.827	6428.06
126.749	8293.21
131.668	6643.68
136.585	5509.05
141.5	7473.48
146.412	10932.4
151.321	13361.8
156.229	8809.55
161.134	7309.77
166.036	10665.4
170.936	16359.2
175.834	11169.2
180.729	5894.17
185.622	4331.86
190.512	6649.1
195.4	8049.68
200.286	9508.54
205.169	13309
210.049	14597.1
214.928	11618.4
219.803	7597.79
224.677	3498.77
229.548	1608.85
234.416	1527.38
239.282	2737.24
244.146	4296.87
249.007	4776.04
253.866	5376.48
258.722	5648.83
263.576	4891.77
268.427	6851.03
273.276	8782.37
278.123	6833.61
282.967	4721.74
287.809	4040.62
292.648	4973.05
297.485	7712.94
302.319	10911.1
307.151	11348.5
311.98	7177.03
316.807	8018.44
321.631	6528.66
326.454	3616.57
331.273	2893.03
336.09	4982.91
340.905	10226.1
345.717	10539.6
350.527	9480.24
355.334	4316.81
360.139	264.265
364.941	902.312
369.741	689.029
374.538	285.141
379.333	1082.73
384.126	5416.31
388.916	10623.9
393.703	9203.08
398.488	4721.55
403.271	2065.63
408.051	1943.06
412.828	4923.76
417.603	8223.65
422.376	8710.64
427.146	9357.65
431.914	7608.57
436.679	3582.32
441.442	2585.79
446.202	2362.89
450.96	1842.54
455.715	3629.64
460.467	9876.1
465.218	10768.8
469.965	5760.76
474.711	4729.8
479.454	9360.86
484.194	14848.9
488.932	6811.74
493.667	2198.96
498.4	1784.41
503.13	2067.85
507.858	1980.06
512.583	937.133
517.306	268.079
522.026	635.035
526.744	672.417
531.459	402.499
536.172	238.345
540.882	1074.92
545.59	1703.43
550.295	1374.27
554.998	2030.15
559.698	3026.98
564.396	2673.04
569.091	3043.74
573.784	3858.02
578.474	3436.81
583.162	3566.08
587.847	4511.76
592.529	2703.8
597.209	1113.16
601.887	1207.79
606.562	2564.65
611.235	4822.69
615.905	7559.88
620.572	7495.17
625.237	3056.53
629.9	811.926
634.56	254.134
639.217	623.352
643.872	965.225
648.524	742.625
653.174	719.786
657.821	1530.38
662.466	2962.13
667.108	4713.7
671.748	6922.02
676.385	10234.4
681.02	7459.81
685.652	3903.64
690.281	2914.28
694.908	3826.16
699.533	6751.94
704.155	14629.4
708.774	29814.7
713.391	43898
718.005	32250.2
722.617	15096.3
727.226	6874.3
731.833	3531.28
736.437	1828.23
741.039	1260.15
745.638	961.065
750.234	1092.98
754.828	1654.93
759.419	2907.93
764.008	4811
768.595	4863.17
773.178	3106.34
777.759	1371.64
782.338	473.354
786.914	16.9424
791.488	274.481
796.059	396.702
800.627	194.199
805.193	182.368
809.756	1083.22
814.317	1204.77
818.875	264.075
823.431	114.173
827.984	145.23
832.534	259.147
837.082	9.28906
841.627	350.823
846.17	600.09
850.71	923.129
855.248	893.985
859.783	1070.7
864.316	1268.32
868.846	1341.49
873.373	1412.42
877.898	1618
882.42	1755.65
886.94	2552.48
891.457	4171.52
895.971	6908.77
900.483	9202.24
904.993	8880.17
909.5	7171.88
914.004	4731.63
918.505	3606.24
923.004	3348
927.501	3702.67
931.995	4119.5
936.486	4275
940.975	5952.73
945.461	9567.77
949.945	14308
954.426	18916
958.904	26462.7
963.38	32673.1
967.853	26550
972.324	20837.1
976.792	21615.7
981.258	20649.5
985.72	16348.3
990.181	14427.1
994.639	14385.2
999.094	15642.4
1003.55	16833.6
1008	13287.9
1012.44	8381.34
1016.89	4931.19
1021.33	3746.04
1025.77	3518.27
1030.21	3087.74
1034.64	2565.1
1039.07	2630.11
1043.5	3296.47
1047.93	4148.84
1052.35	5442.93
1056.78	6556.18
1061.19	5672.87
1065.61	3979.28
1070.02	2745.01
1074.43	3543.96
1078.84	5402.81
1083.25	6633.84
1087.65	4575.98
1092.05	2738.34
1096.45	2145.78
1100.85	2621.28
1105.24	2975.01
1109.63	2474.97
1114.02	1891.89
1118.4	1500.34
1122.78	1509.61
1127.16	822.8
1131.54	343.285
1135.92	274.041
1140.29	50.6318
1144.66	17.5996
1149.02	35.7353
1153.39	68.3144
1157.75	152.98
1162.11	134.442
1166.46	72.6123
1170.82	160.65
1175.17	73.8428
1179.52	166.335
1183.86	149.8
1188.21	60.3574
1192.55	25.5889
1196.89	133.14
1201.22	13.1572
1205.55	12.125
1209.88	97.1504
1214.21	191.691
1218.54	5.78418
1222.86	165.052
1227.18	108.801
1231.5	337.809
1235.81	133.894
1240.12	281.065
1244.43	107.46
1248.74	145.335
1253.04	224.031
1257.34	108.77
1261.64	228.364
1265.94	291.313
1270.23	205.336
1274.52	321.266
1278.81	313.238
1283.1	220.156
1287.38	476.617
1291.66	415.742
1295.94	421.035
1300.21	387.272
1304.48	455.582
1308.75	474.803
1313.02	436.414
1317.29	399.385
1321.55	250.004
1325.81	370.602
1330.06	271.365
1334.32	257.531
1338.57	158.879
1342.82	382.117
1347.06	298.684
1351.31	287.289
1355.55	244.244
1359.79	250.047
1364.02	395.379
1368.26	411.742
1372.49	363.32
1376.71	155.144
1380.94	138.795
1385.16	183.068
1389.38	235.279
1393.6	227.496
1397.81	183.133
1402.02	314.113
1406.23	89.1016
1410.44	150.801
1414.64	184.809
1418.85	212.512
1423.04	259.096
1427.24	159.685
1431.43	163.248
1435.62	410.26
1439.81	190.303
1444	391.264
1448.18	456.107
1452.36	259.32
1456.54	97.1836
1460.71	265.385
1464.89	215.787
1469.06	230.728
1473.22	162.951
1477.39	143.566
1481.55	293.553
1485.71	159.731
1489.86	159.312
1494.02	140.799
1498.17	47.9395
1502.32	53.4043
1506.46	31.2129
1510.61	297.551
1514.75	183.596
1518.88	47.6133
1523.02	176.867
1527.15	270.195
1531.28	401.234
1535.41	170.578
1539.53	204.272
1543.66	340.115
1547.78	137.74
1551.89	459.16
1556.01	318.838
1560.12	84.5449
1564.23	16.7109
1568.33	197.85
