Measurement: Raman, 514 nm, depolarized, Raman Data Processed
Mineral: Axinite-(Fe)
Rruff sample: R050026
Ideal chemistry: Ca_4_Fe^2+^_2_Al_4_[B_2_Si_8_O_30_](OH)_2_
Locality: Pouyva mine, Polar Urals, Western Siberian Region, Russia
Source: Rock Currier
Description: Brown transparent flat crystal
Measured chemistry: Ca_2.00_(Fe^2+^_0.61_Mn_0.26_Mg_0.13_)Al_2.00_BSi_4_O_15_(OH)
Pin_id: L00053
Orientation: Laser parallel to (0 1 1). Fiducial mark perpendicular to laser is parallel to a [1 0 0]
Raman shift (cm-1)	intensity
92.678	0
96.858	139.273
101.036	592.649
105.212	1165.07
109.387	3682.23
113.559	4719.01
117.729	1433.38
121.897	299.603
126.063	46.954
130.228	45.631
134.39	36.372
138.55	677.324
142.709	1335.64
146.865	851.854
151.019	1092.94
155.171	905.556
159.322	509.844
163.47	516.757
167.617	1217.08
171.761	2916.99
175.904	2810.6
180.044	1192.14
184.183	324.891
188.319	24.326
192.454	443.184
196.586	1367.98
200.717	1018.61
204.846	2142.33
208.972	4085.91
213.097	4264.2
217.22	2489.04
221.341	1236.47
225.46	376.931
229.577	20.555
233.692	191.635
237.805	137.937
241.916	226.831
246.025	739.286
250.132	735.444
254.237	1222.1
258.34	1888.98
262.442	1246.04
266.541	1402.36
270.639	2526.22
274.734	4445.64
278.828	4696.81
282.919	2935.46
287.009	1902.38
291.097	2054.08
295.183	2355.25
299.266	2925.32
303.348	3705.11
307.428	5182.85
311.507	4181.8
315.583	2887.98
319.657	4070.22
323.729	3680.11
327.8	2032.58
331.868	1550.75
335.935	1156.48
339.999	1682.74
344.062	3544.55
348.123	3841.08
352.182	3799.59
356.239	3023.5
360.294	1157.76
364.347	350.35
368.398	195.524
372.448	89.771
376.495	86.054
380.54	205.195
384.584	781.126
388.626	2189.16
392.666	2787.77
396.704	1659.55
400.74	878.15
404.774	572.626
408.806	521.471
412.836	1148.12
416.865	4196.7
420.891	5544.16
424.916	3448.32
428.939	3756.16
432.959	3753.7
436.978	2194.93
440.996	1220.9
445.011	1650.62
449.024	1338.11
453.036	391.507
457.045	105.598
461.053	68.484
465.059	165.05
469.063	45.469
473.065	60.139
477.065	325.378
481.063	1136.46
485.06	2792.82
489.054	2241.09
493.047	631.32
497.038	212.615
501.027	224.682
505.014	493.636
508.999	1309.08
512.982	761.834
516.964	456.795
520.944	222.835
524.921	82.327
528.897	0.939
532.871	70.447
536.844	269.679
540.814	467.436
544.783	775.621
548.749	904.932
552.714	517.238
556.677	592.925
560.638	1014.1
564.597	883.452
568.555	837.738
572.511	1285.92
576.464	1518.99
580.416	1200.96
584.366	1241.83
588.315	2007.59
592.261	2099.26
596.206	1170.83
600.148	491.318
604.089	208.486
608.028	157.023
611.965	273.249
615.901	381.438
619.834	407.845
623.766	255.347
627.696	53.701
631.624	17.615
635.551	28.19
639.475	124.827
643.398	397.528
647.318	513.519
651.237	261.849
655.155	37.631
659.07	40.861
662.984	114.14
666.895	109.287
670.805	534.264
674.713	1177.7
678.62	1937.11
682.524	1472.45
686.427	753.071
690.328	513.348
694.227	506.377
698.124	666.666
702.02	1309.93
705.913	2771.14
709.805	5890.32
713.695	10428.5
717.584	10696.5
721.47	6094.56
725.355	3200.53
729.238	1795.46
733.119	1138.34
736.998	637.181
740.876	409.978
744.752	317.736
748.626	340.458
752.498	334.147
756.368	410.804
760.237	569.432
764.104	1015.03
767.969	1607.47
771.832	1579.04
775.693	968.665
779.553	497.508
783.411	302.423
787.267	162.212
791.122	93.776
794.974	51.785
798.825	38.974
802.674	46.924
806.522	1.978
810.367	254.452
814.211	354.81
818.053	185.034
821.893	13.454
825.732	101.594
829.568	91.005
833.403	55.777
837.236	9.15
841.068	12.987
844.898	19.878
848.726	115.806
852.552	317.82
856.376	347.893
860.199	288.016
864.02	311.189
867.839	350.423
871.656	413.74
875.472	462.365
879.286	617.688
883.098	653.318
886.909	768.033
890.717	1135.81
894.524	1625.68
898.33	2426.64
902.133	2841.69
905.935	2629.82
909.735	2386.01
913.533	1953.3
917.33	1418.68
921.124	1189.15
924.918	1064.7
928.709	1079.34
932.499	1099.07
936.286	1003.91
940.073	996.865
943.857	1192.03
947.64	1491.07
951.421	2023.28
955.2	2511.35
958.978	3417.74
962.753	5393.37
966.527	6340.21
970.3	5280.29
974.071	4711.67
977.84	5555.22
981.607	5996.25
985.372	5010.79
989.136	4576.39
992.898	4678.78
996.659	4526.03
1000.42	4750.99
1004.17	4938.65
1007.93	4450.28
1011.68	3211.85
1015.43	2178.51
1019.18	1547.26
1022.93	1230.23
1026.68	1083.77
1030.42	995.837
1034.17	790.654
1037.91	776.819
1041.65	809.534
1045.39	798.609
1049.12	843.128
1052.86	903.396
1056.59	1114.11
1060.33	1101.02
1064.06	862.061
1067.78	644.86
1071.51	615.829
1075.23	701.731
1078.96	939.716
1082.68	1324.75
1086.4	1412.73
1090.12	1055.81
1093.83	766.238
1097.55	659.283
1101.26	478.38
1104.97	481.972
1108.68	423.594
1112.39	318.153
1116.1	280.724
1119.8	164.299
1123.5	181.114
1127.2	132.839
1130.9	79.482
1134.6	8.701
1138.3	27.033
1141.99	32.968
1145.69	67.749
1149.38	71.796
1153.07	61.629
1156.76	10.041
1160.44	7.106
1164.13	26.481
1167.81	26.531
1171.49	19.375
1175.17	37.557
1178.85	61.017
1182.52	37.679
1186.2	28.904
1189.87	24.456
1193.54	42.285
1197.21	37.447
1200.88	6.287
1204.55	51.702
1208.21	53.325
1211.88	50.249
1215.54	13.778
1219.2	32.878
1222.86	16.21
1226.51	2.486
1230.17	9.688
1233.82	67.92
1237.47	105.241
1241.12	50.614
1244.77	65.809
1248.42	14.079
1252.06	29.83
1255.71	69.742
1259.35	59.358
1262.99	78.927
1266.63	117.301
1270.26	133.661
1273.9	86.632
1277.53	57.449
1281.16	47.064
1284.8	20.569
1288.42	17.49
1292.05	68.08
1295.68	118.171
1299.3	92.375
1302.92	105.309
1306.55	56.532
1310.16	11.5
1313.78	74.384
1317.4	22.327
1321.01	27.653
1324.62	34.729
1328.24	56.311
1331.85	70.49
1335.45	148.857
1339.06	110.797
1342.66	71.353
1346.27	96.04
1349.87	18.515
1353.47	8.563
1357.07	17.426
1360.66	0.748
1364.26	107.112
1367.85	107.226
1371.44	81.583
1375.04	45.818
1378.62	73.73
1382.21	32.13
1385.8	33.609
1389.38	58.479
1392.96	52.269
1396.54	52.571
1400.12	103.657
1403.7	155.478
1407.28	94.116
1410.85	98.512
1414.42	98.044
1417.99	87.897
1421.56	42.985
1425.13	33.424
1428.7	1.727
1432.26	19.433
1435.83	49.808
1439.39	75.747
1442.95	121.611
1446.51	130.343
1450.06	49.398
1453.62	109.426
1457.17	33.762
1460.73	15.051
1464.28	30.304
1467.83	19.22
1471.37	60.979
1474.92	72.941
1478.46	121.294
1482.01	89.782
1485.55	65.797
1489.09	89.568
1492.63	84.58
1496.16	45.962
1499.7	79.852
1503.23	10.117
1506.76	2.569
1510.29	2.319
1513.82	77.777
1517.35	26.244
