Measurement: Raman, 514 nm, depolarized, Raman Data Processed
Mineral: Axinite-(Fe)
Rruff sample: R050061
Ideal chemistry: Ca_4_Fe^2+^_2_Al_4_[B_2_Si_8_O_30_](OH)_2_
Locality: Jamestown, California, USA
Source: Rock Currier
Description: Brown colored axe-head-shaped single crystals
Measured chemistry: Ca_2.00_(Fe^2+^_0.73_Mg_0.20_Mn_0.07_)Al_2.00_BSi_4_O_15_(OH)
Pin_id: L00256
Orientation: Laser parallel to (1 0 1). Fiducial mark perpendicular to laser is parallel to b [0 1 0]
Raman shift (cm-1)	intensity
91.065	0
95.269	30.3
99.471	265.241
103.67	1006.83
107.868	5171.88
112.063	7258.54
116.256	3448.04
120.447	2303.96
124.636	2351.69
128.822	1530.44
133.006	1228.1
137.188	2812.92
141.368	4939.99
145.545	4029.24
149.72	5712.2
153.893	4973.63
158.064	2735.13
162.233	2598.32
166.399	4929.84
170.563	8379.48
174.725	6890.19
178.885	3199.36
183.043	753.454
187.198	331.652
191.351	310.263
195.502	1.704
199.651	19.782
203.797	1787.65
207.942	4587.73
212.084	6528.05
216.224	6658.6
220.362	5109.4
224.497	2217.34
228.631	463.491
232.762	72.329
236.891	473.511
241.018	1378.24
245.143	1997.17
249.265	2735.98
253.386	4731.99
257.504	5826.42
261.62	5357.53
265.734	7002.48
269.845	10158.7
273.955	12985.3
278.062	12271.7
282.167	8927.71
286.27	7132.53
290.371	6566.29
294.47	6429.3
298.567	6261.73
302.661	5723.76
306.753	5722.05
310.843	5096.19
314.931	6580.02
319.017	10264.2
323.101	9048.79
327.182	6433.58
331.261	5848.39
335.339	5573.49
339.414	8168.88
343.487	12254.5
347.557	11220.4
351.626	7461.87
355.693	3818.32
359.757	1149.13
363.819	35.073
367.879	201.971
371.937	109.635
375.993	390.255
380.047	626.188
384.099	2090.04
388.148	4668.72
392.196	5930.51
396.241	4293.52
400.284	2150.9
404.325	1511.1
408.364	1319.35
412.401	2311.65
416.435	5636.01
420.468	8762.4
424.498	11028.8
428.527	12595
432.553	10161.2
436.577	5837.17
440.599	4223.02
444.619	5899.23
448.637	4563.9
452.653	2116.35
456.667	1359.68
460.678	741.902
464.688	302.02
468.695	495.062
472.701	847.18
476.704	1493.72
480.705	4476.03
484.704	9735.12
488.701	7633
492.696	2593.65
496.689	869.665
500.68	461.669
504.668	379.622
508.655	914.516
512.639	1267.62
516.622	956.82
520.602	328.618
524.581	194.395
528.557	417.135
532.531	284.395
536.503	94.7
540.473	0.312
544.441	213.985
548.407	301.519
552.371	299.947
556.333	895.33
560.293	2641.73
564.251	2816.02
568.206	2233.2
572.16	2722.27
576.112	3063.23
580.061	2443.06
584.009	1691.78
587.954	1872.37
591.897	1655.84
595.839	684.176
599.778	238.39
603.716	192.47
607.651	712.413
611.584	2085.23
615.515	4627.92
619.444	7118.48
623.372	6060.91
627.297	2663.64
631.22	1006.52
635.141	924.17
639.06	1666.05
642.977	2688.41
646.892	3014.35
650.805	1977.73
654.716	1136.69
658.625	868.194
662.532	1009.39
666.437	1663.29
670.34	3266.88
674.241	6360.14
678.139	8790.23
682.036	6163.99
685.931	3440.06
689.824	2458.27
693.715	2653.41
697.604	3581.19
701.491	6030.28
705.376	11404.1
709.259	22731.8
713.139	36949.2
717.018	33556.5
720.895	17853.5
724.77	9010.36
728.643	4807.02
732.514	2948.49
736.383	1807.79
740.25	1117.9
744.115	776.841
747.978	582.613
751.839	535.22
755.698	587.667
759.555	765.363
763.41	1107.5
767.263	1372.5
771.114	1097.35
774.964	848.06
778.811	138.642
782.656	1.066
786.499	153.999
790.341	263.294
794.18	289.317
798.017	319.042
801.853	237.537
805.686	47.527
809.518	529.924
813.347	1071.3
817.175	856.619
821.001	429.883
824.824	89.104
828.646	1.708
832.466	2.591
836.284	146.676
840.1	293.848
843.914	590.071
847.726	959.885
851.536	1421.91
855.344	1722.05
859.15	1885.26
862.954	2125.55
866.756	2152.94
870.557	2208.73
874.355	2250.1
878.152	2266.5
881.946	2398.91
885.739	2542.12
889.53	3134.49
893.318	4343.04
897.105	6299.76
900.89	7789.63
904.673	9009.67
908.454	7989.89
912.234	6074.28
916.011	4199.86
919.786	3401.63
923.56	3274.64
927.331	3896.89
931.101	4475.59
934.868	4405.32
938.634	4359.82
942.398	5177.52
946.16	7308.31
949.92	10459.5
953.678	13572.3
957.435	17745.5
961.189	25018.9
964.941	28502.9
968.692	22597.3
972.441	18372
976.187	20157.1
979.932	21382.1
983.675	17176.8
987.416	14193
991.155	13169.5
994.893	11986.4
998.628	11323.7
1002.36	10381.3
1006.09	8701.16
1009.82	6272.05
1013.55	4477.02
1017.28	3508.05
1021	2359.21
1024.72	1954.51
1028.44	1669.71
1032.16	1644.22
1035.88	1788.59
1039.59	2154.81
1043.31	2444.49
1047.02	2559.94
1050.73	3220.28
1054.43	3870.27
1058.14	4140.45
1061.84	3641.77
1065.54	2599.79
1069.24	2035.84
1072.94	2111.05
1076.64	2684.14
1080.33	3838.97
1084.03	3890.49
1087.71	2589.28
1091.4	1585.2
1095.09	1250.91
1098.78	1335.9
1102.46	1554.29
1106.14	1582.3
1109.82	1334.61
1113.5	1021.98
1117.17	744.458
1120.85	523.509
1124.52	392.028
1128.19	268.489
1131.86	158.021
1135.52	642.477
1139.19	92.368
1142.85	56.476
1146.51	62.947
1150.17	33.881
1153.83	2.889
1157.48	39.621
1161.14	75.793
1164.79	63.108
1168.44	64.901
1172.09	23.193
1175.73	71.145
1179.38	58.634
1183.02	61.833
1186.66	60.949
1190.3	5.373
1193.94	37.172
1197.58	41.908
1201.21	10.341
1204.84	16.843
1208.47	28.622
1212.1	3.47
1215.72	53.878
1219.35	16.151
1222.97	42.943
1226.59	48.433
1230.21	64.191
1233.83	80.232
1237.45	42.955
1241.06	46.545
1244.67	52.023
1248.28	66.199
1251.89	12.026
1255.5	63.739
1259.1	91.065
1262.7	83.915
1266.31	129.417
1269.9	140.554
1273.5	120.915
1277.1	138.827
1280.69	98.266
1284.29	138.295
1287.88	130.948
1291.46	147.228
1295.05	109.17
1298.64	73.027
1302.22	84.858
1305.8	83.79
1309.38	76.792
1312.96	89.189
1316.54	49.4
1320.11	37.105
1323.68	57.158
1327.25	115.553
1330.82	154.3
1334.39	140.767
1337.96	149.411
1341.52	119.312
1345.08	132.67
1348.64	92.259
1352.2	151.62
1355.76	203.786
1359.31	171.646
1362.87	204.197
1366.42	209.256
1369.97	141.366
1373.52	145.784
1377.06	178.169
1380.61	161.487
1384.15	116.816
1387.69	119.315
1391.23	156.562
1394.77	164.097
1398.3	187.664
1401.84	140.187
1405.37	181.508
1408.9	182.679
1412.43	130.955
1415.96	170.158
1419.48	138.015
1423.01	102.357
1426.53	174.264
1430.05	94.282
1433.57	132.296
1437.08	59.877
1440.6	140.016
1444.11	111.276
1447.62	67.661
1451.13	72.362
1454.64	79.077
1458.15	75.171
1461.65	47.75
1465.16	35.288
1468.66	21.626
1472.16	44.67
1475.65	3.28
1479.15	73.55
1482.64	29.122
1486.14	80.425
1489.63	38.795
1493.12	36.11
1496.61	16.26
1500.09	22.218
1503.58	34.352
1507.06	19.552
1510.54	27.697
1514.02	0.25
