Measurement: Raman, 514 nm, depolarized, Raman Data Processed
Mineral: Axinite-(Fe)
Rruff sample: R060183
Ideal chemistry: Ca_4_Fe^2+^_2_Al_4_[B_2_Si_8_O_30_](OH)_2_
Locality: Skagit Bluffs, near Manning Park, British Columbia, Canada
Source: Lloyd Twaites
Description: Light-pink transparent axe-head-shaped single crystal
Measured chemistry: Ca_2.00_(Fe^2+^_0.58_Mn_0.23_Mg_0.19_)Al_2.00_B_1.00_Si_4.00_O_15_(OH)
Pin_id: L01743
Orientation: Laser parallel to (0 1 1). Fiducial mark perpendicular to laser is parallel to -a [-1 0 0]
Raman shift (cm-1)	intensity
52.671	0
57.626	268.252
62.579	328.227
67.529	140.125
72.477	57.3716
77.423	376.738
82.367	1027.13
87.308	2057.86
92.246	4956.7
97.182	8631.67
102.116	14452
107.047	24961.9
111.976	16766.6
116.903	7399.57
121.827	3818.21
126.749	3171.88
131.668	4142.54
136.585	6422.11
141.5	7987.6
146.412	8197.42
151.321	8580.8
156.229	6903.08
161.134	6603.33
166.036	10515.5
170.936	15494.5
175.834	9934.1
180.729	4366.25
185.622	3481.54
190.512	6478.82
195.4	8760.33
200.286	11446.2
205.169	17701.4
210.049	16767.9
214.928	10970.7
219.803	5546.86
224.677	2028.06
229.548	364.434
234.416	635.636
239.282	2266.77
244.146	4232.76
249.007	5504.26
253.866	7094.67
258.722	7541.69
263.576	8750.03
268.427	14626.5
273.276	19567.7
278.123	15374.5
282.967	9072.89
287.809	7904.8
292.648	10414.1
297.485	15357.5
302.319	20442.2
307.151	21589.7
311.98	13176
316.807	12064.7
321.631	10293.9
326.454	6322.81
331.273	4279.85
336.09	5126.72
340.905	11736.2
345.717	16476.2
350.527	16895.7
355.334	8748.13
360.139	2111.68
364.941	167.994
369.741	332.87
374.538	146.299
379.333	1305.52
384.126	6268.04
388.916	12389.7
393.703	8815.85
398.488	3965.36
403.271	2356.16
408.051	5216.14
412.828	14748.2
417.603	21370.3
422.376	15405.4
427.146	15940.3
431.914	12311.9
436.679	6123.28
441.442	5964.19
446.202	5039.57
450.96	1159.34
455.715	450.674
460.467	804.593
465.218	672.769
469.965	333.268
474.711	2629.58
479.454	8682.8
484.194	14794.9
488.932	6367.91
493.667	1852.42
498.4	1605.1
503.13	2569.49
507.858	3600.36
512.583	2880.32
517.306	898.833
522.026	57.3897
526.744	79.2695
531.459	572.067
536.172	1261.01
540.882	2219.68
545.59	3157.03
550.295	2302.83
554.998	2451.89
559.698	3558.02
564.396	4007.44
569.091	5757.36
573.784	6927.6
578.474	6448.12
583.162	8031.85
587.847	10810.8
592.529	7299.81
597.209	3385.77
601.887	1538.82
606.562	1326.16
611.235	1959.55
615.905	2491.65
620.572	2135.06
625.237	590.754
629.9	98.6426
634.56	49.0557
639.217	1239.04
643.872	1409.21
648.524	708.571
653.174	20.9121
657.821	178.432
662.466	271.205
667.108	1777.65
671.748	5047.28
676.385	8381.75
681.02	6291.83
685.652	3225.57
690.281	2420.63
694.908	3527.23
699.533	6929.33
704.155	15778.1
708.774	33366.4
713.391	49305.7
718.005	36356.9
722.617	17410.2
727.226	8145.53
731.833	4343.92
736.437	2614.59
741.039	2019.49
745.638	1599.79
750.234	1566.1
754.828	2487.73
759.419	4420.76
764.008	7131.68
768.595	7653.63
773.178	5073.18
777.759	2737.07
782.338	1267.78
786.914	511.327
791.488	242.279
796.059	91.6992
800.627	127.196
805.193	244.749
809.756	1325.1
814.317	1334.37
818.875	290.565
823.431	357.461
827.984	431.873
832.534	375.693
837.082	298.28
841.627	231.891
846.17	598.187
850.71	990.692
855.248	1424.45
859.783	1048.45
864.316	1148.91
868.846	1208.69
873.373	1321.89
877.898	2018.56
882.42	2569.8
886.94	4241.6
891.457	7264.04
895.971	11604.1
900.483	14339.1
904.993	13793.3
909.5	11933.6
914.004	8398.74
918.505	5600.95
923.004	4535.98
927.501	4900
931.995	4591.94
936.486	4054.16
940.975	4660.12
945.461	6570.62
949.945	9937.11
954.426	13699.6
958.904	20075.3
963.38	26352
967.853	23007.5
972.324	21176.5
976.792	25520.2
981.258	26699.4
985.72	22186.8
990.181	20529.5
994.639	19999.3
999.094	22152.4
1003.55	24911.7
1008	20257.2
1012.44	11811.3
1016.89	6647.85
1021.33	4667.15
1025.77	4685.73
1030.21	3973.4
1034.64	2565.04
1039.07	2199.84
1043.5	2216.61
1047.93	2262.89
1052.35	3188.14
1056.78	3632.04
1061.19	3120.61
1065.61	2011.81
1070.02	1467.87
1074.43	2171.62
1078.84	3759.16
1083.25	5377.1
1087.65	4110.78
1092.05	2388.55
1096.45	1895.28
1100.85	2160.66
1105.24	2511.39
1109.63	2003.89
1114.02	1437.64
1118.4	905.854
1122.78	545.462
1127.16	335.828
1131.54	161.624
1135.92	85.2129
1140.29	24.3096
1144.66	20.0684
1149.02	200.909
1153.39	44.8701
1157.75	113.039
1162.11	61.206
1166.46	28.3262
1170.82	75.6484
1175.17	101.936
1179.52	18.71
1183.86	19.7549
1188.21	72.7627
1192.55	3.38281
1196.89	106.359
1201.22	1.29102
1205.55	46.585
1209.88	171.684
1214.21	111.236
1218.54	15.418
1222.86	53.877
1227.18	241.519
1231.5	34.5801
1235.81	78.6231
1240.12	250.153
1244.43	157.599
1248.74	283.098
1253.04	193.635
1257.34	95.666
1261.64	201.509
1265.94	297.227
1270.23	305.154
1274.52	316.906
1278.81	480.844
1283.1	247.388
1287.38	302.389
1291.66	305.79
1295.94	242.065
1300.21	335.246
1304.48	142.418
1308.75	254.72
1313.02	208.874
1317.29	196.495
1321.55	11.0938
1325.81	156.577
1330.06	162.652
1334.32	214.19
1338.57	323.136
1342.82	144.289
1347.06	33.7461
1351.31	198.443
1355.55	195.485
1359.79	180.053
1364.02	309.526
1368.26	253.882
1372.49	179.892
1376.71	249.005
1380.94	237.876
1385.16	307.757
1389.38	1.15234
1393.6	57.9746
1397.81	88.2666
1402.02	175.964
1406.23	235.454
1410.44	73.2041
1414.64	146.166
1418.85	268.016
1423.04	302.152
1427.24	92.6738
1431.43	231.647
1435.62	316.294
1439.81	165.438
1444	175.837
1448.18	345.604
1452.36	103.005
1456.54	82.1475
1460.71	132.892
1464.89	243.583
1469.06	209.096
1473.22	139.891
1477.39	67.3369
1481.55	131.841
1485.71	177.232
1489.86	216.329
1494.02	78.9795
1498.17	133.509
1502.32	91.2588
1506.46	68.8135
1510.61	157.943
1514.75	26.9463
1518.88	72.668
1523.02	132.269
1527.15	68.9453
1531.28	105.587
1535.41	211.615
1539.53	118.018
1543.66	73.292
1547.78	145.22
1551.89	335.343
1556.01	345.79
1560.12	192.195
1564.23	30.8701
1568.33	127.524
