Measurement: Raman, 514 nm, depolarized, Raman Data Processed
Mineral: Axinite-(Fe)
Rruff sample: R040074
Ideal chemistry: Ca_4_Fe^2+^_2_Al_4_[B_2_Si_8_O_30_](OH)_2_
Locality: Luning, Nevada, USA
Source: University of Arizona Mineral Museum
Description: Pale brown wedge-shaped crystal
Measured chemistry: (Ca_0.98_Mn_0.01_)_2_(Fe_0.41_Mg_0.39_Mn_0.20_)Al_1.95_B_1.20_Si_3.90_O_15_(OH)
Pin_id: M00342
Orientation: Laser parallel to -a* (-1 0 0). Fiducial mark perpendicular to laser is parallel to b [0 1 0]
Raman shift (cm-1)	intensity
91.081	0
95.268	133.714
99.453	1181.02
103.636	2179.65
107.817	6646.71
111.996	9726.43
116.172	5477.37
120.347	3166.81
124.519	2097.18
128.69	1128.64
132.858	855.805
137.025	1809.48
141.189	4718.52
145.352	5537.25
149.512	5641.9
153.67	5171.65
157.827	3585.92
161.981	2795.18
166.133	4301.87
170.283	8458.95
174.431	7469.08
178.577	3290.83
182.721	514.669
186.863	789.156
191.003	300.764
195.141	829.631
199.277	421.808
203.411	1885.24
207.543	5609.82
211.673	9465.55
215.801	10462.4
219.927	7511.1
224.051	3658.85
228.173	1128.04
232.292	109.846
236.41	12.773
240.526	735.128
244.64	1433.49
248.752	2841.95
252.861	5060.76
256.969	5653.42
261.075	5749.71
265.179	7834.14
269.281	11242.6
273.38	12743.5
277.478	10805.9
281.574	7169.28
285.668	4902.66
289.76	5156.14
293.85	6589.87
297.937	8173.89
302.023	8638.25
306.107	7728.1
310.189	6726.19
314.269	8275.15
318.347	13054.9
322.423	13355.4
326.497	8046.49
330.569	5247.88
334.639	4979.83
338.707	7482.31
342.773	13018.2
346.837	12863.7
350.899	8442.13
354.96	5091.96
359.018	1694.25
363.074	5.896
367.128	173.777
371.181	255.117
375.231	368.752
379.28	434.033
383.326	1989.43
387.37	5484.93
391.413	7060.52
395.454	5285.71
399.492	3360.74
403.529	2635.73
407.564	2140.66
411.596	2675.52
415.627	6040.31
419.656	9565.04
423.683	12469.9
427.708	14254.8
431.731	14579.6
435.752	10204.3
439.772	6228.86
443.789	6343.26
447.804	4927.48
451.817	2011.5
455.829	945.331
459.838	498.949
463.846	292.346
467.852	625.543
471.855	1158.61
475.857	1601.79
479.857	3705.35
483.855	7129.56
487.851	6484.66
491.845	2500.61
495.837	526.996
499.828	46.801
503.816	8.713
507.802	83.409
511.787	67.971
515.77	136.776
519.75	192.42
523.729	329.925
527.706	442.907
531.681	134.432
535.654	481.176
539.625	1286.35
543.595	2411.13
547.562	2695.52
551.527	2029.5
555.491	3023.07
559.453	5336.36
563.412	5239.27
567.37	3491.75
571.326	3593.81
575.28	3775.44
579.233	3016.64
583.183	2907.39
587.131	3487.69
591.078	3267.53
595.022	1986.92
598.965	1165.85
602.906	1134.31
606.845	1632.3
610.782	2529.82
614.718	3616.86
618.651	4933.44
622.582	4369.54
626.512	2115.52
630.44	1060.79
634.366	1055.42
638.29	1826.31
642.212	3001.74
646.132	3189.43
650.05	2110.14
653.967	1441.17
657.882	983.573
661.794	1144.25
665.705	1965.33
669.614	3830.71
673.522	7959.07
677.427	10595.1
681.331	7779.28
685.232	4533.2
689.132	3057.33
693.03	2749.9
696.926	3875.36
700.82	5790.32
704.713	11424.8
708.603	23148.8
712.492	40202.4
716.379	40655.4
720.264	24678
724.147	12330.2
728.028	6501.9
731.908	3723.17
735.785	2184
739.661	1244.42
743.535	904.415
747.407	944.006
751.278	943.198
755.146	1162
759.013	1450.42
762.878	1908.46
766.741	2646.14
770.602	2513.46
774.461	1530.42
778.319	737.044
782.174	213.325
786.028	170.856
789.88	66.201
793.73	123.134
797.579	412.223
801.425	523.92
805.27	247.921
809.113	746.864
812.954	891.44
816.794	646.035
820.631	100.608
824.467	174.869
828.301	70.787
832.133	113.325
835.963	158.069
839.792	463.901
843.618	690.693
847.443	1167.65
851.266	1664.63
855.088	2141.52
858.907	2213.94
862.725	2255.41
866.541	2192.4
870.355	2309.47
874.167	2316.57
877.978	2503.74
881.787	2681.02
885.594	2778.34
889.399	3615.75
893.202	5093.32
897.004	7991.09
900.803	11989
904.601	13237.2
908.398	10685.3
912.192	7573.59
915.985	5211.92
919.776	3980.31
923.565	3678.77
927.352	3447.29
931.138	3815.95
934.922	3843.18
938.704	4036.95
942.484	4652.69
946.262	6491.69
950.039	8641.27
953.814	11489.4
957.587	14968.6
961.359	21868.7
965.128	26009.1
968.896	22659.8
972.662	21089.1
976.427	24133.9
980.189	24878.1
983.95	20991.4
987.709	17332.7
991.467	15685.1
995.222	14059.7
998.976	14196.1
1002.73	14222.9
1006.48	11342
1010.23	8047.06
1013.97	5561.63
1017.72	4011.19
1021.46	2991.62
1025.2	2706.56
1028.94	2263.7
1032.68	2284.51
1036.42	2296.19
1040.15	3038.19
1043.89	3295.53
1047.62	3447.05
1051.35	3938.87
1055.07	4735.56
1058.8	5605.57
1062.52	5667.24
1066.25	4497.72
1069.97	3657.29
1073.69	3327.2
1077.4	4025.75
1081.12	5814.33
1084.83	6525.06
1088.55	4713.08
1092.26	3293.77
1095.96	2006.27
1099.67	1418.57
1103.38	1151.39
1107.08	905.947
1110.78	427.693
1114.48	332.539
1118.18	557.572
1121.88	532.902
1125.57	185.578
1129.27	250.445
1132.96	56.32
1136.65	37.844
1140.34	49.721
1144.02	152.857
1147.71	0.643
1151.39	117.52
1155.07	313.139
1158.75	140.51
1162.43	48.082
1166.11	243.473
1169.78	10.021
1173.45	156.279
1177.12	332.17
1180.79	147.506
1184.46	172.861
1188.13	70.75
1191.79	162.357
1195.45	179.957
1199.11	81.529
1202.77	286.525
1206.43	375.955
1210.09	272.273
1213.74	350.986
1217.39	217.871
1221.05	253.246
1224.69	71.275
1228.34	183.152
1231.99	397.473
1235.63	1191.96
1239.27	481.15
1242.91	508.873
1246.55	486.904
1250.19	180.014
1253.83	33.141
1257.46	161.217
1261.09	395.859
1264.72	558.637
1268.35	719.971
1271.98	588.859
1275.61	818.092
1279.23	356.775
1282.85	27.674
1286.47	95.74
1290.09	190.115
1293.71	213.598
1297.33	340.811
1300.94	490.209
1304.55	568.393
1308.16	86.369
1311.77	143.439
1315.38	16.311
1318.99	25.965
1322.59	0.916
1326.19	152.285
1329.79	281.686
1333.39	359.369
1336.99	570.115
1340.59	635.252
1344.18	1085.07
1347.77	140.117
1351.37	76.439
1354.95	106.531
1358.54	243.703
1362.13	332.699
1365.71	640.84
1369.3	582.471
1372.88	439.457
1376.46	600.707
1380.04	379.732
1383.61	363.084
1387.19	205.676
1390.76	33.693
1394.33	172.412
1397.9	417.982
1401.47	517.723
1405.04	869.344
1408.6	680.291
1412.16	723.611
1415.72	708.541
1419.29	479.754
1422.84	130.68
1426.4	267.482
1429.96	170.834
1433.51	335.562
1437.06	282.256
1440.61	638.982
1444.16	833.896
1447.71	1020.79
1451.25	724.469
1454.8	889.16
1458.34	575.51
1461.88	537.994
1465.42	185.764
1468.96	333.367
1472.49	218.881
1476.03	278.07
1479.56	533.705
1483.09	923.553
1486.62	848.719
1490.15	998.164
1493.67	891.531
1497.2	624.666
1500.72	329.01
1504.24	366.979
1507.76	16.686
1511.28	0.475
1514.8	36.707
