Measurement: Raman, 514 nm, depolarized, Raman Data Processed
Mineral: Axinite-(Fe)
Rruff sample: R060558
Ideal chemistry: Ca_4_Fe^2+^_2_Al_4_[B_2_Si_8_O_30_](OH)_2_
Locality: unknown
Source: Gemological Institute of America
Description: Brown flattened crystal
Measured chemistry: Ca_2.00_(Fe^2+^_0.60_Mg_0.35_Mn_0.05_)_Î£=1_Al_2.00_BSi_4.00_O_15_(OH) ; B not measured
Pin_id: M01160
Orientation: Laser parallel to b* (0 1 0). Fiducial mark perpendicular to laser is parallel to -c [0 0 -1]
Raman shift (cm-1)	intensity
89.036	0
94.025	734.318
99.011	4398.41
103.994	9061.11
108.974	11621.5
113.95	5530.37
118.923	1863.85
123.894	429.712
128.86	231.094
133.824	486.615
138.785	2326.55
143.743	2991.08
148.697	3056.72
153.648	3587.93
158.596	3031.23
163.541	3823.47
168.483	5541.34
173.422	5547.41
178.358	2240.99
183.29	528.918
188.22	1273.19
193.146	3656.14
198.07	4607.62
202.99	6439.58
207.907	8211.28
212.821	6903.95
217.732	4488.74
222.64	1963.6
227.545	79.4629
232.446	387.403
237.345	19.4605
242.241	722.758
247.133	1629.39
252.023	3163.65
256.909	4717.1
261.792	6864.56
266.673	10555.6
271.55	13347.7
276.424	11638.1
281.296	7247.48
286.164	5035.02
291.029	6042.36
295.891	8188.39
300.751	9973.98
305.607	10876
310.46	9759.51
315.31	8507.64
320.157	8304.53
325.001	5300.71
329.843	3548.7
334.681	3739.48
339.516	6815.31
344.348	11143.1
349.177	11008.1
354.004	8546.41
358.827	3790.41
363.647	854.027
368.465	29.7881
373.279	22.2207
378.091	450.135
382.899	2402.85
387.705	5721.83
392.507	7456.03
397.307	4272.11
402.104	2389.29
406.898	2880.05
411.689	6314.66
416.477	12773.4
421.262	12736.7
426.044	9360.78
430.823	8136.32
435.599	5121.78
440.373	3753.64
445.143	4445.68
449.911	2379.86
454.675	261.168
459.437	286.775
464.196	247.06
468.952	44.8669
473.705	829.476
478.456	3546.81
483.203	8055.09
487.948	8746.63
492.689	3085.97
497.428	1172.77
502.164	1542.53
506.897	2476.07
511.627	2489.83
516.355	1341.7
521.079	343.79
525.801	74.9443
530.52	139.653
535.236	234.346
539.949	346.618
544.659	367.463
549.367	323.902
554.071	418.349
558.773	850.828
563.472	1411.03
568.169	1963.71
572.862	2843.84
577.553	3102.41
582.241	3124.41
586.926	4531.81
591.608	4751.6
596.287	2286.79
600.964	781.043
605.638	307.478
610.309	604.955
614.977	1184.92
619.643	1356.41
624.306	682.394
628.966	67.1316
633.623	12.0596
638.278	617.808
642.929	1273.15
647.578	1124.98
652.225	296.582
656.868	12.1638
661.509	54.2371
666.147	671.721
670.782	2024.13
675.415	3796.75
680.045	3512.2
684.672	1614.29
689.296	948.682
693.918	1299.19
698.537	2501.73
703.153	6230.72
707.766	14776.1
712.377	25730
716.985	24504.3
721.591	12264.2
726.194	5339.53
730.794	2544.42
735.391	1467.86
739.986	845.253
744.578	614.594
749.167	593.668
753.754	995.587
758.338	1818.14
762.919	3225.36
767.497	4234.78
772.073	3278.61
776.647	1717.82
781.217	603.985
785.785	140.958
790.351	44.2661
794.913	168.741
799.473	284.076
804.031	50.6985
808.586	622
813.138	1040.06
817.687	703.203
822.234	25.3892
826.778	194.567
831.32	125.571
835.859	32.4155
840.395	279.61
844.929	711.796
849.46	1201.17
853.989	1331.75
858.515	1138.57
863.038	990.636
867.559	1044.99
872.077	1087.64
876.593	1373.61
881.106	1750.92
885.617	2385.68
890.124	3559.89
894.63	5627.59
899.133	7852.86
903.633	9194.84
908.13	9795.01
912.625	8379.98
917.118	5366.62
921.608	3359.03
926.095	2931.32
930.58	3126.39
935.062	2988.13
939.542	2982.95
944.019	3891.47
948.494	6166.66
952.966	9120.59
957.435	12288.2
961.902	16680
966.367	17497.9
970.829	14222.5
975.288	15429
979.745	17842.1
984.2	15117
988.652	12483.6
993.101	12237
997.548	13351
1001.99	15217.8
1006.43	14824.2
1010.87	9538.33
1015.31	4989.68
1019.75	2804.15
1024.18	2233.07
1028.61	2249.52
1033.03	1571.36
1037.46	851.008
1041.88	537.434
1046.3	456.265
1050.72	660.959
1055.13	778.368
1059.54	845.428
1063.95	669.718
1068.36	537.81
1072.77	524.715
1077.17	974.92
1081.57	1827.75
1085.97	1901.71
1090.36	1176.57
1094.75	677.836
1099.14	773.729
1103.53	1020.21
1107.92	1186.51
1112.3	948.443
1116.68	524.345
1121.06	287.418
1125.43	234.012
1129.81	121.473
1134.18	26.9441
1138.55	16.094
1142.91	17.3359
1147.28	9.26562
1151.64	49.9497
1155.99	54.9683
1160.35	73.2742
1164.71	59.3618
1169.06	24.5051
1173.41	40.9168
1177.75	36.689
1182.1	80.6589
1186.44	0.848633
1190.78	20.5322
1195.12	28.6602
1199.45	21.8145
1203.79	41.6279
1208.12	25.4797
1212.44	69.5742
1216.77	57.1257
1221.09	85.875
1225.41	67.2085
1229.73	49.8279
1234.05	97.8264
1238.36	49.0625
1242.67	75.6414
1246.98	135.601
1251.29	108.043
1255.59	161.863
1259.89	128.004
1264.19	157.673
1268.49	153.963
1272.79	257.322
1277.08	152.932
1281.37	208.489
1285.66	150.819
1289.94	163.337
1294.23	137.475
1298.51	109.424
1302.79	127.827
1307.07	85.4399
1311.34	93.1841
1315.61	59.8403
1319.88	17.8513
1324.15	108.399
1328.41	127.103
1332.68	96.6856
1336.94	99.3354
1341.2	148.778
1345.45	159.106
1349.71	135.828
1353.96	139.481
1358.21	111.223
1362.45	162.38
1366.7	135.198
1370.94	209.126
1375.18	137.962
1379.42	139.718
1383.66	96.4297
1387.89	84.7456
1392.12	87.687
1396.35	68.3364
1400.58	96.4829
1404.8	49.084
1409.03	110.096
1413.24	108.393
1417.46	79.6838
1421.68	132.794
1425.89	62.1296
1430.1	144.399
1434.31	52.0227
1438.52	82.0251
1442.72	50.8047
1446.93	88.104
1451.13	83.2942
1455.33	97.5935
1459.52	38.9148
1463.71	0.13501
1467.91	77.6882
1472.1	44.0903
1476.28	27.3755
1480.47	143.89
1484.65	45.9441
1488.83	105.521
1493.01	54.8752
1497.18	54.2693
1501.36	15.3474
1505.53	70.0398
1509.7	57.9006
1513.87	98.4133
1518.03	3.40308
1522.2	6.16821
1526.36	58.3718
1530.52	7.99316
1534.67	3.71558
1538.83	104.304
1542.98	87.7463
1547.13	76.5085
1551.28	22.6025
1555.42	182.972
1559.57	54.0676
1563.71	0
