Measurement: Raman, 514 nm, depolarized, Raman Data Processed
Mineral: Axinite-(Fe)
Rruff sample: R050026
Ideal chemistry: Ca_4_Fe^2+^_2_Al_4_[B_2_Si_8_O_30_](OH)_2_
Locality: Pouyva mine, Polar Urals, Western Siberian Region, Russia
Source: Rock Currier
Description: Brown transparent flat crystal
Measured chemistry: Ca_2.00_(Fe^2+^_0.61_Mn_0.26_Mg_0.13_)Al_2.00_BSi_4_O_15_(OH)
Pin_id: L00250
Orientation: Laser parallel to -b* (0 -1 0). Fiducial mark perpendicular to laser is parallel to -c [0 0 -1]
Raman shift (cm-1)	intensity
91.284	0
95.465	181.244
99.644	858.772
103.82	2003.21
107.995	4273.52
112.168	7802.63
116.339	4268.17
120.508	593.718
124.675	66.051
128.84	310.371
133.003	380.003
137.164	549.479
141.323	1454.2
145.48	1347.68
149.635	2083.16
153.788	4014.12
157.939	4248.5
162.088	3335.51
166.235	3620.48
170.38	7515.07
174.523	9350.83
178.664	5828.08
182.803	2176.45
186.94	283.914
191.076	111.255
195.209	890.209
199.34	976.031
203.47	3146.79
207.597	7222.34
211.722	8132.42
215.846	5852.62
219.967	2890.07
224.087	824.581
228.204	326.972
232.32	691.455
236.434	314.506
240.545	964.474
244.655	3100.63
248.763	3963.45
252.869	3700.13
256.973	3568.47
261.075	2568.79
265.175	3083.74
269.273	5308.85
273.369	8733.07
277.463	10197.8
281.556	7902.65
285.646	5437.31
289.734	4531.75
293.821	4625.66
297.905	6198.59
301.988	8916.16
306.069	12576.6
310.147	12017.5
314.224	6147.64
318.299	3266.64
322.372	2658.55
326.443	2686.77
330.512	3121.3
334.579	1783.79
338.645	1214.19
342.708	2637.5
346.769	5518.67
350.829	9901.94
354.887	11583.6
358.942	5757.2
362.996	1944.62
367.048	604.284
371.098	311.003
375.146	580.56
379.192	824.485
383.236	1928.43
387.279	5288.39
391.319	8798.26
395.358	8060.19
399.394	4720.1
403.429	2601.44
407.462	1760.42
411.493	2732.48
415.522	7448.62
419.549	12192.9
423.575	9177.11
427.598	7891.3
431.619	6885.39
435.639	4120.34
439.657	2487.15
443.673	3406.8
447.687	3550.3
451.699	1472.65
455.709	588.838
459.717	226.883
463.724	117.264
467.728	16.839
471.731	613.502
475.732	1131.38
479.731	3042.14
483.728	7243.7
487.723	8095.99
491.716	3071.87
495.708	593.627
499.697	35.843
503.685	121.706
507.671	403.928
511.655	809.86
515.637	813.835
519.617	239.956
523.596	172.883
527.572	222.624
531.547	101.806
535.52	189.347
539.491	235.363
543.46	463.256
547.427	600.024
551.393	457.851
555.356	826.898
559.318	1943.49
563.278	2810.47
567.236	3392.31
571.192	5169.01
575.147	6601.57
579.099	5673.98
583.05	5456.24
586.999	6958.35
590.946	7690.3
594.891	5042.1
598.834	2723.75
602.776	2190.25
606.715	2054.6
610.653	2599.79
614.589	2918.84
618.523	3537.73
622.456	3240.35
626.386	1582.17
630.315	293.65
634.242	111.024
638.167	49.509
642.09	412.097
646.012	557.934
649.931	170.897
653.849	26.751
657.765	85.867
661.679	201.955
665.592	757.553
669.502	1924.95
673.411	4782.02
677.318	8425.08
681.223	8258.41
685.126	4864.16
689.028	2733.33
692.927	2299.43
696.825	3088.54
700.721	5024.51
704.616	9395.34
708.508	18100
712.399	32454.6
716.288	39209
720.175	27703.2
724.06	13987.3
727.944	7111.22
731.825	3967
735.705	2326.64
739.584	1530.16
743.46	1073.55
747.334	673.831
751.207	578.999
755.078	599.066
758.947	890.036
762.815	1774.92
766.68	2668.71
770.544	2807.43
774.406	2032.08
778.267	1119.76
782.125	633.732
785.982	191.713
789.837	78.259
793.69	220.977
797.542	240.644
801.391	179.418
805.239	83.87
809.085	422.498
812.93	1014.4
816.772	909.943
820.613	331.646
824.452	12.57
828.29	112.823
832.125	118.414
835.959	32.11
839.791	110.788
843.621	405.383
847.45	698.275
851.277	877.311
855.102	959.502
858.925	1010.86
862.746	1088.44
866.566	1292.28
870.384	1445.4
874.2	1654.83
878.015	1984.59
881.828	2558.7
885.639	3551.18
889.448	4838.99
893.256	7025.11
897.061	10178.6
900.865	13602.3
904.668	15406.3
908.468	14300.6
912.267	11055.2
916.064	7610.03
919.86	5215.16
923.653	4400.6
927.445	4524.39
931.236	4986.56
935.024	4493.07
938.811	3881.89
942.596	3752.9
946.379	4429.34
950.161	5779.26
953.94	7550.25
957.719	9615.48
961.495	13233.8
965.27	16284
969.043	14664.8
972.814	13366.1
976.583	15887.2
980.351	19016.9
984.117	18514.1
987.882	16624.7
991.644	16657.6
995.405	16881.1
999.165	17565.7
1002.92	18570
1006.68	17235.8
1010.43	12992.1
1014.18	8405.2
1017.93	5707.95
1021.68	4231.35
1025.43	3549.83
1029.18	3057.37
1032.92	2744.38
1036.66	2338.48
1040.4	2487.48
1044.14	2642.99
1047.88	2920.72
1051.62	3507.01
1055.35	4371.76
1059.08	4453.59
1062.81	3576.32
1066.54	2444.66
1070.27	1957.08
1073.99	1847.46
1077.72	2227.51
1081.44	2988.89
1085.16	3200.75
1088.88	2398.97
1092.59	1801.93
1096.31	1437.21
1100.02	1684.1
1103.73	2127.84
1107.44	2309.02
1111.15	1996.15
1114.86	1448.52
1118.57	968.263
1122.27	806.773
1125.97	657.166
1129.67	357.071
1133.37	292.018
1137.07	214.212
1140.76	104.674
1144.45	36.505
1148.15	2.99
1151.84	38.547
1155.53	22.972
1159.21	91.207
1162.9	7.95
1166.58	30.377
1170.26	80.694
1173.94	75.133
1177.62	114.728
1181.3	81.45
1184.97	19.906
1188.65	8.978
1192.32	65.847
1195.99	8.473
1199.66	30.358
1203.33	7.626
1206.99	4.301
1210.65	26.477
1214.32	65.491
1217.98	24.709
1221.64	27.881
1225.29	16.571
1228.95	23.173
1232.6	62.222
1236.26	26.763
1239.91	36.565
1243.56	59.34
1247.2	105.697
1250.85	78.852
1254.49	140.782
1258.13	57.371
1261.78	80.53
1265.41	92.038
1269.05	83.058
1272.69	149.549
1276.32	177.4
1279.95	186.72
1283.59	158.537
1287.21	199.859
1290.84	141.975
1294.47	80.37
1298.09	72.428
1301.72	94.929
1305.34	113.278
1308.96	99.667
1312.58	36.073
1316.19	105.322
1319.81	102.468
1323.42	76.595
1327.03	95.702
1330.64	67.446
1334.25	47.892
1337.86	104.345
1341.46	86.221
1345.07	109.815
1348.67	151.225
1352.27	129.377
1355.87	98.673
1359.46	152.471
1363.06	127.366
1366.65	167.12
1370.25	123.63
1373.84	190.748
1377.43	110.67
1381.02	140.699
1384.6	140.594
1388.18	174.832
1391.77	128.825
1395.35	113.544
1398.93	91.506
1402.51	82.961
1406.08	149.036
1409.66	129.535
1413.23	100.241
1416.8	127.645
1420.37	235.547
1423.94	154.115
1427.51	138.185
1431.08	140.994
1434.64	132.796
1438.2	97.464
1441.76	11.746
1445.32	110.279
1448.88	117.174
1452.43	77.896
1455.99	90.943
1459.54	129.27
1463.09	117.59
1466.64	140.46
1470.19	140.545
1473.74	69.018
1477.28	84.003
1480.83	10.116
1484.37	9.271
1487.91	0.593
1491.45	51.656
1494.98	72.931
1498.52	131.272
1502.05	139.502
1505.59	117.403
1509.12	34.54
1512.65	75.955
1516.17	62.795
1519.7	49.118
