Measurement: Raman, 514 nm, depolarized, Raman Data Processed
Mineral: Axinite-(Fe)
Rruff sample: R050061
Ideal chemistry: Ca_4_Fe^2+^_2_Al_4_[B_2_Si_8_O_30_](OH)_2_
Locality: Jamestown, California, USA
Source: Rock Currier
Description: Brown colored axe-head-shaped single crystals
Measured chemistry: Ca_2.00_(Fe^2+^_0.73_Mg_0.20_Mn_0.07_)Al_2.00_BSi_4_O_15_(OH)
Pin_id: L00399
Orientation: Laser parallel to c* (0 0 1). Fiducial mark perpendicular to laser is parallel to a [1 0 0]
Raman shift (cm-1)	intensity
91.065	0
95.269	97.118
99.471	869.462
103.67	1429.82
107.868	3058.34
112.063	2942.83
116.256	1275.54
120.447	751.288
124.636	358.167
128.822	65.828
133.006	7.19
137.188	863.057
141.368	1134.39
145.545	968.463
149.72	2063
153.893	2640.37
158.064	1682.75
162.233	685.938
166.399	1545.62
170.563	3518.18
174.725	3175.35
178.885	1065.2
183.043	30.935
187.198	210.909
191.351	709.254
195.502	1453.88
199.651	1183.09
203.797	3139.56
207.942	5457.18
212.084	5744.88
216.224	4695.52
220.362	3784.05
224.497	1597.25
228.631	169.014
232.762	207.186
236.891	61.89
241.018	514.744
245.143	807.035
249.265	1177.51
253.386	2681.85
257.504	3547.87
261.62	2833.68
265.734	3822.52
269.845	5346.38
273.955	6011.02
278.062	4580.79
282.167	2924.97
286.27	2490.08
290.371	2900.34
294.47	3829.13
298.567	4779.48
302.661	6264.92
306.753	7837.67
310.843	5966.1
314.931	4940.48
319.017	6771.82
323.101	5198.11
327.182	2999.82
331.261	2771.43
335.339	3370.02
339.414	5733.75
343.487	9128.64
347.557	8376.13
351.626	7427.24
355.693	4948.77
359.757	1814.96
363.819	563.589
367.879	237.646
371.937	274.869
375.993	456.536
380.047	630.152
384.099	1832.47
388.148	3915.79
392.196	4276.51
396.241	2780.53
400.284	1608.72
404.325	1224.02
408.364	1035.32
412.401	2154.62
416.435	5553.94
420.468	7893.23
424.498	8702.34
428.527	9031.24
432.553	5915.91
436.577	3020.38
440.599	3191.67
444.619	5670.8
448.637	3850.77
452.653	1129.61
456.667	179.355
460.678	38.925
464.688	91.552
468.695	659.853
472.701	965.169
476.704	1267.32
480.705	2971.45
484.704	6014.58
488.701	3890.81
492.696	1121.18
496.689	464.621
500.68	830.316
504.668	974.369
508.655	1129.04
512.639	1196.21
516.622	761.109
520.602	282.314
524.581	96.336
528.557	293.155
532.531	196.071
536.503	51.447
540.473	11.729
544.441	227.719
548.407	199.629
552.371	8.476
556.333	45.491
560.293	506.994
564.251	648.629
568.206	745.196
572.16	1226.69
576.112	1485.11
580.061	1353.44
584.009	1986.71
587.954	3657.9
591.897	3881.01
595.839	1879.06
599.778	840.027
603.716	484.928
607.651	713.761
611.584	1481.52
615.515	1984.94
619.444	1899.83
623.372	1157.27
627.297	373.75
631.22	67.183
635.141	138.534
639.06	435.874
642.977	990.276
646.892	1050.28
650.805	524.595
654.716	97.582
658.625	44.545
662.532	94.073
666.437	483.708
670.34	1368.23
674.241	2989.07
678.139	4212.89
682.036	2823.03
685.931	1444.82
689.824	926.783
693.715	855.218
697.604	1306.81
701.491	2524.12
705.376	5276.59
709.259	10996.7
713.139	18123
717.018	16336.1
720.895	8809.23
724.77	4528.31
728.643	2508.31
732.514	1470.24
736.383	852.096
740.25	610.879
744.115	507.594
747.978	437.242
751.839	467.825
755.698	717.345
759.555	1188.25
763.41	1868.21
767.263	2442.55
771.114	2064.84
774.964	1325.12
778.811	655.428
782.656	367.716
786.499	208.608
790.341	71.124
794.18	3.745
798.017	92.814
801.853	54.302
805.686	3.884
809.518	195.668
813.347	205.878
817.175	43.669
821.001	78.474
824.824	115.994
828.646	117.166
832.466	63.005
836.284	24.177
840.1	66.972
843.914	319.68
847.726	593.742
851.536	831.961
855.344	906.245
859.15	928.579
862.954	939.955
866.756	988.46
870.557	1012.07
874.355	1097.76
878.152	1252.52
881.946	1255.36
885.739	1609.29
889.53	2273.26
893.318	3493.31
897.105	5140.43
900.89	6264.64
904.673	7015.92
908.454	6393.3
912.234	4899.75
916.011	3383.26
919.786	2421.84
923.56	1878.5
927.331	1653.27
931.101	1630.15
934.868	1799.11
938.634	2156.15
942.398	2758.27
946.16	3840.26
949.92	5165.84
953.678	6801.8
957.435	9929.59
961.189	14850.8
964.941	16653.5
968.692	13346.4
972.441	11690
976.187	14141.7
979.932	15489.4
983.675	12724.8
987.416	10579.5
991.155	10063.4
994.893	10247.5
998.628	10731.6
1002.36	10635.9
1006.09	9172.8
1009.82	6250.3
1013.55	3976.53
1017.28	2676.74
1021	2014.76
1024.72	2052.74
1028.44	2044.35
1032.16	1470.69
1035.88	1051.29
1039.59	902.301
1043.31	727.631
1047.02	730.443
1050.73	835.401
1054.43	947.674
1058.14	913.783
1061.84	806.962
1065.54	637.527
1069.24	582.938
1072.94	572.882
1076.64	829.646
1080.33	1404.97
1084.03	1554.07
1087.71	1001.76
1091.4	627.6
1095.09	426.749
1098.78	357.394
1102.46	320.507
1106.14	350.974
1109.82	269.187
1113.5	240.272
1117.17	167.981
1120.85	142.757
1124.52	36.939
1128.19	4.069
1131.86	44.719
1135.52	15.1
1139.19	27.301
1142.85	55.374
1146.51	16.135
1150.17	3.075
1153.83	28.588
1157.48	5.885
1161.14	53.404
1164.79	39.073
1168.44	1.337
1172.09	20.562
1175.73	18.623
1179.38	41.602
1183.02	7.038
1186.66	28.841
1190.3	18.892
1193.94	8.265
1197.58	13.062
1201.21	8.178
1204.84	19.123
1208.47	3.999
1212.1	67.551
1215.72	27.833
1219.35	5.457
1222.97	5.616
1226.59	45.598
1230.21	74.63
1233.83	68.314
1237.45	38.894
1241.06	24.376
1244.67	14.878
1248.28	24.097
1251.89	28.255
1255.5	19.196
1259.1	68.279
1262.7	88.957
1266.31	89.533
1269.9	90.794
1273.5	79.722
1277.1	32.483
1280.69	45.72
1284.29	62.628
1287.88	103.558
1291.46	62.577
1295.05	66.222
1298.64	47.382
1302.22	1.464
1305.8	6.598
1309.38	21.208
1312.96	43.401
1316.54	17.083
1320.11	96.09
1323.68	56.085
1327.25	58.336
1330.82	53.202
1334.39	22.628
1337.96	35.284
1341.52	60.287
1345.08	77.155
1348.64	62.039
1352.2	93.417
1355.76	98.105
1359.31	172.885
1362.87	137.67
1366.42	103.545
1369.97	46.451
1373.52	91.769
1377.06	84.242
1380.61	97.808
1384.15	100.109
1387.69	109.472
1391.23	116.733
1394.77	104.982
1398.3	154.817
1401.84	93.301
1405.37	111.804
1408.9	150.534
1412.43	77.501
1415.96	82.576
1419.48	97.437
1423.01	73.259
1426.53	81.01
1430.05	83.077
1433.57	66.576
1437.08	99.255
1440.6	48.759
1444.11	33.075
1447.62	56.535
1451.13	2.203
1454.64	64.432
1458.15	8.909
1461.65	39.384
1465.16	81.512
1468.66	75.479
1472.16	95.031
1475.65	78.801
1479.15	72.55
1482.64	93.707
1486.14	59.807
1489.63	61.858
1493.12	134.771
1496.61	13.153
1500.09	29.364
1503.58	88.569
1507.06	42.2
1510.54	31.611
1514.02	46.48
