Measurement: Raman, 514 nm, depolarized, Raman Data Processed
Mineral: Axinite-(Fe)
Rruff sample: R040074
Ideal chemistry: Ca_4_Fe^2+^_2_Al_4_[B_2_Si_8_O_30_](OH)_2_
Locality: Luning, Nevada, USA
Source: University of Arizona Mineral Museum
Description: Pale brown wedge-shaped crystal
Measured chemistry: (Ca_0.98_Mn_0.01_)_2_(Fe_0.41_Mg_0.39_Mn_0.20_)Al_1.95_B_1.20_Si_3.90_O_15_(OH)
Pin_id: L00132
Orientation: Laser parallel to (-1 -1 0). Fiducial mark perpendicular to laser is parallel to c [0 0 1]
Raman shift (cm-1)	intensity
90.003	0
94.188	41.854
98.37	605.388
102.55	1342.21
106.729	2822.84
110.905	3800.72
115.079	2950.14
119.251	1857.24
123.422	1007.05
127.59	501.32
131.756	292.856
135.92	89.722
140.082	588.227
144.242	1888.2
148.4	3842.77
152.556	6393.21
156.71	4350.37
160.862	3215.15
165.012	3200.72
169.16	6331.27
173.306	9137.03
177.449	5384.02
181.591	1862.66
185.731	232.957
189.869	814.729
194.005	3127.83
198.139	1612.09
202.271	1147.31
206.4	2743.24
210.528	4489.69
214.654	5786.24
218.778	4962.83
222.9	2499.45
227.019	726.649
231.137	218.193
235.253	629.566
239.367	343.413
243.479	361.552
247.589	1761.81
251.697	3069.34
255.803	3028.19
259.906	2121.21
264.008	2708.23
268.108	3936.96
272.206	4556.59
276.302	5586.71
280.396	2936.84
284.488	2136.87
288.578	2156.78
292.666	3486.83
296.753	5677.49
300.837	7745.88
304.919	8707.05
308.999	8244.89
313.077	5061.49
317.154	4157.74
321.228	4893.71
325.3	3199.13
329.371	1899.31
333.439	1507.46
337.506	2615.74
341.57	6354.18
345.633	9392.74
349.693	7881.35
353.752	6619.78
357.809	3411.43
361.863	978.66
365.916	75.85
369.967	141.375
374.016	729.043
378.063	664.946
382.108	1053
386.151	3660.34
390.192	7867.47
394.231	8538.39
398.269	4626.07
402.304	2609.62
406.337	1737.84
410.369	1413.09
414.398	2988.12
418.426	5442.93
422.452	5557.48
426.475	6881.7
430.497	8445.56
434.517	6209.03
438.535	3022.11
442.551	2264.77
446.565	2177.02
450.577	858.848
454.588	480.25
458.596	621.193
462.602	341.688
466.607	421.689
470.61	1431.23
474.61	1540.47
478.609	2892.02
482.606	7642.86
486.601	11831.8
490.594	5331.24
494.585	1862.34
498.575	955.89
502.562	1180.88
506.548	1761.95
510.531	1750.38
514.513	708.485
518.493	3.548
522.47	346.3
526.446	378.509
530.421	379.295
534.393	68.08
538.363	525.384
542.331	1402.53
546.298	2129.73
550.263	1846.54
554.225	1643.1
558.186	2600.42
562.145	3758.89
566.103	2507.4
570.058	2235.51
574.011	2723.21
577.963	2790.52
581.912	3127.42
585.86	4093.92
589.806	4780.02
593.75	2855.71
597.692	1620.99
601.632	1405.88
605.571	1700.37
609.507	2544.47
613.442	3697.2
617.375	5409.21
621.306	6419.29
625.235	3688.48
629.162	1320.63
633.087	443.667
637.011	434.935
640.932	825.246
644.852	1003.77
648.77	716.151
652.686	430.178
656.6	330.031
660.513	508.388
664.423	916.175
668.332	1934.94
672.239	4369.86
676.144	8209.69
680.047	7799.15
683.948	4237.22
687.848	2265.92
691.746	1877.93
695.641	2327.7
699.535	3472.04
703.427	6516.07
707.318	12529.8
711.206	26363.2
715.093	37236.3
718.978	26299.1
722.861	12201.6
726.742	6013.74
730.621	3315.6
734.499	2527.15
738.374	1498.41
742.248	939.379
746.12	770.072
749.99	690.49
753.859	930.644
757.725	1570.54
761.59	2340.18
765.453	3519.57
769.314	4038.72
773.174	2967.67
777.031	1816.4
780.887	894.969
784.741	333.326
788.593	29.251
792.443	164.518
796.291	239.467
800.138	364.566
803.983	1.633
807.826	77.729
811.667	774.962
815.507	831.41
819.344	541.411
823.18	22.638
827.014	186.445
830.847	246.363
834.677	226.656
838.506	133.539
842.333	294.876
846.158	617.045
849.981	759.304
853.803	841.625
857.623	713.924
861.441	956.408
865.257	1069.12
869.071	681.958
872.884	644.913
876.695	728.071
880.504	1071.36
884.311	1184.78
888.117	1588.26
891.92	2161.86
895.722	3295.64
899.523	5099.57
903.321	6173.56
907.118	5217.65
910.913	3681.82
914.706	2506.07
918.497	1670.38
922.287	1734.75
926.075	2009.19
929.861	2863.69
933.645	2978.26
937.428	3172.87
941.208	3842.23
944.987	5418.69
948.765	8329.54
952.54	11878.7
956.314	14234.1
960.086	18795.9
963.856	23431.3
967.625	20656.8
971.392	16422.5
975.157	16305.9
978.92	18272.9
982.682	15422
986.441	10965.8
990.199	8732.33
993.956	8278.32
997.71	9726.88
1001.46	12312.2
1005.21	12713.6
1008.96	9907.43
1012.71	5984.48
1016.46	3876.6
1020.2	2964.24
1023.94	2754.73
1027.68	2760.57
1031.42	2415.26
1035.16	1930.35
1038.9	1997.66
1042.63	2057.09
1046.36	2220.99
1050.09	2734.22
1053.82	3576.17
1057.55	4453.82
1061.27	4587.46
1065	3700.45
1068.72	2732.49
1072.44	2524.15
1076.16	3366.11
1079.87	4657.25
1083.59	5858.05
1087.3	4568.52
1091.01	2908.79
1094.72	1908.16
1098.43	1937.62
1102.14	2176.31
1105.84	2515.26
1109.55	2083.97
1113.25	1492.12
1116.94	949.657
1120.64	937.438
1124.34	953.812
1128.03	749.894
1131.73	615.974
1135.42	442.053
1139.11	160.165
1142.8	44.728
1146.48	20.388
1150.16	50.621
1153.85	98.828
1157.53	297.94
1161.21	316.663
1164.88	4.775
1168.56	36.369
1172.23	228.193
1175.91	89.977
1179.58	68.404
1183.25	237.023
1186.91	105.945
1190.58	315.262
1194.24	195.105
1197.91	165.559
1201.57	13.269
1205.23	98.771
1208.88	291.884
1212.54	396.302
1216.19	702.139
1219.85	647.13
1223.5	617.693
1227.14	333.259
1230.79	208.903
1234.44	117.03
1238.08	435.428
1241.72	425.383
1245.37	712.51
1249	492.922
1252.64	547.15
1256.28	378.6
1259.91	317.547
1263.54	0.369
1267.17	125.738
1270.8	482.484
1274.43	410.449
1278.06	473.529
1281.68	562.623
1285.3	406.127
1288.92	0
