Measurement: Raman, 514 nm, depolarized, Raman Data Processed
Mineral: Axinite-(Fe)
Rruff sample: R060183
Ideal chemistry: Ca_4_Fe^2+^_2_Al_4_[B_2_Si_8_O_30_](OH)_2_
Locality: Skagit Bluffs, near Manning Park, British Columbia, Canada
Source: Lloyd Twaites
Description: Light-pink transparent axe-head-shaped single crystal
Measured chemistry: Ca_2.00_(Fe^2+^_0.58_Mn_0.23_Mg_0.19_)Al_2.00_B_1.00_Si_4.00_O_15_(OH)
Pin_id: L01002
Orientation: Laser parallel to (-1 0 -1). Fiducial mark perpendicular to laser is parallel to b [0 1 0]
Raman shift (cm-1)	intensity
52.671	0
57.626	219.321
62.579	474.795
67.529	139.096
72.477	94.7119
77.423	27.7263
82.367	264.102
87.308	1308.57
92.246	4158.02
97.182	7499.74
102.116	10040.7
107.047	15462.8
111.976	14288.8
116.903	8287.69
121.827	6121.85
126.749	5610.51
131.668	5423.98
136.585	7362.43
141.5	8691.56
146.412	8798.53
151.321	10694.2
156.229	6953.39
161.134	5434.29
166.036	7908.87
170.936	13503
175.834	9281.69
180.729	4115.7
185.622	1413.91
190.512	1318.2
195.4	2306.39
200.286	3675.24
205.169	7945.36
210.049	11452.2
214.928	11601.8
219.803	9171.34
224.677	3904.3
229.548	1195.29
234.416	1158.66
239.282	2434.92
244.146	3756.35
249.007	5300.12
253.866	8334.36
258.722	9367.75
263.576	10458.6
268.427	14454.8
273.276	18576.1
278.123	16472.3
282.967	11099.4
287.809	9413.41
292.648	9100.08
297.485	8754.38
302.319	8205.21
307.151	9206.47
311.98	9700.06
316.807	15126.9
321.631	16034.9
326.454	10845
331.273	9977.92
336.09	11661.7
340.905	18301.2
345.717	17695.4
350.527	11106.8
355.334	4641.54
360.139	468.911
364.941	693.435
369.741	572.624
374.538	14.2598
379.333	1032.2
384.126	4440.8
388.916	8313.71
393.703	7911.97
398.488	4311.77
403.271	2697.37
408.051	3196.72
412.828	7058.02
417.603	13477.2
422.376	16796.2
427.146	16705.8
431.914	12489.1
436.679	7364.99
441.442	7957.33
446.202	7638.06
450.96	3088.12
455.715	1687.43
460.467	630.391
465.218	400.058
469.965	1427.66
474.711	2748.23
479.454	7889.68
484.194	15589
488.932	9258.98
493.667	3074.69
498.4	1576.01
503.13	1433.85
507.858	2012.4
512.583	1723.08
517.306	316.6
522.026	524.365
526.744	771.655
531.459	476.277
536.172	32.0908
540.882	228.705
545.59	683.923
550.295	888.049
554.998	2013.07
559.698	3866.89
564.396	3777.7
569.091	3854.69
573.784	4697.57
578.474	3960.03
583.162	2966.03
587.847	2864.51
592.529	2465.44
597.209	551.775
601.887	581.376
606.562	1746.22
611.235	4638.35
615.905	9015.73
620.572	11141.3
625.237	6068.1
629.9	2201.03
634.56	1791.09
639.217	2883.24
643.872	3930.39
648.524	3198.27
653.174	1753.11
657.821	1457.45
662.466	1722.04
667.108	3107.84
671.748	6997.34
676.385	12517.7
681.02	10882.4
685.652	6057.41
690.281	4245.35
694.908	4830.68
699.533	7620.33
704.155	14995.9
708.774	31315.2
713.391	53170.5
718.005	49462.7
722.617	25919.8
727.226	11870.8
731.833	5723.7
736.437	3246.35
741.039	2093.86
745.638	1640.7
750.234	2020.57
754.828	2800.48
759.419	3255.47
764.008	3437.56
768.595	2908.8
773.178	1836.22
777.759	639.875
782.338	75.7441
786.914	257.461
791.488	458.404
796.059	624.923
800.627	537.617
805.193	295.803
809.756	582.201
814.317	1260.94
818.875	706.245
823.431	227.355
827.984	86.1616
832.534	161.676
837.082	557.012
841.627	1093.23
846.17	1750.39
850.71	2470.53
855.248	2675.71
859.783	2909.99
864.316	3326.4
868.846	3639
873.373	4066.85
877.898	4603.09
882.42	5354.77
886.94	6236.97
891.457	7960.77
895.971	11232.2
900.483	14034.7
904.993	13657.3
909.5	10649.4
914.004	7806.16
918.505	6281.27
923.004	5331.83
927.501	5775.11
931.995	6263.34
936.486	6275.91
940.975	7676.68
945.461	11408.3
949.945	17521.4
954.426	23714.2
958.904	31382.5
963.38	39276.2
967.853	34454.3
972.324	29110.8
976.792	32077
981.258	34308.2
985.72	28517
990.181	23398.3
994.639	20017.2
999.094	18307.7
1003.55	16457.6
1008	13170.3
1012.44	8625.63
1016.89	5419.09
1021.33	3407.64
1025.77	2566.18
1030.21	2116.42
1034.64	1935.33
1039.07	2218.81
1043.5	2568.16
1047.93	3355.94
1052.35	4329.68
1056.78	5633.18
1061.19	5434.57
1065.61	3984.94
1070.02	2848.39
1074.43	2904.73
1078.84	4363.45
1083.25	5834.12
1087.65	4605.67
1092.05	2636.69
1096.45	1842.51
1100.85	1913.84
1105.24	2086.77
1109.63	1938.21
1114.02	1458.48
1118.4	1098.54
1122.78	913.213
1127.16	649.746
1131.54	234.19
1135.92	94.9839
1140.29	15.314
1144.66	62.0645
1149.02	0.607422
1153.39	26.6939
1157.75	78.9697
1162.11	158.646
1166.46	181.912
1170.82	171.178
1175.17	153.362
1179.52	145.698
1183.86	1.11182
1188.21	51.7231
1192.55	4.57471
1196.89	73.499
1201.22	75.0957
1205.55	21.3862
1209.88	21.5776
1214.21	37.9853
1218.54	119.526
1222.86	143.72
1227.18	104.174
1231.5	163.116
1235.81	169.287
1240.12	182.547
1244.43	268.766
1248.74	258.184
1253.04	271.668
1257.34	280.914
1261.64	406.955
1265.94	423.826
1270.23	227.531
1274.52	421.237
1278.81	363.722
1283.1	352.43
1287.38	420.24
1291.66	430.882
1295.94	385.745
1300.21	262.42
1304.48	239.592
1308.75	223.703
1313.02	196.64
1317.29	291.991
1321.55	322.308
1325.81	251.398
1330.06	286.054
1334.32	223.209
1338.57	281.637
1342.82	223.165
1347.06	255.331
1351.31	227.483
1355.55	243.295
1359.79	253.313
1364.02	220.319
1368.26	295.585
1372.49	263.805
1376.71	317.125
1380.94	376.123
1385.16	270.206
1389.38	208.743
1393.6	181.643
1397.81	143.341
1402.02	196.542
1406.23	125.725
1410.44	177.704
1414.64	226.339
1418.85	190.078
1423.04	286.686
1427.24	212.251
1431.43	227.788
1435.62	171.101
1439.81	142.263
1444	93.2178
1448.18	42.3066
1452.36	158.458
1456.54	195.742
1460.71	64.9106
1464.89	110.878
1469.06	53.6025
1473.22	71.3501
1477.39	107.303
1481.55	60.1294
1485.71	15.2163
1489.86	29.249
1494.02	50.9844
1498.17	44.0488
1502.32	92.2422
1506.46	37.4268
1510.61	190.762
1514.75	235.852
1518.88	81.7993
1523.02	111.078
1527.15	87.4819
1531.28	101.259
1535.41	32.0576
1539.53	23.6499
1543.66	26.8643
1547.78	62.1465
1551.89	162.775
1556.01	184.548
1560.12	24.9468
1564.23	39.4395
1568.33	18.4575
