Measurement: Raman, 514 nm, ccw, Raman Data Processed
Mineral: Axinite-(Fe)
Rruff sample: R050061
Ideal chemistry: Ca_4_Fe^2+^_2_Al_4_[B_2_Si_8_O_30_](OH)_2_
Locality: Jamestown, California, USA
Source: Rock Currier
Description: Brown colored axe-head-shaped single crystals
Measured chemistry: Ca_2.00_(Fe^2+^_0.73_Mg_0.20_Mn_0.07_)Al_2.00_BSi_4_O_15_(OH)
Pin_id: L00256
Orientation: Laser parallel to (1 0 1). Fiducial mark perpendicular to laser is parallel to b [0 1 0]
Raman shift (cm-1)	intensity
89.663	0
93.868	98.407
98.07	504.905
102.271	1182.02
106.469	2404.44
110.665	4733.12
114.859	3000.79
119.05	2192.89
123.24	2586.68
127.427	1912.9
131.612	785.726
135.794	576.037
139.975	1580.86
144.153	2028.49
148.329	4108.13
152.503	5625.94
156.674	2899.03
160.843	1781.76
165.011	2716.32
169.175	5933.79
173.338	6890.99
177.499	3714.8
181.657	1158.6
185.813	145.661
189.967	249.236
194.119	321.588
198.268	380.412
202.415	146.36
206.561	2312.62
210.703	4178.35
214.844	5334.54
218.983	5734.19
223.119	2997.22
227.253	592.99
231.385	108.546
235.515	352.8
239.643	1700.85
243.768	3002.34
247.891	2912.57
252.012	3443.06
256.131	4362.24
260.248	4257.74
264.363	4444.52
268.475	6295.12
272.585	7729.55
276.693	7644.21
280.799	6088.87
284.903	4752.96
289.005	3988.3
293.104	3596.11
297.201	3300.55
301.296	3516.22
305.389	4277.02
309.48	4378.86
313.569	4326.02
317.655	7032.63
321.74	8158.67
325.822	6204.98
329.902	5441.17
333.98	5297.76
338.056	6734.71
342.129	10732
346.201	11219.6
350.27	7994.13
354.337	4890.85
358.402	1718.17
362.465	194.689
366.526	150.694
370.585	299.718
374.642	898.107
378.696	887.682
382.748	1789.07
386.799	4290.07
390.847	6904.56
394.893	6462.49
398.936	3368.53
402.978	2014.99
407.018	1419.46
411.055	1526.96
415.091	2920.48
419.124	5782.01
423.155	8911.56
427.184	11041
431.211	9690.44
435.236	5639.72
439.259	3397.87
443.28	4152.89
447.298	4119.77
451.315	2037.53
455.329	1491.16
459.341	1166.67
463.352	685.066
467.36	873.347
471.366	1546.63
475.37	1924.27
479.372	4126.51
483.371	9725.5
487.369	11396.2
491.365	4810.75
495.358	1840.81
499.35	880.898
503.339	586.887
507.326	610.768
511.311	479.591
515.295	421.049
519.276	12.702
523.255	240.908
527.232	379.429
531.207	281.412
535.179	108.531
539.15	112.71
543.119	2.325
547.086	167.847
551.05	201.135
555.013	618.292
558.973	1700.46
562.932	2919.43
566.888	2976.2
570.842	4090.78
574.795	5149.14
578.745	4029.3
582.693	2580.24
586.639	1921.97
590.583	1728.48
594.525	1036.77
598.465	456.839
602.403	529.69
606.339	906.319
610.273	2154.73
614.205	4438.91
618.135	7704.87
622.063	8446.61
625.989	4410.01
629.912	1685.33
633.834	815.027
637.754	979.055
641.671	1614.99
645.587	2040.01
649.501	1499.33
653.412	1011.79
657.322	782.786
661.23	952.375
665.135	1274.56
669.039	2357.34
672.94	4972.72
676.84	7995.11
680.738	7073.76
684.633	4116.86
688.527	2613.22
692.418	2370.59
696.308	3025.28
700.195	4576.49
704.081	8184.08
707.964	15767.8
711.846	28282.2
715.726	31646.3
719.603	19650.1
723.479	9553.75
727.352	4938.12
731.224	2666.27
735.094	1651.19
738.961	1019.89
742.827	726.383
746.691	539.667
750.552	518.751
754.412	513.641
758.27	730.345
762.125	1038.87
765.979	1342.22
769.831	1230.4
773.681	653.418
777.529	339.285
781.375	49.992
785.219	133.777
789.06	261.661
792.901	296.12
796.739	316.304
800.575	268.29
804.409	120.95
808.241	197.39
812.071	948.589
815.899	1065.73
819.726	604.822
823.55	324.878
827.372	99.909
831.193	60.951
835.011	47.307
838.828	314.526
842.642	422.752
846.455	782.672
850.266	1192.01
854.075	1489.66
857.881	1725.47
861.686	1785.39
865.489	1945.42
869.29	1927.59
873.089	1896.53
876.886	1881.5
880.682	2015.3
884.475	2256.34
888.266	2821.66
892.056	3771.15
895.843	5533.84
899.629	7678.77
903.413	9685.91
907.194	9906.49
910.974	8250.85
914.752	5757.68
918.528	3951.74
922.302	3685.07
926.074	3619.64
929.844	4355.48
933.613	4526.78
937.379	4433.42
941.144	4937.63
944.906	6708.52
948.667	9688.53
952.426	13656.8
956.183	17230.1
959.938	24275.2
963.691	29847.3
967.442	24779.8
971.191	18502.8
974.939	17596.2
978.684	18810
982.428	16954.3
986.169	14029
989.909	13114.2
993.647	11549.7
997.383	10585.7
1001.12	10382
1004.85	9378.85
1008.58	7156.57
1012.31	4763.35
1016.03	3427.47
1019.76	2596.79
1023.48	2142.74
1027.2	1848.89
1030.92	1772.96
1034.64	1813.85
1038.36	2242.08
1042.07	2673.55
1045.78	2920.59
1049.49	3403.28
1053.2	4146.61
1056.9	4627.21
1060.61	4294.82
1064.31	3197.06
1068.01	2437.48
1071.71	2087.03
1075.41	2462.04
1079.1	3401.92
1082.79	3836.19
1086.48	2698.76
1090.17	1727.07
1093.86	1262.38
1097.55	1296.35
1101.23	1699.72
1104.91	1984.15
1108.59	1749.21
1112.27	1311.24
1115.95	908.812
1119.62	725.063
1123.3	561.663
1126.97	398.414
1130.63	282.729
1134.3	236.501
1137.97	151.209
1141.63	113.955
1145.29	58.486
1148.95	1.137
1152.61	2.256
1156.27	43.751
1159.92	35.094
1163.57	22.872
1167.22	79.805
1170.87	113.313
1174.52	76.353
1178.16	87.407
1181.81	56.415
1185.45	12.917
1189.09	33.178
1192.73	8.029
1196.36	2.925
1200	6.76
1203.63	53.23
1207.26	5.215
1210.89	9.736
1214.52	32.146
1218.14	9.617
1221.77	16.697
1225.39	30.683
1229.01	40.889
1232.62	20.034
1236.24	0.581
1239.86	31.772
1243.47	95.751
1247.08	69.76
1250.69	79.46
1254.3	65.698
1257.9	150.846
1261.5	68.287
1265.11	120.351
1268.71	89.038
1272.3	169.118
1275.9	172.702
1279.49	122.835
1283.09	154.585
1286.68	152.88
1290.27	135.944
1293.86	106.297
1297.44	86.408
1301.03	92.833
1304.61	57.329
1308.19	114.491
1311.77	93.909
1315.34	77.091
1318.92	56.62
1322.49	95.606
1326.06	70.989
1329.63	98.384
1333.2	105.748
1336.77	144.451
1340.33	131.648
1343.89	148.831
1347.46	207.947
1351.02	147.578
1354.57	179.491
1358.13	160.038
1361.68	150.99
1365.23	94.678
1368.79	112
1372.33	144.697
1375.88	150.973
1379.43	175.604
1382.97	172.026
1386.51	104.351
1390.05	93.975
1393.59	100.85
1397.13	87.6
1400.66	149.519
1404.19	153.238
1407.72	161
1411.25	141.556
1414.78	177.6
1418.31	135.04
1421.83	110.558
1425.36	151.484
1428.88	124.888
1432.39	96.395
1435.91	90.537
1439.43	57.231
1442.94	44.441
1446.45	65.646
1449.96	79.784
1453.47	63.592
1456.98	38.311
1460.48	64.241
1463.99	30.252
1467.49	51.589
1470.99	18.274
1474.49	29.172
1477.99	24.306
1481.48	1.171
1484.97	52.28
1488.46	56.159
1491.95	55.666
1495.44	36.205
1498.93	64.559
1502.41	65.901
1505.9	25.188
1509.38	28.679
1512.86	0
