Measurement: Raman, 514 nm, ccw, Raman Data Processed
Mineral: Axinite-(Fe)
Rruff sample: R050061
Ideal chemistry: Ca_4_Fe^2+^_2_Al_4_[B_2_Si_8_O_30_](OH)_2_
Locality: Jamestown, California, USA
Source: Rock Currier
Description: Brown colored axe-head-shaped single crystals
Measured chemistry: Ca_2.00_(Fe^2+^_0.73_Mg_0.20_Mn_0.07_)Al_2.00_BSi_4_O_15_(OH)
Pin_id: L00257
Orientation: Laser parallel to -b* (0 -1 0). Fiducial mark perpendicular to laser is parallel to -c [0 0 -1]
Raman shift (cm-1)	intensity
145.545	0
149.72	389.226
153.893	1377.47
158.064	2390.84
162.233	541.011
166.399	876.857
170.563	3237.81
174.725	2188.66
178.885	928.677
183.043	302.421
187.198	73.964
191.351	6.473
195.502	14.211
199.651	161.291
203.797	630.434
207.942	1679.65
212.084	2459.37
216.224	1878.38
220.362	1029.65
224.497	450.15
228.631	183.952
232.762	133.062
236.891	117.422
241.018	175.135
245.143	668.719
249.265	754.845
253.386	836.796
257.504	951.585
261.62	620.917
265.734	692.193
269.845	1168.35
273.955	1662.8
278.062	1256.3
282.167	605.844
286.27	460.45
290.371	752.11
294.47	1221.81
298.567	2125.56
302.661	3098.34
306.753	4452.55
310.843	3264.12
314.931	1201.03
319.017	948.422
323.101	675.231
327.182	191.996
331.261	143.978
335.339	78.495
339.414	188.941
343.487	683.065
347.557	1642.58
351.626	3635.99
355.693	3681.05
359.757	1218.99
363.819	264.539
367.879	114.664
371.937	107.483
375.993	89.135
380.047	68.86
384.099	515.375
388.148	1875.26
392.196	2737.77
396.241	2594.19
400.284	1497.34
404.325	862.166
408.364	263.65
412.401	306.294
416.435	972.917
420.468	1988.52
424.498	2253.06
428.527	2408.53
432.553	2090.99
436.577	1099.42
440.599	774.842
444.619	1754.26
448.637	1566.68
452.653	489.082
456.667	228.478
460.678	81.862
464.688	8.771
468.695	313.556
472.701	698.833
476.704	373.593
480.705	627.08
484.704	2029.08
488.701	1842.58
492.696	310.548
496.689	124.491
500.68	87.859
504.668	78.698
508.655	174.554
512.639	274.343
516.622	298.441
520.602	357.812
524.581	178.362
528.557	0.012
532.531	80.41
536.503	73.468
540.473	31.929
544.441	113.704
548.407	102.383
552.371	10.022
556.333	222.712
560.293	595.664
564.251	854.789
568.206	649.887
572.16	1012.94
576.112	1431.93
580.061	1244.88
584.009	1304.78
587.954	2190.62
591.897	2878.42
595.839	1694.16
599.778	709.851
603.716	441.489
607.651	669.073
611.584	1212.6
615.515	1334.08
619.444	1078.21
623.372	748.5
627.297	362.538
631.22	154.901
635.141	80.336
639.06	24.677
642.977	157.39
646.892	304.167
650.805	226.307
654.716	85.088
658.625	1.244
662.532	37.611
666.437	400.406
670.34	960.132
674.241	2246.33
678.139	3420.71
682.036	2516.91
685.931	1378.5
689.824	939.948
693.715	775.869
697.604	884.613
701.491	1488.26
705.376	3069.23
709.259	6555.79
713.139	11691.5
717.018	11207.4
720.895	5847.24
724.77	3151.03
728.643	1808.77
732.514	1134.46
736.383	566.091
740.25	361.674
744.115	291.208
747.978	316.695
751.839	272.136
755.698	224.532
759.555	315.886
763.41	600.2
767.263	835.473
771.114	841.709
774.964	521.91
778.811	242.085
782.656	122.238
786.499	89.359
790.341	111.763
794.18	91.959
798.017	88.188
801.853	77.561
805.686	10.147
809.518	72.81
813.347	88.254
817.175	27.49
821.001	32.997
824.824	99.628
828.646	26.539
832.466	1.288
836.284	20.905
840.1	21.339
843.914	20.24
847.726	62.262
851.536	254.884
855.344	320.62
859.15	353.387
862.954	417.17
866.756	413.009
870.557	428.894
874.355	653.835
878.152	697.825
881.946	686.875
885.739	827.992
889.53	1180.15
893.318	1887.34
897.105	3045.59
900.89	4162.9
904.673	4880.3
908.454	4373.76
912.234	3041.28
916.011	2099.85
919.786	1442.46
923.56	1009.12
927.331	887.839
931.101	736.62
934.868	613.456
938.634	704.275
942.398	862.044
946.16	1009.89
949.92	1237.18
953.678	1628.3
957.435	2479.63
961.189	4476.06
964.941	6137.63
968.692	5432.27
972.441	4773.14
976.187	5749.62
979.932	7005.44
983.675	6364.12
987.416	5804.56
991.155	5864.89
994.893	6168.37
998.628	6374.72
1002.36	5981.16
1006.09	4908.78
1009.82	3484.47
1013.55	2462.24
1017.28	1718.19
1021	1291.24
1024.72	788.243
1028.44	800.022
1032.16	701.753
1035.88	850.836
1039.59	976.927
1043.31	1015.43
1047.02	1061.07
1050.73	1192.77
1054.43	1518.27
1058.14	1477.09
1061.84	1283.97
1065.54	982.998
1069.24	710.001
1072.94	672.136
1076.64	584.521
1080.33	923.522
1084.03	1133.8
1087.71	799.126
1091.4	717.21
1095.09	513.886
1098.78	423.896
1102.46	372.767
1106.14	330.852
1109.82	212.387
1113.5	163.458
1117.17	182.862
1120.85	365.959
1124.52	189.991
1128.19	38.465
1131.86	50.327
1135.52	7.918
1139.19	9.048
1142.85	88.186
1146.51	97.448
1150.17	98.385
1153.83	35.377
1157.48	62.935
1161.14	73.203
1164.79	18.572
1168.44	0.267
1172.09	33.957
1175.73	12.201
1179.38	12.528
1183.02	6.241
1186.66	9.455
1190.3	35.97
1193.94	16.378
1197.58	38.859
1201.21	96.853
1204.84	128.098
1208.47	87.776
1212.1	63.811
1215.72	7.256
1219.35	23.285
1222.97	15.142
1226.59	76.071
1230.21	94.7
1233.83	196.896
1237.45	39.964
1241.06	142.945
1244.67	50.85
1248.28	35.712
1251.89	9.562
1255.5	61.136
1259.1	66.646
1262.7	131.921
1266.31	189.787
1269.9	189.075
1273.5	55.198
1277.1	61.084
1280.69	47.546
1284.29	58.527
1287.88	116.92
1291.46	126.63
1295.05	115.124
1298.64	96.644
1302.22	145.654
1305.8	112.493
1309.38	55.309
1312.96	94.638
1316.54	29.609
1320.11	83.388
1323.68	114.733
1327.25	160.111
1330.82	116.608
1334.39	111.392
1337.96	28.28
1341.52	68.497
1345.08	25.421
1348.64	24.783
1352.2	48.772
1355.76	65.018
1359.31	193.503
1362.87	141.019
1366.42	167.063
1369.97	122.778
1373.52	101.474
1377.06	113.388
1380.61	145.566
1384.15	106.843
1387.69	90.371
1391.23	87.001
1394.77	155.559
1398.3	133.403
1401.84	132.235
1405.37	118.43
1408.9	122.027
1412.43	62.31
1415.96	70.935
1419.48	50.62
1423.01	4.768
1426.53	92.167
1430.05	75.95
1433.57	142.56
1437.08	143.313
1440.6	145.241
1444.11	0
