Measurement: Raman, 514 nm, depolarized, Raman Data Processed
Mineral: Axinite-(Fe)
Rruff sample: R060183
Ideal chemistry: Ca_4_Fe^2+^_2_Al_4_[B_2_Si_8_O_30_](OH)_2_
Locality: Skagit Bluffs, near Manning Park, British Columbia, Canada
Source: Lloyd Twaites
Description: Light-pink transparent axe-head-shaped single crystal
Measured chemistry: Ca_2.00_(Fe^2+^_0.58_Mn_0.23_Mg_0.19_)Al_2.00_B_1.00_Si_4.00_O_15_(OH)
Pin_id: L00943
Orientation: Laser parallel to c* (0 0 1). Fiducial mark perpendicular to laser is parallel to a [1 0 0]
Raman shift (cm-1)	intensity
52.671	0
57.626	162.997
62.579	238.758
67.529	39.4977
72.477	15.8011
77.423	55.578
82.367	183.937
87.308	922.308
92.246	2449.22
97.182	5531.87
102.116	10259.1
107.047	17349.1
111.976	17693.9
116.903	8829.43
121.827	4918.14
126.749	3684.34
131.668	3613.63
136.585	5613.64
141.5	8401.59
146.412	8618.4
151.321	11097.9
156.229	6840.66
161.134	4769.06
166.036	7167.23
170.936	12734.1
175.834	10030.4
180.729	4703.21
185.622	2610.23
190.512	4025.68
195.4	6664.04
200.286	6420.72
205.169	10591.8
210.049	13130.7
214.928	10895.2
219.803	7912.98
224.677	3041.32
229.548	413.64
234.416	339.269
239.282	1482.33
244.146	2991.49
249.007	4116.95
253.866	6835.1
258.722	8293.67
263.576	8439.06
268.427	13073
273.276	18125.2
278.123	17103.4
282.967	11762.4
287.809	9586.17
292.648	9186.55
297.485	9676.46
302.319	11887.8
307.151	14766.5
311.98	11164.4
316.807	12022.5
321.631	12849.9
326.454	8714.85
331.273	7586.54
336.09	9142.91
340.905	15290.8
345.717	17279.3
350.527	12718.8
355.334	6576.73
360.139	1124.04
364.941	575.392
369.741	536.302
374.538	15.1773
379.333	1088.22
384.126	5197.02
388.916	11553.8
393.703	10360.4
398.488	4855.39
403.271	2312.3
408.051	3163.42
412.828	8164.61
417.603	15777.2
422.376	13731.2
427.146	11533.6
431.914	8180.32
436.679	5112.2
441.442	6330.21
446.202	7208.24
450.96	2779.24
455.715	707.108
460.467	0.77832
465.218	343.865
469.965	1423.52
474.711	3114.76
479.454	8468.51
484.194	18942.7
488.932	11938.3
493.667	3726.11
498.4	2080.19
503.13	2809.39
507.858	3637.47
512.583	2981.18
517.306	1050.03
522.026	169.773
526.744	567.876
531.459	213.482
536.172	172.073
540.882	44.0889
545.59	166.648
550.295	42.5884
554.998	463.293
559.698	1640.94
564.396	2301.15
569.091	3517.68
573.784	5174.49
578.474	4218.53
583.162	3649.78
587.847	4573.2
592.529	3567.74
597.209	1531.38
601.887	900.999
606.562	1579.43
611.235	3993.22
615.905	6951.01
620.572	8186.78
625.237	4101.51
629.9	1366.19
634.56	1009.79
639.217	1865.31
643.872	2956.73
648.524	2151.13
653.174	929.672
657.821	524.703
662.466	739.572
667.108	1862.71
671.748	4496.91
676.385	8457.64
681.02	7556.41
685.652	3987.4
690.281	2744.13
694.908	3281.52
699.533	5801.28
704.155	12538.7
708.774	26664.2
713.391	45893.7
718.005	42117.4
722.617	22325.2
727.226	9995.22
731.833	4935.4
736.437	2686.8
741.039	1785.95
745.638	1321.54
750.234	1387.93
754.828	1864.66
759.419	2987.75
764.008	4600.24
768.595	5027.16
773.178	3617.57
777.759	1656.5
782.338	686.989
786.914	38.0815
791.488	159.878
796.059	376.918
800.627	478.051
805.193	75.7681
809.756	837.142
814.317	1664.31
818.875	904.034
823.431	9.87549
827.984	198.103
832.534	188.557
837.082	9.89062
841.627	512.293
846.17	1143.88
850.71	1621.71
855.248	1498.82
859.783	1296.43
864.316	1311.02
868.846	1463.19
873.373	1797.81
877.898	2162.91
882.42	2755.52
886.94	3843.7
891.457	6181.62
895.971	9690.34
900.483	12381.9
904.993	12157.4
909.5	10282.1
914.004	8020.98
918.505	6172.13
923.004	5273.25
927.501	5689.09
931.995	6082.08
936.486	6110.74
940.975	7561.72
945.461	11351.9
949.945	17701.5
954.426	23671.3
958.904	30610.3
963.38	38305.6
967.853	33778.4
972.324	27003.5
976.792	28506.9
981.258	29723.6
985.72	24292.6
990.181	19935
994.639	17988.6
999.094	17651.5
1003.55	19169
1008	17320
1012.44	10964.8
1016.89	6299.65
1021.33	3977.81
1025.77	3193.89
1030.21	2457.67
1034.64	1589.01
1039.07	1088.41
1043.5	1008.86
1047.93	1248.61
1052.35	1629.9
1056.78	2083.36
1061.19	2021.39
1065.61	1468.08
1070.02	1253.87
1074.43	1480.12
1078.84	2751.04
1083.25	4022.75
1087.65	3250.48
1092.05	2021.07
1096.45	1751.63
1100.85	2409.91
1105.24	3217.42
1109.63	2970.29
1114.02	2102.75
1118.4	1304.1
1122.78	847.307
1127.16	588.183
1131.54	351.085
1135.92	250.561
1140.29	147.29
1144.66	18.2202
1149.02	62.5347
1153.39	52.041
1157.75	5.19336
1162.11	104.739
1166.46	110.88
1170.82	140.268
1175.17	74.6831
1179.52	67.1728
1183.86	91.9033
1188.21	67.6162
1192.55	45.8501
1196.89	0.95752
1201.22	24.4922
1205.55	55.5737
1209.88	110.549
1214.21	108.039
1218.54	46.0137
1222.86	104.004
1227.18	92.1343
1231.5	140.279
1235.81	163.329
1240.12	123.402
1244.43	109.804
1248.74	148.872
1253.04	221.122
1257.34	238.601
1261.64	209.186
1265.94	249.844
1270.23	302.563
1274.52	300.195
1278.81	299.47
1283.1	346.611
1287.38	350.166
1291.66	300.081
1295.94	203.126
1300.21	221.861
1304.48	201.498
1308.75	179.524
1313.02	126.242
1317.29	181.623
1321.55	180.263
1325.81	108.468
1330.06	133.972
1334.32	151.503
1338.57	208.611
1342.82	207.972
1347.06	820.629
1351.31	251.55
1355.55	135.924
1359.79	260.799
1364.02	257.1
1368.26	182.724
1372.49	110.003
1376.71	176.336
1380.94	220.472
1385.16	197.198
1389.38	141.597
1393.6	129.08
1397.81	97.4204
1402.02	145.054
1406.23	110.068
1410.44	90.46
1414.64	116.231
1418.85	204.234
1423.04	172.282
1427.24	161.477
1431.43	134.046
1435.62	110.448
1439.81	78.436
1444	135.232
1448.18	65.6367
1452.36	17.5391
1456.54	67.4853
1460.71	762.266
1464.89	1294.64
1469.06	9.66895
1473.22	69.2602
1477.39	891.941
1481.55	162.435
1485.71	36.4824
1489.86	83.1611
1494.02	106.963
1498.17	32.5181
1502.32	89.3179
1506.46	19.6304
1510.61	25.0889
1514.75	39.9209
1518.88	112.103
1523.02	100.573
1527.15	103.318
1531.28	115.638
1535.41	150.131
1539.53	173.002
1543.66	39.0737
1547.78	94.6216
1551.89	152.438
1556.01	201.519
1560.12	10.4077
1564.23	41.4175
1568.33	101.148
