Measurement: Raman, 514 nm, depolarized, Raman Data Processed
Mineral: Axinite-(Fe)
Rruff sample: R050061
Ideal chemistry: Ca_4_Fe^2+^_2_Al_4_[B_2_Si_8_O_30_](OH)_2_
Locality: Jamestown, California, USA
Source: Rock Currier
Description: Brown colored axe-head-shaped single crystals
Measured chemistry: Ca_2.00_(Fe^2+^_0.73_Mg_0.20_Mn_0.07_)Al_2.00_BSi_4_O_15_(OH)
Pin_id: L00257
Orientation: Laser parallel to -b* (0 -1 0). Fiducial mark perpendicular to laser is parallel to -c [0 0 -1]
Raman shift (cm-1)	intensity
133.006	0
137.188	380.248
141.368	800.357
145.545	127.942
149.72	702.024
153.893	1347.84
158.064	1532.87
162.233	670.041
166.399	1230.58
170.563	3358.03
174.725	2543.43
178.885	1058.87
183.043	425.301
187.198	106.93
191.351	149.406
195.502	539.56
199.651	360.737
203.797	994.916
207.942	2240.95
212.084	2365.86
216.224	1532.75
220.362	602.129
224.497	211.236
228.631	53.811
232.762	151.351
236.891	129.537
241.018	316.941
245.143	1022.88
249.265	997.111
253.386	1056.71
257.504	1305.8
261.62	985.773
265.734	1174.67
269.845	2329.27
273.955	3780.53
278.062	3415.76
282.167	2053.97
286.27	1605.13
290.371	1469.25
294.47	1472.32
298.567	2077.86
302.661	2968.7
306.753	4358.02
310.843	3188.84
314.931	1264.71
319.017	944.419
323.101	744.107
327.182	695.627
331.261	1106.46
335.339	547.549
339.414	434.261
343.487	901.537
347.557	1899.83
351.626	3674.74
355.693	3697.06
359.757	1203.52
363.819	487.149
367.879	134.032
371.937	133.929
375.993	189.87
380.047	116.638
384.099	566.654
388.148	1793.36
392.196	2726.68
396.241	2147.68
400.284	1163.85
404.325	755.645
408.364	390.892
412.401	577.03
416.435	2510.97
420.468	4457.66
424.498	2474.2
428.527	2520.66
432.553	2376.04
436.577	1448.38
440.599	709.662
444.619	1275.89
448.637	1231.06
452.653	354.171
456.667	178.22
460.678	4.155
464.688	122.226
468.695	97.791
472.701	324.643
476.704	314.488
480.705	729.399
484.704	2544.25
488.701	2619.3
492.696	564.349
496.689	62.646
500.68	65.051
504.668	57.789
508.655	162.118
512.639	155.997
516.622	228.945
520.602	207.914
524.581	107.914
528.557	34.538
532.531	0.159
536.503	102.731
540.473	126.121
544.441	72.832
548.407	54.125
552.371	44.523
556.333	141.126
560.293	572.227
564.251	798.485
568.206	957.15
572.16	1495.75
576.112	2062.75
580.061	1540.66
584.009	1258.48
587.954	1881.21
591.897	2531.86
595.839	1509.42
599.778	638.889
603.716	224.275
607.651	425.575
611.584	786.789
615.515	970.931
619.444	1046.95
623.372	849.762
627.297	349.765
631.22	83.375
635.141	6.029
639.06	4.433
642.977	105.848
646.892	274.776
650.805	301.609
654.716	146.899
658.625	25.303
662.532	10.245
666.437	234.282
670.34	744.667
674.241	1762.92
678.139	2769.49
682.036	2036.98
685.931	1085.67
689.824	779.042
693.715	691.154
697.604	884.942
701.491	1467.03
705.376	3008.33
709.259	6640.4
713.139	12174
717.018	11848.1
720.895	6152.24
724.77	3208.28
728.643	1838.26
732.514	1136.19
736.383	655.066
740.25	354.894
744.115	249.676
747.978	243.416
751.839	286.116
755.698	242.779
759.555	247.408
763.41	530.006
767.263	932.574
771.114	900.123
774.964	504.667
778.811	176.268
782.656	97.996
786.499	42.514
790.341	53.095
794.18	53.132
798.017	116.032
801.853	77.2
805.686	23.656
809.518	202.751
813.347	393.444
817.175	277.35
821.001	54.898
824.824	18.211
828.646	15.573
832.466	23.921
836.284	61.252
840.1	2.508
843.914	37.705
847.726	153.952
851.536	273.247
855.344	369.617
859.15	405.078
862.954	346.6
866.756	292.217
870.557	398.921
874.355	554.731
878.152	681.678
881.946	631.702
885.739	761.804
889.53	1199.98
893.318	2034.26
897.105	3234.72
900.89	4100.29
904.673	4360
908.454	4079.8
912.234	3214.68
916.011	2174.64
919.786	1655.69
923.56	1290.81
927.331	1260.01
931.101	1294.29
934.868	1074.63
938.634	958.916
942.398	1084.57
946.16	1281.45
949.92	1689.4
953.678	2000.16
957.435	2594.9
961.189	3967.12
964.941	5429.49
968.692	4715.03
972.441	4054.4
976.187	4792.06
979.932	5863.44
983.675	5342.22
987.416	5071.59
991.155	5512.08
994.893	5807.74
998.628	5694.74
1002.36	5391.62
1006.09	4634.54
1009.82	3340.5
1013.55	2291.39
1017.28	1652.49
1021	1172.96
1024.72	877.295
1028.44	723.75
1032.16	528.203
1035.88	721.129
1039.59	927.525
1043.31	900.288
1047.02	891.698
1050.73	995.086
1054.43	1167.71
1058.14	1196.78
1061.84	1105.42
1065.54	804.45
1069.24	576.933
1072.94	615.686
1076.64	572.336
1080.33	826.042
1084.03	1044.81
1087.71	904.67
1091.4	635.27
1095.09	565.555
1098.78	616.199
1102.46	578.666
1106.14	601.167
1109.82	376.236
1113.5	361.659
1117.17	309.315
1120.85	316.278
1124.52	204.869
1128.19	74.659
1131.86	13.536
1135.52	33.68
1139.19	13.596
1142.85	88.153
1146.51	77.156
1150.17	105.149
1153.83	16.235
1157.48	28.793
1161.14	39.9
1164.79	61.985
1168.44	35.317
1172.09	47.093
1175.73	75.901
1179.38	90.449
1183.02	55.16
1186.66	48.414
1190.3	129.978
1193.94	12.47
1197.58	36.924
1201.21	65.656
1204.84	144.475
1208.47	81.996
1212.1	80.015
1215.72	13.685
1219.35	41.363
1222.97	53.773
1226.59	126.374
1230.21	137.079
1233.83	182.875
1237.45	156.992
1241.06	88.875
1244.67	5.651
1248.28	62.272
1251.89	35.037
1255.5	27.839
1259.1	83.497
1262.7	188.641
1266.31	199.678
1269.9	225.736
1273.5	138.708
1277.1	46.211
1280.69	112.556
1284.29	53.847
1287.88	169.839
1291.46	164.073
1295.05	138.326
1298.64	138.483
1302.22	162.58
1305.8	142.572
1309.38	71.919
1312.96	71.929
1316.54	33.455
1320.11	29.78
1323.68	63.046
1327.25	74.769
1330.82	127.654
1334.39	108.233
1337.96	149.625
1341.52	76.865
1345.08	3.33
1348.64	49.381
1352.2	28.303
1355.76	61.583
1359.31	104.028
1362.87	172.771
1366.42	125.551
1369.97	78.059
1373.52	152.348
1377.06	68.951
1380.61	54.032
1384.15	86.774
1387.69	58.94
1391.23	51.884
1394.77	89.803
1398.3	112.231
1401.84	168.188
1405.37	177.395
1408.9	121.225
1412.43	80.869
1415.96	66.165
1419.48	95.857
1423.01	28.891
1426.53	98.418
1430.05	73.447
1433.57	175.78
1437.08	315.016
1440.6	315.801
1444.11	291.195
1447.62	368.976
1451.13	260.365
1454.64	223.94
1458.15	137.672
1461.65	196.777
1465.16	179.494
1468.66	175.328
1472.16	228.674
1475.65	231.638
1479.15	233.743
1482.64	236.179
1486.14	179.757
1489.63	182.91
1493.12	126.808
1496.61	28.476
1500.09	51.132
1503.58	1.902
1507.06	115.28
1510.54	0.112
