Measurement: Raman, 514 nm, depolarized, Raman Data Processed
Mineral: Axinite-(Fe)
Rruff sample: R060558
Ideal chemistry: Ca_4_Fe^2+^_2_Al_4_[B_2_Si_8_O_30_](OH)_2_
Locality: unknown
Source: Gemological Institute of America
Description: Brown flattened crystal
Measured chemistry: Ca_2.00_(Fe^2+^_0.60_Mg_0.35_Mn_0.05_)_Î£=1_Al_2.00_BSi_4.00_O_15_(OH) ; B not measured
Pin_id: M01035
Orientation: Laser parallel to c* (0 0 1). Fiducial mark perpendicular to laser is parallel to a [1 0 0]
Raman shift (cm-1)	intensity
129	0
133.933	12.8052
138.864	745.981
143.791	1773.99
148.716	1762.18
153.638	2232.65
158.558	2386.59
163.475	2834.87
168.389	4315.93
173.3	4660.55
178.209	2023.25
183.115	269.125
188.018	10.7437
192.918	693.722
197.816	1198.91
202.711	1954.36
207.604	3244.83
212.494	3601.5
217.381	2836.61
222.265	1489.23
227.147	412.445
232.026	159.028
236.902	180.133
241.775	320.285
246.646	1141.29
251.514	1963.31
256.38	2347.82
261.243	3003.8
266.103	4611.76
270.96	6201.29
275.815	5452.47
280.667	3561.29
285.516	2538.2
290.363	2848.63
295.207	4600.67
300.048	6606.89
304.887	7169.88
309.723	5745.23
314.556	3519.2
319.387	2421.04
324.215	1717.16
329.04	1249.63
333.862	1044.13
338.682	1360.41
343.5	2794.19
348.314	4713.45
353.126	5726.47
357.935	3775.24
362.742	1128.42
367.546	66.9575
372.347	18.8332
377.145	135.917
381.941	725.019
386.735	2468.49
391.525	4481.71
396.313	3516.36
401.098	1694.16
405.881	1158.14
410.661	1843.3
415.438	4344.62
420.213	5746.11
424.985	4962.92
429.754	5879.01
434.521	4585.31
439.285	2361.77
444.046	1888.38
448.805	1269.1
453.561	245.92
458.315	111.318
463.065	163.754
467.813	48.8865
472.559	337.163
477.302	894.265
482.042	2423.46
486.78	3674.69
491.515	1487.09
496.247	209.92
500.977	320.945
505.704	513.138
510.428	898.273
515.15	800.378
519.869	337.879
524.586	145.196
529.3	61.0212
534.011	237.519
538.719	514.852
543.425	891.018
548.129	999.018
552.83	880.142
557.528	1210.41
562.223	1897.59
566.916	1897.56
571.607	2449.31
576.294	2923.82
580.979	2938.1
585.662	3651.12
590.341	4614.89
595.019	3058.38
599.693	1331.96
604.365	918.191
609.035	1096.89
613.701	1402.64
618.366	1355.03
623.027	1007.23
627.686	251.229
632.342	89.073
636.996	36.4016
641.647	262.578
646.296	368.338
650.942	60.8899
655.585	80.0852
660.226	34.0095
664.864	448.878
669.499	1527.34
674.132	3615.25
678.763	4204.62
683.39	2254.71
688.015	1109.99
692.638	997.795
697.258	1557.85
701.875	3229.87
706.49	8097.55
711.102	16218.9
715.712	19497
720.319	11183.8
724.923	4813.39
729.525	2300.69
734.124	1143.74
738.721	643.712
743.315	368.217
747.907	354.331
752.496	459.511
757.082	815.49
761.666	1456.28
766.247	2151.88
770.826	1988.33
775.402	1120.34
779.975	518.287
784.546	208.361
789.115	12.2319
793.681	92.937
798.244	155.425
802.804	3.06934
807.363	360.368
811.918	673.759
816.471	527.189
821.022	3.32715
825.569	133.875
830.115	139.047
834.657	34.2451
839.198	4.55469
843.735	85.9795
848.27	268.545
852.803	323.265
857.333	258.152
861.86	260.224
866.385	374.494
870.907	246.982
875.427	513.703
879.944	558.418
884.459	842.981
888.971	1356.61
893.481	2630.48
897.988	3844.62
902.492	4697.15
906.994	4865.21
911.493	3981.91
915.99	2515.49
920.485	1509.36
924.976	1239.71
929.466	1397.76
933.952	1398.16
938.436	1230.77
942.918	1136.74
947.397	1624.18
951.874	2575.08
956.348	3693.27
960.819	5703.61
965.288	7580.6
969.755	6833.99
974.219	7185.21
978.68	9457.98
983.139	9460.22
987.595	7580.97
992.049	7234.36
996.501	7564.72
1000.95	8398.18
1005.4	8388.58
1009.84	5975.04
1014.28	3306.66
1018.72	1914.04
1023.16	1247.07
1027.59	1117.91
1032.02	1048.68
1036.45	861.578
1040.88	1074.92
1045.3	1087
1049.72	1047.12
1054.14	1373.66
1058.56	1535.3
1062.97	1440.69
1067.38	1029.25
1071.79	624.874
1076.19	883.463
1080.6	1438.24
1085	1994.08
1089.4	1491.49
1093.79	868.048
1098.19	758.375
1102.58	899.258
1106.97	979.806
1111.35	806.43
1115.74	496.396
1120.12	248.528
1124.5	121.567
1128.87	88.3623
1133.25	47.5571
1137.62	5.39453
1141.99	77.2783
1146.35	8.42334
1150.72	21.1738
1155.08	13.4785
1159.44	13.1973
1163.79	35.5073
1168.15	12.6597
1172.5	26.3042
1176.85	18.9526
1181.19	2.11328
1185.54	56.1128
1189.88	29.8193
1194.22	16.2578
1198.55	47.2446
1202.89	17.9561
1207.22	125.193
1211.55	13.1191
1215.88	8.17236
1220.2	28.7837
1224.52	64.2969
1228.84	95.0449
1233.16	55.3389
1237.47	102.251
1241.78	64.8335
1246.09	168.985
1250.4	66.7246
1254.7	89.0229
1259.01	95.8311
1263.31	84.4292
1267.6	144.694
1271.9	152.599
1276.19	84.001
1280.48	49.7349
1284.77	196.009
1289.05	165.497
1293.33	187.211
1297.61	147.265
1301.89	199.101
1306.16	137.633
1310.44	106.326
1314.71	105.596
1318.97	165.021
1323.24	101.049
1327.5	121.877
1331.76	157.264
1336.02	118.683
1340.28	67.8408
1344.53	76.5708
1348.78	40.2441
1353.03	119.775
1357.27	105.243
1361.52	139.751
1365.76	80.2612
1370	119.43
1374.23	124.18
1378.47	55.5806
1382.7	182.974
1386.93	44.4785
1391.15	76.6689
1395.38	90.6846
1399.6	98.4595
1403.82	65.1011
1408.03	165.634
1412.25	114.934
1416.46	85.8179
1420.67	154.467
1424.88	132.075
1429.08	82.5854
1433.28	185.59
1437.48	137.468
1441.68	80.5415
1445.87	86.5303
1450.07	67.0903
1454.26	123.299
1458.44	7.63525
1462.63	63.0747
1466.81	98.6924
1470.99	115.209
1475.17	33.7378
1479.34	55.0649
1483.52	17.4292
1487.69	62.7705
1491.86	45.5547
1496.02	5.22705
1500.19	36.2114
1504.35	37.6304
1508.51	37.7905
1512.66	32.8066
1516.82	37.0845
1520.97	124.435
1525.12	152.761
1529.26	7.89356
1533.41	127.609
1537.55	78.6728
1541.69	21.5645
1545.83	26.2007
1549.96	49.7769
1554.09	26.5703
1558.22	150.677
1562.35	36.9468
