Measurement: Raman, 514 nm, ccw, Raman Data Processed
Mineral: Axinite-(Fe)
Rruff sample: R050061
Ideal chemistry: Ca_4_Fe^2+^_2_Al_4_[B_2_Si_8_O_30_](OH)_2_
Locality: Jamestown, California, USA
Source: Rock Currier
Description: Brown colored axe-head-shaped single crystals
Measured chemistry: Ca_2.00_(Fe^2+^_0.73_Mg_0.20_Mn_0.07_)Al_2.00_BSi_4_O_15_(OH)
Pin_id: L00256
Orientation: Laser parallel to (1 0 1). Fiducial mark perpendicular to laser is parallel to b [0 1 0]
Raman shift (cm-1)	intensity
89.663	0
93.868	41.997
98.07	315.017
102.271	1244.21
106.469	7902.06
110.665	16668.9
114.859	9731.79
119.05	4683.41
123.24	3544.36
127.427	2644.26
131.612	2707.07
135.794	6057.83
139.975	10539.1
144.153	8724.14
148.329	6421.5
152.503	4903.92
156.674	3243.79
160.843	3482.94
165.011	6304.29
169.175	10829.8
173.338	9767.38
177.499	4696.56
181.657	1063.76
185.813	347.944
189.967	595.758
194.119	89.92
198.268	854.497
202.415	2926.68
206.561	6950.71
210.703	10148.6
214.844	9537.65
218.983	6577.9
223.119	3106.46
227.253	1136.71
231.385	284.665
235.515	244.164
239.643	508.031
243.768	606.921
247.891	1626.86
252.012	5031.14
256.131	9117.87
260.248	8664.47
264.363	10417.1
268.475	17052.3
272.585	25038.6
276.693	27815.5
280.799	21772.6
284.903	16159.2
289.005	13685.7
293.104	14422
297.201	14298
301.296	11364
305.389	8232.55
309.48	6739.2
313.569	9083.79
317.655	15037.6
321.74	15484.3
325.822	10694
329.902	9104.06
333.98	8042.2
338.056	9303.47
342.129	15210.7
346.201	16651.8
350.27	10477.2
354.337	5895.68
358.402	2705.3
362.465	1064.07
366.526	270.955
370.585	92.877
374.642	54.739
378.696	247.54
382.748	1056.3
386.799	3005.03
390.847	3504.79
394.893	1986.57
398.936	1162.23
402.978	1293.91
407.018	1812.59
411.055	3309.27
415.091	7956.93
419.124	13488.6
423.155	13770.2
427.184	15291.8
431.211	15193.3
435.236	10874.7
439.259	7475.88
443.28	10801
447.298	11587
451.315	5092.28
455.329	1989.1
459.341	881.366
463.352	249.434
467.36	179.886
471.366	236.432
475.37	287.555
479.372	162.266
483.371	556.441
487.369	912.498
491.365	200.778
495.358	126.225
499.35	30.264
503.339	477.099
507.326	1934.28
511.311	4169.41
515.295	4513.58
519.276	2672
523.255	1107.71
527.232	444.349
531.207	348.422
535.179	601.48
539.15	678.056
543.119	1066.89
547.086	1334.52
551.05	1046.94
555.013	1112.14
558.973	2608.14
562.932	3424.91
566.888	1806.47
570.842	935.814
574.795	906.933
578.745	820.826
582.693	1029.49
586.639	2025.93
590.583	2577.14
594.525	1525.12
598.465	379.875
602.403	60.65
606.339	135.079
610.273	216.373
614.205	846.482
618.135	1783.37
622.063	1882.9
625.989	973.101
629.912	710.029
633.834	1107.6
637.754	2445.56
641.671	4856.38
645.587	6080.58
649.501	4430.44
653.412	2409.75
657.322	1262.31
661.23	928.522
665.135	1060.38
669.039	1797.09
672.94	4237.76
676.84	6790.77
680.738	5840.91
684.633	3318.7
688.527	2094.56
692.418	1979.33
696.308	2828.94
700.195	4713.38
704.081	8972.65
707.964	18627.8
711.846	34992.7
715.726	40077.5
719.603	26082.1
723.479	13236.6
727.352	7100.94
731.224	4047.16
735.094	2594.24
738.961	1691.2
742.827	1181.05
746.691	848.778
750.552	603.403
754.412	519.928
758.27	548.769
762.125	711.184
765.979	995.819
769.831	1031.07
773.681	727.293
777.529	357.484
781.375	131.891
785.219	72.09
789.06	164.809
792.901	236.152
796.739	164.57
800.575	89.944
804.409	73.108
808.241	440.335
812.071	1125
815.899	850.786
819.726	309.602
823.55	6.553
827.372	74.858
831.193	75.692
835.011	11.99
838.828	204.63
842.642	448.316
846.455	873.086
850.266	1434.95
854.075	1781.93
857.881	1945.99
861.686	2029.19
865.489	2235.53
869.29	2349.06
873.089	2526.76
876.886	2748.64
880.682	2991.74
884.475	2949.02
888.266	3126.48
892.056	3723.12
895.843	4567.97
899.629	5089
903.413	4608.19
907.194	3882.58
910.974	3204.22
914.752	2515.51
918.528	2169.35
922.302	2321.4
926.074	3217.63
929.844	4345.07
933.613	4280.68
937.379	3569.02
941.144	3464.2
944.906	4163.78
948.667	5650.17
952.426	7830.98
956.183	10302.1
959.938	14900.1
963.691	19188.4
967.442	17166.8
971.191	16405.5
974.939	20933.7
978.684	25818.1
982.428	22413
986.169	15515.1
989.909	12234.9
993.647	11226
997.383	10767.6
1001.12	10071.5
1004.85	8152.31
1008.58	5694.24
1012.31	3694.69
1016.03	2506.28
1019.76	1734
1023.48	1464.92
1027.2	1236.51
1030.92	967.468
1034.64	854.889
1038.36	1022.85
1042.07	1138.32
1045.78	1037.1
1049.49	955.093
1053.2	1004.67
1056.9	1014.49
1060.61	898.116
1064.31	629.286
1068.01	732.727
1071.71	956.81
1075.41	1540.91
1079.1	2825.58
1082.79	3624.74
1086.48	2691.67
1090.17	1690.51
1093.86	998.809
1097.55	790.902
1101.23	792.49
1104.91	853.486
1108.59	699.305
1112.27	522.237
1115.95	334.293
1119.62	229.367
1123.3	130.558
1126.97	153.826
1130.63	65.22
1134.3	69.811
1137.97	13.571
1141.63	39.726
1145.29	52.282
1148.95	12.456
1152.61	6.709
1156.27	16.128
1159.92	78.415
1163.57	52.222
1167.22	25.301
1170.87	51.577
1174.52	32.109
1178.16	13.894
1181.81	39.314
1185.45	32.791
1189.09	16.411
1192.73	9.857
1196.36	25.528
1200	31.2
1203.63	18.926
1207.26	7.396
1210.89	0.948
1214.52	35.861
1218.14	28.545
1221.77	18.981
1225.39	37.168
1229.01	9.859
1232.62	23.819
1236.24	16.286
1239.86	96.524
1243.47	68.649
1247.08	62.646
1250.69	79.301
1254.3	73.607
1257.9	97.774
1261.5	64.927
1265.11	32.554
1268.71	123.651
1272.3	143.172
1275.9	146.259
1279.49	119.984
1283.09	120.575
1286.68	83.458
1290.27	53.423
1293.86	48.106
1297.44	84.363
1301.03	7.918
1304.61	0.393
1308.19	34.877
1311.77	47.021
1315.34	47.042
1318.92	98.039
1322.49	28.123
1326.06	74.032
1329.63	104.091
1333.2	86.523
1336.77	97.892
1340.33	137.764
1343.89	121.387
1347.46	143.622
1351.02	113.106
1354.57	171.687
1358.13	146.507
1361.68	167.432
1365.23	160.789
1368.79	130.226
1372.33	159.466
1375.88	147.161
1379.43	145.968
1382.97	130.887
1386.51	98.676
1390.05	109.436
1393.59	136.304
1397.13	123.429
1400.66	88.615
1404.19	151.471
1407.72	117.847
1411.25	178.306
1414.78	127.936
1418.31	133.125
1421.83	95.552
1425.36	88.52
1428.88	129.508
1432.39	82.001
1435.91	32.121
1439.43	79.273
1442.94	51.162
1446.45	72.811
1449.96	69.606
1453.47	82.222
1456.98	42.585
1460.48	41.332
1463.99	48.059
1467.49	29.286
1470.99	58.785
1474.49	94.282
1477.99	22.048
1481.48	46.193
1484.97	52.155
1488.46	21.317
1491.95	30.144
1495.44	69.979
1498.93	56.813
1502.41	72.438
1505.9	29.109
1509.38	0.841
1512.86	0
