Measurement: Raman, 514 nm, depolarized, Raman Data Processed
Mineral: Axinite-(Fe)
Rruff sample: R040074
Ideal chemistry: Ca_4_Fe^2+^_2_Al_4_[B_2_Si_8_O_30_](OH)_2_
Locality: Luning, Nevada, USA
Source: University of Arizona Mineral Museum
Description: Pale brown wedge-shaped crystal
Measured chemistry: (Ca_0.98_Mn_0.01_)_2_(Fe_0.41_Mg_0.39_Mn_0.20_)Al_1.95_B_1.20_Si_3.90_O_15_(OH)
Pin_id: L00178
Orientation: Laser parallel to (0 -1 -1). Fiducial mark perpendicular to laser is parallel to -a [-1 0 0]
Raman shift (cm-1)	intensity
88.608	0
92.793	23.238
96.976	439.231
101.157	1529.9
105.336	5330.36
109.513	13570.8
113.688	4649.88
117.861	1897.6
122.032	1528.68
126.201	265.782
130.367	221.908
134.532	706.014
138.695	2424.61
142.856	3905.6
147.014	3519.56
151.171	3046.45
155.325	2465.86
159.478	2029.21
163.629	2122.87
167.777	3522.55
171.924	4514.2
176.068	2986.09
180.211	778.504
184.351	69.925
188.49	786.543
192.626	2582.52
196.761	2112.65
200.893	2617.83
205.024	4254.13
209.152	4991.03
213.279	4758.4
217.403	3696.21
221.526	1844.48
225.646	1913.22
229.765	190.235
233.881	371.323
237.996	67.441
242.108	379.663
246.219	1629.74
250.328	2379.54
254.434	3032.34
258.539	3242.08
262.641	4758.92
266.742	7259.6
270.84	8793.04
274.937	7868.57
279.032	5285.74
283.125	3384.23
287.215	3053.83
291.304	4454.34
295.391	6640.17
299.476	8305.51
303.558	8541.57
307.639	7655.59
311.718	5657.85
315.795	5681.67
319.87	5935.82
323.943	3930.17
328.014	2543.3
332.083	2096.26
336.15	2419.46
340.215	4792.98
344.279	7386.92
348.34	7001.16
352.399	7515.58
356.457	4410.17
360.512	1487.11
364.565	413.84
368.617	92.714
372.666	20.101
376.714	89.349
380.76	614.72
384.803	2119.04
388.845	4823.29
392.885	4392.42
396.923	2208.81
400.959	1340.92
404.993	1274.42
409.025	2227.82
413.055	6151.12
417.084	10214.4
421.11	7057.75
425.134	6901.26
429.157	8214.8
433.177	6228.32
437.196	3261.79
441.213	3115.18
445.227	3318.46
449.24	1361.61
453.251	204.61
457.26	166.685
461.267	376.155
465.272	221.556
469.276	42.753
473.277	451.222
477.276	1400.39
481.274	4037.38
485.27	6184.29
489.263	2591.35
493.255	758.483
497.245	437.585
501.233	680.307
505.219	1165.35
509.203	1661.48
513.186	1157.35
517.166	543.215
521.145	19.047
525.121	65.67
529.096	131.293
533.069	486.729
537.04	924.88
541.009	1447.75
544.976	1880.3
548.941	1662.52
552.905	1214.43
556.866	1906.39
560.826	2348.45
564.784	1950.21
568.74	2411.65
572.694	3132.75
576.646	3163.52
580.596	3003.95
584.544	4394.04
588.491	5453.78
592.435	3513.18
596.378	1792.22
600.319	920.901
604.258	739.234
608.195	937.211
612.131	964.832
616.064	1082.3
619.995	1042.2
623.925	514.477
627.853	129.478
631.779	145.177
635.703	134.478
639.625	893.104
643.546	1237.88
647.464	753.926
651.381	231.601
655.296	24.913
659.209	67.63
663.12	399.727
667.029	794.435
670.937	2032.16
674.842	4305.03
678.746	3683.52
682.648	2019.73
686.548	1012.1
690.447	859.602
694.343	1179.64
698.238	2049.43
702.13	3808.98
706.021	8268.28
709.91	17667.4
713.798	24906.2
717.683	17004.8
721.567	8583.22
725.448	4261.39
729.328	2379.35
733.206	1257.11
737.083	834.678
740.957	682.054
744.83	379.247
748.701	436.267
752.57	563.117
756.437	799.808
760.302	1646.35
764.166	2732.73
768.027	3188.99
771.887	2155.3
775.745	1282.12
779.602	699.712
783.456	396.789
787.309	16.064
791.16	206.593
795.009	209.296
798.856	122.991
802.702	47.559
806.545	347.19
810.387	836.135
814.227	786.528
818.065	415.168
821.902	79.948
825.737	135.521
829.569	141.646
833.401	58.238
837.23	45.274
841.057	409.213
844.883	633.363
848.707	867.646
852.529	912.052
856.35	796.541
860.168	921.214
863.985	965.957
867.8	840.825
871.613	945.827
875.425	691.034
879.234	1026.53
883.042	1292.18
886.848	1897.95
890.653	3083.95
894.455	4530.11
898.256	5986.41
902.055	6202.86
905.852	5439.47
909.648	4676.25
913.442	3463.21
917.233	2290.34
921.024	1867.65
924.812	1885.12
928.599	2232.73
932.384	2470.48
936.167	2178.42
939.948	2186.4
943.728	2646.73
947.506	3561.36
951.282	4875.32
955.056	6087.24
958.829	8035.96
962.6	10845.5
966.369	10135.3
970.136	8625.49
973.902	10782.9
977.666	13699.7
981.428	12649.5
985.188	10019.7
988.947	8484.4
992.704	7810.26
996.459	7977.16
1000.21	9734.66
1003.96	11003.2
1007.71	9165.58
1011.46	5548.87
1015.21	3325.16
1018.95	2350.96
1022.7	1991.35
1026.44	2179.64
1030.18	1792.36
1033.91	1598.67
1037.65	1102.3
1041.39	1259.94
1045.12	1076.11
1048.85	1293.23
1052.58	1690.1
1056.31	1917.93
1060.03	1946.73
1063.76	1564.17
1067.48	1002.99
1071.2	1089.72
1074.92	1276
1078.63	2722.09
1082.35	3088.45
1086.06	2614.35
1089.78	1479.66
1093.49	1085.36
1097.19	860.847
1100.9	956.609
1104.61	1212.09
1108.31	1267.69
1112.01	792.44
1115.71	488.328
1119.41	408.412
1123.11	459.989
1126.8	162.708
1130.5	215.692
1134.19	358.889
1137.88	372.307
1141.57	156.081
1145.25	100.162
1148.94	106.418
1152.62	67.486
1156.3	191.697
1159.98	216.257
1163.66	211.135
1167.34	146.402
1171.01	132.217
1174.68	91.342
1178.36	25.855
1182.02	103.91
1185.69	122.935
1189.36	373.103
1193.02	284.156
1196.69	264.121
1200.35	117.2
1204.01	63.62
1207.66	128.252
1211.32	60.476
1214.98	343.951
1218.63	353.478
1222.28	394.695
1225.93	285.914
1229.58	75.281
1233.22	167.672
1236.87	4.867
1240.51	22.486
1244.15	7.115
1247.79	192.36
1251.43	239.03
1255.07	264.863
1258.7	0.024
