Measurement: Raman, 514 nm, depolarized, Raman Data Processed
Mineral: Axinite-(Fe)
Rruff sample: R050026
Ideal chemistry: Ca_4_Fe^2+^_2_Al_4_[B_2_Si_8_O_30_](OH)_2_
Locality: Pouyva mine, Polar Urals, Western Siberian Region, Russia
Source: Rock Currier
Description: Brown transparent flat crystal
Measured chemistry: Ca_2.00_(Fe^2+^_0.61_Mn_0.26_Mg_0.13_)Al_2.00_BSi_4_O_15_(OH)
Pin_id: L00137
Orientation: Laser parallel to (1 0 1). Fiducial mark perpendicular to laser is parallel to b* (0 1 0)
Raman shift (cm-1)	intensity
100.871	0
105.07	544.462
109.267	1625.92
113.461	717.73
117.653	104.055
121.843	7.639
126.031	117.933
130.217	91.253
134.4	180.085
138.581	694.628
142.76	445.177
146.937	924.24
151.112	1734.22
155.284	640.111
159.454	303.075
163.622	346.85
167.787	1379.08
171.951	1818.95
176.112	1168.64
180.271	506.352
184.428	54.626
188.583	60.656
192.735	77.67
196.885	41.146
201.033	113.439
205.179	667.321
209.323	1385.2
213.464	1450.72
217.603	1329.63
221.741	514.073
225.875	84.944
230.008	56.892
234.139	1.541
238.267	163.683
242.393	386.598
246.517	502.985
250.639	598.112
254.759	1284.31
258.876	980.731
262.991	944.369
267.104	1170.77
271.215	1801.15
275.324	2450.11
279.431	1956.1
283.535	1388.46
287.638	1287.27
291.738	1229.19
295.836	1134.76
299.932	1051.09
304.025	1152.58
308.117	1315.45
312.206	1087.36
316.293	1793.79
320.378	2461.08
324.461	1688.61
328.542	1445.95
332.621	1212.9
336.697	1745.25
340.772	2706.61
344.844	2491.18
348.914	1533.17
352.982	1094.89
357.048	466.056
361.111	117.649
365.173	0.281
369.232	64.606
373.29	184.974
377.345	140.491
381.398	255.792
385.449	858.823
389.497	1348.27
393.544	1010.23
397.589	485.421
401.631	263.738
405.672	230.386
409.71	292.488
413.746	710.312
417.78	1569.84
421.812	1958.28
425.842	2055.66
429.869	1748.94
433.895	961.831
437.918	632.81
441.94	855.552
445.959	898.007
449.976	347.564
453.991	239.784
458.004	149.75
462.015	49.488
466.024	46.95
470.031	219.165
474.035	308.261
478.038	652.355
482.038	1765.49
486.037	2003.71
490.033	703.063
494.027	266.472
498.019	96.049
502.009	93.736
505.997	205.243
509.983	276.359
513.967	224.696
517.949	41.244
521.929	32.15
525.906	47.015
529.882	74.292
533.855	21.771
537.827	17.032
541.796	66.797
545.764	85.545
549.729	65.256
553.692	88.142
557.653	408.342
561.612	587.432
565.569	402.914
569.524	451.582
573.477	606.791
577.428	544.935
581.377	326.015
585.324	254.03
589.269	261.979
593.212	127.874
597.152	19.901
601.091	45.633
605.028	69.27
608.962	254.843
612.895	714.372
616.825	1282.08
620.754	1423.35
624.68	583.71
628.605	178.592
632.527	129.298
636.447	243.882
640.366	430.973
644.282	442.364
648.196	299.141
652.109	177.713
656.019	124.284
659.927	72.62
663.834	133.041
667.738	391.859
671.64	808.664
675.54	1566.59
679.439	1395.24
683.335	776.417
687.229	442.173
691.121	468.261
695.012	570.2
698.9	810.641
702.786	1480.52
706.67	2961.5
710.552	6081.71
714.433	7651.06
718.311	4482.36
722.187	2109.61
726.061	1108.8
729.934	669.939
733.804	465.019
737.672	255.042
741.539	146.008
745.403	84.92
749.265	99.779
753.126	99.79
756.984	188.03
760.84	203.162
764.695	265.819
768.547	316.431
772.398	230.004
776.246	103.558
780.093	20.094
783.937	24.456
787.78	77.238
791.621	48.417
795.459	32.978
799.296	60.97
803.131	74.376
806.964	11.942
810.795	232.964
814.623	259.559
818.45	122.647
822.275	58.868
826.098	21.933
829.92	1.197
833.739	72.311
837.556	106.494
841.371	118.816
845.184	118.243
848.996	209.69
852.805	264.147
856.613	357.623
860.418	364.122
864.222	363.655
868.023	383.863
871.823	404.759
875.621	435.327
879.417	440.905
883.211	480.493
887.003	551.086
890.793	725.687
894.581	1069.32
898.367	1497.99
902.152	1689.71
905.934	1457.27
909.714	979.074
913.493	732.92
917.27	620.8
921.044	666.731
924.817	816.714
928.588	940.744
932.357	885.443
936.124	842.284
939.889	1023.59
943.652	1411.33
947.414	2214.74
951.173	2874.16
954.931	3394.15
958.686	4493.24
962.44	5539.78
966.192	4680.4
969.942	3721.11
973.69	3825.9
977.436	3926.95
981.18	3064.47
984.922	2512.42
988.663	2311.51
992.401	2219.68
996.138	2159.93
999.873	2056.23
1003.61	2123.79
1007.34	1261.63
1011.07	1011.91
1014.79	1114.09
1018.52	577.805
1022.24	458.493
1025.96	396.007
1029.68	325.443
1033.4	292.481
1037.12	361.591
1040.83	484.536
1044.54	479.305
1048.25	657.263
1051.96	721.711
1055.67	743.647
1059.37	577.186
1063.08	445.267
1066.78	477.738
1070.48	474.54
1074.17	614.237
1077.87	809.98
1081.56	742.517
1085.26	492.213
1088.94	359.3
1092.63	308.634
1096.32	386.969
1100	381.659
1103.69	433.84
1107.37	337.101
1111.05	249.492
1114.72	162.908
1118.4	135.413
1122.07	145.564
1125.74	127.779
1129.41	61.179
1133.08	71.133
1136.75	27.437
1140.41	78.217
1144.07	16.913
1147.73	18.299
1151.39	32.829
1155.05	0.103
1158.7	27.016
1162.36	14.34
1166.01	9.705
1169.66	20.988
1173.3	4.139
1176.95	31.848
1180.59	25.618
1184.24	10.864
1187.88	22.763
1191.52	26.949
1195.15	48.046
1198.79	2.627
1202.42	21.61
1206.05	33.802
1209.68	4.851
1213.31	33.921
1216.93	10.216
1220.56	22.512
1224.18	18.679
1227.8	1.675
1231.42	34.17
1235.04	53.042
1238.65	18.298
1242.26	46.482
1245.88	30.864
1249.48	32.216
1253.09	19.132
1256.7	35.304
1260.3	23.724
1263.9	67.668
1267.51	65.461
1271.11	53.182
1274.7	13.711
1278.3	82.095
1281.89	65.374
1285.48	82.526
1289.07	41.665
1292.66	32.196
1296.25	24.433
1299.83	17.728
1303.41	47.582
1306.99	16.131
1310.57	45.602
1314.15	54.166
1317.73	8.624
1321.3	11.063
1324.87	20.87
1328.44	55.528
1332.01	56.952
1335.58	44.534
1339.14	27.819
1342.71	31.969
1346.27	18.692
1349.83	21.73
1353.39	27.088
1356.94	24.089
1360.5	23.641
1364.05	78.426
1367.6	61.486
1371.15	24.385
1374.7	59.63
1378.24	54.089
1381.79	20.698
1385.33	39.923
1388.87	77.867
1392.41	3.015
1395.95	70.215
1399.48	27.385
1403.02	43.694
1406.55	73.884
1410.08	77.346
1413.61	48.864
1417.13	59.246
1420.66	55.068
1424.18	36.921
1427.7	18.296
1431.22	37.271
1434.74	9.555
1438.26	37.983
1441.77	45.637
1445.28	27.945
1448.79	37.172
1452.3	69.604
1455.81	32.005
1459.32	39.588
1462.82	21.381
1466.32	41.112
1469.82	38.11
1473.32	48.851
1476.82	34.152
1480.32	50.844
1483.81	7.505
1487.3	9.309
1490.79	27.285
1494.28	28.735
1497.77	2.028
1501.25	28.831
1504.74	10.499
1508.22	26.457
1511.7	0.275
