Measurement: Raman, 514 nm, depolarized, Raman Data Processed
Mineral: Axinite-(Fe)
Rruff sample: R060194
Ideal chemistry: Ca_4_Fe^2+^_2_Al_4_[B_2_Si_8_O_30_](OH)_2_
Locality: near Dalbandi, Baluchistan Province, Pakistan
Source: Herbert Obodda
Description: Brown transparent wedge-shaped single crystal
Measured chemistry: Ca_2.00_(Fe^2+^_0.66_Mg_0.30_Mn_0.04_)Al_2.00_BSi_4.00_O_15_(OH)
Pin_id: L01255
Orientation: Laser parallel to (-1 0 -1). Fiducial mark perpendicular to laser is parallel to -b [0 -1 0]
Raman shift (cm-1)	intensity
53.91	0
58.864	300.639
63.817	206.066
68.767	120.803
73.714	24.3865
78.659	287.836
83.602	1367.94
88.542	2317.31
93.48	4862.41
98.416	5808.06
103.349	6796.02
108.28	13021.9
113.208	13129
118.134	9974.84
123.058	8134.08
127.979	7308.7
132.898	6490.28
137.814	6629.43
142.728	8856.16
147.639	9888.43
152.549	10994
157.455	10442.6
162.359	8122.37
167.261	9363.28
172.161	13606.2
177.058	12688
181.952	6683.47
186.845	4022.47
191.734	3081.82
196.622	3884.3
201.507	4370.18
206.389	5880.97
211.269	9223.83
216.147	11065.4
221.022	9507.93
225.895	6030.62
230.765	2906.09
235.633	2132.75
240.498	2511.94
245.361	3460.8
250.222	4195.97
255.08	6127.67
259.936	8069.68
264.789	7390.48
269.64	10544.7
274.488	14035.9
279.334	13733.8
284.178	9541.41
289.019	6881.68
293.857	6948.41
298.693	8209.49
303.527	8101.81
308.358	7435.25
313.187	7313.68
318.013	9920.99
322.837	13182.2
327.659	8087.06
332.478	5472.44
337.294	5636.21
342.108	8820.25
346.92	14145.5
351.729	9939.94
356.535	4558.79
361.34	898.727
366.141	576.501
370.94	697.794
375.737	166.742
380.531	240.279
385.323	1812.28
390.113	4915.3
394.9	6327.6
399.684	3919.22
404.466	1950.09
409.245	1467.7
414.022	2350.76
418.797	6499.93
423.569	9456.81
428.338	12982.6
433.105	13698.6
437.87	7895.48
442.632	4417.31
447.391	5257.95
452.149	2771.33
456.903	901.356
461.655	549.288
466.405	333.905
471.152	557.379
475.897	1456.17
480.639	3333.2
485.378	7822.4
490.116	8163.69
494.85	1872.99
499.582	586.214
504.312	313.106
509.039	404.432
513.764	527.867
518.486	343.563
523.206	485.307
527.923	565.107
532.638	565.211
537.35	31.1357
542.059	343.928
546.766	1146.85
551.471	1271.04
556.173	1361.65
560.873	2817.73
565.57	3756.03
570.264	2403.29
574.957	2731.39
579.646	2734.3
584.333	2023.94
589.018	2137.28
593.7	2138.25
598.379	756.816
603.056	357.877
607.73	1097.14
612.402	2601.83
617.072	5353.94
621.739	7597.44
626.403	5385.27
631.065	1810.42
635.724	1086.83
640.381	1754.49
645.035	2838.61
649.687	2580.51
654.336	1585.93
658.983	988.969
663.627	1090.75
668.268	2156.63
672.907	4898.12
677.544	8676.83
682.178	7753.83
686.809	3975.98
691.438	2632
696.065	2931.55
700.688	5213.77
705.31	11132.6
709.929	23150.3
714.545	38507.1
719.158	33413.9
723.77	15370.8
728.378	6792.71
732.984	3468.73
737.588	1875.82
742.189	1393.21
746.787	809.436
751.383	812.863
755.976	919.432
760.567	1249.16
765.155	1704.06
769.741	2170.15
774.324	1367.47
778.904	624.019
783.482	222.938
788.058	114.022
792.631	198.262
797.201	265.805
801.769	305.242
806.334	176.295
810.897	255.832
815.457	876.457
820.014	584.371
824.569	23.8633
829.122	20.4805
833.671	55.9746
838.219	10.2715
842.763	205.803
847.306	700.969
851.845	1246.85
856.382	1634.49
860.917	1951.92
865.448	2095.18
869.978	2162.3
874.505	1889.35
879.029	2113.5
883.55	2083.81
888.069	2173.21
892.586	2891.81
897.1	4489.55
901.611	6730.57
906.12	8308.85
910.626	7953.7
915.129	5470.03
919.63	2907.14
924.129	2429.2
928.625	2718.64
933.118	3499.34
937.609	3411.83
942.097	3565.38
946.582	5033.87
951.065	8355.73
955.546	12922.3
960.023	18615.6
964.499	27408.1
968.971	28299.6
973.441	20784.8
977.909	20231.8
982.374	21872.6
986.836	17893.4
991.295	14179.1
995.753	12523.8
1000.21	11341.4
1004.66	10910.2
1009.11	8672.74
1013.55	5561.06
1018	3683.81
1022.44	2163.5
1026.88	1800.87
1031.32	1777.73
1035.75	1704.34
1040.18	2051.17
1044.61	2644.82
1049.04	2960.98
1053.46	3695.49
1057.88	4877.9
1062.3	5007.91
1066.71	4217.97
1071.13	2682.83
1075.54	2471.38
1079.94	3783.73
1084.35	5633.38
1088.75	5390.81
1093.15	2801.39
1097.55	1484.2
1101.94	1350.22
1106.34	1397.67
1110.73	1363.82
1115.11	1518.23
1119.5	1293.05
1123.88	1109.73
1128.26	595.926
1132.63	198.723
1137.01	242.949
1141.38	50.0156
1145.75	17.6445
1150.12	6.69336
1154.48	113.078
1158.84	184.744
1163.2	21.7363
1167.55	29.2734
1171.91	182.232
1176.26	67.9727
1180.61	32.1074
1184.95	47.4219
1189.29	190.252
1193.63	36.8828
1197.97	74.1191
1202.31	246.875
1206.64	77.6172
1210.97	76.3398
1215.29	63.7559
1219.62	69.584
1223.94	64.3652
1228.26	99.8106
1232.57	162.197
1236.89	86.9609
1241.2	148.012
1245.51	122.43
1249.81	58.1094
1254.12	171.826
1258.42	197.644
1262.72	159.086
1267.01	39.1465
1271.3	131.731
1275.59	192.336
1279.88	272.16
1284.17	197.602
1288.45	352.111
1292.73	101.769
1297.01	143.443
1301.28	216.701
1305.55	80.6621
1309.82	4.52344
1314.09	150.217
1318.35	125.639
1322.61	243.644
1326.87	36.7324
1331.13	169.426
1335.38	221.623
1339.63	246.879
1343.88	215.809
1348.12	237.766
1352.37	204.443
1356.61	574.644
1360.85	343.44
1365.08	396.262
1369.31	326.709
1373.54	250.008
1377.77	316.666
1381.99	213.199
1386.22	331.842
1390.43	200.633
1394.65	215.652
1398.87	215.723
1403.08	273.481
1407.29	201.482
1411.49	191.303
1415.69	384.346
1419.89	25.3613
1424.09	305.312
1428.29	202.994
1432.48	265.332
1436.67	385.254
1440.86	288.494
1445.04	206.174
1449.23	255.279
1453.4	109.051
1457.58	113.084
1461.76	119.736
1465.93	191.129
1470.1	174.592
1474.26	130.332
1478.43	143.065
1482.59	157.449
1486.75	291.988
1490.9	206.998
1495.06	228.795
1499.21	176.408
1503.35	272.369
1507.5	101.506
1511.64	367.096
1515.78	195.025
1519.92	171.553
1524.05	164.74
1528.18	178.967
1532.31	237.039
1536.44	188.688
1540.56	120.076
1544.69	330.246
1548.8	237.272
1552.92	770.342
1557.03	337.717
1561.14	260.812
1565.25	232.072
1569.36	2.24609
