Measurement: Raman, 514 nm, depolarized, Raman Data Processed
Mineral: Axinite-(Fe)
Rruff sample: R060194
Ideal chemistry: Ca_4_Fe^2+^_2_Al_4_[B_2_Si_8_O_30_](OH)_2_
Locality: near Dalbandi, Baluchistan Province, Pakistan
Source: Herbert Obodda
Description: Brown transparent wedge-shaped single crystal
Measured chemistry: Ca_2.00_(Fe^2+^_0.66_Mg_0.30_Mn_0.04_)Al_2.00_BSi_4.00_O_15_(OH)
Pin_id: L00599
Orientation: Laser parallel to (0 -1 -1). Fiducial mark perpendicular to laser is parallel to a [1 0 0]
Raman shift (cm-1)	intensity
53.91	0
58.864	290.481
63.817	165.882
68.767	92.2528
73.714	338.776
78.659	414.63
83.602	856.843
88.542	1694
93.48	3405.54
98.416	7188.22
103.349	12991.4
108.28	24905.8
113.208	20300.1
118.134	8191.85
123.058	3705.05
127.979	2564.13
132.898	3038.26
137.814	4885.54
142.728	7266.8
147.639	6508.15
152.549	7109.48
157.455	7051.06
162.359	7723.94
167.261	11309
172.161	15454.1
177.058	11392.2
181.952	4454.86
186.845	2524.96
191.734	4289.81
196.622	7399.27
201.507	9540.28
206.389	14723.3
211.269	17011.5
216.147	13554
221.022	8088
225.895	3495.2
230.765	1183.84
235.633	775.531
240.498	1630.94
245.361	3004.52
250.222	5083.9
255.08	7470.28
259.936	10167.3
264.789	11941.7
269.64	18771.2
274.488	22748.5
279.334	18842.3
284.178	11472.7
289.019	9342.56
293.857	12821.7
298.693	17826.9
303.527	20464.2
308.358	20428.3
313.187	15664.1
318.013	14264.9
322.837	12945.3
327.659	7352.23
332.478	5124.26
337.294	5906.73
342.108	11866.5
346.92	18700.8
351.729	17485.6
356.535	11240.2
361.34	3509.58
366.141	288.426
370.94	415.83
375.737	334.66
380.531	978.744
385.323	4800.96
390.113	10187.8
394.9	8936.68
399.684	4354.36
404.466	2624
409.245	4991.49
414.022	12043.7
418.797	22228.7
423.569	18800.2
428.338	18572.3
433.105	17349.8
437.87	9450.61
442.632	7140.67
447.391	7052.86
452.149	2379.1
456.903	44.709
461.655	755.302
466.405	898.967
471.152	324.471
475.897	1579.72
480.639	5979.43
485.378	12031.6
490.116	7218.27
494.85	1630.68
499.582	738.143
504.312	1310.44
509.039	2090.74
513.764	1941.11
518.486	854.541
523.206	8.11621
527.923	20.25
532.638	456.199
537.35	1416.86
542.059	2258.1
546.766	3525.89
551.471	2858.9
556.173	2211.92
560.873	3376.77
565.57	3928.92
570.264	4778.59
574.957	6278.51
579.646	5863.65
584.333	6981.96
589.018	10003.4
593.7	8307.95
598.379	3633.89
603.056	1212.05
607.73	651.49
612.402	938.89
617.072	1448.61
621.739	1346.53
626.403	324.834
631.065	239.084
635.724	23.4521
640.381	1135.95
645.035	2241.78
649.687	1494.91
654.336	344.691
658.983	24.8848
663.627	346.12
668.268	1885.75
672.907	5340.54
677.544	8601.97
682.178	5968.78
686.809	2709.22
691.438	1976.62
696.065	3100.32
700.688	6589.8
705.31	15428.3
709.929	33772.9
714.545	49753.6
719.158	36938.6
723.77	17226.8
728.378	7953.23
732.984	4285
737.588	2543.13
742.189	1732.99
746.787	1352.45
751.383	1398.33
755.976	2130.52
760.567	3962.17
765.155	6455.71
769.741	7202.4
774.324	4737.65
778.904	2614.56
783.482	1189.25
788.058	491.712
792.631	10.5674
797.201	69.1992
801.769	165.053
806.334	320.17
810.897	1141.13
815.457	1454.17
820.014	367.239
824.569	218.801
829.122	379.775
833.671	266.891
838.219	287.423
842.763	171.594
847.306	535.674
851.845	961.03
856.382	1133.7
860.917	1089.73
865.448	975.136
869.978	1107.97
874.505	1296.26
879.029	1535.11
883.55	2350.52
888.069	3575.5
892.586	5864.92
897.1	9347.08
901.611	11235
906.12	11643.3
910.626	12038.1
915.129	9293.26
919.63	5415.61
924.129	3826.89
928.625	4014.07
933.118	4333.12
937.609	3795.81
942.097	3869.34
946.582	5232.99
951.065	8207.53
955.546	11697
960.023	18057.7
964.499	25621.9
968.971	24312.4
973.441	20844.2
977.909	25678.1
982.374	28228.1
986.836	22703.1
991.295	20080.3
995.753	20858.5
1000.21	22418.9
1004.66	23965.3
1009.11	19576.8
1013.55	11287.1
1018	6022.38
1022.44	4149.53
1026.88	3868.57
1031.32	3813.85
1035.75	2854.33
1040.18	2293.94
1044.61	2390.1
1049.04	2392.07
1053.46	3241.6
1057.88	3837.78
1062.3	3356.69
1066.71	2393.05
1071.13	1684.29
1075.54	2046.62
1079.94	3736.76
1084.35	6076.57
1088.75	5009.89
1093.15	2991.11
1097.55	1821.85
1101.94	1726.5
1106.34	1955.37
1110.73	1759.82
1115.11	1095.23
1119.5	1091.07
1123.88	957.184
1128.26	541.485
1132.63	178.678
1137.01	72.2695
1141.38	114.643
1145.75	20.2461
1150.12	112.478
1154.48	57.127
1158.84	14.3955
1163.2	100.679
1167.55	69.9424
1171.91	234.539
1176.26	113.535
1180.61	91.6592
1184.95	21.6201
1189.29	142.495
1193.63	15.165
1197.97	49.1162
1202.31	228.273
1206.64	4.35938
1210.97	155.897
1215.29	0.543945
1219.62	48.5566
1223.94	62.2978
1228.26	63.0371
1232.57	247.83
1236.89	185.971
1241.2	96.3408
1245.51	214.573
1249.81	235.944
1254.12	339.714
1258.42	199.383
1262.72	324.161
1267.01	137.136
1271.3	233.874
1275.59	381.272
1279.88	351.975
1284.17	359.824
1288.45	193.483
1292.73	373.566
1297.01	305.616
1301.28	158.225
1305.55	166.775
1309.82	146.268
1314.09	232.269
1318.35	311.629
1322.61	249.829
1326.87	125.915
1331.13	328.238
1335.38	126.906
1339.63	165.808
1343.88	353.32
1348.12	132.03
1352.37	77.8184
1356.61	245.853
1360.85	136.652
1365.08	387.393
1369.31	140.793
1373.54	190.517
1377.77	153.028
1381.99	147.047
1386.22	204.755
1390.43	61.706
1394.65	120.038
1398.87	8.12012
1403.08	109.786
1407.29	28.0713
1411.49	131.906
1415.69	60.419
1419.89	122.964
1424.09	129.505
1428.29	120.566
1432.48	229.124
1436.67	224.341
1440.86	251.671
1445.04	221.011
1449.23	282.833
1453.4	233.394
1457.58	236.79
1461.76	161.832
1465.93	276.472
1470.1	170.833
1474.26	202.069
1478.43	133.339
1482.59	6.5957
1486.75	105.314
1490.9	72.3916
1495.06	81.0332
1499.21	188.514
1503.35	56.7637
1507.5	37.624
1511.64	92.5996
1515.78	86.9199
1519.92	280.565
1524.05	143.211
1528.18	165.232
1532.31	9.02051
1536.44	80.8135
1540.56	156.334
1544.69	175.25
1548.8	248.13
1552.92	337.479
1557.03	418.412
1561.14	99.4971
1565.25	240.352
1569.36	106.935
