Measurement: Raman, 514 nm, depolarized, Raman Data Processed
Mineral: Axinite-(Fe)
Rruff sample: R060558
Ideal chemistry: Ca_4_Fe^2+^_2_Al_4_[B_2_Si_8_O_30_](OH)_2_
Locality: unknown
Source: Gemological Institute of America
Description: Brown flattened crystal
Measured chemistry: Ca_2.00_(Fe^2+^_0.60_Mg_0.35_Mn_0.05_)_Î£=1_Al_2.00_BSi_4.00_O_15_(OH) ; B not measured
Pin_id: M00962
Orientation: Laser parallel to a* (1 0 0). Fiducial mark perpendicular to laser is parallel to b [0 1 0]
Raman shift (cm-1)	intensity
130.102	0
135.065	44.4551
140.025	738.227
144.981	686.346
149.935	1115.21
154.886	2069
159.833	1436.64
164.777	2178.92
169.718	3770.18
174.656	2290.28
179.591	574.385
184.523	89.4277
189.452	370.096
194.377	1095.07
199.3	1000.94
204.219	2204.19
209.136	3745.12
214.049	4118.85
218.959	3303.93
223.866	1493.4
228.77	495.135
233.671	6.09375
238.569	418.107
243.464	645.356
248.356	1522.52
253.244	2191.45
258.13	2353.18
263.013	2933.78
267.892	4165.63
272.769	4664.97
277.643	3636.41
282.513	2103.11
287.381	1576.08
292.245	2551.52
297.106	3492.39
301.965	4040.2
306.82	3661.24
311.673	2961.52
316.522	3857.74
321.369	4097.9
326.212	2139.48
331.052	1275.38
335.89	2051.61
340.724	4059.15
345.556	5906.18
350.384	4250.69
355.21	2370.56
360.032	661.457
364.852	152.893
369.669	125.148
374.482	9.55664
379.293	48.2031
384.101	1147.96
388.906	3174.48
393.708	3040.59
398.507	1779.33
403.303	908.039
408.096	813.834
412.886	1490.68
417.673	3197.55
422.457	4904.49
427.239	6738.76
432.017	5824.34
436.793	2714.15
441.566	2112.11
446.335	2338.2
451.102	576.359
455.866	128.57
460.627	13.5977
465.385	25.7969
470.141	351.465
474.893	542.701
479.643	1274.94
484.389	2919.09
489.133	1909.12
493.874	549.389
498.612	21.9883
503.347	200.043
508.08	228.002
512.809	311.477
517.536	212.279
522.26	36.332
526.981	179.863
531.699	32.6621
536.414	118.295
541.127	529.537
545.836	1092.64
550.543	800.871
555.247	528.199
559.948	1012.68
564.647	1459.31
569.342	1301.82
574.035	1787.03
578.725	1696.93
583.412	1413.49
588.096	2037.71
592.778	1817.57
597.457	622.08
602.133	410.865
606.806	705.668
611.476	1230.92
616.144	1701.94
620.809	1629.59
625.471	827.84
630.13	99.6973
634.787	104.023
639.441	529.637
644.092	821.717
648.74	557.186
653.386	214.785
658.029	191.809
662.669	270.783
667.306	922.588
671.941	2244.38
676.572	3707.35
681.202	2455
685.828	938.311
690.452	913.059
695.073	1015.29
699.691	1738.95
704.307	4258.67
708.919	9317.96
713.53	15384.3
718.137	11231
722.742	5022.34
727.344	2191.12
731.943	1161.4
736.54	411.18
741.134	431.639
745.725	301.815
750.314	500.606
754.9	455.922
759.483	860.771
764.064	1362.16
768.642	1756.39
773.217	1103.58
777.79	536.426
782.36	413.363
786.927	2.91992
791.492	20.875
796.054	45.584
800.613	134.059
805.17	94.5723
809.724	86.8262
814.275	170.865
818.824	77.5156
823.37	89.4844
827.914	23.5762
832.455	84.6582
836.993	71.9766
841.529	31.4844
846.062	282.066
850.593	260.383
855.121	523.875
859.646	755.461
864.169	652.859
868.689	973.098
873.207	790.258
877.722	1036.29
882.234	690.207
886.744	1107.95
891.251	1311.73
895.756	2517.63
900.258	3741.49
904.757	5511.41
909.254	4995.43
913.749	3114.54
918.24	1837.67
922.73	1090.94
927.216	720.836
931.701	1192.04
936.182	955.594
940.661	949.144
945.138	1916.88
949.612	2698.81
954.083	4089.2
958.552	6586.25
963.019	9982.24
967.483	9918.24
971.944	7661.24
976.403	8574.74
980.859	9471
985.313	7483.84
989.764	6413.09
994.213	5920.66
998.659	6198.58
1003.1	6237.37
1007.54	4736.46
1011.98	3049.38
1016.42	1522.71
1020.85	1025.67
1025.29	1105.35
1029.71	815.832
1034.14	840.281
1038.56	737.176
1042.99	716.191
1047.4	862.719
1051.82	1188.96
1056.23	1731.69
1060.65	1191.37
1065.06	979.5
1069.46	737.445
1073.87	757.082
1078.27	1151.96
1082.67	1947.31
1087.07	1860.97
1091.46	683.981
1095.85	719.785
1100.24	270.207
1104.63	623.312
1109.01	285.242
1113.39	514.766
1117.78	176.32
1122.15	296.688
1126.53	56.2461
1130.9	255.996
1135.27	45.8359
1139.64	370.719
1144	40.2461
1148.37	197.922
1152.73	25.7891
1157.09	92.7773
1161.44	0.089844
1165.79	68.957
1170.14	109.801
1174.49	192.586
1178.84	10.5898
1183.18	11.8281
1187.53	387.773
1191.86	250.106
1196.2	223.227
1200.54	98.2812
1204.87	115.84
1209.2	65.3164
1213.53	392.32
1217.85	150.707
1222.17	138.848
1226.49	190.356
1230.81	179.801
1235.13	146.164
1239.44	307.426
1243.75	208.547
1248.06	168.328
1252.37	333.086
1256.67	130.781
1260.97	320.356
1265.27	224.34
1269.57	763.273
1273.86	14.3945
1278.15	84.3594
1282.44	43.0078
1286.73	208.195
1291.02	308.746
1295.3	353.805
1299.58	338.539
1303.86	334.898
1308.13	599.109
1312.41	323.488
1316.68	477.777
1320.95	495.445
1325.22	228.012
1329.48	739.418
1333.74	431.656
1338	666.586
1342.26	351.152
1346.52	380.859
1350.77	525.367
1355.02	112.856
1359.27	481.32
1363.52	487.781
1367.76	259.016
1372	336.164
1376.24	431.766
1380.48	284.519
1384.72	375.973
1388.95	330.769
1393.18	689.102
1397.41	254.281
1401.63	315.344
1405.86	425.383
1410.08	178.266
1414.3	388.25
1418.52	443.148
1422.73	306.684
1426.95	493.594
1431.16	481.117
1435.37	377.121
1439.57	170.219
1443.78	448.988
1447.98	674.078
1452.18	361.887
1456.38	456.176
1460.57	475.941
1464.76	600.816
1468.95	535.898
1473.14	286.117
1477.33	303.215
1481.51	228.262
1485.7	470.676
1489.88	310.574
1494.05	187.137
1498.23	111.836
1502.4	146.867
1506.57	318.438
1510.74	291.793
1514.91	13.0703
1519.08	257.973
1523.24	425.16
1527.4	476.793
1531.56	595.754
1535.71	468.57
1539.87	443.289
1544.02	364.082
1548.17	365.203
1552.32	34.6992
1556.46	169.191
1560.61	212.625
