Measurement: Raman, 514 nm, depolarized, Raman Data Processed
Mineral: Axinite-(Fe)
Rruff sample: R060183
Ideal chemistry: Ca_4_Fe^2+^_2_Al_4_[B_2_Si_8_O_30_](OH)_2_
Locality: Skagit Bluffs, near Manning Park, British Columbia, Canada
Source: Lloyd Twaites
Description: Light-pink transparent axe-head-shaped single crystal
Measured chemistry: Ca_2.00_(Fe^2+^_0.58_Mn_0.23_Mg_0.19_)Al_2.00_B_1.00_Si_4.00_O_15_(OH)
Pin_id: L00798
Orientation: Laser parallel to -b* (0 -1 0). Fiducial mark perpendicular to laser is parallel to -c [0 0 -1]
Raman shift (cm-1)	intensity
52.671	0
57.626	179.788
62.579	324.357
67.529	14.7062
72.477	63.3267
77.423	132.905
82.367	532.706
87.308	1682.31
92.246	4541.81
97.182	7979.68
102.116	12636
107.047	19980.1
111.976	13213.4
116.903	5644.14
121.827	3574.7
126.749	3010.07
131.668	3059
136.585	4349.1
141.5	5382.73
146.412	5930.86
151.321	7613.01
156.229	7984.52
161.134	7483.49
166.036	11223.9
170.936	16472.8
175.834	10138
180.729	4303.49
185.622	2262.97
190.512	3334.96
195.4	5002.5
200.286	7827.65
205.169	13726.4
210.049	13794.7
214.928	8593.26
219.803	3837.88
224.677	1140.44
229.548	4.02979
234.416	589.27
239.282	2743.9
244.146	5608.61
249.007	6366.23
253.866	6178.11
258.722	6093.03
263.576	7460.81
268.427	12742.3
273.276	16614.2
278.123	12808.5
282.967	8166.21
287.809	7392.19
292.648	9953.34
297.485	14914.6
302.319	19388.8
307.151	19616
311.98	10497.3
316.807	6700.42
321.631	5135.44
326.454	4095.54
331.273	3083.88
336.09	2979.45
340.905	6585.13
345.717	12023.9
350.527	16378.7
355.334	9697.51
360.139	2503.75
364.941	193.023
369.741	426.754
374.538	308.874
379.333	1320.78
384.126	6017.9
388.916	12194
393.703	10456
398.488	5240.95
403.271	2885.75
408.051	4385.35
412.828	11346.7
417.603	17182.7
422.376	13170.4
427.146	14317.6
431.914	10367.4
436.679	4952.63
441.442	4515.22
446.202	3417.13
450.96	821.278
455.715	171.412
460.467	405.406
465.218	265.818
469.965	713.744
474.711	2027.22
479.454	6455.58
484.194	11292.8
488.932	4471.21
493.667	568.207
498.4	298.295
503.13	974.251
507.858	1749.32
512.583	1863.1
517.306	608.457
522.026	60.7925
526.744	177.828
531.459	272.996
536.172	866.435
540.882	1636.86
545.59	2148.25
550.295	1884.12
554.998	2507.17
559.698	4148.39
564.396	4711.2
569.091	6679.8
573.784	8298.04
578.474	7463.89
583.162	9248.31
587.847	12016.2
592.529	8299.66
597.209	3763.72
601.887	2355.88
606.562	2747.03
611.235	3563.57
615.905	3702.34
620.572	3033.57
625.237	1142.25
629.9	51.3066
634.56	187.495
639.217	367.039
643.872	751.47
648.524	192.253
653.174	149.686
657.821	44.5161
662.466	864.16
667.108	2756.22
671.748	7632.23
676.385	11431.5
681.02	8344.56
685.652	4294.67
690.281	3313.92
694.908	4573.85
699.533	8576.59
704.155	18480.9
708.774	37963
713.391	53989.2
718.005	38451.5
722.617	18132
727.226	8695.54
731.833	4669.24
736.437	2822.18
741.039	1954.32
745.638	1650.45
750.234	1592.4
754.828	1989.6
759.419	3534.06
764.008	5557.81
768.595	5898.45
773.178	3976.62
777.759	2044.38
782.338	996.84
786.914	220.782
791.488	87.2769
796.059	126.527
800.627	164.973
805.193	384.303
809.756	1232.25
814.317	1312.11
818.875	342.846
823.431	216.69
827.984	361.92
832.534	356.021
837.082	199.705
841.627	162.424
846.17	530.611
850.71	826.935
855.248	910.437
859.783	1009.16
864.316	1081.13
868.846	1336.41
873.373	1620.02
877.898	2127.01
882.42	2817.41
886.94	4485.32
891.457	7872.83
895.971	12597
900.483	15770
904.993	15662.5
909.5	12619.3
914.004	8543
918.505	5387.78
923.004	4381.92
927.501	4649.39
931.995	4595.14
936.486	3789.18
940.975	3706.88
945.461	5305.41
949.945	7705.87
954.426	11062.3
958.904	16567.5
963.38	21879.8
967.853	19523.2
972.324	18753.7
976.792	24516.8
981.258	25924.9
985.72	22338.1
990.181	21148.4
994.639	21715.9
999.094	23185.6
1003.55	23776.5
1008	18604.5
1012.44	11009
1016.89	6435.77
1021.33	4131.77
1025.77	3633.86
1030.21	3123.59
1034.64	2634.8
1039.07	2779.96
1043.5	3122.64
1047.93	3501.72
1052.35	4558.55
1056.78	5141.65
1061.19	4427.96
1065.61	2765.38
1070.02	1862.81
1074.43	2400.4
1078.84	3897.2
1083.25	4965.17
1087.65	3929.2
1092.05	2517.24
1096.45	2113.16
1100.85	2474.48
1105.24	2888.17
1109.63	2448.82
1114.02	1484.14
1118.4	960.457
1122.78	511.692
1127.16	362.019
1131.54	175.223
1135.92	50.6943
1140.29	62.3765
1144.66	13.061
1149.02	73.8735
1153.39	77.7612
1157.75	73.2461
1162.11	46.0645
1166.46	71.7988
1170.82	174.729
1175.17	24.2202
1179.52	100.978
1183.86	60.9477
1188.21	77.8477
1192.55	72.4512
1196.89	86.1699
1201.22	22.1826
1205.55	7.99561
1209.88	30.5337
1214.21	19.2959
1218.54	42.4434
1222.86	56.6001
1227.18	104.771
1231.5	158.61
1235.81	146.548
1240.12	139.464
1244.43	186.891
1248.74	276.943
1253.04	175.094
1257.34	146.195
1261.64	237.219
1265.94	263.594
1270.23	275.958
1274.52	299.235
1278.81	265.661
1283.1	198.179
1287.38	379.227
1291.66	308.924
1295.94	228.54
1300.21	244.853
1304.48	135.056
1308.75	173.691
1313.02	147.336
1317.29	123.26
1321.55	95.0381
1325.81	99.0884
1330.06	200.529
1334.32	177.815
1338.57	93.9473
1342.82	179.816
1347.06	254.752
1351.31	216.022
1355.55	230.375
1359.79	171.931
1364.02	292.94
1368.26	151.333
1372.49	207.282
1376.71	182.442
1380.94	233.398
1385.16	242.246
1389.38	166.079
1393.6	141.05
1397.81	97.3877
1402.02	204.058
1406.23	208.14
1410.44	104.534
1414.64	167.149
1418.85	206.625
1423.04	192.875
1427.24	204.062
1431.43	208.202
1435.62	128.816
1439.81	45.1484
1444	125.949
1448.18	146.826
1452.36	182.224
1456.54	74.2983
1460.71	112.111
1464.89	2.87891
1469.06	122.22
1473.22	84.8237
1477.39	49.5757
1481.55	105.36
1485.71	134.311
1489.86	116.763
1494.02	11.3887
1498.17	164.113
1502.32	22.8574
1506.46	31.083
1510.61	94.1533
1514.75	157.999
1518.88	83.5903
1523.02	120.853
1527.15	194.696
1531.28	131.322
1535.41	73.7432
1539.53	125.666
1543.66	56.5156
1547.78	26.0078
1551.89	88.8481
1556.01	250.607
1560.12	39.8994
1564.23	8.12598
1568.33	162.139
