Measurement: Raman, 514 nm, depolarized, Raman Data Processed
Mineral: Axinite-(Fe)
Rruff sample: R050061
Ideal chemistry: Ca_4_Fe^2+^_2_Al_4_[B_2_Si_8_O_30_](OH)_2_
Locality: Jamestown, California, USA
Source: Rock Currier
Description: Brown colored axe-head-shaped single crystals
Measured chemistry: Ca_2.00_(Fe^2+^_0.73_Mg_0.20_Mn_0.07_)Al_2.00_BSi_4_O_15_(OH)
Pin_id: L00318
Orientation: Laser parallel to (0 1 1). Fiducial mark perpendicular to laser is parallel to a [1 0 0]
Raman shift (cm-1)	intensity
100.871	0
105.07	941.905
109.267	3643.98
113.461	2846.18
117.653	1473.49
121.843	1291.78
126.031	978.386
130.217	654.937
134.4	1256.52
138.581	2791.22
142.76	2574.7
146.937	2849.13
151.112	3438.02
155.284	3189.81
159.454	2335.25
163.622	2759.83
167.787	6472.17
171.951	7373.04
176.112	3700.81
180.271	1102.92
184.428	200.926
188.583	266.982
192.735	612.474
196.885	445.228
201.033	751.847
205.179	2694
209.323	5045.07
213.464	5274.68
217.603	3944.74
221.741	2084.73
225.875	545.589
230.008	244.071
234.139	394.335
238.267	9.9
242.393	600.379
246.517	1433.14
250.639	2556.6
254.759	3906.24
258.876	3861.97
262.991	4537.91
267.104	6829.35
271.215	9281.94
275.324	10159.6
279.431	8038.74
283.535	5148.14
287.638	4207.2
291.738	4645.03
295.836	5591.59
299.932	5697.14
304.025	5382.92
308.117	4716.75
312.206	3526.59
316.293	4589.68
320.378	5255.69
324.461	3685.65
328.542	3338.58
332.621	3092.68
336.697	3060.62
340.772	4665.75
344.844	6394.25
348.914	5841.72
352.982	4759.15
357.048	2563.81
361.111	672.884
365.173	20.421
369.232	314.545
373.29	239.507
377.345	368.729
381.398	805.202
385.449	2625.23
389.497	4763.11
393.544	5028.57
397.589	3560.43
401.631	2140.1
405.672	1462.97
409.71	1470.41
413.746	2970.84
417.78	5691.27
421.812	7822.72
425.842	9344.18
429.869	8925.64
433.895	6646.99
437.918	4030.13
441.94	5209.02
445.959	6479.64
449.976	3421.99
453.991	1396.08
458.004	728.919
462.015	248.529
466.024	80.897
470.031	414.009
474.035	773.004
478.038	1680.16
482.038	3767.64
486.037	4407.47
490.033	1921.69
494.027	257.224
498.019	179.3
502.009	218.819
505.997	139.606
509.983	670.959
513.967	1039.32
517.949	601.397
521.929	115.603
525.906	200.435
529.882	209.168
533.855	53.862
537.827	53.822
541.796	158.863
545.764	423.855
549.729	422.745
553.692	497.687
557.653	1425.42
561.612	2689.89
565.569	2128.4
569.524	1606.79
573.477	1979.08
577.428	1806.26
581.377	1588.32
585.324	2332.27
589.269	3119.11
593.212	2185.83
597.152	854.431
601.091	376.917
605.028	533.288
608.962	1060.55
612.895	1675.69
616.825	2098.73
620.754	2434.66
624.68	1516.52
628.605	628.464
632.527	307.263
636.447	755.033
640.366	1651.63
644.282	2376.96
648.196	1934.35
652.109	1018.11
656.019	595.504
659.927	443.725
663.834	839.813
667.738	1590.18
671.64	3479.26
675.54	6748.77
679.439	7192.54
683.335	4214.59
687.229	2423.94
691.121	1892.13
695.012	2168.05
698.9	3423.12
702.786	6240.12
706.67	11884
710.552	23657.7
714.433	31301.3
718.311	22334.8
722.187	11598.1
726.061	5921.2
729.934	3364.2
733.804	1911.05
737.672	1206.76
741.539	813.334
745.403	569.772
749.265	385.077
753.126	381.251
756.984	515.3
760.84	718.225
764.695	1064.03
768.547	1033.71
772.398	749.279
776.246	429.733
780.093	156.097
783.937	62.36
787.78	105.653
791.621	137.512
795.459	129.373
799.296	129.272
803.131	78.266
806.964	130.979
810.795	408.219
814.623	518.952
818.45	71.962
822.275	39.909
826.098	37.432
829.92	51.33
833.739	7.352
837.556	16.1
841.371	235.366
845.184	517.019
848.996	751.805
852.805	1128.63
856.613	1197.45
860.418	1304.31
864.222	1583.19
868.023	1818.1
871.823	1984.05
875.621	1921.04
879.417	2044.1
883.211	2351.22
887.003	2807.39
890.793	4035.68
894.581	5629.07
898.367	7756.54
902.152	9884.08
905.934	10361.7
909.714	8319.47
913.493	5667.24
917.27	3736.07
921.044	2721.96
924.817	2499.95
928.588	2926.02
932.357	2967.18
936.124	2594.5
939.889	2506.12
943.652	2670.37
947.414	3618.34
951.173	4690.09
954.931	6478
958.686	9769.91
962.44	14179.2
966.192	14608.7
969.942	12498.3
973.69	13697.8
977.436	17908.8
981.18	17592.6
984.922	14227.5
988.663	12167.8
992.401	11849.4
996.138	12211.6
999.873	12365.2
1003.61	10677.3
1007.34	7921.94
1011.07	5336.09
1014.79	3585.96
1018.52	2594.77
1022.24	2115.26
1025.96	1939.25
1029.68	1954.59
1033.4	1952.78
1037.12	2317.71
1040.83	2657.18
1044.54	2567.05
1048.25	2821.2
1051.96	3476.11
1055.67	3835.75
1059.37	3412.94
1063.08	2542.37
1066.78	1793.12
1070.48	1408.13
1074.17	1572.73
1077.87	2452.91
1081.56	3501.28
1085.26	3020.7
1088.94	1807.53
1092.63	1124.76
1096.32	718.26
1100	631.039
1103.69	696.508
1107.37	477.661
1111.05	390.981
1114.72	291.38
1118.4	223.895
1122.07	131.004
1125.74	26.521
1129.41	19.135
1133.08	1.26
1136.75	17.885
1140.41	82.524
1144.07	34.71
1147.73	3.231
1151.39	40.157
1155.05	65.885
1158.7	75.084
1162.36	17.601
1166.01	19.942
1169.66	14.296
1173.3	45.658
1176.95	57.727
1180.59	59.452
1184.24	20.331
1187.88	0.277
1191.52	59.07
1195.15	18.91
1198.79	40.597
1202.42	82.809
1206.05	73.552
1209.68	61.588
1213.31	20.436
1216.93	33.897
1220.56	40.2
1224.18	19.344
1227.8	87.49
1231.42	28.437
1235.04	12.758
1238.65	19.422
1242.26	31.508
1245.88	46.359
1249.48	122.145
1253.09	118.59
1256.7	153.753
1260.3	153.743
1263.9	64.62
1267.51	130.975
1271.11	55.168
1274.7	114.288
1278.3	77.381
1281.89	99.19
1285.48	108.739
1289.07	106.592
1292.66	55.904
1296.25	31.699
1299.83	28.615
1303.41	1.503
1306.99	28.737
1310.57	24.198
1314.15	47.196
1317.73	88.726
1321.3	25.82
1324.87	122.283
1328.44	81.363
1332.01	56.565
1335.58	62.65
1339.14	12.979
1342.71	89.614
1346.27	80.366
1349.83	150.478
1353.39	149.17
1356.94	201.419
1360.5	166.417
1364.05	119.689
1367.6	68.321
1371.15	97.494
1374.7	76.585
1378.24	132.8
1381.79	140.164
1385.33	149.606
1388.87	213.661
1392.41	189.803
1395.95	169.177
1399.48	121.617
1403.02	77.827
1406.55	92.255
1410.08	81.69
1413.61	133.9
1417.13	78.689
1420.66	195.823
1424.18	120.182
1427.7	207.929
1431.22	219.66
1434.74	220.607
1438.26	156.134
1441.77	138.705
1445.28	197.339
1448.79	144.767
1452.3	92.164
1455.81	140.006
1459.32	148.563
1462.82	200.259
1466.32	138.229
1469.82	155.431
1473.32	98.236
1476.82	85.941
1480.32	70.644
1483.81	33.498
1487.3	35.784
1490.79	82.901
1494.28	12.007
1497.77	60.914
1501.25	46.563
1504.74	110.171
1508.22	117.875
1511.7	0
