Measurement: Raman, 514 nm, depolarized, Raman Data Processed
Mineral: Axinite-(Fe)
Rruff sample: R060558
Ideal chemistry: Ca_4_Fe^2+^_2_Al_4_[B_2_Si_8_O_30_](OH)_2_
Locality: unknown
Source: Gemological Institute of America
Description: Brown flattened crystal
Measured chemistry: Ca_2.00_(Fe^2+^_0.60_Mg_0.35_Mn_0.05_)_Î£=1_Al_2.00_BSi_4.00_O_15_(OH) ; B not measured
Pin_id: M01972
Orientation: Laser parallel to (1 0 1). Fiducial mark perpendicular to laser is parallel to -b [0 -1 0]
Raman shift (cm-1)	intensity
97.765	0
102.749	886.452
107.729	2820.21
112.706	1623.26
117.68	1306.44
122.651	861.992
127.619	164.577
132.584	182.469
137.545	390.397
142.503	1934.96
147.459	3810.34
152.411	5448.99
157.36	4213.65
162.305	4126.07
167.248	6540.83
172.188	7152.92
177.124	3387.3
182.058	837.854
186.988	693.325
191.915	1842.38
196.839	1974.15
201.76	2214.24
206.678	3659.54
211.593	4544.89
216.504	3941.15
221.413	2102.28
226.319	592.193
231.221	229.182
236.121	53.1435
241.017	494.378
245.91	1610.72
250.8	2328.2
255.688	2543.48
260.572	3011.75
265.453	3835.61
270.331	4475.04
275.206	3538.72
280.078	2276.63
284.947	1948.8
289.813	2562.41
294.676	4246.09
299.536	6780.51
304.393	7252.85
309.247	5745.29
314.098	3652.99
318.946	2917.95
323.791	1901.88
328.633	1039.73
333.472	1392.47
338.307	3314.07
343.14	6458.49
347.97	7225.7
352.797	5007.66
357.622	2096.41
362.443	198.85
367.261	195.206
372.076	14.2021
376.888	245.315
381.697	1575.74
386.504	4818.94
391.307	7324.71
396.107	5898.59
400.905	2699.9
405.7	1565.62
410.491	1618.74
415.28	3562.24
420.066	5079.1
424.848	5920.4
429.628	6735.26
434.405	4659.36
439.18	2046.66
443.951	1436.13
448.719	942.732
453.485	380.442
458.247	395.237
463.007	555.109
467.763	1015.03
472.517	1653.98
477.268	3374.94
482.016	7407.86
486.762	9215.73
491.504	4231.53
496.244	1195.58
500.98	1217.54
505.714	1265.95
510.445	1215.19
515.173	378.924
519.898	101.624
524.621	368.087
529.34	430.431
534.057	41.5537
538.771	386.075
543.482	1015.29
548.19	1176.2
552.896	1070.91
557.598	1494.71
562.298	2234.34
566.995	1815.6
571.689	1898.47
576.38	2304.92
581.069	2403.93
585.755	3115.5
590.438	3429.61
595.118	2101.26
599.795	1046.41
604.47	1358.08
609.142	2634.24
613.811	4473.89
618.477	5857.01
623.14	4719.6
627.801	1798.66
632.459	471.164
637.114	122.079
641.767	558.257
646.416	490.865
651.063	326.933
655.708	173.314
660.349	449.687
664.988	1190.89
669.624	3014.83
674.257	5735.77
678.887	5896.99
683.515	3472.12
688.14	1845.79
692.763	1756.24
697.382	2931.53
701.999	6141.94
706.613	14131.3
711.225	25141.1
715.834	26783.4
720.44	14436.1
725.043	6170.35
729.644	2964.02
734.242	1612.18
738.837	792.845
743.43	534.017
748.02	581.708
752.607	733.937
757.192	1554.72
761.774	2522.06
766.353	3525
770.93	2855.53
775.504	1570.77
780.075	653.756
784.644	179.227
789.21	216.302
793.773	201.622
798.334	274.362
802.892	242.407
807.447	174.518
812	730.631
816.55	592.896
821.098	255.017
825.643	24.9951
830.185	80.5469
834.725	39.9951
839.262	26.2568
843.796	379.483
848.328	569.711
852.857	678.964
857.384	666.266
861.908	743.64
866.429	672.107
870.948	741.691
875.464	696.415
879.978	809.308
884.489	853.392
888.998	1445.71
893.504	2610.39
898.007	3953.48
902.508	5116.06
907.006	5013.97
911.502	3513.3
915.995	2208.38
920.485	1458.5
924.973	1484.98
929.459	1832.83
933.942	2130.85
938.422	2420.89
942.9	3707.21
947.375	5922.94
951.848	9490.32
956.318	13384.6
960.786	18814.5
965.251	21183
969.714	16048.7
974.174	13397
978.631	13674.1
983.086	11882
987.539	8865.46
991.989	7958.64
996.437	8452.5
1000.88	10369
1005.32	10205.3
1009.76	7161.35
1014.2	3984.2
1018.64	2310.5
1023.07	1885.44
1027.5	1800.57
1031.93	1569.31
1036.35	1376.73
1040.78	1306.16
1045.19	1569.36
1049.61	1904.09
1054.03	2751.59
1058.44	3225.29
1062.85	3114.09
1067.26	2315.45
1071.66	1675.85
1076.07	2027.92
1080.47	3281.5
1084.87	3955.31
1089.26	2533.71
1093.65	1460.77
1098.05	1378.26
1102.43	1655.34
1106.82	1772.74
1111.2	1585.09
1115.59	1010.89
1119.96	611.631
1124.34	382.991
1128.71	422.851
1133.09	143.553
1137.45	92.501
1141.82	53.831
1146.18	0.772461
1150.55	24.6016
1154.91	69.3555
1159.26	68.5889
1163.62	24.7686
1167.97	40.4863
1172.32	83.3975
1176.67	78.3018
1181.01	64.9531
1185.36	138.727
1189.69	11.9102
1194.03	0.370117
1198.37	113.592
1202.7	92.4482
1207.03	43.0107
1211.36	75.416
1215.69	65.915
1220.01	163.332
1224.33	36.7412
1228.65	150.931
1232.97	4.56934
1237.28	48.8457
1241.6	110.722
1245.9	125.785
1250.21	146.486
1254.52	159.783
1258.82	188.296
1263.12	129.41
1267.42	358.146
1271.71	458.803
1276.01	271.301
1280.3	240.978
1284.59	207.086
1288.87	212.068
1293.16	295.978
1297.44	249.851
1301.72	277.799
1306	304.428
1310.27	370.469
1314.55	197.638
1318.82	376.789
1323.08	323.006
1327.35	268.102
1331.61	293.589
1335.87	265.762
1340.13	288.109
1344.39	309.897
1348.64	213.314
1352.9	47.082
1357.15	171.98
1361.39	192.952
1365.64	77.2715
1369.88	229.19
1374.12	96.4287
1378.36	131.394
1382.6	156.999
1386.83	317.421
1391.07	176.279
1395.29	163.645
1399.52	339.662
1403.75	272.44
1407.97	194.472
1412.19	148.153
1416.41	30.7305
1420.62	163.702
1424.84	133.133
1429.05	136.54
1433.26	269.331
1437.47	336.493
1441.67	533.099
1445.88	524.627
1450.08	614.434
1454.28	586.602
1458.47	536.511
1462.67	547.454
1466.86	291.478
1471.05	331.447
1475.24	232.056
1479.42	90.9404
1483.61	233.565
1487.79	178.233
1491.96	145.909
1496.14	245.181
1500.32	201.331
1504.49	68.0264
1508.66	57.8486
1512.83	108.819
1516.99	53.9492
1521.16	253.062
1525.32	245.715
1529.48	8.70898
1533.63	47.4228
1537.79	97.1289
1541.94	183.065
1546.09	159.836
1550.24	172.51
1554.39	362.069
1558.53	183.433
1562.67	0.641602
