Measurement: Raman, 514 nm, depolarized, Raman Data Processed
Mineral: Axinite-(Fe)
Rruff sample: R060194
Ideal chemistry: Ca_4_Fe^2+^_2_Al_4_[B_2_Si_8_O_30_](OH)_2_
Locality: near Dalbandi, Baluchistan Province, Pakistan
Source: Herbert Obodda
Description: Brown transparent wedge-shaped single crystal
Measured chemistry: Ca_2.00_(Fe^2+^_0.66_Mg_0.30_Mn_0.04_)Al_2.00_BSi_4.00_O_15_(OH)
Pin_id: L00543
Orientation: Laser parallel to (-1 0 -1). Fiducial mark perpendicular to laser is parallel to b [0 1 0]
Raman shift (cm-1)	intensity
53.91	0
58.864	110.27
63.817	204.752
68.767	20.0477
73.714	46.2172
78.659	58.9692
83.602	313.617
88.542	973.498
93.48	2207.7
98.416	3865.79
103.349	7198.62
108.28	15548.9
113.208	12733.6
118.134	5023.85
123.058	3174.28
127.979	2333.9
132.898	1886.76
137.814	3369.49
142.728	5753.19
147.639	4462.71
152.549	5287.13
157.455	6112.52
162.359	6082.94
167.261	9269.39
172.161	15832.8
177.058	8500.12
181.952	2648.27
186.845	863.357
191.734	1366.74
196.622	3389.21
201.507	4354.32
206.389	8133.15
211.269	10751.4
216.147	9300.27
221.022	5318.16
225.895	2228.8
230.765	792.9
235.633	193.923
240.498	812.697
245.361	2650.55
250.222	4467.98
255.08	6181.48
259.936	6618.86
264.789	8493.97
269.64	14275.7
274.488	17936.8
279.334	13675.4
284.178	7532.23
289.019	6460.37
293.857	9473.69
298.693	14486.1
303.527	16982.6
308.358	16270.1
313.187	9478.46
318.013	7120.29
322.837	5582.39
327.659	3350.09
332.478	3151.26
337.294	2715.86
342.108	6005.77
346.92	11759
351.729	14060.2
356.535	10530.7
361.34	3249.85
366.141	323.57
370.94	272.166
375.737	258.628
380.531	278.406
385.323	2990.68
390.113	8238.92
394.9	8898.77
399.684	4393.71
404.466	2257.72
409.245	2519.75
414.022	6033.77
418.797	14365.8
423.569	11456.7
428.338	14843.5
433.105	14471.1
437.87	7059.59
442.632	6005.8
447.391	7091.74
452.149	1929.33
456.903	225.557
461.655	270.029
466.405	322.817
471.152	363.964
475.897	833.822
480.639	2790.11
485.378	7134.81
490.116	3837.89
494.85	237.126
499.582	197.316
504.312	224.931
509.039	1071.87
513.764	1720.27
518.486	1133.51
523.206	283.786
527.923	53.3823
532.638	86.2432
537.35	677.466
542.059	1607.67
546.766	2941.91
551.471	1993.85
556.173	1451.06
560.873	2743.47
565.57	2792.61
570.264	2977.82
574.957	4304.85
579.646	4149.65
584.333	5684.23
589.018	9534.53
593.7	8087.56
598.379	3183.29
603.056	1371.92
607.73	1288.24
612.402	2044.95
617.072	2138.66
621.739	1758.17
626.403	628.448
631.065	58.5308
635.724	78.811
640.381	664.871
645.035	1397.7
649.687	895.558
654.336	196.574
658.983	37.23
663.627	365.541
668.268	1807.42
672.907	5496.96
677.544	9891.09
682.178	6851.01
686.809	2892.25
691.438	2018.41
696.065	2715.99
700.688	5531.98
705.31	12635
709.929	29286.3
714.545	47791.8
719.158	34152.9
723.77	15217.6
728.378	6906.87
732.984	3760.74
737.588	2277.21
742.189	1491.7
746.787	1076.44
751.383	985.966
755.976	1366.2
760.567	2422.09
765.155	4183.67
769.741	4984.18
774.324	3435.13
778.904	1794.88
783.482	726.883
788.058	364.793
792.631	141.531
797.201	56.437
801.769	50.7822
806.334	246.071
810.897	694.391
815.457	967.727
820.014	165.991
824.569	255.144
829.122	310.283
833.671	219.262
838.219	150.687
842.763	16.4829
847.306	401.428
851.845	805.441
856.382	916.545
860.917	956.762
865.448	940.115
869.978	960.627
874.505	1218.32
879.029	1525.25
883.55	1937.42
888.069	2858.87
892.586	4597.68
897.1	7415.9
901.611	9158.48
906.12	8836.6
910.626	7577.86
915.129	4947.03
919.63	3112.77
924.129	2328.99
928.625	2705.41
933.118	3247.63
937.609	2650.52
942.097	2335.72
946.582	3116.08
951.065	4732.04
955.546	7111.5
960.023	11394.4
964.499	18079.1
968.971	17852.9
973.441	15746.3
977.909	20831
982.374	25079.2
986.836	19794.3
991.295	16620.1
995.753	17107.6
1000.21	18210.8
1004.66	18798.7
1009.11	14883
1013.55	8617.5
1018	4828.86
1022.44	3045.94
1026.88	2517.94
1031.32	2644.62
1035.75	2255
1040.18	2408.35
1044.61	2531.54
1049.04	2693.97
1053.46	3499.66
1057.88	4243.6
1062.3	3795.43
1066.71	2677.45
1071.13	1649.93
1075.54	1711.09
1079.94	2917.11
1084.35	5248.91
1088.75	4273.36
1093.15	2470.18
1097.55	1595.06
1101.94	1474.18
1106.34	1707.56
1110.73	1446.26
1115.11	948.818
1119.5	639.448
1123.88	336.733
1128.26	187.312
1132.63	134.213
1137.01	57.2546
1141.38	18.0137
1145.75	27.3938
1150.12	34.9265
1154.48	62.6907
1158.84	116.839
1163.2	57.0388
1167.55	46.0413
1171.91	2.53589
1176.26	30.9241
1180.61	47.6177
1184.95	63.7241
1189.29	27.24
1193.63	16.3926
1197.97	14.4263
1202.31	50.2114
1206.64	16.4116
1210.97	32.4526
1215.29	74.3015
1219.62	25.9172
1223.94	56.6641
1228.26	55.3044
1232.57	108.049
1236.89	62.0928
1241.2	144.577
1245.51	104.531
1249.81	152.276
1254.12	125.102
1258.42	147.848
1262.72	103.457
1267.01	206.468
1271.3	277.978
1275.59	288.466
1279.88	316.393
1284.17	271.636
1288.45	251.756
1292.73	262.526
1297.01	216.782
1301.28	177.992
1305.55	182.908
1309.82	215.851
1314.09	170.619
1318.35	196.272
1322.61	200.828
1326.87	206.595
1331.13	151.043
1335.38	167.389
1339.63	76.7256
1343.88	127.108
1348.12	127.559
1352.37	123.557
1356.61	108.323
1360.85	173.105
1365.08	154.16
1369.31	199.474
1373.54	190.746
1377.77	174.852
1381.99	191.07
1386.22	172.052
1390.43	146.074
1394.65	108.706
1398.87	120.69
1403.08	139.809
1407.29	102.649
1411.49	72.1748
1415.69	41.5486
1419.89	140.369
1424.09	76.6221
1428.29	97.7163
1432.48	127.537
1436.67	133.55
1440.86	228.612
1445.04	311.089
1449.23	342.345
1453.4	345.7
1457.58	405.749
1461.76	302.179
1465.93	293.217
1470.1	173.65
1474.26	128.989
1478.43	93.2808
1482.59	81.6172
1486.75	50.9119
1490.9	24.9128
1495.06	26.3105
1499.21	2.91968
1503.35	11.7793
1507.5	17.634
1511.64	40.8062
1515.78	11.125
1519.92	31.7004
1524.05	11.4465
1528.18	91.3897
1532.31	78.2529
1536.44	68.2219
1540.56	54.1907
1544.69	47.9009
1548.8	5.15454
1552.92	90.6956
1557.03	92.542
1561.14	14.9661
1565.25	12.8257
1569.36	116.987
