Measurement: Raman, 514 nm, depolarized, Raman Data Processed
Mineral: Axinite-(Fe)
Rruff sample: R060194
Ideal chemistry: Ca_4_Fe^2+^_2_Al_4_[B_2_Si_8_O_30_](OH)_2_
Locality: near Dalbandi, Baluchistan Province, Pakistan
Source: Herbert Obodda
Description: Brown transparent wedge-shaped single crystal
Measured chemistry: Ca_2.00_(Fe^2+^_0.66_Mg_0.30_Mn_0.04_)Al_2.00_BSi_4.00_O_15_(OH)
Pin_id: L00975
Orientation: Laser parallel to a* (1 0 0). Fiducial mark perpendicular to laser is parallel to b [0 1 0]
Raman shift (cm-1)	intensity
53.91	0
58.864	121.194
63.817	182.754
68.767	68.4962
73.714	13.4971
78.659	27.7432
83.602	130.727
88.542	906.613
93.48	2534.87
98.416	3665.7
103.349	4134.87
108.28	6919.86
113.208	8076.7
118.134	5094.69
123.058	4553.27
127.979	3552.86
132.898	2058.33
137.814	2023.03
142.728	3496.28
147.639	3632.22
152.549	7029.81
157.455	7420.61
162.359	5475.7
167.261	7200.05
172.161	15018.6
177.058	9887.19
181.952	3340.79
186.845	888.261
191.734	1106.47
196.622	3504.29
201.507	3508.81
206.389	7483.19
211.269	12919.4
216.147	13828.9
221.022	11245.9
225.895	5112.06
230.765	1762.78
235.633	652.996
240.498	1431.36
245.361	2542.65
250.222	4143.37
255.08	7198.64
259.936	7844.56
264.789	8200.96
269.64	11803.7
274.488	13844.6
279.334	10794.5
284.178	6104.51
289.019	4832.47
293.857	6645.29
298.693	9677.9
303.527	10713.2
308.358	10581.2
313.187	8636.7
318.013	12654.7
322.837	14488
327.659	6914.7
332.478	4757.58
337.294	6292.59
342.108	12306.7
346.92	18161.8
351.729	11787.4
356.535	6497.65
361.34	1216.63
366.141	390.107
370.94	589.409
375.737	49.0278
380.531	545.471
385.323	3672.79
390.113	9613.85
394.9	10117.8
399.684	5966.95
404.466	3321
409.245	2294.46
414.022	4049.27
418.797	10145.4
423.569	14888.8
428.338	20778.3
433.105	18868.1
437.87	8852.85
442.632	5300.65
447.391	6291.41
452.149	2240.07
456.903	843.562
461.655	494.841
466.405	538.85
471.152	1680.53
475.897	2235.84
480.639	4425.71
485.378	10119.1
490.116	6630.98
494.85	1416.26
499.582	412.891
504.312	169.815
509.039	126.759
513.764	49.0767
518.486	32.1538
523.206	307.175
527.923	578.374
532.638	380.291
537.35	228.76
542.059	1328.04
546.766	3003.26
551.471	2511.88
556.173	2046.46
560.873	4108.7
565.57	4781.89
570.264	4140.84
574.957	5487.5
579.646	4500.83
584.333	3981.56
589.018	5323.39
593.7	4474.56
598.379	1682.29
603.056	1021.55
607.73	1791.32
612.402	3829.56
617.072	6170.27
621.739	7283.42
626.403	3838.99
631.065	1149.96
635.724	629.313
640.381	1561.04
645.035	2715.86
649.687	2046.62
654.336	925.314
658.983	613.874
663.627	1119.51
668.268	2659.81
672.907	6653.22
677.544	12525.7
682.178	9659.49
686.809	4459
691.438	2867.04
696.065	3450.95
700.688	6136.1
705.31	13320.3
709.929	29949.6
714.545	50564.3
719.158	38354.4
723.77	16798.8
728.378	7445.6
732.984	3878.82
737.588	2115.45
742.189	1249.52
746.787	894.02
751.383	831.986
755.976	1271.43
760.567	2049.38
765.155	3391.85
769.741	3969.87
774.324	2838.46
778.904	1289.65
783.482	537.475
788.058	43.103
792.631	180.03
797.201	251.452
801.769	293.154
806.334	39.7183
810.897	469.887
815.457	726.535
820.014	242.813
824.569	142.06
829.122	201.775
833.671	107.751
838.219	8.1001
842.763	123.299
847.306	605.669
851.845	1193.06
856.382	1672.49
860.917	1835.01
865.448	2178.64
869.978	2448.41
874.505	2423.36
879.029	2525.54
883.55	2723.06
888.069	2954.99
892.586	4292.36
897.1	7154.28
901.611	11587.8
906.12	16878.8
910.626	16551.5
915.129	10450
919.63	5667.23
924.129	3524.06
928.625	2879.16
933.118	3159.6
937.609	3172.34
942.097	3799.53
946.582	5575.72
951.065	9124.22
955.546	14302.5
960.023	22449.2
964.499	34930.6
968.971	35207.2
973.441	25476.6
977.909	26996.1
982.374	30518.9
986.836	24402.7
991.295	20879.6
995.753	19639.4
1000.21	19250.2
1004.66	18394.1
1009.11	13862.1
1013.55	8504.9
1018	5035.78
1022.44	3289.94
1026.88	2800.88
1031.32	2997.62
1035.75	2813.8
1040.18	3007.73
1044.61	3333.89
1049.04	3801.41
1053.46	5023.79
1057.88	6195.95
1062.3	6078.16
1066.71	4379.18
1071.13	2897.01
1075.54	2570.81
1079.94	4079.25
1084.35	7055.27
1088.75	6091.98
1093.15	3233.19
1097.55	1836.48
1101.94	1449.99
1106.34	1404.76
1110.73	1203.12
1115.11	847.005
1119.5	457.605
1123.88	347.415
1128.26	188.653
1132.63	119.892
1137.01	30.948
1141.38	20.0059
1145.75	80.9665
1150.12	75.5535
1154.48	8.50049
1158.84	90.2776
1163.2	83.8516
1167.55	82.9097
1171.91	69.9287
1176.26	90.7271
1180.61	10.2585
1184.95	32.294
1189.29	67.76
1193.63	38.1392
1197.97	6.177
1202.31	68.0727
1206.64	30.2029
1210.97	119.764
1215.29	54.0427
1219.62	5.65771
1223.94	134.957
1228.26	69.4329
1232.57	77.0996
1236.89	8.93555
1241.2	117.852
1245.51	74.9768
1249.81	177.171
1254.12	186.537
1258.42	147.086
1262.72	211.172
1267.01	188.773
1271.3	245.269
1275.59	263.995
1279.88	270.49
1284.17	208.884
1288.45	253.326
1292.73	254.14
1297.01	223.16
1301.28	150.126
1305.55	159.491
1309.82	151.087
1314.09	84.728
1318.35	118.524
1322.61	113.542
1326.87	80.6411
1331.13	179.981
1335.38	226.635
1339.63	187.26
1343.88	141.751
1348.12	181.327
1352.37	205.33
1356.61	260.936
1360.85	218.714
1365.08	260.161
1369.31	247.989
1373.54	197.99
1377.77	191.557
1381.99	179.534
1386.22	196.556
1390.43	207.291
1394.65	143.912
1398.87	108.815
1403.08	163.093
1407.29	67.4509
1411.49	111.311
1415.69	150.176
1419.89	134.728
1424.09	206.024
1428.29	129.503
1432.48	91.4443
1436.67	139.685
1440.86	83.6587
1445.04	216.434
1449.23	68.2627
1453.4	112.228
1457.58	60.2471
1461.76	60.1028
1465.93	92.0081
1470.1	43.978
1474.26	70.9477
1478.43	56.9871
1482.59	97.9805
1486.75	69.561
1490.9	16.7712
1495.06	81.4727
1499.21	32.908
1503.35	14.6062
1507.5	19.123
1511.64	35.137
1515.78	53.3484
1519.92	42.404
1524.05	33.5449
1528.18	44.47
1532.31	125.507
1536.44	63.8069
1540.56	88.1489
1544.69	75.0706
1548.8	0.12085
1552.92	110.763
1557.03	110.865
1561.14	106.196
1565.25	79.9351
1569.36	98.792
