Measurement: Raman, 514 nm, depolarized, Raman Data Processed
Mineral: Axinite-(Fe)
Rruff sample: R050061
Ideal chemistry: Ca_4_Fe^2+^_2_Al_4_[B_2_Si_8_O_30_](OH)_2_
Locality: Jamestown, California, USA
Source: Rock Currier
Description: Brown colored axe-head-shaped single crystals
Measured chemistry: Ca_2.00_(Fe^2+^_0.73_Mg_0.20_Mn_0.07_)Al_2.00_BSi_4_O_15_(OH)
Pin_id: L00381
Orientation: Laser parallel to a* (1 0 0). Fiducial mark perpendicular to laser is parallel to b [0 1 0]
Raman shift (cm-1)	intensity
91.065	0
95.269	70.093
99.471	1010.75
103.67	2174.34
107.868	6094.92
112.063	4464.78
116.256	1750.5
120.447	798.174
124.636	449.495
128.822	64.491
133.006	47.107
137.188	1284.94
141.368	1427.08
145.545	1699.14
149.72	3004.02
153.893	2177.41
158.064	639.461
162.233	871.349
166.399	2153.72
170.563	4991.05
174.725	4082.78
178.885	1436.3
183.043	163.953
187.198	154.196
191.351	2003.56
195.502	2729.41
199.651	1728.61
203.797	4285.2
207.942	5667.02
212.084	4380.85
216.224	2837.39
220.362	2013.59
224.497	549.605
228.631	195.215
232.762	379.207
236.891	159.285
241.018	373.657
245.143	742.34
249.265	966.758
253.386	2377.47
257.504	2710.57
261.62	2018.5
265.734	3211.86
269.845	5408.01
273.955	6742.73
278.062	5485.17
282.167	3767.57
286.27	3132.02
290.371	2971.62
294.47	3347.42
298.567	3794.7
302.661	5285.94
306.753	7033.03
310.843	4986.31
314.931	3674.08
319.017	4609.42
323.101	3235.31
327.182	2284.19
331.261	2307.38
335.339	2335.1
339.414	3910.82
343.487	7042.58
347.557	6197.23
351.626	5541.31
355.693	3060.99
359.757	1217.48
363.819	489.602
367.879	309.059
371.937	494.719
375.993	511.081
380.047	981.399
384.099	2121.98
388.148	5094.46
392.196	6160.42
396.241	3381.62
400.284	1783.13
404.325	1181.93
408.364	1091.1
412.401	2585.37
416.435	7673.53
420.468	7344.52
424.498	5371.13
428.527	5365.31
432.553	3345.05
436.577	1683.37
440.599	1715.3
444.619	3613.14
448.637	2192.67
452.653	646.519
456.667	238.055
460.678	79.403
464.688	279.394
468.695	679.03
472.701	1047.99
476.704	1593.03
480.705	3822.76
484.704	8917.58
488.701	5153.48
492.696	1567.5
496.689	863.66
500.68	1127.8
504.668	1600.41
508.655	1908.05
512.639	1690.59
516.622	944.165
520.602	303.748
524.581	98.029
528.557	164.399
532.531	41.314
536.503	132.152
540.473	8.067
544.441	85.35
548.407	151.332
552.371	117.047
556.333	18.886
560.293	321.433
564.251	447.75
568.206	777.541
572.16	1464.12
576.112	1393.49
580.061	1037.64
584.009	1285.59
587.954	2397.33
591.897	2315.86
595.839	977.198
599.778	406.34
603.716	175.289
607.651	499.038
611.584	1115.6
615.515	1488.8
619.444	1856.5
623.372	1294.35
627.297	362.791
631.22	42.477
635.141	70.558
639.06	470.779
642.977	932.279
646.892	974.237
650.805	446.29
654.716	77.084
658.625	20.321
662.532	140.228
666.437	437.892
670.34	950.744
674.241	2118.03
678.139	3018.69
682.036	1980.25
685.931	969.632
689.824	711.263
693.715	730.75
697.604	1270.19
701.491	2443.54
705.376	5063.39
709.259	10411
713.139	16422
717.018	13695.5
720.895	7160.17
724.77	3714.71
728.643	1996.15
732.514	1137.5
736.383	695.775
740.25	555.969
744.115	509.091
747.978	423.146
751.839	472.141
755.698	763.082
759.555	1403.36
763.41	2364.21
767.263	2809.01
771.114	2070.79
774.964	1202.57
778.811	614.372
782.656	386.17
786.499	166.292
790.341	46.493
794.18	102.3
798.017	192.339
801.853	124.091
805.686	36.595
809.518	340.154
813.347	589.426
817.175	272.209
821.001	90.105
824.824	20.31
828.646	50.99
832.466	45.954
836.284	4.938
840.1	140.258
843.914	389.94
847.726	673.769
851.536	814.746
855.344	680.031
859.15	411.729
862.954	466.979
866.756	650.8
870.557	736.936
874.355	866.252
878.152	1037.79
881.946	1220.54
885.739	1676.5
889.53	2320.67
893.318	3374.02
897.105	4492.57
900.89	4872.4
904.673	5505.39
908.454	5963.53
912.234	5081.88
916.011	3470.41
919.786	2346.12
923.56	1801.99
927.331	1890.01
931.101	2032.19
934.868	2186.52
938.634	2462.03
942.398	2974.15
946.16	4234.9
949.92	5905.03
953.678	7719.69
957.435	10548.2
961.189	14834.6
964.941	14783.7
968.692	10653
972.441	8832.58
976.187	10376
979.932	11050.6
983.675	8970.33
987.416	7970.73
991.155	7761.38
994.893	8202.26
998.628	8753.42
1002.36	9736.44
1006.09	8613.91
1009.82	5588.46
1013.55	3436.57
1017.28	2270.3
1021	1782.79
1024.72	1876.14
1028.44	1803.92
1032.16	1268.87
1035.88	950.85
1039.59	679.561
1043.31	570.605
1047.02	549.141
1050.73	621.815
1054.43	836.007
1058.14	799.668
1061.84	768.804
1065.54	565.787
1069.24	491.216
1072.94	522.842
1076.64	885.312
1080.33	1407.89
1084.03	1352.64
1087.71	943.729
1091.4	550.311
1095.09	552.339
1098.78	668.403
1102.46	929.308
1106.14	1062.57
1109.82	876.357
1113.5	572.654
1117.17	400.9
1120.85	283.06
1124.52	154.568
1128.19	48.944
1131.86	97.244
1135.52	95.833
1139.19	93.716
1142.85	94.565
1146.51	27.128
1150.17	112.616
1153.83	30.438
1157.48	23.328
1161.14	2.272
1164.79	39.283
1168.44	10.574
1172.09	17.647
1175.73	66.539
1179.38	29.685
1183.02	88.7
1186.66	38.049
1190.3	24.087
1193.94	94.536
1197.58	69.502
1201.21	181.22
1204.84	56.175
1208.47	26.729
1212.1	4.895
1215.72	60.023
1219.35	138.794
1222.97	120.537
1226.59	111.575
1230.21	86.915
1233.83	125.957
1237.45	34.721
1241.06	10.187
1244.67	47.958
1248.28	48.525
1251.89	104.191
1255.5	132.375
1259.1	112.555
1262.7	137.275
1266.31	81.546
1269.9	95.416
1273.5	109.973
1277.1	78.168
1280.69	135.975
1284.29	123.41
1287.88	140.396
1291.46	197.018
1295.05	75.719
1298.64	93.579
1302.22	11.786
1305.8	28.752
1309.38	43.103
1312.96	75.672
1316.54	124.088
1320.11	121.814
1323.68	44.598
1327.25	97.071
1330.82	38.675
1334.39	8.189
1337.96	35.84
1341.52	44.974
1345.08	51.718
1348.64	44.477
1352.2	155.125
1355.76	155.635
1359.31	151.93
1362.87	111.106
1366.42	40.071
1369.97	34.748
1373.52	23.18
1377.06	57.237
1380.61	100.536
1384.15	83.854
1387.69	173.212
1391.23	193.337
1394.77	156.623
1398.3	149.088
1401.84	61.739
1405.37	104.949
1408.9	80.896
1412.43	65.31
1415.96	78.105
1419.48	97.851
1423.01	143.095
1426.53	157.664
1430.05	135.46
1433.57	131.016
1437.08	104.608
1440.6	94.371
1444.11	100.384
1447.62	15.343
1451.13	35.933
1454.64	59.312
1458.15	74.625
1461.65	79.292
1465.16	151.521
1468.66	179.117
1472.16	247.396
1475.65	113.25
1479.15	81.118
1482.64	86.227
1486.14	49.91
1489.63	44.54
1493.12	11.128
1496.61	44.444
1500.09	56.037
1503.58	99.612
1507.06	111.347
1510.54	154.804
1514.02	201.865
