Measurement: Raman, 514 nm, ccw, Raman Data Processed
Mineral: Axinite-(Fe)
Rruff sample: R050061
Ideal chemistry: Ca_4_Fe^2+^_2_Al_4_[B_2_Si_8_O_30_](OH)_2_
Locality: Jamestown, California, USA
Source: Rock Currier
Description: Brown colored axe-head-shaped single crystals
Measured chemistry: Ca_2.00_(Fe^2+^_0.73_Mg_0.20_Mn_0.07_)Al_2.00_BSi_4_O_15_(OH)
Pin_id: L00256
Orientation: Laser parallel to (1 0 1). Fiducial mark perpendicular to laser is parallel to b [0 1 0]
Raman shift (cm-1)	intensity
91.065	0
95.269	136.536
99.471	645.064
103.67	1837.95
107.868	6248.81
112.063	7626.39
116.256	4048.69
120.447	3400.33
124.636	3152.81
128.822	1698.94
133.006	1447.74
137.188	2725.34
141.368	4439.18
145.545	3496.87
149.72	4350.56
153.893	3376.28
158.064	1977.62
162.233	2339.51
166.399	4904.25
170.563	7801.03
174.725	5418.93
178.885	2092.75
183.043	164.229
187.198	538.849
191.351	116.933
195.502	242.524
199.651	82.177
203.797	1917.31
207.942	4521.66
212.084	6272.21
216.224	6232.91
220.362	4703.81
224.497	1922.63
228.631	117.804
232.762	173.642
236.891	819.747
241.018	2264.35
245.143	2706.74
249.265	2740.28
253.386	4389.06
257.504	5661.38
261.62	5265.92
265.734	7225.5
269.845	11056.7
273.955	14528.2
278.062	13679.2
282.167	9639.37
286.27	7347.86
290.371	7014.85
294.47	6830.63
298.567	6255.39
302.661	5269.97
306.753	4599.12
310.843	4286.65
314.931	6585.91
319.017	10859.4
323.101	9913.17
327.182	7376.4
331.261	6798.88
335.339	6711.61
339.414	9715.72
343.487	13550
347.557	11570.7
351.626	7069.77
355.693	3560.53
359.757	1081.29
363.819	123.625
367.879	144.131
371.937	329.948
375.993	716.455
380.047	847.874
384.099	2170.71
388.148	4408.86
392.196	5168.18
396.241	3625.27
400.284	2097.66
404.325	1731.52
408.364	1595.38
412.401	2765.25
416.435	6453.13
420.468	9486
424.498	10898.7
428.527	12151.2
432.553	9853.48
436.577	5795.41
440.599	4995.39
444.619	7604.56
448.637	5588.23
452.653	2312.03
456.667	1210.57
460.678	532.871
464.688	88.931
468.695	282.765
472.701	642.596
476.704	956.781
480.705	2419.49
484.704	5291.79
488.701	4067.65
492.696	1111.96
496.689	239.485
500.68	128.888
504.668	468.122
508.655	1133.23
512.639	1671.15
516.622	1406.43
520.602	613.925
524.581	26.103
528.557	401.167
532.531	281.426
536.503	183.208
540.473	43.856
544.441	183.439
548.407	231.779
552.371	235.935
556.333	811.349
560.293	2212.87
564.251	2722.2
568.206	2845.35
572.16	4070.32
576.112	4207.08
580.061	2837.66
584.009	1788.03
587.954	1802.21
591.897	1484.18
595.839	592.959
599.778	102.535
603.716	25.861
607.651	342.71
611.584	1141.41
615.515	2705.92
619.444	4052.24
623.372	3441.96
627.297	1537.59
631.22	627.252
635.141	872.632
639.06	1626.52
642.977	2786.6
646.892	2957.22
650.805	1914.56
654.716	1011.72
658.625	611.87
662.532	615.878
666.437	1009.98
670.34	2181.74
674.241	4539.73
678.139	6151.83
682.036	4387.24
685.931	2476.45
689.824	1757.87
693.715	1749.21
697.604	2465.89
701.491	4405.01
705.376	8655.05
709.259	17923.9
713.139	29123
717.018	26751.8
720.895	14340.3
724.77	7188.61
728.643	3801.67
732.514	2401.49
736.383	1407.09
740.25	845.459
744.115	574.607
747.978	472.54
751.839	359.261
755.698	356.679
759.555	437.438
763.41	792.423
767.263	945.355
771.114	757.107
774.964	371.683
778.811	99.097
782.656	42.674
786.499	145.074
790.341	221.678
794.18	245.39
798.017	228.39
801.853	184.443
805.686	6.667
809.518	488.632
813.347	907.837
817.175	791.957
821.001	285.987
824.824	50.177
828.646	17.795
832.466	105.552
836.284	189.282
840.1	302.524
843.914	551.625
847.726	983.36
851.536	1522.44
855.344	1667.62
859.15	1807.8
862.954	1924.03
866.756	2014.32
870.557	1988.66
874.355	2265.1
878.152	2465.67
881.946	2425.38
885.739	2671.19
889.53	3085.11
893.318	4312.16
897.105	5814.35
900.89	7199.63
904.673	8480.03
908.454	8090.53
912.234	6611.23
916.011	4662.08
919.786	3669.11
923.56	3292.32
927.331	3863.7
931.101	4438.68
934.868	4404.08
938.634	3811.76
942.398	4255.34
946.16	5729.73
949.92	8013.5
953.678	10245.4
957.435	13684
961.189	19077.4
964.941	21951.1
968.692	18255.1
972.441	15659.3
976.187	18303.7
979.932	19887.9
983.675	16052.3
987.416	13267.8
991.155	12323.6
994.893	11019.6
998.628	9912.69
1002.36	8943.36
1006.09	7260.54
1009.82	5127.87
1013.55	3573.01
1017.28	2596.94
1021	1973.25
1024.72	1640.64
1028.44	1513.48
1032.16	1452.54
1035.88	1670.75
1039.59	2008.38
1043.31	2192.99
1047.02	2055.53
1050.73	2279.87
1054.43	2568.19
1058.14	2679.72
1061.84	2366.9
1065.54	1771.82
1069.24	1404.96
1072.94	1526.04
1076.64	2004.56
1080.33	2946.13
1084.03	3048.05
1087.71	2077.72
1091.4	1293.68
1095.09	914.774
1098.78	969.921
1102.46	1199.32
1106.14	1246.19
1109.82	995.86
1113.5	800.663
1117.17	528.283
1120.85	391.522
1124.52	304.707
1128.19	185.947
1131.86	117.386
1135.52	86.864
1139.19	49.944
1142.85	61.731
1146.51	34.847
1150.17	10.151
1153.83	44.706
1157.48	8.145
1161.14	49.985
1164.79	59.205
1168.44	102.137
1172.09	45.912
1175.73	34.876
1179.38	30.244
1183.02	57.205
1186.66	29.891
1190.3	48.324
1193.94	14.638
1197.58	26.404
1201.21	10.578
1204.84	28.408
1208.47	15.055
1212.1	34.76
1215.72	6.947
1219.35	1.645
1222.97	8.083
1226.59	7.164
1230.21	57.59
1233.83	16.011
1237.45	53.195
1241.06	47.228
1244.67	55.269
1248.28	52.101
1251.89	55.382
1255.5	105.935
1259.1	91.869
1262.7	99.629
1266.31	124.718
1269.9	146.395
1273.5	103.638
1277.1	136.461
1280.69	85.93
1284.29	93.078
1287.88	82.924
1291.46	62.467
1295.05	61.802
1298.64	76.393
1302.22	53.628
1305.8	42.948
1309.38	28.165
1312.96	46.946
1316.54	51.847
1320.11	49.223
1323.68	83.734
1327.25	123.173
1330.82	68.132
1334.39	142.8
1337.96	64.987
1341.52	148.642
1345.08	132.221
1348.64	128.583
1352.2	142.712
1355.76	157.823
1359.31	159.787
1362.87	135.011
1366.42	148.612
1369.97	169.274
1373.52	142.755
1377.06	150.02
1380.61	154.222
1384.15	93.44
1387.69	202.334
1391.23	127.535
1394.77	142.751
1398.3	97.982
1401.84	142.708
1405.37	131.351
1408.9	162.221
1412.43	126.431
1415.96	119.856
1419.48	126.721
1423.01	66.173
1426.53	54.807
1430.05	133.035
1433.57	119.336
1437.08	96.408
1440.6	57.317
1444.11	135.18
1447.62	39.843
1451.13	44.132
1454.64	59.67
1458.15	3.664
1461.65	16.775
1465.16	54.872
1468.66	13.698
1472.16	50.655
1475.65	58.763
1479.15	26.507
1482.64	17.314
1486.14	27.343
1489.63	14.18
1493.12	42.905
1496.61	59.879
1500.09	44.383
1503.58	50.855
1507.06	25.115
1510.54	11.961
