Measurement: Raman, 514 nm, depolarized, Raman Data Processed
Mineral: Axinite-(Fe)
Rruff sample: R060183
Ideal chemistry: Ca_4_Fe^2+^_2_Al_4_[B_2_Si_8_O_30_](OH)_2_
Locality: Skagit Bluffs, near Manning Park, British Columbia, Canada
Source: Lloyd Twaites
Description: Light-pink transparent axe-head-shaped single crystal
Measured chemistry: Ca_2.00_(Fe^2+^_0.58_Mn_0.23_Mg_0.19_)Al_2.00_B_1.00_Si_4.00_O_15_(OH)
Pin_id: L01391
Orientation: Laser parallel to -a* (-1 0 0). Fiducial mark perpendicular to laser is parallel to -b [0 -1 0]
Raman shift (cm-1)	intensity
52.671	0
57.626	143.143
62.579	87.2426
67.529	49.2902
72.477	93.9752
77.423	476.229
82.367	1214.17
87.308	2140.73
92.246	4142.9
97.182	5217.65
102.116	6603.49
107.047	10281.9
111.976	7580.92
116.903	5524.7
121.827	4276.57
126.749	3756.87
131.668	4271.53
136.585	5412.86
141.5	5475.06
146.412	5161.4
151.321	4931.21
156.229	4321.91
161.134	3922.55
166.036	6060.12
170.936	7037.54
175.834	4048.74
180.729	1731.63
185.622	1136.11
190.512	1881.12
195.4	2179.51
200.286	3302.48
205.169	5831.13
210.049	7040.98
214.928	5977.26
219.803	3560.2
224.677	1404.84
229.548	473.96
234.416	562.469
239.282	1173.76
244.146	2135.27
249.007	3443.25
253.866	4900.52
258.722	5806.59
263.576	6957.27
268.427	9341.44
273.276	9969.96
278.123	7778.75
282.967	5116.79
287.809	4678
292.648	5171.26
297.485	5180.52
302.319	5044.72
307.151	4319.79
311.98	4764.68
316.807	6892.32
321.631	5930.54
326.454	4213.14
331.273	3779.02
336.09	4913.05
340.905	6936.52
345.717	6356.44
350.527	4719.27
355.334	1574.91
360.139	25.7012
364.941	406.247
369.741	301.019
374.538	168.672
379.333	885.912
384.126	3221.19
388.916	4498.94
393.703	3536.71
398.488	2185.19
403.271	1569.18
408.051	2297.23
412.828	5122.3
417.603	8449.4
422.376	10099.3
427.146	8929.2
431.914	6530.92
436.679	4788.43
441.442	5877.71
446.202	4328.72
450.96	1679.39
455.715	877.714
460.467	265.637
465.218	342.097
469.965	706.059
474.711	1689.51
479.454	3993.42
484.194	4416.75
488.932	1658.47
493.667	335.538
498.4	102.791
503.13	456.486
507.858	931.151
512.583	676.285
517.306	92.8188
522.026	308.394
526.744	381.642
531.459	95.125
536.172	190.452
540.882	257.66
545.59	575.905
550.295	728.324
554.998	1747.04
559.698	2573.81
564.396	2141.51
569.091	2308.12
573.784	2219.59
578.474	1948.92
583.162	2132.08
587.847	2404.03
592.529	1387.77
597.209	628.273
601.887	614.511
606.562	1252.57
611.235	1957.23
615.905	2581.58
620.572	2276.6
625.237	1134.27
629.9	573.584
634.56	945.52
639.217	1812.34
643.872	2068.54
648.524	1319.77
653.174	778.297
657.821	683.082
662.466	853.062
667.108	2278.16
671.748	4970.33
676.385	6996.73
681.02	4704.93
685.652	2500.33
690.281	1905.65
694.908	2411.54
699.533	4596.56
704.155	10184.6
708.774	21173.2
713.391	29048.2
718.005	20144.8
722.617	9501.86
727.226	4291.42
731.833	2183.5
736.437	1111.09
741.039	655.209
745.638	472.873
750.234	314.082
754.828	437.84
759.419	615.157
764.008	930.045
768.595	912.518
773.178	469.465
777.759	192.371
782.338	54.124
786.914	217.938
791.488	251.197
796.059	224.327
800.627	222.317
805.193	85.8174
809.756	299.139
814.317	272.374
818.875	48.4775
823.431	15.2354
827.984	77.6479
832.534	69.6611
837.082	182.673
841.627	381.515
846.17	789.213
850.71	1262.79
855.248	1480.26
859.783	1559.64
864.316	1874.97
868.846	1960.27
873.373	1980.6
877.898	2205.99
882.42	2473.49
886.94	3213.12
891.457	4973.91
895.971	7978.89
900.483	10864.1
904.993	10597.7
909.5	7655.59
914.004	5171.21
918.505	3579.34
923.004	2837.16
927.501	2687.41
931.995	2474.69
936.486	2299.12
940.975	2530.72
945.461	3596.59
949.945	5282.21
954.426	7803.06
958.904	11943.9
963.38	15194
967.853	13641.2
972.324	14180.3
976.792	17896.4
981.258	17947
985.72	14644.2
990.181	12766
994.639	12429.3
999.094	12177.4
1003.55	10342.3
1008	6963.4
1012.44	4331.5
1016.89	2791.57
1021.33	1979.33
1025.77	1689.53
1030.21	1536.44
1034.64	1523.92
1039.07	1735.3
1043.5	1924.63
1047.93	2161.32
1052.35	2841.82
1056.78	3217.62
1061.19	2605.69
1065.61	1797.94
1070.02	1261.04
1074.43	1481.35
1078.84	2553.24
1083.25	2982.7
1087.65	2161.57
1092.05	1172.74
1096.45	776.994
1100.85	610.422
1105.24	589.168
1109.63	428.137
1114.02	304.463
1118.4	159.129
1122.78	198.72
1127.16	132.81
1131.54	41.7871
1135.92	2.38672
1140.29	16.8018
1144.66	10.147
1149.02	44.7022
1153.39	69.8618
1157.75	43.0552
1162.11	38.4922
1166.46	119.379
1170.82	28.4995
1175.17	12.6157
1179.52	5.86377
1183.86	8.00146
1188.21	14.2812
1192.55	88.9214
1196.89	58.7344
1201.22	31.147
1205.55	76.1016
1209.88	1.15625
1214.21	26.2695
1218.54	68.0425
1222.86	20.4126
1227.18	68.4248
1231.5	88.8711
1235.81	133.883
1240.12	79.3394
1244.43	77.2891
1248.74	189.022
1253.04	179.433
1257.34	209.702
1261.64	181.434
1265.94	287.325
1270.23	261.522
1274.52	243.327
1278.81	263.145
1283.1	279.044
1287.38	237.267
1291.66	286.731
1295.94	158.203
1300.21	177.214
1304.48	286.394
1308.75	189.969
1313.02	241.111
1317.29	264.67
1321.55	258.684
1325.81	146.619
1330.06	175.333
1334.32	120.402
1338.57	209.889
1342.82	110.56
1347.06	210.833
1351.31	175.273
1355.55	224.518
1359.79	132.34
1364.02	170.083
1368.26	96.9214
1372.49	196.422
1376.71	142.986
1380.94	165.076
1385.16	72.3682
1389.38	130.499
1393.6	29.3648
1397.81	83.0273
1402.02	128.036
1406.23	182.567
1410.44	139.55
1414.64	118.301
1418.85	104.681
1423.04	173.692
1427.24	54.501
1431.43	214.278
1435.62	301.019
1439.81	201.82
1444	332.621
1448.18	381.125
1452.36	280.269
1456.54	424.01
1460.71	380.988
1464.89	246.691
1469.06	141.146
1473.22	132.457
1477.39	78.064
1481.55	157.208
1485.71	414.067
1489.86	37.3052
1494.02	70.0908
1498.17	25.1489
1502.32	117.623
1506.46	64.9624
1510.61	103.473
1514.75	57.1592
1518.88	5.09863
1523.02	127.626
1527.15	16.2124
1531.28	163.373
1535.41	159.301
1539.53	188.436
1543.66	219.231
1547.78	22.7803
1551.89	229.673
1556.01	153.785
1560.12	78.188
1564.23	2.95215
1568.33	54.0298
