Measurement: Raman, 514 nm, depolarized, Raman Data Processed
Mineral: Axinite-(Fe)
Rruff sample: R060558
Ideal chemistry: Ca_4_Fe^2+^_2_Al_4_[B_2_Si_8_O_30_](OH)_2_
Locality: unknown
Source: Gemological Institute of America
Description: Brown flattened crystal
Measured chemistry: Ca_2.00_(Fe^2+^_0.60_Mg_0.35_Mn_0.05_)_Î£=1_Al_2.00_BSi_4.00_O_15_(OH) ; B not measured
Pin_id: M00869
Orientation: Laser parallel to (0 1 1). Fiducial mark perpendicular to laser is parallel to a [1 0 0]
Raman shift (cm-1)	intensity
132.7	0
137.631	303.994
142.56	1023.36
147.485	1405.89
152.408	1579.31
157.328	1461.72
162.246	1058.19
167.16	1379.43
172.073	1821.26
176.982	1351.33
181.888	237.945
186.792	385.2
191.694	693.704
196.592	1352.78
201.488	1693.02
206.381	2229.26
211.271	2649.12
216.159	2200.95
221.044	1563.68
225.926	547.022
230.806	154.291
235.683	268.661
240.557	133.434
245.429	437.388
250.298	931.798
255.164	1571.45
260.027	2320.04
264.888	3275.01
269.746	4389.83
274.601	4357.36
279.454	3119.98
284.304	2072.98
289.151	1864.62
293.996	2350.07
298.838	3137.33
303.677	3704
308.514	3519.5
313.348	2896.56
318.179	2250.4
323.008	1757.16
327.834	1296.79
332.657	1348.02
337.478	2166.89
342.295	3460.22
347.111	4662.95
351.923	4067.06
356.733	2532.5
361.54	958.248
366.345	245.253
371.147	92.5376
375.946	21.3936
380.743	674.548
385.537	1834.68
390.328	2670.35
395.116	2376.09
399.902	1288.77
404.686	876.905
409.466	1680.48
414.244	3286.34
419.019	5310.8
423.792	5542.16
428.562	4872.6
433.329	3265.03
438.094	2223.4
442.856	2624.67
447.616	2438.84
452.372	1021.89
457.126	310.816
461.878	84.6284
466.627	294.316
471.373	784.876
476.116	1707.33
480.857	3909.74
485.596	5143.07
490.331	3729.33
495.064	1158.58
499.795	589.634
504.522	616.574
509.247	493.388
513.97	283.576
518.69	34.0259
523.407	256.909
528.121	8.79004
532.833	35.2324
537.543	62.6206
542.249	8.18945
546.953	104.686
551.655	54.5488
556.354	112.062
561.05	426.617
565.743	734.997
570.434	922.133
575.123	1251.02
579.808	1370.65
584.491	1695.01
589.172	2020.11
593.85	1631.94
598.525	700.496
603.197	532.774
607.868	789.77
612.535	1553.48
617.2	2229.91
621.862	1987.05
626.522	956.886
631.178	281.43
635.833	264.672
640.485	468.61
645.134	488.245
649.78	304.639
654.424	129.816
659.066	270.815
663.704	366.261
668.341	1065.21
672.974	2169.68
677.605	2752.61
682.234	1943.76
686.859	1065.04
691.483	654.107
696.103	1190.53
700.721	2306.88
705.337	5327.92
709.949	10334.6
714.56	12817
719.167	8868
723.772	3997.7
728.375	1833.09
732.975	953.154
737.572	550.917
742.167	335.385
746.759	266.567
751.349	201.473
755.936	419.111
760.52	810.491
765.102	1094.62
769.681	1295.51
774.258	852.078
778.832	295.511
783.404	182.728
787.973	50.3472
792.539	179.68
797.103	36.1895
801.665	170.691
806.223	4.7959
810.779	258.12
815.333	209.106
819.884	130.022
824.433	21.9546
828.979	72.2046
833.522	73.0391
838.063	71.4912
842.601	209.848
847.137	430.193
851.67	695.106
856.2	719.912
860.729	780.315
865.254	644.766
869.777	559.3
874.297	577.043
878.815	913.04
883.33	982.21
887.843	1587.64
892.353	2646.21
896.861	4039.92
901.366	5574.77
905.869	6228.78
910.369	5528.96
914.866	3795.32
919.361	2231.86
923.854	1633.45
928.344	1476.57
932.831	1314.58
937.316	1484.54
941.798	1776.97
946.278	2722.64
950.755	4253.74
955.23	5917.35
959.702	8323.97
964.171	10371.9
968.638	9411.25
973.103	8387.12
977.565	9451.39
982.025	9553.08
986.482	8165.21
990.936	7453.77
995.388	7517.77
999.837	7964.16
1004.28	7712.28
1008.73	5941.31
1013.17	3351.76
1017.61	1794.75
1022.05	1173.08
1026.48	1165.27
1030.91	835.273
1035.34	557.62
1039.77	419.313
1044.19	349.347
1048.62	353.717
1053.03	564.418
1057.45	809.707
1061.87	936.866
1066.28	602.645
1070.69	435.486
1075.09	390.045
1079.5	568.865
1083.9	801.727
1088.3	601.514
1092.69	313.378
1097.09	208.845
1101.48	435.496
1105.87	476.509
1110.26	647.426
1114.64	286.884
1119.02	195.601
1123.4	65.2573
1127.78	98.1079
1132.15	9.47754
1136.53	36.1397
1140.89	102.184
1145.26	5.45801
1149.63	52.7422
1153.99	7.83691
1158.35	190.069
1162.7	302.616
1167.06	425.545
1171.41	630.652
1175.76	446.693
1180.11	103.658
1184.45	23.5361
1188.79	104.136
1193.13	97.6416
1197.47	31.084
1201.81	106.664
1206.14	101.916
1210.47	86.9277
1214.79	26.8262
1219.12	9.98242
1223.44	34.6133
1227.76	4.40332
1232.08	36.5078
1236.39	147.462
1240.7	21.54
1245.02	226.919
1249.32	89.3428
1253.63	87.5186
1257.93	170.237
1262.23	223.006
1266.53	280.019
1270.82	224.255
1275.12	76.7139
1279.41	168.474
1283.69	189.83
1287.98	108.587
1292.26	236.67
1296.54	254.404
1300.82	343.845
1305.1	285.979
1309.37	190.803
1313.64	231.315
1317.91	253.376
1322.17	170.971
1326.44	171.767
1330.7	233.212
1334.96	129.366
1339.21	215.326
1343.47	351.592
1347.72	127.377
1351.97	57.4844
1356.21	181.814
1360.46	154.753
1364.7	112.495
1368.94	192.435
1373.17	31.1387
1377.41	88.5244
1381.64	82.2236
1385.87	89.3838
1390.1	87.8457
1394.32	51.4707
1398.54	72.1572
1402.76	88.5518
1406.98	179.329
1411.19	138.477
1415.41	178.981
1419.62	261.212
1423.82	305.666
1428.03	219.065
1432.23	498.952
1436.43	419.518
1440.63	364.242
1444.82	403.2
1449.02	357.141
1453.21	440.701
1457.4	315.825
1461.58	350.508
1465.77	162.085
1469.95	192.255
1474.12	211.364
1478.3	78.0293
1482.47	102.391
1486.64	89.9082
1490.81	108.449
1494.98	26.8721
1499.14	60.4658
1503.31	21.625
1507.47	154.457
1511.62	161.664
1515.78	82.0889
1519.93	210.091
1524.08	71.832
1528.23	82.2266
1532.37	12.5625
1536.51	158.234
1540.65	129.516
1544.79	3.17285
1548.93	70.125
1553.06	138.312
1557.19	151.577
1561.32	109.522
