Measurement: Raman, 514 nm, depolarized, Raman Data Processed
Mineral: Axinite-(Fe)
Rruff sample: R050026
Ideal chemistry: Ca_4_Fe^2+^_2_Al_4_[B_2_Si_8_O_30_](OH)_2_
Locality: Pouyva mine, Polar Urals, Western Siberian Region, Russia
Source: Rock Currier
Description: Brown transparent flat crystal
Measured chemistry: Ca_2.00_(Fe^2+^_0.61_Mn_0.26_Mg_0.13_)Al_2.00_BSi_4_O_15_(OH)
Pin_id: L00219
Orientation: Laser parallel to (1 1 0). Fiducial mark perpendicular to laser is parallel to c [0 0 1]
Raman shift (cm-1)	intensity
88.26	0
92.466	127.111
96.67	412.819
100.871	809.439
105.07	2436.77
109.267	6738.92
113.461	2924.47
117.653	1313.73
121.843	1129.95
126.031	983.093
130.217	852.269
134.4	1094.26
138.581	2326.46
142.76	1883.12
146.937	1831.53
151.112	2309.63
155.284	2450.38
159.454	1647.69
163.622	2312.59
167.787	5706.62
171.951	6136.8
176.112	2840.48
180.271	600.252
184.428	511.827
188.583	132.084
192.735	1400.79
196.885	730.131
201.033	1732.74
205.179	4677.51
209.323	7753.39
213.464	7739.37
217.603	5596.54
221.741	2675.84
225.875	612.828
230.008	174.06
234.139	131.431
238.267	365.535
242.393	1142.39
246.517	2079.67
250.639	3469.68
254.759	4988.16
258.876	4447.24
262.991	5130.45
267.104	6815.35
271.215	8620.98
275.324	8886.82
279.431	6472.55
283.535	4016.6
287.638	3808.09
291.738	4916.1
295.836	6029.57
299.932	6102.94
304.025	6423.6
308.117	5731.5
312.206	5219.45
316.293	8607.44
320.378	9675.45
324.461	6671.08
328.542	4124.41
332.621	3749.38
336.697	5339.49
340.772	8762.35
344.844	9097.63
348.914	6494.84
352.982	4889.95
357.048	1953.95
361.111	306.389
365.173	171.653
369.232	167.623
373.29	31.967
377.345	264.735
381.398	1372.04
385.449	4011.25
389.497	5768.41
393.544	5082.59
397.589	3243.2
401.631	2128.01
405.672	1569.32
409.71	1899.59
413.746	3884.83
417.78	7118.04
421.812	9610.17
425.842	10852.1
429.869	10083.9
433.895	6685.53
437.918	4295.91
441.94	5948.08
445.959	5959.04
449.976	2633.8
453.991	1037.35
458.004	432.714
462.015	106.884
466.024	238.859
470.031	706.699
474.035	918.415
478.038	2096.12
482.038	4149.07
486.037	3698.35
490.033	1251.96
494.027	93.854
498.019	113.394
502.009	86.383
505.997	158.033
509.983	502.756
513.967	646.667
517.949	236.848
521.929	108.843
525.906	243.825
529.882	138.345
533.855	40.725
537.827	484.538
541.796	1194.76
545.764	1801.89
549.729	1493.92
553.692	1409.98
557.653	2573.51
561.612	3112.22
565.569	2331.85
569.524	2315.41
573.477	2622.9
577.428	2092.3
581.377	2073.62
585.324	3105.86
589.269	3380.02
593.212	1712.1
597.152	730.097
601.091	487.019
605.028	911.864
608.962	1463.63
612.895	1947.33
616.825	2154.95
620.754	1913.67
624.68	853.397
628.605	310.809
632.527	303.873
636.447	921.413
640.366	1816.15
644.282	2152.99
648.196	1432.78
652.109	583.106
656.019	264.856
659.927	327.772
663.834	726.005
667.738	1863.57
671.64	4080.26
675.54	7415.95
679.439	6686.03
683.335	3579.56
687.229	2048.91
691.121	1765.26
695.012	2180.9
698.9	3552.42
702.786	6716.82
706.67	13263.1
710.552	26069.3
714.433	31445.3
718.311	19831.2
722.187	9987.02
726.061	5185.69
729.934	2972.23
733.804	1817.65
737.672	1215.96
741.539	781.146
745.403	485.22
749.265	383.181
753.126	532.031
756.984	813.771
760.84	1243.4
764.695	1848.93
768.547	1901.36
772.398	1347.68
776.246	707.908
780.093	311.058
783.937	106.113
787.78	109.938
791.621	146.525
795.459	104.037
799.296	87.552
803.131	122.003
806.964	101.825
810.795	259.661
814.623	226.777
818.45	53.038
822.275	114.291
826.098	116.272
829.92	83.899
833.739	54.004
837.556	83.032
841.371	236.576
845.184	506.339
848.996	776.075
852.805	1115.78
856.613	1261.46
860.418	1408.16
864.222	1533.86
868.023	1683.55
871.823	1777.27
875.621	1837.05
879.417	2075.88
883.211	2308.78
887.003	2708.71
890.793	3813.7
894.581	5770.71
898.367	8949.77
902.152	11143.2
905.934	10218
909.714	6997.2
913.493	4624.47
917.27	3178.8
921.044	2536.2
924.817	2477.66
928.588	2425.21
932.357	2506.85
936.124	2399.42
939.889	2904.65
943.652	3531.92
947.414	4974.98
951.173	6661.31
954.931	9400.54
958.686	14255.2
962.44	18785.7
966.192	16636.2
969.942	14692.2
973.69	17238.1
977.436	20555.6
981.18	17328.4
984.922	13777.5
988.663	12037.6
992.401	11839.3
996.138	12601.2
999.873	12604.4
1003.61	10257.8
1007.34	7292.8
1011.07	4788
1014.79	3380.22
1018.52	2567.97
1022.24	2263.31
1025.96	2192.59
1029.68	2018.98
1033.4	1855.86
1037.12	1974.25
1040.83	2182.12
1044.54	2283.22
1048.25	2927.24
1051.96	3544.87
1055.67	3617.89
1059.37	3002.61
1063.08	2055.57
1066.78	1545.2
1070.48	1697.08
1074.17	2322.09
1077.87	3690.7
1081.56	4350.24
1085.26	3128.67
1088.94	1847.72
1092.63	1296.82
1096.32	1015.9
1100	892.725
1103.69	779.918
1107.37	589.065
1111.05	388.599
1114.72	200.613
1118.4	169.238
1122.07	146.452
1125.74	148.969
1129.41	98.931
1133.08	65.571
1136.75	44.509
1140.41	34.017
1144.07	-0.838
1147.73	2.257
1151.39	16.081
1155.05	18.575
1158.7	6.917
1162.36	12.147
1166.01	20.855
1169.66	32.698
1173.3	29.623
1176.95	45.51
1180.59	32.856
1184.24	43.416
1187.88	34.041
1191.52	31.972
1195.15	23.002
1198.79	7.697
1202.42	36.942
1206.05	10.048
1209.68	121.589
1213.31	108.049
1216.93	77.453
1220.56	3.379
1224.18	33.816
1227.8	13.78
1231.42	2.915
1235.04	25.9
1238.65	134.8
1242.26	84.497
1245.88	131.803
1249.48	158.854
1253.09	24.8
1256.7	71.846
1260.3	77.692
1263.9	22.805
1267.51	100.603
1271.11	69.958
1274.7	137.714
1278.3	127.723
1281.89	145.844
1285.48	67.625
1289.07	47.181
1292.66	7.317
1296.25	24.92
1299.83	125.269
1303.41	49.786
1306.99	76.471
1310.57	99.984
1314.15	41.242
1317.73	62.953
1321.3	8.749
1324.87	18.552
1328.44	32.051
1332.01	154.087
1335.58	155.511
1339.14	170.69
1342.71	179.856
1346.27	210.818
1349.83	152.131
1353.39	100.386
1356.94	73.514
1360.5	119.234
1364.05	143.513
1367.6	147.455
1371.15	100.435
1374.7	216.511
1378.24	224.632
1381.79	108.464
1385.33	141.892
1388.87	155.846
1392.41	114.563
1395.95	88.47
1399.48	64.31
1403.02	117.023
1406.55	200.634
1410.08	179.884
1413.61	195.776
1417.13	192.531
1420.66	102.261
1424.18	82.533
1427.7	99.73
1431.22	82.447
1434.74	19.646
1438.26	102.308
1441.77	103.361
1445.28	105.207
1448.79	144.646
1452.3	216.348
1455.81	94.691
1459.32	145.133
1462.82	114.187
1466.32	92.394
1469.82	6.975
1473.32	48.462
1476.82	2.164
1480.32	160.673
1483.81	103.907
1487.3	112.603
1490.79	119.33
1494.28	219.383
1497.77	132.193
1501.25	103.768
1504.74	48.042
1508.22	3.133
1511.7	11.042
1515.18	0
