Measurement: Raman, 514 nm, depolarized, Raman Data Processed
Mineral: Axinite-(Fe)
Rruff sample: R040074
Ideal chemistry: Ca_4_Fe^2+^_2_Al_4_[B_2_Si_8_O_30_](OH)_2_
Locality: Luning, Nevada, USA
Source: University of Arizona Mineral Museum
Description: Pale brown wedge-shaped crystal
Measured chemistry: (Ca_0.98_Mn_0.01_)_2_(Fe_0.41_Mg_0.39_Mn_0.20_)Al_1.95_B_1.20_Si_3.90_O_15_(OH)
Pin_id: L00197
Orientation: Laser parallel to c* (0 0 1). Fiducial mark perpendicular to laser is parallel to -a [-1 0 0]
Raman shift (cm-1)	intensity
91.398	0
95.582	91
99.764	698.393
103.943	2912.01
108.121	8142.94
112.297	8271.52
116.47	4683.4
120.642	2433.88
124.811	926.744
128.979	28.115
133.144	67.902
137.307	1485.4
141.469	3834.72
145.628	4910.48
149.786	5733.88
153.941	6185.62
158.094	4316.16
162.245	3313.18
166.395	3786.91
170.542	6027.94
174.687	5840.6
178.83	2914.48
182.972	707.772
187.111	586.472
191.248	3284.46
195.383	5023.48
199.516	2924.24
203.647	3986.24
207.777	5729
211.904	6552.36
216.029	5836.06
220.152	3920.07
224.273	1824.39
228.392	202.102
232.509	534.559
236.625	354.508
240.738	152.041
244.849	415.596
248.958	1572.24
253.065	3432.42
257.171	4109.82
261.274	5369.56
265.375	8668.12
269.475	13000.4
273.572	13823.4
277.667	10496.7
281.76	6289.95
285.852	4543.62
289.941	4427.59
294.029	5551.01
298.114	7339.22
302.198	8748.44
306.279	9553.23
310.359	8266.54
314.436	6339.79
318.512	7273.02
322.586	6616.22
326.657	4078.66
330.727	3057.32
334.795	3185.87
338.861	5404.68
342.924	10633.8
346.986	12403.2
351.046	10042.8
355.104	7502.43
359.16	2952.2
363.214	709.125
367.267	64.508
371.317	125.257
375.365	349.834
379.411	589.537
383.456	1767.42
387.498	5436.94
391.539	9419.93
395.577	7031.85
399.614	4041.11
403.649	3261.58
407.681	2583.2
411.712	4488.62
415.741	11196.9
419.768	11924.9
423.793	8752.8
427.816	8170.48
431.837	6437.93
435.857	3955.11
439.874	3412.02
443.889	6059
447.903	4827.13
451.914	1651.15
455.924	425.854
459.932	30.692
463.938	89.892
467.941	419.137
471.943	1132.8
475.944	1687.38
479.942	4548.82
483.938	13212.5
487.932	14116.7
491.925	5081.42
495.915	1850.48
499.904	1488.25
503.891	2275.46
507.876	3080.38
511.859	2736.77
515.84	1307.85
519.819	300.719
523.796	253.78
527.771	401.29
531.745	110.396
535.716	115.785
539.686	321.998
543.654	143.7
547.62	164.189
551.584	94.386
555.546	80.448
559.506	882.836
563.465	1057.23
567.421	1304.18
571.376	2372.69
575.329	3160.74
579.279	2665.34
583.228	2636.48
587.175	4095.16
591.121	4215.38
595.064	2123.14
599.006	762.435
602.945	332.66
606.883	575.59
610.819	1480.44
614.753	2766.83
618.685	4087
622.615	3609.05
626.544	1449.42
630.471	365.854
634.395	261.245
638.318	643.72
642.239	1361.13
646.158	1521.65
650.076	928.653
653.991	289.485
657.905	138.242
661.817	280.146
665.726	788.358
669.635	2032.59
673.541	4187.11
677.445	5545.55
681.348	3674.46
685.248	1958.53
689.147	1375.86
693.044	1457.49
696.94	2103.71
700.833	3724.3
704.724	7667.11
708.614	15702.8
712.502	29289.7
716.388	30362.9
720.272	16946.6
724.155	8329.92
728.035	4452.9
731.914	2523.54
735.791	1486.82
739.666	942.776
743.539	736.4
747.41	564.708
751.28	838.706
755.148	1196.4
759.014	1874.7
762.878	3022.75
766.74	4322.59
770.601	3942.16
774.46	2411.51
778.316	1130.84
782.172	438.063
786.025	121.524
789.876	156.629
793.726	219.375
797.574	281.785
801.42	254.201
805.264	24.182
809.107	713.117
812.947	1695.58
816.786	1351.94
820.623	381.534
824.459	71.688
828.292	58.306
832.124	19.38
835.954	130.386
839.782	324.924
843.608	677.272
847.433	1238.93
851.255	1701.64
855.076	1697.45
858.895	1334.49
862.713	1073.18
866.528	1081.47
870.342	1162.02
874.154	1420.83
877.965	1651.84
881.773	2064.07
885.58	2598.45
889.385	3602.95
893.188	5877.66
896.989	8842.52
900.789	11387.5
904.587	11822.6
908.383	10127.9
912.177	8143.19
915.97	5778.64
919.76	4144.18
923.55	3499.8
927.337	3815.52
931.122	4321.32
934.906	4427.22
938.688	4621.49
942.468	5653.14
946.247	8159.67
950.023	12205
953.798	15149.4
957.572	17218.8
961.343	21425.1
965.113	25232.2
968.881	21199.6
972.647	17437.2
976.411	19440
980.174	21656.4
983.935	17815.7
987.694	14619.4
991.452	13517.7
995.207	12779
998.961	13719.8
1002.71	16418.5
1006.46	16302.5
1010.21	12083.5
1013.96	7477.78
1017.71	4577.7
1021.45	3240.13
1025.19	2837.53
1028.93	2763.92
1032.67	1986.87
1036.41	1492.25
1040.14	1174.98
1043.87	1119.95
1047.61	1051.42
1051.34	1096.28
1055.06	1221.24
1058.79	1456.02
1062.52	1652.69
1066.24	1496.23
1069.96	1164.38
1073.68	1102.01
1077.4	1395.38
1081.11	2488.48
1084.83	2971.98
1088.54	2254.34
1092.25	1395.73
1095.96	1206.65
1099.67	1267.64
1103.37	1818.95
1107.08	2179.94
1110.78	1800.47
1114.48	1340.4
1118.18	1070.48
1121.88	1019.91
1125.57	705.156
1129.27	481.736
1132.96	188.822
1136.65	190.537
1140.34	159.256
1144.02	234.356
1147.71	209.117
1151.39	28.777
1155.07	65.169
1158.76	36.144
1162.43	187.016
1166.11	111.493
1169.79	84.61
1173.46	102.878
1177.13	9.08
1180.8	41.674
1184.47	4.321
1188.14	29.088
1191.8	53.462
1195.46	26.196
1199.13	129.902
1202.79	286.768
1206.45	374.82
1210.1	274.104
1213.76	361.712
1217.41	395.901
1221.06	265.419
1224.71	395.368
1228.36	330.293
1232.01	520.063
1235.65	484.003
1239.3	400.52
1242.94	327.097
1246.58	252.189
1250.22	227.164
1253.85	207.881
1257.49	288.967
1261.12	294.993
1264.75	276.321
1268.38	286.448
1272.01	227.623
1275.64	95.075
1279.27	83.836
1282.89	153.281
1286.51	121.085
1290.13	3.143
1293.75	73.649
1297.37	32.992
1300.98	84.218
1304.6	0
