Measurement: Raman, 514 nm, depolarized, Raman Data Processed
Mineral: Axinite-(Fe)
Rruff sample: R060194
Ideal chemistry: Ca_4_Fe^2+^_2_Al_4_[B_2_Si_8_O_30_](OH)_2_
Locality: near Dalbandi, Baluchistan Province, Pakistan
Source: Herbert Obodda
Description: Brown transparent wedge-shaped single crystal
Measured chemistry: Ca_2.00_(Fe^2+^_0.66_Mg_0.30_Mn_0.04_)Al_2.00_BSi_4.00_O_15_(OH)
Pin_id: L01072
Orientation: Laser parallel to -c* (0 0 -1). Fiducial mark perpendicular to laser is parallel to a [1 0 0]
Raman shift (cm-1)	intensity
53.91	0
58.864	264.691
63.817	311.987
68.767	33.2291
73.714	48.2511
78.659	20.8386
83.602	336.472
88.542	1254.96
93.48	3076.17
98.416	5234.86
103.349	9393.57
108.28	17598.9
113.208	18848.6
118.134	9922.66
123.058	6771.37
127.979	5270.02
132.898	4009.6
137.814	5518.51
142.728	9243.17
147.639	9236.14
152.549	12892.8
157.455	10828.9
162.359	7037.78
167.261	9010.66
172.161	15409.5
177.058	13503.1
181.952	5615.31
186.845	3192.95
191.734	5421.48
196.622	10367
201.507	7894.43
206.389	12381.8
211.269	14034
216.147	12351.9
221.022	9491.48
225.895	4496.06
230.765	1248.62
235.633	490.555
240.498	1247.11
245.361	2175.25
250.222	3428.68
255.08	7045.59
259.936	9050.53
264.789	9850.77
269.64	15857.6
274.488	21032.3
279.334	17577.3
284.178	10383.5
289.019	8428.74
293.857	9141
298.693	11349.1
303.527	13421
308.358	15673.5
313.187	11580.4
318.013	10773
322.837	11526
327.659	6763.42
332.478	5719.73
337.294	6785.76
342.108	13929.4
346.92	21137.5
351.729	14694
356.535	8538.14
361.34	1780.02
366.141	454.505
370.94	560.654
375.737	1.12109
380.531	473.544
385.323	4469.05
390.113	12260.5
394.9	12506.6
399.684	5450.84
404.466	3525.82
409.245	3111.47
414.022	7569.96
418.797	18859.5
423.569	16133.6
428.338	15201.8
433.105	11457
437.87	5869.01
442.632	6584.76
447.391	10930.1
452.149	3547.02
456.903	520.315
461.655	38.1201
466.405	292.093
471.152	1758.25
475.897	3017.42
480.639	7612.5
485.378	19793.4
490.116	14758
494.85	3906.51
499.582	2129.26
504.312	3034.41
509.039	4583.84
513.764	3808.95
518.486	1352.22
523.206	151.866
527.923	517.843
532.638	459.625
537.35	50.3535
542.059	1.24902
546.766	57.332
551.471	316.433
556.173	70.6318
560.873	1090.95
565.57	1843.73
570.264	2811.69
574.957	4294.77
579.646	3856.92
584.333	3583.07
589.018	5865.18
593.7	5443.19
598.379	2313.07
603.056	1000.56
607.73	1519.28
612.402	3481.5
617.072	6044.45
621.739	6829.08
626.403	3550.36
631.065	894.261
635.724	868.698
640.381	1910.66
645.035	3041.17
649.687	2328.54
654.336	858.637
658.983	555.344
663.627	930.512
668.268	2042.92
672.907	4702
677.544	8753.48
682.178	6807.02
686.809	2975.7
691.438	2087.51
696.065	2756.63
700.688	5451.13
705.31	12491.8
709.929	28460.3
714.545	47543.5
719.158	36931.6
723.77	16669.5
728.378	7731.27
732.984	4085.97
737.588	2237.6
742.189	1604.24
746.787	1130.18
751.383	1278.17
755.976	1788.22
760.567	3415.37
765.155	5708.66
769.741	6713.14
774.324	4504.61
778.904	2250.62
783.482	788.981
788.058	209.739
792.631	188.876
797.201	334.137
801.769	326.421
806.334	110.678
810.897	855.359
815.457	1822.85
820.014	1003.93
824.569	32.958
829.122	291.893
833.671	213.838
838.219	17.5527
842.763	326.922
847.306	1291.77
851.845	2032.75
856.382	2057.13
860.917	1675.34
865.448	1565.04
869.978	1804.07
874.505	1892.48
879.029	2184.31
883.55	2836.64
888.069	3820.49
892.586	5869.89
897.1	9827.02
901.611	13172.1
906.12	15712.2
910.626	16412.8
915.129	12578.5
919.63	7445.9
924.129	4889.19
928.625	4903.57
933.118	5269.51
937.609	5391.89
942.097	6023.52
946.582	9325.6
951.065	14963.8
955.546	21748.5
960.023	29588.4
964.499	41123.1
968.971	39335.5
973.441	28693
977.909	29864.6
982.374	33400.5
986.836	26389.7
991.295	22101.2
995.753	21980
1000.21	23007.1
1004.66	25605.5
1009.11	22051.3
1013.55	12987.5
1018	6945.61
1022.44	4369.97
1026.88	4096.93
1031.32	3707.91
1035.75	2303.7
1040.18	1524.32
1044.61	1240.02
1049.04	1329.85
1053.46	1628.74
1057.88	2180.38
1062.3	2287.74
1066.71	1841.39
1071.13	1262.05
1075.54	1250.3
1079.94	2369.82
1084.35	4174.1
1088.75	3588.03
1093.15	1914.3
1097.55	1354.47
1101.94	1861.08
1106.34	2631.84
1110.73	2566.69
1115.11	1893.02
1119.5	1155.47
1123.88	733.529
1128.26	367.501
1132.63	248.074
1137.01	86.7471
1141.38	88.374
1145.75	40.9629
1150.12	63.3711
1154.48	53.834
1158.84	32.5225
1163.2	163.499
1167.55	145.136
1171.91	115.857
1176.26	145.288
1180.61	196.428
1184.95	6.84863
1189.29	1.80664
1193.63	56.4668
1197.97	25.3008
1202.31	43.2842
1206.64	42.374
1210.97	78.0703
1215.29	19.8105
1219.62	87.8779
1223.94	22.1123
1228.26	70.1973
1232.57	118.731
1236.89	148.251
1241.2	265.638
1245.51	147.977
1249.81	227.216
1254.12	281.731
1258.42	220.186
1262.72	141.447
1267.01	507.498
1271.3	202.429
1275.59	567.153
1279.88	261.227
1284.17	484.358
1288.45	344.496
1292.73	299.05
1297.01	472.217
1301.28	312.116
1305.55	267.434
1309.82	357.285
1314.09	51.626
1318.35	265.332
1322.61	273.222
1326.87	369.225
1331.13	419.307
1335.38	342.609
1339.63	336.031
1343.88	313.08
1348.12	325.194
1352.37	434.122
1356.61	317.505
1360.85	330.922
1365.08	212.006
1369.31	275.856
1373.54	221.809
1377.77	390.227
1381.99	326.047
1386.22	235.391
1390.43	286.967
1394.65	80.1269
1398.87	283.406
1403.08	162.744
1407.29	175.959
1411.49	227.152
1415.69	332.025
1419.89	244.547
1424.09	45.3887
1428.29	327.783
1432.48	193.6
1436.67	214.295
1440.86	154.688
1445.04	306.801
1449.23	363.035
1453.4	118.139
1457.58	38.7246
1461.76	125.266
1465.93	25.4863
1470.1	115.631
1474.26	252.641
1478.43	94.9668
1482.59	46.375
1486.75	61.0547
1490.9	110.539
1495.06	144.949
1499.21	63.9922
1503.35	159.121
1507.5	180.799
1511.64	201.685
1515.78	51.8516
1519.92	139.84
1524.05	87.5019
1528.18	235.147
1532.31	133.924
1536.44	221
1540.56	33.0293
1544.69	221.656
1548.8	156.588
1552.92	110.963
1557.03	163.576
1561.14	89.5957
1565.25	188.041
1569.36	215.049
