Measurement: Raman, 514 nm, depolarized, Raman Data Processed
Mineral: Axinite-(Fe)
Rruff sample: R050026
Ideal chemistry: Ca_4_Fe^2+^_2_Al_4_[B_2_Si_8_O_30_](OH)_2_
Locality: Pouyva mine, Polar Urals, Western Siberian Region, Russia
Source: Rock Currier
Description: Brown transparent flat crystal
Measured chemistry: Ca_2.00_(Fe^2+^_0.61_Mn_0.26_Mg_0.13_)Al_2.00_BSi_4_O_15_(OH)
Pin_id: L00147
Orientation: Laser parallel to -a* (-1 0 0). Fiducial mark perpendicular to laser is parallel to -b [0 -1 0]
Raman shift (cm-1)	intensity
88.26	0
92.466	178.302
96.67	429.199
100.871	479.511
105.07	1030.41
109.267	1848.33
113.461	988.934
117.653	291.087
121.843	197.18
126.031	368.443
130.217	289.415
134.4	98.945
138.581	684.115
142.76	488.114
146.937	817.651
151.112	1102.07
155.284	841.394
159.454	454.211
163.622	733.123
167.787	2322.78
171.951	2515.28
176.112	1090.82
180.271	223.749
184.428	123.24
188.583	123.484
192.735	137.918
196.885	138.179
201.033	471.554
205.179	1567.69
209.323	2900.54
213.464	2604.03
217.603	2045.3
221.741	824.929
225.875	137.094
230.008	85.938
234.139	91.411
238.267	160.156
242.393	469.431
246.517	670.126
250.639	863.349
254.759	1620.64
258.876	1274.23
262.991	1338.12
267.104	1572.46
271.215	2283.89
275.324	2791.3
279.431	1963.47
283.535	1159.22
287.638	1141.74
291.738	1382.16
295.836	1609.61
299.932	1470.86
304.025	1865.38
308.117	1777.55
312.206	1719.9
316.293	3201.09
320.378	3941.07
324.461	2346.07
328.542	1583.22
332.621	1482.69
336.697	2132.58
340.772	3657.88
344.844	3224.7
348.914	1883.72
352.982	1357.75
357.048	516.367
361.111	103.55
365.173	19.286
369.232	80.166
373.29	200.498
377.345	211.689
381.398	475.215
385.449	1401.6
389.497	1931.48
393.544	1618.9
397.589	1100.77
401.631	699.55
405.672	579.32
409.71	585.812
413.746	1166.24
417.78	2406.58
421.812	3118.65
425.842	3538.4
429.869	3477.85
433.895	2167.99
437.918	1202.84
441.94	1238.42
445.959	1113.73
449.976	457.797
453.991	251.632
458.004	276.248
462.015	56.66
466.024	165.853
470.031	310.314
474.035	368.805
478.038	651.708
482.038	1434.67
486.037	1269.72
490.033	469.884
494.027	96.103
498.019	7.743
502.009	6.623
505.997	127.468
509.983	82.456
513.967	48.024
517.949	6.407
521.929	80.359
525.906	66.231
529.882	87.9
533.855	30.932
537.827	191.151
541.796	443.61
545.764	626.718
549.729	520.763
553.692	462.946
557.653	973.482
561.612	1229.2
565.569	768.892
569.524	733.51
573.477	819.052
577.428	702.518
581.377	469.909
585.324	652.229
589.269	675.482
593.212	351.668
597.152	261.792
601.091	182.856
605.028	180.863
608.962	388.814
612.895	709.714
616.825	988.489
620.754	1074.76
624.68	521.982
628.605	134.83
632.527	146.267
636.447	340.639
640.366	536.373
644.282	601.242
648.196	397.597
652.109	233.892
656.019	208.27
659.927	175.576
663.834	200.746
667.738	595.812
671.64	1208.02
675.54	2292.34
679.439	2038.86
683.335	1100.24
687.229	656.345
691.121	618.14
695.012	742.193
698.9	1078.91
702.786	1986.57
706.67	3948.17
710.552	8143.72
714.433	10101.2
718.311	6082.6
722.187	2930.94
726.061	1501.21
729.934	940.42
733.804	593.564
737.672	372.645
741.539	193.663
745.403	115.622
749.265	153.522
753.126	202.366
756.984	222.154
760.84	415.889
764.695	472.57
768.547	604.201
772.398	424.781
776.246	173.324
780.093	92.841
783.937	22.687
787.78	45.361
791.621	64.625
795.459	82.772
799.296	7.695
803.131	69.004
806.964	10.622
810.795	131.684
814.623	148.623
818.45	4.082
822.275	36.895
826.098	3.957
829.92	8.872
833.739	54.089
837.556	80.239
841.371	126.59
845.184	158.048
848.996	240.519
852.805	387.979
856.613	507.437
860.418	513.901
864.222	553.397
868.023	529.901
871.823	592.412
875.621	593.849
879.417	619.477
883.211	759.024
887.003	797.58
890.793	1048.16
894.581	1582.8
898.367	2498.5
902.152	3283.27
905.934	2908.06
909.714	1947.92
913.493	1313.8
917.27	997.726
921.044	842.675
924.817	941.65
928.588	941.654
932.357	948.708
936.124	830.375
939.889	1038.35
943.652	1375.6
947.414	2131.57
951.173	2698.24
954.931	3547.96
958.686	5328.62
962.44	6548.17
966.192	5588.81
969.942	4693.35
973.69	5217.99
977.436	5597.94
981.18	4564.13
984.922	3762.93
988.663	3549.14
992.401	3475.4
996.138	3541.78
999.873	3317.35
1003.61	2559.37
1007.34	1784.3
1011.07	1255.75
1014.79	977.189
1018.52	846.677
1022.24	745.268
1025.96	669.957
1029.68	607.25
1033.4	560.053
1037.12	685.527
1040.83	886.585
1044.54	1040.31
1048.25	1382.8
1051.96	1741.93
1055.67	1525.43
1059.37	1119.38
1063.08	871.669
1066.78	724.901
1070.48	764.173
1074.17	986.422
1077.87	1457.81
1081.56	1408.72
1085.26	1022.81
1088.94	672.62
1092.63	471.849
1096.32	359.051
1100	316.423
1103.69	335.344
1107.37	151.15
1111.05	56.19
1114.72	120.542
1118.4	61.53
1122.07	127.535
1125.74	102.732
1129.41	17.811
1133.08	38.882
1136.75	20.42
1140.41	3.107
1144.07	5.62
1147.73	57.99
1151.39	7.618
1155.05	64.245
1158.7	39.405
1162.36	15.818
1166.01	14.502
1169.66	32.073
1173.3	33.911
1176.95	10.03
1180.59	46.958
1184.24	59.492
1187.88	3.46
1191.52	28.041
1195.15	35.262
1198.79	66.229
1202.42	38.473
1206.05	57.358
1209.68	142.069
1213.31	111.88
1216.93	30.569
1220.56	45.279
1224.18	29.014
1227.8	10.744
1231.42	17.609
1235.04	74.982
1238.65	114.209
1242.26	65.444
1245.88	80.583
1249.48	35.51
1253.09	16.302
1256.7	3.065
1260.3	57.861
1263.9	95.264
1267.51	116.548
1271.11	133.617
1274.7	118.516
1278.3	112.014
1281.89	58.679
1285.48	41.884
1289.07	25.482
1292.66	14.948
1296.25	57.366
1299.83	90.037
1303.41	110.379
1306.99	26.288
1310.57	32.019
1314.15	8.59
1317.73	43.479
1321.3	11.195
1324.87	48.381
1328.44	42.773
1332.01	44.475
1335.58	95.775
1339.14	112.407
1342.71	62.145
1346.27	50.182
1349.83	9.748
1353.39	17.729
1356.94	72.495
1360.5	95.626
1364.05	81.729
1367.6	135.166
1371.15	133.551
1374.7	156.731
1378.24	120.392
1381.79	75.819
1385.33	72.148
1388.87	65.947
1392.41	81.653
1395.95	66.437
1399.48	98.371
1403.02	130.195
1406.55	103.437
1410.08	178.621
1413.61	118.513
1417.13	142.733
1420.66	128.148
1424.18	92.073
1427.7	15.279
1431.22	0.036
1434.74	73.454
1438.26	101.781
1441.77	126.024
1445.28	171.14
1448.79	160.802
1452.3	160.311
1455.81	130.707
1459.32	141.385
1462.82	88.648
1466.32	96.981
1469.82	56.295
1473.32	31.826
1476.82	72.927
1480.32	120.488
1483.81	126.205
1487.3	167.004
1490.79	186.103
1494.28	149.93
1497.77	46.584
1501.25	71.659
1504.74	50.305
1508.22	10.574
1511.7	0.346
