Measurement: Raman, 514 nm, depolarized, Raman Data Processed
Mineral: Axinite-(Fe)
Rruff sample: R050026
Ideal chemistry: Ca_4_Fe^2+^_2_Al_4_[B_2_Si_8_O_30_](OH)_2_
Locality: Pouyva mine, Polar Urals, Western Siberian Region, Russia
Source: Rock Currier
Description: Brown transparent flat crystal
Measured chemistry: Ca_2.00_(Fe^2+^_0.61_Mn_0.26_Mg_0.13_)Al_2.00_BSi_4_O_15_(OH)
Pin_id: L00535
Orientation: Laser parallel to -c* (0 0 -1). Fiducial mark perpendicular to laser is parallel to a [1 0 0]
Raman shift (cm-1)	intensity
89.663	0
93.868	36.791
98.07	433.925
102.271	895.333
106.469	2779.23
110.665	16688.6
114.859	3209.76
119.05	444.623
123.24	140.659
127.427	15.027
131.612	23.384
135.794	376.098
139.975	717.513
144.153	1159.3
148.329	2366.37
152.503	2198.51
156.674	668.449
160.843	545.948
165.011	1359.58
169.175	3004.98
173.338	2987.46
177.499	1481.97
181.657	559.694
185.813	475.268
189.967	1394.43
194.119	2169.82
198.268	1407.39
202.415	2615.27
206.561	3785.35
210.703	3163.52
214.844	2041.59
218.983	1360.56
223.119	430.442
227.253	78.399
231.385	195.677
235.515	124.329
239.643	126.682
243.768	454.945
247.891	644.727
252.012	1193.09
256.131	1546.09
260.248	958.589
264.363	1292.91
268.475	2077.34
272.585	3104.84
276.693	2970.71
280.799	2009.33
284.903	1574.64
289.005	1492.54
293.104	1596.54
297.201	1951.92
301.296	3268.53
305.389	5074.97
309.48	3912.66
313.569	2224.05
317.655	2212.26
321.74	1830.26
325.822	1222.96
329.902	1084.94
333.98	1288.59
338.056	2479.37
342.129	4004.39
346.201	3418.6
350.27	3168.76
354.337	2180.97
358.402	820.156
362.465	291.192
366.526	184.44
370.585	260.16
374.642	408.691
378.696	514.395
382.748	1391
386.799	3347.44
390.847	4185.61
394.893	2631.1
398.936	1345.55
402.978	730.434
407.018	730.873
411.055	1520.25
415.091	4125.6
419.124	4631.9
423.155	3049.02
427.184	2343.95
431.211	1573.67
435.236	881.212
439.259	748.578
443.28	1269.79
447.298	832.856
451.315	177.772
455.329	71.562
459.341	19.729
463.352	103.807
467.36	384.183
471.366	611.657
475.37	947.421
479.372	2672.4
483.371	5568.51
487.369	3987.55
491.365	1432.92
495.358	676.794
499.35	775.976
503.339	1201.68
507.326	1492.24
511.311	1222.02
515.295	614.735
519.276	177.47
523.255	47.096
527.232	117.692
531.207	82.85
535.179	52.031
539.15	48.988
543.119	62.795
547.086	23.557
551.05	25.032
555.013	57.836
558.973	245.287
562.932	266.968
566.888	349.579
570.842	720.072
574.795	834.444
578.745	710.695
582.693	929.825
586.639	1539.84
590.583	1464.73
594.525	769.504
598.465	281.165
602.403	160.71
606.339	350.143
610.273	763.353
614.205	1155.11
618.135	1529.51
622.063	1056.73
625.989	350.599
629.912	87.376
633.834	9.981
637.754	88.412
641.671	273.263
645.587	298.325
649.501	54.054
653.412	10.464
657.322	78.048
661.23	2.828
665.135	149.354
669.039	538.516
672.94	1326.44
676.84	1932.75
680.738	1411.64
684.633	738.146
688.527	481.548
692.418	770.207
696.308	845.125
700.195	1646.07
704.081	3258.2
707.964	6424.02
711.846	10615.7
715.726	9992.79
719.603	5631.99
723.479	2879.11
727.352	1536.16
731.224	915.126
735.094	597.022
738.961	380.85
742.827	310.614
746.691	352.316
750.552	408.961
754.412	560.552
758.27	894.093
762.125	1482.59
765.979	2093.04
769.831	1948.46
773.681	1190.9
777.529	683.337
781.375	302.753
785.219	136.777
789.06	52.085
792.901	25.787
796.739	77.194
800.575	128.617
804.409	3.011
808.241	247.227
812.071	558.766
815.899	252.321
819.726	10.901
823.55	62.849
827.372	66.725
831.193	37.817
835.011	3.973
838.828	110.143
842.642	164.579
846.455	306.164
850.266	444.836
854.075	402.606
857.881	264.502
861.686	252.551
865.489	215.755
869.29	331.105
873.089	391.608
876.886	530.277
880.682	675.127
884.475	832.111
888.266	1834.22
892.056	1828.46
895.843	2671.84
899.629	3304.39
903.413	3528.06
907.194	3370.85
910.974	2707.76
914.752	1905.79
918.528	1426.93
922.302	1329.19
926.074	1354.59
929.844	1421.11
933.613	1452.75
937.379	1717.53
941.144	2360.46
944.906	3318.58
948.667	4614.29
952.426	5764.66
956.183	7293.1
959.938	10132.9
963.691	10553
967.442	7863.58
971.191	6432.32
974.939	6758.67
978.684	6523.94
982.428	5469.44
986.169	4799.73
989.909	4773.26
993.647	5019.96
997.383	5873.81
1001.12	6826.99
1004.85	6073.04
1008.58	4238.65
1012.31	2711.67
1016.03	1918.83
1019.76	1592.1
1023.48	1632.09
1027.2	1357.27
1030.92	975.618
1034.64	738.544
1038.36	649.907
1042.07	556.15
1045.78	559.038
1049.49	617.911
1053.2	658.055
1056.9	638.188
1060.61	571.347
1064.31	467.108
1068.01	534.513
1071.71	568.912
1075.41	886.178
1079.1	1140.92
1082.79	1062.97
1086.48	730.766
1090.17	632.742
1093.86	535.51
1097.55	635.547
1101.23	709.327
1104.91	709.831
1108.59	591.849
1112.27	436.688
1115.95	374.427
1119.62	259.12
1123.3	175.07
1126.97	117.083
1130.63	92.388
1134.3	68.838
1137.97	62.603
1141.63	43.743
1145.29	37.979
1148.95	25.33
1152.61	33.664
1156.27	5.027
1159.92	49.954
1163.57	21.539
1167.22	38.46
1170.87	83.802
1174.52	7.866
1178.16	12.805
1181.81	9.576
1185.45	18.857
1189.09	51.079
1192.73	46.624
1196.36	9.124
1200	66.184
1203.63	80.937
1207.26	28.125
1210.89	31.64
1214.52	4.43
1218.14	3.951
1221.77	39.189
1225.39	3.961
1229.01	40.873
1232.62	99.327
1236.24	63.65
1239.86	60.754
1243.47	28.713
1247.08	7.518
1250.69	0.558
1254.3	21.22
1257.9	85.813
1261.5	113.204
1265.11	114.102
1268.71	92.971
1272.3	76.481
1275.9	59.83
1279.49	21.964
1283.09	47.828
1286.68	52.465
1290.27	83.24
1293.86	97.388
1297.44	108.516
1301.03	49.933
1304.61	30.958
1308.19	35.086
1311.77	37.73
1315.34	1.194
1318.92	8.487
1322.49	86.935
1326.06	96.008
1329.63	68.368
1333.2	37.843
1336.77	80.765
1340.33	50.632
1343.89	31.007
1347.46	4.294
1351.02	26.322
1354.57	40.74
1358.13	86.79
1361.68	133.26
1365.23	137.636
1368.79	53.034
1372.33	68.737
1375.88	93.119
1379.43	64.83
1382.97	64.536
1386.51	63.45
1390.05	37.725
1393.59	95.268
1397.13	88.979
1400.66	124.122
1404.19	101.867
1407.72	78.788
1411.25	77.967
1414.78	84.423
1418.31	43.318
1421.83	42.101
1425.36	48.745
1428.88	83.265
1432.39	64.063
1435.91	156.763
1439.43	156.126
1442.94	85.148
1446.45	85.573
1449.96	36.012
1453.47	21.207
1456.98	82.757
1460.48	58.656
1463.99	57.847
1467.49	13.716
1470.99	70.249
1474.49	91.835
1477.99	92.937
1481.48	80.099
1484.97	129.771
1488.46	80.234
1491.95	25.145
1495.44	61.915
1498.93	25.62
1502.41	17.185
1505.9	0.814
1509.38	49.051
1512.86	0
