Measurement: Raman, 514 nm, ccw, Raman Data Processed
Mineral: Axinite-(Fe)
Rruff sample: R050061
Ideal chemistry: Ca_4_Fe^2+^_2_Al_4_[B_2_Si_8_O_30_](OH)_2_
Locality: Jamestown, California, USA
Source: Rock Currier
Description: Brown colored axe-head-shaped single crystals
Measured chemistry: Ca_2.00_(Fe^2+^_0.73_Mg_0.20_Mn_0.07_)Al_2.00_BSi_4_O_15_(OH)
Pin_id: L00257
Orientation: Laser parallel to -b* (0 -1 0). Fiducial mark perpendicular to laser is parallel to -c [0 0 -1]
Raman shift (cm-1)	intensity
91.065	0
95.269	251.25
99.471	566.391
103.67	1793.26
107.868	6889.2
112.063	6934.78
116.256	1522.75
120.447	368.573
124.636	32.594
128.822	48.535
133.006	45.977
137.188	1109.28
141.368	1991.39
145.545	915.059
149.72	1210.37
153.893	1457.1
158.064	963.74
162.233	1047.13
166.399	2164.21
170.563	4521.74
174.725	3667.76
178.885	1861.87
183.043	675.553
187.198	137.433
191.351	254.144
195.502	961.321
199.651	625.426
203.797	1420.48
207.942	2803.43
212.084	2498.97
216.224	1236.84
220.362	294.279
224.497	85.183
228.631	156.42
232.762	237.985
236.891	101.929
241.018	655.921
245.143	1491.39
249.265	1353.84
253.386	1430.97
257.504	1956.02
261.62	1497.11
265.734	2042.69
269.845	3923.57
273.955	6764.44
278.062	6569.72
282.167	4205.64
286.27	3332.46
290.371	2823.24
294.47	2287.45
298.567	2464.86
302.661	3278.67
306.753	4639.64
310.843	3376.03
314.931	1419.04
319.017	1014.53
323.101	1017.03
327.182	1577.84
331.261	2484.5
335.339	1345.7
339.414	861.39
343.487	1414.71
347.557	2412.49
351.626	4138.39
355.693	3991.94
359.757	1419.12
363.819	471.115
367.879	281.547
371.937	317.417
375.993	378.086
380.047	323.412
384.099	694.524
388.148	1769.15
392.196	2881.56
396.241	1808.8
400.284	784.472
404.325	629.672
408.364	534.686
412.401	1115.54
416.435	4523.24
420.468	7540.77
424.498	3233.89
428.527	2940.56
432.553	2939.77
436.577	1668.53
440.599	830.852
444.619	1068.77
448.637	999.279
452.653	390.401
456.667	178.156
460.678	37.468
464.688	95.654
468.695	8.657
472.701	84.691
476.704	349.431
480.705	1052.73
484.704	3609.53
488.701	3650.13
492.696	863.734
496.689	166.223
500.68	96.083
504.668	109.699
508.655	127.238
512.639	156.75
516.622	87.262
520.602	103.673
524.581	125.031
528.557	6.512
532.531	179.691
536.503	309.033
540.473	255.276
544.441	86.322
548.407	12.273
552.371	89.447
556.333	149.937
560.293	696.878
564.251	836.977
568.206	1211.17
572.16	2161.55
576.112	2833.25
580.061	2055.82
584.009	1323.25
587.954	1654.56
591.897	2234.75
595.839	1341.82
599.778	521.79
603.716	170.65
607.651	150.412
611.584	415.08
615.515	618.246
619.444	1034.11
623.372	1000.06
627.297	479.199
631.22	41.631
635.141	10.998
639.06	24.651
642.977	234.511
646.892	422.54
650.805	386.39
654.716	104.397
658.625	62.048
662.532	22.861
666.437	175.24
670.34	626.375
674.241	1491.29
678.139	2272.78
682.036	1714.51
685.931	927.986
689.824	706.98
693.715	683.3
697.604	925.463
701.491	1611.57
705.376	3383.25
709.259	7442.6
713.139	13569.3
717.018	13298.6
720.895	6737.76
724.77	3502.93
728.643	2017.07
732.514	1203.18
736.383	644.274
740.25	340.351
744.115	246.412
747.978	313.466
751.839	232.513
755.698	215.556
759.555	266.599
763.41	485.646
767.263	913.701
771.114	845.785
774.964	480.937
778.811	160.269
782.656	39.857
786.499	9.533
790.341	26.951
794.18	26.714
798.017	132.525
801.853	134.784
805.686	10.363
809.518	313.035
813.347	755.83
817.175	528.003
821.001	98.689
824.824	42.548
828.646	1.809
832.466	10.102
836.284	3.522
840.1	12.885
843.914	29.749
847.726	171.458
851.536	439.275
855.344	452.214
859.15	426.313
862.954	311.605
866.756	238.099
870.557	337.73
874.355	603.524
878.152	623.466
881.946	703.573
885.739	929.797
889.53	1404.14
893.318	2463.64
897.105	3934.29
900.89	4301.08
904.673	3915.98
908.454	3917.04
912.234	3588.25
916.011	2746.58
919.786	2074.05
923.56	1797.64
927.331	1918.38
931.101	2063.27
934.868	1658.3
938.634	1368.92
942.398	1351.43
946.16	1709.53
949.92	2313.97
953.678	2670.48
957.435	2967.54
961.189	3963.67
964.941	4961.95
968.692	4280.41
972.441	3645.03
976.187	4333.58
979.932	5181.1
983.675	4781.03
987.416	4838.6
991.155	5528.66
994.893	5583.25
998.628	5230.28
1002.36	5176.45
1006.09	4714.42
1009.82	3328.06
1013.55	2422.32
1017.28	1594.99
1021	1138.85
1024.72	802.953
1028.44	604.201
1032.16	543.195
1035.88	597.045
1039.59	879.234
1043.31	958.187
1047.02	830.179
1050.73	734.833
1054.43	837.286
1058.14	859.53
1061.84	875.601
1065.54	679.201
1069.24	611.297
1072.94	527.123
1076.64	576.708
1080.33	745.462
1084.03	843.732
1087.71	664.891
1091.4	597.586
1095.09	609.49
1098.78	761.996
1102.46	921.316
1106.14	972.879
1109.82	771.716
1113.5	628.418
1117.17	508.915
1120.85	577.577
1124.52	372.088
1128.19	178.662
1131.86	31.449
1135.52	2.729
1139.19	3.755
1142.85	99.663
1146.51	141.582
1150.17	89.744
1153.83	53.471
1157.48	50.269
1161.14	40.375
1164.79	56.166
1168.44	54.873
1172.09	91.871
1175.73	88.698
1179.38	151.725
1183.02	68.179
1186.66	17.879
1190.3	61.928
1193.94	22.491
1197.58	21.32
1201.21	42.716
1204.84	147.862
1208.47	135.205
1212.1	87.992
1215.72	64.12
1219.35	13.87
1222.97	28.408
1226.59	4.278
1230.21	151.456
1233.83	220.33
1237.45	182.479
1241.06	179.553
1244.67	78.581
1248.28	62.85
1251.89	45.979
1255.5	95.017
1259.1	106.597
1262.7	132.008
1266.31	233.299
1269.9	273.706
1273.5	87.775
1277.1	130.374
1280.69	108.925
1284.29	52.884
1287.88	110.218
1291.46	156.498
1295.05	204.561
1298.64	242.803
1302.22	167.333
1305.8	225.913
1309.38	113.227
1312.96	5.605
1316.54	64.684
1320.11	21.377
1323.68	104.251
1327.25	122.197
1330.82	110.082
1334.39	139.901
1337.96	50.085
1341.52	157.033
1345.08	46.265
1348.64	5.009
1352.2	26.369
1355.76	134.085
1359.31	134.94
1362.87	149.579
1366.42	115.949
1369.97	200.521
1373.52	48.776
1377.06	137.123
1380.61	104.534
1384.15	74.91
1387.69	7.096
1391.23	29.25
1394.77	134.145
1398.3	173.688
1401.84	158.933
1405.37	218.354
1408.9	142.515
1412.43	156.493
1415.96	103.531
1419.48	37.841
1423.01	54.299
1426.53	2.591
1430.05	110.331
1433.57	231.318
1437.08	356.589
1440.6	392.331
1444.11	411.43
1447.62	409.742
1451.13	385.595
1454.64	353.938
1458.15	245.49
1461.65	150.222
1465.16	179.138
1468.66	171.074
1472.16	221.889
1475.65	182.225
1479.15	249.984
1482.64	260.102
1486.14	294.941
1489.63	260.062
1493.12	170.897
1496.61	138.62
1500.09	85.831
1503.58	68.44
1507.06	107.075
1510.54	0.885
