Measurement: Raman, 514 nm, depolarized, Raman Data Processed
Mineral: Axinite-(Fe)
Rruff sample: R050061
Ideal chemistry: Ca_4_Fe^2+^_2_Al_4_[B_2_Si_8_O_30_](OH)_2_
Locality: Jamestown, California, USA
Source: Rock Currier
Description: Brown colored axe-head-shaped single crystals
Measured chemistry: Ca_2.00_(Fe^2+^_0.73_Mg_0.20_Mn_0.07_)Al_2.00_BSi_4_O_15_(OH)
Pin_id: L00531
Orientation: Laser parallel to (1 1 0). Fiducial mark perpendicular to laser is parallel to -c [0 0 -1]
Raman shift (cm-1)	intensity
93.868	0
98.07	274.858
102.271	1099.17
106.469	4485.62
110.665	5499.8
114.859	1834.66
119.05	319.736
123.24	233.367
127.427	36.042
131.612	98.332
135.794	1124.31
139.975	2078.07
144.153	1914.67
148.329	4070.2
152.503	5946.07
156.674	3429.25
160.843	1603.91
165.011	2838.17
169.175	5993.27
173.338	7130.16
177.499	4018.61
181.657	1328.37
185.813	278.691
189.967	1455.57
194.119	2815.88
198.268	1693.43
202.415	3581.06
206.561	5986.64
210.703	6105.04
214.844	5003.99
218.983	3463.23
223.119	1244.97
227.253	114.08
231.385	496.57
235.515	361.431
239.643	448.906
243.768	1701.16
247.891	2516.19
252.012	3720.76
256.131	4656.26
260.248	4460.23
264.363	5815.89
268.475	8384.79
272.585	10285.3
276.693	9106.8
280.799	6778.76
284.903	5421.03
289.005	5003.47
293.104	5525.54
297.201	6317.19
301.296	7768.93
305.389	10160.3
309.48	8361.42
313.569	4392.31
317.655	3643.06
321.74	3387.68
325.822	3072.11
329.902	3144.49
333.98	2435
338.056	2868.77
342.129	5624.75
346.201	8182.31
350.27	10163.9
354.337	8265.52
358.402	3445.5
362.465	1166.19
366.526	543.074
370.585	321.074
374.642	437.334
378.696	1038.76
382.748	2676.86
386.799	6739.37
390.847	9793.07
394.893	7219.28
398.936	3098.18
402.978	1665.28
407.018	1685.4
411.055	3464.3
415.091	9021.01
419.124	13764.5
423.155	13497.9
427.184	12551.1
431.211	9504.08
435.236	4896.81
439.259	4522.26
443.28	7611.43
447.298	6713.3
451.315	3070.87
455.329	1713.13
459.341	1189.09
463.352	714.738
467.36	972.076
471.366	1563.1
475.37	2840.88
479.372	7077.75
483.371	15447.9
487.369	15048.5
491.365	5599.39
495.358	1963.48
499.35	835.373
503.339	414.001
507.326	160.323
511.311	141.902
515.295	341.609
519.276	447.569
523.255	303.118
527.232	134.821
531.207	274.991
535.179	598.943
539.15	372.2
543.119	263.111
547.086	142.587
551.05	65.559
555.013	510.889
558.973	1707.15
562.932	2564.59
566.888	2917.71
570.842	4370.54
574.795	5375.06
578.745	4521.28
582.693	3993.21
586.639	4982.83
590.583	5536.16
594.525	3618.19
598.465	2001.93
602.403	1440.38
606.339	1882.54
610.273	3268.43
614.205	5604.03
618.135	7969.37
622.063	7384.43
625.989	3578.23
629.912	1378.77
633.834	823.045
637.754	1034.28
641.671	1562.17
645.587	1790.31
649.501	1244.46
653.412	837.903
657.322	770.312
661.23	1008.24
665.135	1565.85
669.039	3123.44
672.94	6656.85
676.84	9855.77
680.738	7561.83
684.633	4082.45
688.527	2774.65
692.418	2715.85
696.308	3670.67
700.195	5731.41
704.081	10604.8
707.964	21355.1
711.846	37463.7
715.726	37163.2
719.603	21682.7
723.479	10522.1
727.352	5581.47
731.224	3208.74
735.094	1956.94
738.961	1255.11
742.827	899.231
746.691	744.331
750.552	715.552
754.412	920.493
758.27	1316.57
762.125	1991.67
765.979	2663.78
769.831	2469.93
773.681	1436.12
777.529	729.368
781.375	218.673
785.219	27.953
789.06	166.833
792.901	253.606
796.739	252.608
800.575	288.882
804.409	164.274
808.241	423.864
812.071	1312.13
815.899	1228.54
819.726	471.159
823.55	47.205
827.372	72.838
831.193	116.865
835.011	40.902
838.828	94.933
842.642	280.29
846.455	620.895
850.266	1089.75
854.075	1277.89
857.881	1290.78
861.686	1394.43
865.489	1547.85
869.29	1593.64
873.089	1608.85
876.886	1871.48
880.682	2435.54
884.475	3100.07
888.266	4535.07
892.056	7169.48
895.843	10974.3
899.629	14559.6
903.413	17515.2
907.194	17871.3
910.974	14317.8
914.752	9554.81
918.528	6162.21
922.302	4870.07
926.074	4588.36
929.844	4867.07
933.613	4346.19
937.379	4253.17
941.144	4913.18
944.906	6869.07
948.667	9929.03
952.426	13248.6
956.183	16078.4
959.938	22639.3
963.691	27612.2
967.442	22715.5
971.191	18699.3
974.939	20583.7
978.684	23152.4
982.428	21200.6
986.169	18349.7
989.909	18763.8
993.647	19010.6
997.383	19377.8
1001.12	19725.6
1004.85	16935.3
1008.58	12068.1
1012.31	7654.34
1016.03	5166.91
1019.76	3775.76
1023.48	3208.62
1027.2	2744.85
1030.92	2245.91
1034.64	1993.5
1038.36	2078.83
1042.07	2261.77
1045.78	2501.68
1049.49	3018.26
1053.2	3748.45
1056.9	4059.88
1060.61	3629.11
1064.31	2712.98
1068.01	2078.07
1071.71	1782.07
1075.41	2061.62
1079.1	2607.71
1082.79	2797.86
1086.48	1855.8
1090.17	1362.29
1093.86	1284.82
1097.55	1699.34
1101.23	2315.34
1104.91	2685.54
1108.59	2199.72
1112.27	1524.76
1115.95	1203.74
1119.62	852.115
1123.3	665.821
1126.97	456.209
1130.63	278.573
1134.3	168.365
1137.97	116.183
1141.63	70.116
1145.29	58.903
1148.95	6.742
1152.61	58.746
1156.27	36.887
1159.92	187.115
1163.57	98.824
1167.22	112.727
1170.87	76.617
1174.52	59.274
1178.16	27.084
1181.81	40.919
1185.45	9.862
1189.09	34.21
1192.73	25.455
1196.36	57.625
1200	49.589
1203.63	38.464
1207.26	17.816
1210.89	65.622
1214.52	23.205
1218.14	6.614
1221.77	0.848
1225.39	18.63
1229.01	78.222
1232.62	88.643
1236.24	69.252
1239.86	85.261
1243.47	106.75
1247.08	92.971
1250.69	206.859
1254.3	53.917
1257.9	129.782
1261.5	139.886
1265.11	191.291
1268.71	252.983
1272.3	247.166
1275.9	200.832
1279.49	147
1283.09	106.747
1286.68	116.981
1290.27	90.201
1293.86	92.559
1297.44	178.376
1301.03	164.288
1304.61	72.132
1308.19	148.465
1311.77	45.738
1315.34	11.26
1318.92	81.232
1322.49	127.557
1326.06	122.008
1329.63	170.721
1333.2	187.544
1336.77	247.52
1340.33	179.425
1343.89	152.217
1347.46	133.478
1351.02	37.16
1354.57	159.129
1358.13	159.682
1361.68	197.144
1365.23	247.627
1368.79	187.176
1372.33	222.059
1375.88	199.614
1379.43	208.024
1382.97	223.533
1386.51	129.803
1390.05	127.056
1393.59	73.49
1397.13	102.657
1400.66	155.123
1404.19	195.919
1407.72	233.593
1411.25	239.833
1414.78	207.49
1418.31	128.146
1421.83	83.057
1425.36	101.569
1428.88	28.131
1432.39	52.796
1435.91	80.904
1439.43	111.654
1442.94	192.498
1446.45	221.254
1449.96	244.279
1453.47	146.245
1456.98	192.343
1460.48	131.406
1463.99	56.337
1467.49	108.562
1470.99	65.742
1474.49	88.267
1477.99	92.882
1481.48	120.59
1484.97	132.186
1488.46	145.969
1491.95	85.846
1495.44	110.302
1498.93	81.791
1502.41	20.945
1505.9	4.694
1509.38	6.644
1512.86	9.598
