Measurement: Raman, 514 nm, ccw, Raman Data Processed
Mineral: Axinite-(Fe)
Rruff sample: R050061
Ideal chemistry: Ca_4_Fe^2+^_2_Al_4_[B_2_Si_8_O_30_](OH)_2_
Locality: Jamestown, California, USA
Source: Rock Currier
Description: Brown colored axe-head-shaped single crystals
Measured chemistry: Ca_2.00_(Fe^2+^_0.73_Mg_0.20_Mn_0.07_)Al_2.00_BSi_4_O_15_(OH)
Pin_id: L00257
Orientation: Laser parallel to -b* (0 -1 0). Fiducial mark perpendicular to laser is parallel to -c [0 0 -1]
Raman shift (cm-1)	intensity
144.153	0
148.329	177.604
152.503	1061.94
156.674	2072.6
160.843	1297.52
165.011	599.08
169.175	2555.46
173.338	3274.23
177.499	1372.67
181.657	423.509
185.813	49.863
189.967	52.019
194.119	285.499
198.268	86.617
202.415	440.729
206.561	1456.85
210.703	2283.41
214.844	2164.23
218.983	1521.27
223.119	651.51
227.253	141.993
231.385	15.509
235.515	54.942
239.643	3.073
243.768	378.73
247.891	843.483
252.012	831.264
256.131	884.479
260.248	587.174
264.363	703.987
268.475	1075.6
272.585	1373.71
276.693	1385.97
280.799	886.237
284.903	462.551
289.005	472.904
293.104	1146.29
297.201	2181.71
301.296	2727.16
305.389	3869.05
309.48	4489.81
313.569	2047.83
317.655	876.6
321.74	764.046
325.822	389.764
329.902	182.138
333.98	76.511
338.056	48.075
342.129	563.553
346.201	1551.91
350.27	2693.11
354.337	4335.02
358.402	2024.24
362.465	589.567
366.526	51.201
370.585	10.731
374.642	167.683
378.696	115.902
382.748	234.894
386.799	1290.41
390.847	2879.85
394.893	3148.59
398.936	1798.16
402.978	949.454
407.018	499.718
411.055	374.968
415.091	542.199
419.124	1604.41
423.155	2260.56
427.184	2817.65
431.211	2363.72
435.236	1264.77
439.259	778.825
443.28	1595.87
447.298	2276.92
451.315	612.959
455.329	305.993
459.341	241.019
463.352	61.036
467.36	76.032
471.366	536.984
475.37	609.251
479.372	607.26
483.371	1355.89
487.369	2045.34
491.365	663.839
495.358	101.003
499.35	129.509
503.339	84.764
507.326	147.549
511.311	412.88
515.295	567.474
519.276	318.337
523.255	136.329
527.232	62.748
531.207	86.327
535.179	32.98
539.15	111.386
543.119	109.643
547.086	374.082
551.05	149.482
555.013	31.073
558.973	339.486
562.932	813.4
566.888	844.972
570.842	938.67
574.795	1231.33
578.745	1274.93
582.693	1418.5
586.639	2036.02
590.583	2927.49
594.525	2054.92
598.465	1009.3
602.403	631.634
606.339	656.92
610.273	936.158
614.205	1247.35
618.135	1337.49
622.063	1129.18
625.989	491.542
629.912	102.532
633.834	58.538
637.754	70.766
641.671	215.605
645.587	239.108
649.501	149.484
653.412	135.773
657.322	88.039
661.23	135.409
665.135	222.513
669.039	547.471
672.94	1774.34
676.84	3719.97
680.738	3426.68
684.633	1644.54
688.527	877.965
692.418	775.109
696.308	905.404
700.195	1363.69
704.081	2263.4
707.964	4592.23
711.846	9921.67
715.726	13799.4
719.603	8717.08
723.479	3919.7
727.352	1952.28
731.224	1181.8
735.094	840.276
738.961	478.706
742.827	279.09
746.691	153.431
750.552	220.73
754.412	328.99
758.27	370.211
762.125	534.395
765.979	729.543
769.831	842.657
773.681	628.737
777.529	500.788
781.375	258.818
785.219	23.82
789.06	4.757
792.901	18.162
796.739	26.543
800.575	44.202
804.409	53.316
808.241	36.111
812.071	95.342
815.899	86.651
819.726	21.73
823.55	0.65
827.372	26.187
831.193	69.203
835.011	57.471
838.828	124.031
842.642	83.404
846.455	51.879
850.266	129.448
854.075	192.124
857.881	388.826
861.686	477.547
865.489	503.308
869.29	437.144
873.089	485.046
876.886	593.026
880.682	769.044
884.475	896.098
888.266	1048.21
892.056	1546.38
895.843	2302.67
899.629	3533.04
903.413	4946.45
907.194	5320.95
910.974	3885.51
914.752	2194.11
918.528	1243.75
922.302	966.979
926.074	866.178
929.844	943.951
933.613	784.764
937.379	731.545
941.144	662.368
944.906	844.313
948.667	1191.01
952.426	1674.33
956.183	2300.9
959.938	3669.23
963.691	5251.58
967.442	5290.77
971.191	4891.28
974.939	5816.49
978.684	7626
982.428	7063.63
986.169	5540.63
989.909	5328.84
993.647	5825.2
997.383	6779.21
1001.12	7130.38
1004.85	5880.9
1008.58	3919.78
1012.31	2494.15
1016.03	1764.38
1019.76	1373.66
1023.48	1243.93
1027.2	949.291
1030.92	798.827
1034.64	735.693
1038.36	759.698
1042.07	894.815
1045.78	1047.51
1049.49	1365.61
1053.2	1610.11
1056.9	1583.91
1060.61	1303.72
1064.31	890.081
1068.01	623.203
1071.71	647.869
1075.41	730.476
1079.1	931.152
1082.79	1150.8
1086.48	915.41
1090.17	598.279
1093.86	431.08
1097.55	492.866
1101.23	488.154
1104.91	495.291
1108.59	340.565
1112.27	152.825
1115.95	115.144
1119.62	149.475
1123.3	144.873
1126.97	129.476
1130.63	69.126
1134.3	99.862
1137.97	31.808
1141.63	17.938
1145.29	60.947
1148.95	25.07
1152.61	62.06
1156.27	53.495
1159.92	87.428
1163.57	9.076
1167.22	38.174
1170.87	38.693
1174.52	1.006
1178.16	16.328
1181.81	62.589
1185.45	66.609
1189.09	88.485
1192.73	24.592
1196.36	14.466
1200	76.756
1203.63	6.363
1207.26	110.935
1210.89	69.49
1214.52	96.91
1218.14	43.057
1221.77	30.098
1225.39	38.865
1229.01	78.987
1232.62	35.719
1236.24	109.352
1239.86	89.906
1243.47	137.353
1247.08	98.919
1250.69	52.838
1254.3	57.326
1257.9	45.301
1261.5	59.602
1265.11	111.892
1268.71	151.122
1272.3	197.011
1275.9	153.793
1279.49	105.432
1283.09	93.029
1286.68	79.381
1290.27	42.518
1293.86	69.628
1297.44	3.274
1301.03	69.494
1304.61	109.187
1308.19	85.996
1311.77	105.505
1315.34	96.026
1318.92	55.707
1322.49	65.013
1326.06	11.876
1329.63	5.536
1333.2	34.045
1336.77	86.01
1340.33	47.281
1343.89	95.044
1347.46	99.819
1351.02	10.67
1354.57	7.733
1358.13	21.222
1361.68	89.047
1365.23	16.176
1368.79	21.115
1372.33	166.505
1375.88	99.685
1379.43	133.822
1382.97	121.196
1386.51	39.641
1390.05	16.851
1393.59	21.447
1397.13	19.373
1400.66	79.199
1404.19	48.511
1407.72	70.115
1411.25	140.079
1414.78	134.26
1418.31	126.484
1421.83	105.628
1425.36	152.338
1428.88	66.923
1432.39	44.955
1435.91	191.269
1439.43	175.515
1442.94	193.308
1446.45	272.256
1449.96	300.696
1453.47	326.908
1456.98	253.389
1460.48	155.801
1463.99	135.139
1467.49	100.151
1470.99	48.125
1474.49	89.512
1477.99	117.93
1481.48	88.341
1484.97	73.259
1488.46	141.936
1491.95	137.179
1495.44	112.106
1498.93	134.11
1502.41	96.595
1505.9	138.115
1509.38	54.887
