Measurement: Raman, 514 nm, depolarized, Raman Data Processed
Mineral: Axinite-(Fe)
Rruff sample: R040074
Ideal chemistry: Ca_4_Fe^2+^_2_Al_4_[B_2_Si_8_O_30_](OH)_2_
Locality: Luning, Nevada, USA
Source: University of Arizona Mineral Museum
Description: Pale brown wedge-shaped crystal
Measured chemistry: (Ca_0.98_Mn_0.01_)_2_(Fe_0.41_Mg_0.39_Mn_0.20_)Al_1.95_B_1.20_Si_3.90_O_15_(OH)
Pin_id: M00153
Orientation: Laser parallel to (1 0 1). Fiducial mark perpendicular to laser is parallel to b [0 1 0]
Raman shift (cm-1)	intensity
91.081	0
95.268	75.651
99.453	898.394
103.636	2017.11
107.817	6781.67
111.996	8216.71
116.172	6241.27
120.347	3273.65
124.519	1722.65
128.69	517.302
132.858	430.244
137.025	2098.25
141.189	5919.71
145.352	7809.57
149.512	8198.63
153.67	7289.76
157.827	4352.55
161.981	3666.18
166.133	4141.6
170.283	6767.7
174.431	6904.27
178.577	3943.43
182.721	1225.83
186.863	221.122
191.003	249.092
195.141	110.733
199.277	443.373
203.411	745.212
207.543	3674.36
211.673	6753.12
215.801	7911.53
219.927	5969.71
224.051	2865.48
228.173	879.677
232.292	223.096
236.41	512.05
240.526	1261.48
244.64	1674.84
248.752	2957.6
252.861	5190.27
256.969	6014.43
261.075	6411.17
265.179	9239.93
269.281	13188.2
273.38	14322.3
277.478	12380.2
281.574	8803.42
285.668	6783.84
289.76	6391.4
293.85	6676.76
297.937	7229.36
302.023	7443.86
306.107	7372.31
310.189	6676.27
314.269	7201.77
318.347	10527.4
322.423	10753.2
326.497	7499.05
330.569	5794.41
334.639	5589.88
338.707	7845.47
342.773	13193.2
346.837	13670.7
350.899	9383.24
354.96	5212.32
359.018	1668.24
363.074	130.604
367.128	236.972
371.181	168.125
375.231	499.964
379.28	488.874
383.326	1577.04
387.37	4195.1
391.413	6090.09
395.454	4812.64
399.492	2673.84
403.529	2040.08
407.564	1645.12
411.596	2592.09
415.627	5554.98
419.656	8337.75
423.683	11180.1
427.708	12101.9
431.731	10683.2
435.752	6813.9
439.772	4904.54
443.789	6447.21
447.804	5187.34
451.817	2239.26
455.829	1216.76
459.838	637.869
463.846	225.58
467.852	527.874
471.855	1127.11
475.857	1991.88
479.857	5351.56
483.855	12731.2
487.851	12121.9
491.845	4533.44
495.837	1528.35
499.828	563.108
503.816	378.069
507.802	926.566
511.787	1102.78
515.77	770.039
519.75	17.981
523.729	547.346
527.706	644.312
531.681	343.164
535.654	195.098
539.625	412.923
543.595	560.009
547.562	481.776
551.527	461.215
555.491	1457.42
559.453	3249.5
563.412	3024.32
567.37	2208.83
571.326	2650.01
575.28	3316.87
579.233	2545.4
583.183	2050.58
587.131	2333.44
591.078	2021.25
595.022	995.796
598.965	427.641
602.906	458.845
606.845	936.401
610.782	2158.11
614.718	4624.47
618.651	8144.46
622.582	7551.66
626.512	3596.62
630.44	1398.8
634.366	1057.12
638.29	1664.37
642.212	2819.22
646.132	2939.87
650.05	1824.94
653.967	1101.14
657.882	730.242
661.794	915.054
665.705	1658.36
669.614	3473.53
673.522	7270.07
677.427	9473.35
681.331	6859.52
685.232	3926.09
689.132	2719.06
693.03	2565.51
696.926	3461.99
700.82	5580.24
704.713	11088
708.603	22784.8
712.492	40362.5
716.379	40319.6
720.264	23566.2
724.147	11382.2
728.028	5987.72
731.908	3296.68
735.785	1951.11
739.661	1167.02
743.535	860.395
747.407	625.25
751.278	560.547
755.146	564.189
759.013	594.6
762.878	1157.01
766.741	1631.12
770.602	1467.73
774.461	706.852
778.319	230.492
782.174	60.461
786.028	230.687
789.88	329.098
793.73	375.277
797.579	446.316
801.425	301.199
805.27	48.438
809.113	721.146
812.954	1555.21
816.794	1225.25
820.631	423.591
824.467	98.488
828.301	141.87
832.133	199.764
835.963	342.708
839.792	500.521
843.618	731.287
847.443	1416.26
851.266	2085.99
855.088	2345.48
858.907	2441.78
862.725	2298.98
866.541	2207.07
870.355	2130.12
874.167	2179.16
877.978	2256.11
881.787	2504.06
885.594	2817.95
889.399	3678.74
893.202	5399.4
897.004	8159.88
900.803	11259.6
904.601	11227.4
908.398	8444.7
912.192	5933.31
915.985	4213.47
919.776	3563.54
923.565	3693.48
927.352	4253.38
931.138	5149.67
934.922	5231.98
938.704	5459.79
942.484	6457.56
946.262	9087.27
950.039	12754.4
953.814	16622
957.587	20565.7
961.359	26884.3
965.128	30534.4
968.896	24624.5
972.662	21484.1
976.427	23830.4
980.189	24295.4
983.95	20220.9
987.709	16608.1
991.467	14109.1
995.222	12269.6
998.976	11922.9
1002.73	12086.7
1006.48	10107.7
1010.23	7227.27
1013.97	4805.67
1017.72	3313.45
1021.46	2358.85
1025.2	1945.46
1028.94	1496.94
1032.68	1482.44
1036.42	1457.56
1040.15	2038.16
1043.89	2286.58
1047.62	2474.48
1051.35	2666.92
1055.07	3446.54
1058.8	4457.58
1062.52	4846.43
1066.25	3897.98
1069.97	3023.87
1073.69	2562.01
1077.4	3226.56
1081.12	4606.35
1084.83	5092.31
1088.55	3548.56
1092.26	2314.49
1095.96	1721.54
1099.67	1460.53
1103.38	1659.52
1107.08	1860.04
1110.78	1519.66
1114.48	1327.86
1118.18	1015.35
1121.88	762.997
1125.57	549.652
1129.27	391.294
1132.96	239.881
1136.65	223.434
1140.34	180.623
1144.02	146.357
1147.71	134.938
1151.39	123.256
1155.07	23.431
1158.75	198.111
1162.43	111.041
1166.11	163.083
1169.78	26.584
1173.45	17.89
1177.12	100.08
1180.79	35.907
1184.46	28.864
1188.13	29.038
1191.79	243.36
1195.45	82.263
1199.11	26.239
1202.77	39.384
1206.43	115.956
1210.09	30.112
1213.74	86.312
1217.39	0.168
1221.05	97.568
1224.69	17.066
1228.34	76.525
1231.99	240.663
1235.63	275.24
1239.27	279.86
1242.91	264.528
1246.55	171.702
1250.19	69.981
1253.83	116.084
1257.46	205.936
1261.09	601.633
1264.72	424.808
1268.35	395.609
1271.98	362.705
1275.61	398.688
1279.23	362.327
1282.85	146.612
1286.47	257.334
1290.09	395.743
1293.71	290.518
1297.33	413.767
1300.94	257.229
1304.55	270.473
1308.16	57.15
1311.77	64.706
1315.38	73.173
1318.99	20.396
1322.59	181.705
1326.19	246.117
1329.79	319.011
1333.39	191.805
1336.99	459.4
1340.59	246.867
1344.18	176.451
1347.77	15.496
1351.37	49.245
1354.95	17.877
1358.54	260.731
1362.13	290.61
1365.71	411.652
1369.3	266.753
1372.88	203.573
1376.46	175.467
1380.04	11.466
1383.61	22.488
1387.19	86.953
1390.76	79.997
1394.33	151.636
1397.9	281.37
1401.47	305.257
1405.04	487.362
1408.6	338.38
1412.16	476.481
1415.72	196.292
1419.29	114.247
1422.84	3.593
1426.4	158.168
1429.96	82.798
1433.51	258.338
1437.06	299.098
1440.61	550.834
1444.16	723.039
1447.71	599.34
1451.25	498.059
1454.8	311.146
1458.34	200.566
1461.88	136.217
1465.42	47.26
1468.96	60.705
1472.49	260.709
1476.03	317.137
1479.56	640.877
1483.09	699.475
1486.62	525.115
1490.15	688.76
1493.67	502.145
1497.2	272.527
1500.72	111.809
1504.24	220.568
1507.76	9.785
1511.28	5.232
1514.8	336.914
