Measurement: Raman, 514 nm, depolarized, Raman Data Processed
Mineral: Axinite-(Fe)
Rruff sample: R060194
Ideal chemistry: Ca_4_Fe^2+^_2_Al_4_[B_2_Si_8_O_30_](OH)_2_
Locality: near Dalbandi, Baluchistan Province, Pakistan
Source: Herbert Obodda
Description: Brown transparent wedge-shaped single crystal
Measured chemistry: Ca_2.00_(Fe^2+^_0.66_Mg_0.30_Mn_0.04_)Al_2.00_BSi_4.00_O_15_(OH)
Pin_id: L00952
Orientation: Laser parallel to (1 1 0). Fiducial mark perpendicular to laser is parallel to -c [0 0 -1]
Raman shift (cm-1)	intensity
53.91	0
58.864	330.849
63.817	147.439
68.767	87.7207
73.714	830.929
78.659	2127.54
83.602	3730.07
88.542	5527.26
93.48	8272.81
98.416	8421.18
103.349	8841.75
108.28	14829.3
113.208	9966.39
118.134	8491.34
123.058	7183.82
127.979	6118.58
132.898	5191.92
137.814	5032.21
142.728	6134
147.639	8043.96
152.549	12533.4
157.455	10108
162.359	8333.94
167.261	10606
172.161	15159.1
177.058	9421.09
181.952	4653.69
186.845	3019.94
191.734	3994.8
196.622	5273.57
201.507	5711.32
206.389	8582.07
211.269	10783.4
216.147	9801.47
221.022	7042.19
225.895	3668.32
230.765	1690.63
235.633	1254.77
240.498	1978.28
245.361	3251.83
250.222	4478.81
255.08	5743.22
259.936	6027.13
264.789	6373.82
269.64	7749.3
274.488	7240.55
279.334	4860.4
284.178	3529.81
289.019	3166.66
293.857	5145.74
298.693	8682.91
303.527	11552
308.358	11232
313.187	6915.95
318.013	6064.23
322.837	4262.75
327.659	2151.73
332.478	1993.88
337.294	4012.21
342.108	9114.17
346.92	11747.2
351.729	9677.12
356.535	5112.34
361.34	633.857
366.141	747.074
370.94	760.813
375.737	376.854
380.531	579.101
385.323	4414.12
390.113	9753.93
394.9	9477.54
399.684	4647.64
404.466	2019.79
409.245	1394.04
414.022	3438.3
418.797	8144.48
423.569	9705.49
428.338	12541.2
433.105	8943.64
437.87	3544.59
442.632	2433.01
447.391	1966.82
452.149	437.929
456.903	146.214
461.655	160.311
466.405	854.226
471.152	1974.12
475.897	3060.93
480.639	7270.58
485.378	13547
490.116	6359.13
494.85	1737.17
499.582	1119.11
504.312	1450.82
509.039	1596.4
513.764	1098.74
518.486	151.831
523.206	399.007
527.923	564.554
532.638	415.434
537.35	73.2441
542.059	1022.97
546.766	1796.58
551.471	1307.17
556.173	1153.02
560.873	2345.92
565.57	2077.62
570.264	2306.99
574.957	3026.98
579.646	3443.55
584.333	4314.65
589.018	6088.25
593.7	4222.3
598.379	1904.9
603.056	1771.54
607.73	2936.77
612.402	5781.35
617.072	8876.25
621.739	8805.43
626.403	4199.87
631.065	1224.55
635.724	610.444
640.381	1007.45
645.035	1564.62
649.687	1139.76
654.336	709.281
658.983	555.02
663.627	1104.23
668.268	2912.55
672.907	7028.2
677.544	9888.11
682.178	6087.81
686.809	2661.17
691.438	2041.11
696.065	3183.4
700.688	6491.1
705.31	15114.6
709.929	31414.3
714.545	41700.2
719.158	26182.3
723.77	11389.7
728.378	5062.26
732.984	2439.1
737.588	1454.26
742.189	518.884
746.787	554.9
751.383	807.254
755.976	1647.97
760.567	2939.08
765.155	4855.61
769.741	4783.6
774.324	2877.94
778.904	1139.09
783.482	257.6
788.058	17.6416
792.631	298.4
797.201	454.032
801.769	377.376
806.334	170.362
810.897	434.046
815.457	809.611
820.014	173.547
824.569	33.6895
829.122	18.4873
833.671	162.138
838.219	110.597
842.763	670.293
847.306	1094.03
851.845	1495.84
856.382	2094.76
860.917	2303.83
865.448	1947.09
869.978	1703.57
874.505	1939.32
879.029	1613.35
883.55	2089.9
888.069	2343.21
892.586	3791.34
897.1	6338.15
901.611	9082.64
906.12	10951.3
910.626	9213.66
915.129	5786.27
919.63	3408.99
924.129	2619.56
928.625	2838.28
933.118	3201.03
937.609	3463.36
942.097	4539.46
946.582	7481.61
951.065	12310.2
955.546	17572.8
960.023	26103.5
964.499	34391.1
968.971	28835.4
973.441	21104.7
977.909	22430
982.374	22300.4
986.836	17875.9
991.295	15899.5
995.753	16285.2
1000.21	18240
1004.66	18369.9
1009.11	13498.9
1013.55	7965.42
1018	4890.32
1022.44	3815.08
1026.88	3678.97
1031.32	3240.93
1035.75	2691.12
1040.18	2275.33
1044.61	2263.66
1049.04	2914.58
1053.46	3998.68
1057.88	4601.14
1062.3	4525.48
1066.71	3148.77
1071.13	2527.86
1075.54	2704.41
1079.94	4713.36
1084.35	5971.59
1088.75	4456.4
1093.15	2583.47
1097.55	2191.75
1101.94	2222.26
1106.34	2646.44
1110.73	2355.85
1115.11	1742.02
1119.5	1448.45
1123.88	1185.02
1128.26	687.829
1132.63	255.349
1137.01	184.842
1141.38	15.3252
1145.75	132.163
1150.12	73.0781
1154.48	99.8008
1158.84	124.201
1163.2	3.86035
1167.55	35.5381
1171.91	22.3125
1176.26	64.501
1180.61	78.8008
1184.95	52.4941
1189.29	71.7344
1193.63	82.5908
1197.97	32.0185
1202.31	31.4629
1206.64	94.8633
1210.97	2.4541
1215.29	133.023
1219.62	232.316
1223.94	78.0078
1228.26	171.763
1232.57	184.675
1236.89	388.144
1241.2	299.385
1245.51	406.828
1249.81	267.602
1254.12	438.346
1258.42	201.967
1262.72	514.226
1267.01	292.954
1271.3	314.884
1275.59	384.052
1279.88	648.523
1284.17	395.531
1288.45	343.785
1292.73	469.782
1297.01	325.655
1301.28	382.092
1305.55	657.72
1309.82	564.342
1314.09	570.148
1318.35	463.728
1322.61	599.319
1326.87	717.31
1331.13	636.011
1335.38	441.656
1339.63	480.562
1343.88	437.285
1348.12	570.736
1352.37	502.45
1356.61	475.126
1360.85	321.301
1365.08	427.239
1369.31	642.894
1373.54	537.341
1377.77	676.22
1381.99	549.053
1386.22	704.275
1390.43	408.982
1394.65	326.46
1398.87	360.511
1403.08	212.477
1407.29	253.505
1411.49	375.868
1415.69	105.574
1419.89	224.129
1424.09	332.7
1428.29	109.098
1432.48	334.149
1436.67	331.431
1440.86	99.2988
1445.04	238.849
1449.23	202.53
1453.4	155.513
1457.58	51.915
1461.76	199.978
1465.93	131.875
1470.1	183.887
1474.26	137.401
1478.43	131.654
1482.59	183.322
1486.75	279.152
1490.9	326.442
1495.06	197.53
1499.21	17.7041
1503.35	300.545
1507.5	110.591
1511.64	7.57227
1515.78	164.304
1519.92	142.505
1524.05	37.6006
1528.18	17.123
1532.31	37.373
1536.44	93.5889
1540.56	204.008
1544.69	248.439
1548.8	145.194
1552.92	293.739
1557.03	310.538
1561.14	142.727
1565.25	31.9766
1569.36	179.719
