Measurement: Raman, 514 nm, depolarized, Raman Data Processed
Mineral: Axinite-(Fe)
Rruff sample: R060558
Ideal chemistry: Ca_4_Fe^2+^_2_Al_4_[B_2_Si_8_O_30_](OH)_2_
Locality: unknown
Source: Gemological Institute of America
Description: Brown flattened crystal
Measured chemistry: Ca_2.00_(Fe^2+^_0.60_Mg_0.35_Mn_0.05_)_Î£=1_Al_2.00_BSi_4.00_O_15_(OH) ; B not measured
Pin_id: M01661
Orientation: Laser parallel to (1 1 0). Fiducial mark perpendicular to laser is parallel to c [0 0 1]
Raman shift (cm-1)	intensity
91.531	0
96.519	989.938
101.503	2919.99
106.484	5863.76
111.462	4337.91
116.437	1987.32
121.409	814.494
126.377	49.615
131.343	169.591
136.305	528.432
141.264	1307.52
146.22	1354.67
151.173	2334.69
156.123	2262.84
161.069	1742.8
166.013	2419.34
170.953	3751.89
175.89	2390.19
180.825	421.769
185.756	216.856
190.683	1512.66
195.608	2674.07
200.53	3342
205.449	5482.85
210.364	6180.27
215.277	5016.28
220.186	3013.94
225.092	963.233
229.996	2.1294
234.896	226.773
239.793	294.47
244.687	815.538
249.578	1702.29
254.466	3078.15
259.351	3866.2
264.233	5322.93
269.112	7676.27
273.988	7504.09
278.86	4691.29
283.73	2820.52
288.597	2925.29
293.461	4664.53
298.321	7208.17
303.179	8773.12
308.034	8971.29
312.885	6568.54
317.734	5727.57
322.58	4084.26
327.422	2307.5
332.262	2050.4
337.099	3512.68
341.932	7386.89
346.763	9594.01
351.591	8997.33
356.416	6144.66
361.238	2100.66
366.056	301.289
370.872	1.48657
375.685	7.46704
380.495	488.396
385.302	2127.4
390.106	4332.85
394.908	3809.74
399.706	1837.56
404.501	1528.98
409.294	2172.02
414.083	5325.66
418.869	9782.89
423.653	9867.11
428.434	9825.18
433.211	6688.71
437.986	3636.66
442.758	4797
447.527	4457.7
452.293	1194.74
457.057	22.9138
461.817	364.106
466.575	153.499
471.329	354.038
476.081	1213.76
480.83	3503.68
485.576	6469.78
490.319	3538.07
495.059	1062.74
499.796	987.011
504.531	1490.52
509.262	2113.06
513.991	1775.18
518.717	684.636
523.44	178.024
528.161	94.6387
532.878	42.408
537.593	251.896
542.304	412.031
547.013	643.129
551.719	394.684
556.423	260.757
561.123	579.077
565.821	671.27
570.516	965.203
575.208	1581.86
579.897	2132.22
584.583	3672.28
589.267	5613.02
593.948	4262.42
598.626	1843.53
603.301	842.621
607.974	869.841
612.644	1214.14
617.311	1537
621.975	864.596
626.636	154.903
631.295	22.2974
635.951	30.406
640.604	475.426
645.254	768.134
649.902	379.526
654.547	33.0869
659.189	126.99
663.828	206.227
668.465	916.112
673.099	2762
677.73	3903.56
682.359	2297.63
686.984	1023.78
691.607	729.251
696.228	1199.9
700.845	2745.37
705.46	6660.64
710.072	14756.5
714.682	20704
719.288	13439.1
723.893	5978.8
728.494	2720.15
733.093	1540.14
737.689	905.785
742.282	651.789
746.873	548.682
751.461	706.668
756.046	1103.34
760.628	2118.72
765.208	3249.81
769.786	3444.06
774.36	2281.08
778.932	1138.37
783.502	514.516
788.068	220.464
792.632	9.09497
797.194	21.2097
801.752	32.7251
806.309	47.8711
810.862	339.916
815.413	277.154
819.961	29.6509
824.507	194.958
829.05	163.713
833.59	43.8018
838.128	76.3945
842.663	242.507
847.195	511.66
851.725	874.869
856.252	836.149
860.777	848.516
865.299	765.985
869.819	733.626
874.336	725.5
878.85	977.652
883.362	1178.99
887.871	1775.51
892.377	2928.8
896.881	4550.3
901.383	5801.51
905.882	6218.18
910.378	5649.56
914.872	3990.33
919.363	2377.31
923.852	1649.61
928.338	1568.35
932.821	1526.99
937.302	1636.99
941.781	2025
946.257	2945.89
950.73	4705.17
955.201	6608.79
959.669	10286.2
964.135	13967.8
968.598	12817.8
973.059	11682.6
977.517	14837.3
981.973	15254.4
986.426	11674
990.877	10300.9
995.325	10977.3
999.771	12812.7
1004.21	13916.5
1008.65	10579.4
1013.09	6124.8
1017.53	3401.33
1021.96	2282.1
1026.39	2407.94
1030.82	2272.68
1035.25	1313.38
1039.67	849.444
1044.09	641.967
1048.51	618.577
1052.92	617.188
1057.34	791.871
1061.75	642.327
1066.16	535.975
1070.56	393.867
1074.97	504.565
1079.37	995.243
1083.77	1437.19
1088.16	1111.84
1092.56	586.798
1096.95	358.69
1101.34	240.231
1105.72	198.155
1110.11	129.469
1114.49	190.165
1118.87	12.8818
1123.25	92.4343
1127.62	33.252
1131.99	12.5696
1136.36	10.7224
1140.73	67.3882
1145.09	37.5364
1149.46	33.2224
1153.82	40.2942
1158.17	7.36523
1162.53	6.56055
1166.88	32.0444
1171.23	12.2832
1175.58	6.42041
1179.93	25.9197
1184.27	9.19556
1188.61	0.611328
1192.95	1.87817
1197.29	21.7288
1201.62	32.8997
1205.95	118.517
1210.28	47.6687
1214.61	30.7463
1218.93	39.9683
1223.25	47.1843
1227.57	17.6006
1231.89	101.293
1236.2	70.7661
1240.52	63.9412
1244.83	39.9966
1249.13	112.564
1253.44	88.7686
1257.74	168.558
1262.05	141.42
1266.34	52.147
1270.64	139.055
1274.93	94.6414
1279.23	146.061
1283.52	62.1672
1287.8	66.4495
1292.09	58.4104
1296.37	69.8977
1300.65	125.595
1304.93	84.887
1309.2	73.7568
1313.48	105.581
1317.75	74.9595
1322.02	20.0378
1326.28	41.2642
1330.55	62.4038
1334.81	105.847
1339.07	77.5789
1343.33	85.9565
1347.58	59.2895
1351.83	130.84
1356.08	73.8345
1360.33	55.2407
1364.58	136.827
1368.82	35.3782
1373.06	133.924
1377.3	48.4092
1381.54	102.887
1385.77	96.2087
1390.01	48.3918
1394.24	48.2534
1398.46	125.576
1402.69	63.8423
1406.91	65.5173
1411.14	73.2649
1415.36	69.7327
1419.57	96.4431
1423.79	106.862
1428	124.519
1432.21	63.2893
1436.42	78.2188
1440.62	62.1023
1444.83	142.028
1449.03	18.9439
1453.23	67.7971
1457.42	119.213
1461.62	91.3462
1465.81	61.5881
1470	18.5198
1474.19	95.5752
1478.38	38.6987
1482.56	41.5142
1486.74	26.3543
1490.92	58.3369
1495.1	63.397
1499.27	61.7644
1503.45	63.3447
1507.62	85.2666
1511.79	18.9377
1515.95	85.4085
1520.12	59.0598
1524.28	148.751
1528.44	114.307
1532.6	47.0286
1536.75	126.766
1540.9	43.8096
1545.06	115.971
1549.2	52.7246
1553.35	134.467
1557.5	31.2275
1561.64	0.358887
