Measurement: Raman, 514 nm, depolarized, Raman Data Processed
Mineral: Axinite-(Fe)
Rruff sample: R040074
Ideal chemistry: Ca_4_Fe^2+^_2_Al_4_[B_2_Si_8_O_30_](OH)_2_
Locality: Luning, Nevada, USA
Source: University of Arizona Mineral Museum
Description: Pale brown wedge-shaped crystal
Measured chemistry: (Ca_0.98_Mn_0.01_)_2_(Fe_0.41_Mg_0.39_Mn_0.20_)Al_1.95_B_1.20_Si_3.90_O_15_(OH)
Pin_id: L00239
Orientation: Laser parallel to b* (0 1 0). Fiducial mark perpendicular to laser is parallel to c [0 0 1]
Raman shift (cm-1)	intensity
90.003	0
94.188	268.243
98.37	1154.45
102.55	3086.76
106.729	9433.01
110.905	12423
115.079	3560.57
119.251	1760.63
123.422	1025.64
127.59	546.213
131.756	284.57
135.92	1002.39
140.082	2863.9
144.242	3785.4
148.4	3848.46
152.556	4683.25
156.71	4259.78
160.862	3846.85
165.012	4239.35
169.16	7546.71
173.306	7066.52
177.449	3446.96
181.591	948.53
185.731	18.743
189.869	576.746
194.005	1493.64
198.139	1034.54
202.271	2429.09
206.4	4174.81
210.528	4571.6
214.654	4059.27
218.778	2498.49
222.9	858.512
227.019	106.696
231.137	525.743
235.253	537.312
239.367	466.678
243.479	1860.69
247.589	3182.35
251.697	4314.17
255.803	3727.9
259.906	4120.15
264.008	6541.07
268.108	9296.8
272.206	9875.84
276.302	7627.32
280.396	4930.61
284.488	3725.34
288.578	3791.24
292.666	5468.04
296.753	8144.06
300.837	10348
304.919	10660.5
308.999	7836.09
313.077	3845.08
317.154	2294.8
321.228	2295.12
325.3	1515.13
329.371	1852.47
333.439	1229.97
337.506	1135.3
341.57	2530.46
345.633	5129.43
349.693	9248.75
353.752	10178.2
357.809	4428.19
361.863	1147.65
365.916	163.498
369.967	6.194
374.016	272.131
378.063	343.617
382.108	1344.37
386.151	4485.2
390.192	7963.01
394.231	6135.83
398.269	2693.61
402.304	1676.14
406.337	1316.9
410.369	2717.7
414.398	8458.55
418.426	10149.5
422.452	6090.73
426.475	6602.21
430.497	7033.84
434.517	4265.55
438.535	2377.3
442.551	3229.06
446.565	2570.8
450.577	642.494
454.588	214.13
458.596	14.441
462.602	323.789
466.607	74.788
470.61	513.344
474.61	796.583
478.609	2284.61
482.606	7387.82
486.601	8896.82
490.594	2516.27
494.585	340.554
498.575	50.61
502.562	152.059
506.548	580.416
510.531	688.579
514.513	516.621
518.493	84.696
522.47	42.739
526.446	73.192
530.421	43.735
534.393	107.725
538.363	303.362
542.331	478.744
546.298	373.868
550.263	278.742
554.225	783.744
558.186	2179.42
562.145	2805.21
566.103	2850.73
570.058	4505.96
574.011	5970.9
577.963	5375.55
581.912	4869.89
585.86	6863.93
589.806	7737.64
593.75	4371.03
597.692	2034.1
601.632	1416.83
605.571	1499.23
609.507	2331.29
613.442	2903.01
617.375	3302.4
621.306	2728.3
625.235	1079.94
629.162	111.057
633.087	108.159
637.011	6.533
640.932	389.414
644.852	620.62
648.77	374.598
652.686	262.366
656.6	104.008
660.513	380.789
664.423	1096.3
668.332	2871.96
672.239	6402.08
676.144	8870.56
680.047	6366.88
683.948	3328.67
687.848	2139.48
691.746	1919.03
695.641	2711.82
699.535	4294.31
703.427	8456.47
707.318	17318.3
711.206	33439.8
715.093	36591
718.978	21551.8
722.861	10102.3
726.742	5302.51
730.621	2992.38
734.499	1961.94
738.374	1181.19
742.248	800.151
746.12	798.815
749.99	647.193
753.859	845.293
757.725	1273.12
761.59	1830.68
765.453	2837.98
769.314	2855.03
773.174	1751.95
777.031	859.169
780.887	216.9
784.741	83.984
788.593	23.502
792.443	160.738
796.291	256.562
800.138	352.983
803.983	59.296
807.826	555.962
811.667	1366.08
815.507	1136.81
819.344	348.657
823.18	99.627
827.014	118.325
830.847	87.706
834.677	7.607
838.506	92.67
842.333	252.956
846.158	543.418
849.981	914.036
853.803	1004.67
857.623	1035.36
861.441	1146.16
865.257	966.996
869.071	1127.98
872.884	1269.11
876.695	1920.37
880.504	2341.72
884.311	2743.16
888.117	3954.69
891.92	6396.35
895.722	10088.1
899.523	13300
903.321	13502
907.118	11034
910.913	8336.13
914.706	5748.35
918.497	3970.68
922.287	3633.09
926.075	3965.6
929.861	4418.2
933.645	3890.62
937.428	3331.9
941.208	3400.83
944.987	4130.49
948.765	5743.61
952.54	7408.16
956.314	8348.87
960.086	11042.9
963.856	13987.3
967.625	12701.8
971.392	12306.4
975.157	15564.1
978.92	19272.8
982.682	17414.7
986.441	14261.6
990.199	13646.3
993.956	13566.3
997.71	14749.7
1001.46	16570.2
1005.21	15370.7
1008.96	11151.6
1012.71	6914.69
1016.46	4594.76
1020.2	3279.75
1023.94	2350.35
1027.68	1897.92
1031.42	1619.98
1035.16	1404.88
1038.9	1649.37
1042.63	1965.69
1046.36	1900.87
1050.09	1863.59
1053.82	2175.58
1057.55	2737.53
1061.27	2729.07
1065	2381.75
1068.72	1812.98
1072.44	1533.65
1076.16	1725.74
1079.87	2585.5
1083.59	2986
1087.3	2284.77
1091.01	1453.43
1094.72	1332.51
1098.43	1631.71
1102.14	2060.7
1105.84	2099.66
1109.55	1888.7
1113.25	1196.85
1116.94	924.498
1120.64	1102.41
1124.34	531.691
1128.03	448.7
1131.73	26.925
1135.42	24.52
1139.11	95.836
1142.8	67.172
1146.48	191.493
1150.16	240.001
1153.85	58.642
1157.53	32.684
1161.21	76.123
1164.88	244.767
1168.56	125.317
1172.23	65.473
1175.91	214.865
1179.58	235.849
1183.25	247.629
1186.91	29.719
1190.58	133.933
1194.24	108.79
1197.91	745.048
1201.57	242.131
1205.23	389.182
1208.88	485.229
1212.54	437.011
1216.19	297.782
1219.85	40.781
1223.5	251.883
1227.14	318.407
1230.79	235.624
1234.44	346.571
1238.08	668.037
1241.72	403.729
1245.37	293.594
1249	136.049
1252.64	0.977
1256.28	52.629
1259.91	204.346
1263.54	3.273
1267.17	394.738
