Measurement: Raman, 514 nm, depolarized, Raman Data Processed
Mineral: Azurite
Rruff sample: R050497
Ideal chemistry: Cu^2+^_3_(CO_3_)_2_(OH)_2_
Locality: Tsumeb mine, Tsumeb, Otavi District, Oshikoto, Namibia
Source: Marcus Origlieri
Description: Blue prismatic single crystal
Measured chemistry: Cu_3.00_(CO_3_)_2_(OH)_2_
Pin_id: L01397
Orientation: Laser parallel to (-1 0 -1). Fiducial mark perpendicular to laser is parallel to -b [0 -1 0]
Raman shift (cm-1)	intensity
52.671	0
57.626	47.3373
62.579	24.8101
67.529	13.2054
72.477	480.205
77.423	1001.55
82.367	4649.11
87.308	2144.19
92.246	1403.46
97.182	1123.53
102.116	1219.82
107.047	2242.58
111.976	9473.33
116.903	2804.52
121.827	1210.59
126.749	1344.08
131.668	4951.39
136.585	2213.93
141.5	4846.5
146.412	3090.47
151.321	3014.03
156.229	3753.25
161.134	839.159
166.036	1119.77
170.936	2885.06
175.834	2576.01
180.729	3541.57
185.622	1366.68
190.512	2710.49
195.4	4189.97
200.286	1871.42
205.169	1175.95
210.049	708.52
214.928	943.742
219.803	363.99
224.677	96.5508
229.548	231.383
234.416	2103.05
239.282	2433.41
244.146	1713.3
249.007	3892.61
253.866	600.264
258.722	531.206
263.576	1832.37
268.427	1153.63
273.276	975.949
278.123	2526.29
282.967	2922.68
287.809	1309.14
292.648	555.665
297.485	28.2888
302.319	138.978
307.151	207.837
311.98	89.229
316.807	165.933
321.631	757.101
326.454	2366.89
331.273	4372.91
336.09	2431.8
340.905	991.631
345.717	690.337
350.527	796.082
355.334	1212.91
360.139	2093.35
364.941	3187.55
369.741	4357.77
374.538	6484.82
379.333	9835.98
384.126	12949.3
388.916	15409.5
393.703	24279.4
398.488	46927.1
403.271	39441.4
408.051	18371.5
412.828	9703.14
417.603	5528.38
422.376	3415.27
427.146	2398.13
431.914	1773.34
436.679	1252.04
441.442	728.35
446.202	467.123
450.96	298.17
455.715	227.727
460.467	182.18
465.218	242.082
469.965	170.587
474.711	90.1914
479.454	97.9578
484.194	57.2805
488.932	106.814
493.667	90.9818
498.4	49.023
503.13	0.412109
507.858	4.92127
512.583	9.57629
517.306	9.06055
522.026	49.0748
526.744	201.992
531.459	505.449
536.172	1053.68
540.882	1542.43
545.59	980.489
550.295	425.038
554.998	125.871
559.698	92.3734
564.396	93.7625
569.091	34.5057
573.784	15.7904
578.474	31.3044
583.162	9.98743
587.847	8.75195
592.529	32.7721
597.209	38.6616
601.887	14.2582
606.562	12.5165
611.235	13.6901
615.905	21.2862
620.572	8.30847
625.237	32.5974
629.9	39.3503
634.56	38.5814
639.217	57.3318
643.872	57.7673
648.524	56.9808
653.174	74.5826
657.821	35.6371
662.466	61.2915
667.108	26.9476
671.748	61.0132
676.385	3.83972
681.02	84.371
685.652	51.7025
690.281	65.5162
694.908	101.858
699.533	83.7622
704.155	129.141
708.774	120.652
713.391	173.543
718.005	238.811
722.617	338.203
727.226	475.814
731.833	697.007
736.437	1221.81
741.039	1606.19
745.638	1649.39
750.234	1576.62
754.828	2226.96
759.419	3809.36
764.008	5080.48
768.595	3952.69
773.178	2300.99
777.759	1262.78
782.338	832.714
786.914	535.247
791.488	387.173
796.059	296.609
800.627	234.532
805.193	189.533
809.756	175.375
814.317	166.332
818.875	233.11
823.431	461.979
827.984	896.787
832.534	1016.24
837.082	1588.24
841.627	1554.5
846.17	872.879
850.71	416.395
855.248	221.123
859.783	56.7156
864.316	65.6638
868.846	42.7747
873.373	31.1602
877.898	22.9385
882.42	59.8256
886.94	119.553
891.457	70.5023
895.971	158.648
900.483	191.216
904.993	245.121
909.5	345.19
914.004	387.252
918.505	595.368
923.004	935.613
927.501	1611.01
931.995	2833.56
936.486	3820.29
940.975	3483.23
945.461	2075.37
949.945	1117.72
954.426	706.319
958.904	451.088
963.38	329.065
967.853	277.229
972.324	262.584
976.792	189.073
981.258	142.679
985.72	102.398
990.181	84.2245
994.639	42.1586
999.094	26.1936
1003.55	37.3137
1008	35.7916
1012.44	4.95422
1016.89	45.2181
1021.33	17.4929
1025.77	0.935181
1030.21	10.396
1034.64	5.30908
1039.07	4.8606
1043.5	68.9034
1047.93	11.9207
1052.35	101.434
1056.78	81.2733
1061.19	97.1783
1065.61	101.269
1070.02	195.274
1074.43	321.034
1078.84	434.409
1083.25	728.49
1087.65	1529.42
1092.05	3825.22
1096.45	7279.69
1100.85	2933.85
1105.24	1084.39
1109.63	524.29
1114.02	290.081
1118.4	215.948
1122.78	169.606
1127.16	132.208
1131.54	81.8418
1135.92	42.5637
1140.29	8.58777
1144.66	23.9508
1149.02	4.62122
1153.39	8.96716
1157.75	13.3096
1162.11	34.3081
1166.46	48.895
1170.82	22.5425
1175.17	0.310913
1179.52	21.6556
1183.86	5.98535
1188.21	24.348
1192.55	14.5907
1196.89	22.8127
1201.22	44.9402
1205.55	26.0382
1209.88	1.22791
1214.21	59.4871
1218.54	19.4337
1222.86	9.31262
1227.18	15.0653
1231.5	29.515
1235.81	27.1379
1240.12	4.87427
1244.43	4.32764
1248.74	51.7101
1253.04	19.9768
1257.34	28.1766
1261.64	44.3098
1265.94	11.3704
1270.23	6.98352
1274.52	52.1512
1278.81	0.221924
1283.1	2.6936
1287.38	58.9973
1291.66	36.5553
1295.94	42.2524
1300.21	92.7838
1304.48	51.5074
1308.75	79.8232
1313.02	98.971
1317.29	54.0922
1321.55	60.639
1325.81	104.551
1330.06	34.6865
1334.32	65.6681
1338.57	53.9327
1342.82	26.1668
1347.06	29.9275
1351.31	0.410278
1355.55	26.2255
1359.79	63.0282
1364.02	58.404
1368.26	77.5474
1372.49	68.6498
1376.71	96.5525
1380.94	224.588
1385.16	226.566
1389.38	288.17
1393.6	316.289
1397.81	401.116
1402.02	609.118
1406.23	872.1
1410.44	1488.8
1414.64	3187.59
1418.85	7177.19
1423.04	5469.49
1427.24	6534.95
1431.43	9201.71
1435.62	3438.09
1439.81	1333.92
1444	728.489
1448.18	361.462
1452.36	423.405
1456.54	1076.51
1460.71	1648.96
1464.89	429.822
1469.06	124.796
1473.22	75.0177
1477.39	90.3868
1481.55	28.5203
1485.71	70.4379
1489.86	17.1617
1494.02	26.6888
1498.17	55.9465
1502.32	36.9076
1506.46	45.7108
1510.61	67.1268
1514.75	103.092
1518.88	96.2417
1523.02	100.959
1527.15	161.227
1531.28	170.406
1535.41	147.957
1539.53	99.7024
1543.66	65.635
1547.78	54.583
1551.89	65.9927
1556.01	253.196
1560.12	42.567
1564.23	0.998047
1568.33	42.5339
