Measurement: Raman, 514 nm, depolarized, Raman Data Processed
Mineral: Azurite
Rruff sample: R050638
Ideal chemistry: Cu^2+^_3_(CO_3_)_2_(OH)_2_
Locality: Zacatecas, Mexico
Source: University of Arizona Mineral Museum
Description: Blue bladed crystals
Measured chemistry: Cu_3.00_(CO_3_)_2_(OH)_2_
Pin_id: M00402
Orientation: Laser parallel to c* (0 0 1). Fiducial mark perpendicular to laser is parallel to -a [-1 0 0]
Raman shift (cm-1)	intensity
52.671	0
57.626	87.3021
62.579	16.6536
67.529	48.7015
72.477	1776.17
77.423	6832.9
82.367	14146.7
87.308	25000.7
92.246	6957.25
97.182	3146.35
102.116	2650.62
107.047	4607.38
111.976	5543.6
116.903	8313.62
121.827	2775.07
126.749	2613.07
131.668	5977.89
136.585	9569.5
141.5	7483.66
146.412	4201.05
151.321	2379.98
156.229	5056.63
161.134	2963.05
166.036	2803.23
170.936	6013.12
175.834	8369.69
180.729	6840.58
185.622	4300.48
190.512	2448.25
195.4	3024.67
200.286	2920.76
205.169	2032.27
210.049	449.227
214.928	951.142
219.803	658.047
224.677	382.198
229.548	726.044
234.416	1813.12
239.282	5667.07
244.146	6902.61
249.007	16324.5
253.866	11655.7
258.722	2112.97
263.576	1832.2
268.427	2873.18
273.276	1991.75
278.123	3241.88
282.967	5826.58
287.809	4409.86
292.648	1788.68
297.485	540.666
302.319	210.161
307.151	331.142
311.98	285.285
316.807	61.4885
321.631	451.902
326.454	1637
331.273	3172.73
336.09	3281.72
340.905	1497.91
345.717	682.513
350.527	713.101
355.334	1382.37
360.139	2354.95
364.941	3791.68
369.741	5501.59
374.538	7126.37
379.333	10509.3
384.126	14310.4
388.916	18740.7
393.703	25569.2
398.488	38771.7
403.271	49526.2
408.051	29804.6
412.828	15625.9
417.603	9384.08
422.376	6037.22
427.146	3878.65
431.914	2475.99
436.679	1601.97
441.442	990.888
446.202	507.222
450.96	229.202
455.715	40.7227
460.467	9.25
465.218	94.0547
469.965	42.2734
474.711	40.0447
479.454	20.4404
484.194	40.6072
488.932	9.08276
493.667	69.3762
498.4	140.875
503.13	77.5303
507.858	54.9727
512.583	14.301
517.306	65.8491
522.026	147.591
526.744	249.511
531.459	704.855
536.172	1317.91
540.882	2119.24
545.59	1930.56
550.295	1172.77
554.998	742.335
559.698	508.139
564.396	279.54
569.091	301.512
573.784	272.571
578.474	89.0703
583.162	49.6043
587.847	17.4739
592.529	74.0259
597.209	56.0139
601.887	23.9795
606.562	0.625732
611.235	6.38647
615.905	32.2349
620.572	46.5378
625.237	39.6663
629.9	5.28125
634.56	88.0889
639.217	3.50098
643.872	36.3828
648.524	40.4944
653.174	9.26758
657.821	57.6364
662.466	60.1383
667.108	65.7136
671.748	70.3806
676.385	69.4518
681.02	124.016
685.652	118.088
690.281	163.353
694.908	196.839
699.533	225.621
704.155	273.727
708.774	264.164
713.391	426.942
718.005	462.069
722.617	694.039
727.226	1048.35
731.833	1547.59
736.437	2327.97
741.039	2844.64
745.638	2600.44
750.234	2422.44
754.828	2981.57
759.419	4515.78
764.008	6237.71
768.595	5776.39
773.178	3669.05
777.759	2139.59
782.338	1314.19
786.914	934.201
791.488	755.02
796.059	626.563
800.627	576.29
805.193	698.574
809.756	922.285
814.317	1420.38
818.875	1974.86
823.431	2066.12
827.984	3194.54
832.534	4478
837.082	4582.58
841.627	3679.12
846.17	2472.64
850.71	1384.16
855.248	773.697
859.783	400.373
864.316	266.134
868.846	145.753
873.373	46.4717
877.898	66.0061
882.42	99.4209
886.94	113.046
891.457	115.861
895.971	75.5073
900.483	102.609
904.993	122.208
909.5	127.161
914.004	229.457
918.505	401.147
923.004	477.165
927.501	898.501
931.995	1520.16
936.486	2111.16
940.975	2154.49
945.461	1511.16
949.945	943.191
954.426	612.544
958.904	363.203
963.38	279.156
967.853	237.365
972.324	208.81
976.792	131.508
981.258	136.438
985.72	119.591
990.181	46.9644
994.639	58.564
999.094	1.62451
1003.55	0.354004
1008	8.57227
1012.44	40.396
1016.89	11.906
1021.33	3.78491
1025.77	11.0515
1030.21	74.6814
1034.64	7.79565
1039.07	28.6711
1043.5	102.946
1047.93	104.392
1052.35	139.125
1056.78	214.675
1061.19	194.175
1065.61	318.597
1070.02	388.213
1074.43	476.474
1078.84	747.048
1083.25	1219.08
1087.65	2418.26
1092.05	5779.33
1096.45	11147
1100.85	7303.1
1105.24	2779.97
1109.63	1253.42
1114.02	780.265
1118.4	561.97
1122.78	391.537
1127.16	322.031
1131.54	236.016
1135.92	124.545
1140.29	93.9617
1144.66	9.71509
1149.02	59.9624
1153.39	10.2842
1157.75	29.3406
1162.11	42.2434
1166.46	33.4922
1170.82	68.937
1175.17	34.4898
1179.52	35.4263
1183.86	26.0173
1188.21	13.6882
1192.55	18.6594
1196.89	23.1633
1201.22	39.3252
1205.55	9.25781
1209.88	20.8162
1214.21	50.4614
1218.54	9.00049
1222.86	31.7236
1227.18	21.2705
1231.5	7.18042
1235.81	5.2085
1240.12	43.9509
1244.43	57.366
1248.74	12.4692
1253.04	12.9766
1257.34	80.3169
1261.64	30.4348
1265.94	5.5542
1270.23	37.3118
1274.52	71.7263
1278.81	92.3809
1283.1	102.782
1287.38	116.019
1291.66	80.9807
1295.94	79.72
1300.21	90.5647
1304.48	118.94
1308.75	113.197
1313.02	6.75
1317.29	53.4592
1321.55	53.0693
1325.81	103.162
1330.06	5.93311
1334.32	2.81982
1338.57	75.5828
1342.82	13.3259
1347.06	42.7505
1351.31	50.1743
1355.55	24.4983
1359.79	49.2783
1364.02	77.9792
1368.26	104.841
1372.49	56.8359
1376.71	116.393
1380.94	149.481
1385.16	214.131
1389.38	169.792
1393.6	240.869
1397.81	301.215
1402.02	382.748
1406.23	729.404
1410.44	1381.51
1414.64	3328.58
1418.85	6542.39
1423.04	5243.78
1427.24	4963.73
1431.43	4344.3
1435.62	1899.12
1439.81	717.31
1444	446.863
1448.18	308.45
1452.36	439.443
1456.54	1330.26
1460.71	1889.7
1464.89	454.139
1469.06	237.294
1473.22	114.791
1477.39	124.464
1481.55	175.327
1485.71	168.957
1489.86	109.419
1494.02	95.9231
1498.17	90.1921
1502.32	126.487
1506.46	55.6572
1510.61	769.381
1514.75	72.9399
1518.88	141.734
1523.02	230.248
1527.15	132.345
1531.28	123.578
1535.41	133.135
1539.53	143
1543.66	115.293
1547.78	53.9612
1551.89	322.949
1556.01	447.412
1560.12	14.3315
1564.23	119.759
1568.33	13.3723
