Measurement: Raman, 514 nm, depolarized, Raman Data Processed
Mineral: Azurite
Rruff sample: R050497
Ideal chemistry: Cu^2+^_3_(CO_3_)_2_(OH)_2_
Locality: Tsumeb mine, Tsumeb, Otavi District, Oshikoto, Namibia
Source: Marcus Origlieri
Description: Blue prismatic single crystal
Measured chemistry: Cu_3.00_(CO_3_)_2_(OH)_2_
Pin_id: L00764
Orientation: Laser parallel to c* (0 0 1). Fiducial mark perpendicular to laser is parallel to -a [-1 0 0]
Raman shift (cm-1)	intensity
52.671	0
57.626	41.9468
62.579	32.9575
67.529	565.361
72.477	3255.45
77.423	13720.6
82.367	52582
87.308	11616.5
92.246	4689.24
97.182	2993.78
102.116	2428.12
107.047	2890.17
111.976	2965.59
116.903	2601.28
121.827	2715.09
126.749	4853.61
131.668	10737
136.585	13151.4
141.5	8122.45
146.412	3499.79
151.321	6038.78
156.229	3157.54
161.134	2212.09
166.036	5084.4
170.936	9400.38
175.834	9950.64
180.729	5458.15
185.622	2836.26
190.512	4489.57
195.4	4130.32
200.286	2057.27
205.169	1151.65
210.049	315.421
214.928	263.101
219.803	187.566
224.677	128.738
229.548	591.842
234.416	2083.52
239.282	2872.82
244.146	7870.84
249.007	6397.21
253.866	1558.74
258.722	1799.27
263.576	3632.65
268.427	2096.63
273.276	3302.02
278.123	7440.81
282.967	6121.03
287.809	2360.65
292.648	650.686
297.485	37.8242
302.319	242.145
307.151	266.737
311.98	290.777
316.807	157.294
321.631	210.028
326.454	1377.75
331.273	2297.77
336.09	1160.7
340.905	511.985
345.717	377.515
350.527	561.671
355.334	1035.55
360.139	1755.4
364.941	2748.52
369.741	4191.2
374.538	6517.65
379.333	9904.15
384.126	12360.8
388.916	16753.4
393.703	32233
398.488	53111.5
403.271	32852.9
408.051	16050
412.828	9814.96
417.603	6557.56
422.376	4191.83
427.146	2669.7
431.914	1819.15
436.679	1181.86
441.442	637.017
446.202	448.065
450.96	249.359
455.715	189.939
460.467	217.968
465.218	286.462
469.965	187.386
474.711	124.35
479.454	125.75
484.194	61.1377
488.932	173.292
493.667	97.0273
498.4	39.1367
503.13	116.346
507.858	9.89453
512.583	103.182
517.306	83.9878
522.026	149.191
526.744	293.185
531.459	795.764
536.172	1646.12
540.882	2172.95
545.59	1343.6
550.295	641.167
554.998	399.253
559.698	315.99
564.396	258.664
569.091	173.26
573.784	140.157
578.474	120.899
583.162	106.915
587.847	0.734863
592.529	22.459
597.209	1.62207
601.887	26.8472
606.562	74.3906
611.235	50.9346
615.905	103.384
620.572	6.83252
625.237	53.8613
629.9	31.5771
634.56	49.8838
639.217	37.5225
643.872	11.2856
648.524	91.7329
653.174	127.665
657.821	29.6367
662.466	80.0015
667.108	42.4766
671.748	33.7114
676.385	22.3408
681.02	154.736
685.652	80.5161
690.281	38.6304
694.908	87.1709
699.533	54.1606
704.155	178.608
708.774	104.127
713.391	108.035
718.005	233.746
722.617	346.758
727.226	517.079
731.833	858.495
736.437	1323.29
741.039	1665.88
745.638	1370.52
750.234	1299.48
754.828	1599.58
759.419	2062.62
764.008	2062.94
768.595	1374.72
773.178	831.76
777.759	457.021
782.338	338.029
786.914	276.194
791.488	258.041
796.059	369.697
800.627	413
805.193	463.407
809.756	656.722
814.317	958.973
818.875	1634.29
823.431	2506.6
827.984	5451.61
832.534	6266.23
837.082	4880.81
841.627	2964.45
846.17	1557.92
850.71	921.019
855.248	537.113
859.783	316.394
864.316	279.235
868.846	87.2065
873.373	90.0732
877.898	201.715
882.42	117.395
886.94	208.532
891.457	203.735
895.971	287.585
900.483	228.088
904.993	311.308
909.5	539.249
914.004	616.713
918.505	1002.59
923.004	1442.83
927.501	2710.43
931.995	4763.31
936.486	6069.58
940.975	4985.4
945.461	2917.63
949.945	1601.25
954.426	991.207
958.904	742.497
963.38	445.088
967.853	449.953
972.324	321.086
976.792	333.472
981.258	205.091
985.72	113.439
990.181	113.113
994.639	20.5171
999.094	54.0791
1003.55	16.7974
1008	20.5386
1012.44	61.23
1016.89	28.9805
1021.33	50.0205
1025.77	43.8179
1030.21	61.2876
1034.64	36.6343
1039.07	35.0044
1043.5	117.067
1047.93	144.875
1052.35	60.3877
1056.78	192.784
1061.19	176.845
1065.61	281.092
1070.02	381.669
1074.43	533.796
1078.84	829.348
1083.25	1155.95
1087.65	2575.29
1092.05	7852.99
1096.45	11572.6
1100.85	4140.92
1105.24	1761.6
1109.63	931.211
1114.02	589.833
1118.4	424.512
1122.78	315.855
1127.16	264.961
1131.54	232.649
1135.92	129.094
1140.29	113.834
1144.66	3.48731
1149.02	34.873
1153.39	24.3574
1157.75	8.19531
1162.11	42.2119
1166.46	68.1226
1170.82	7.28125
1175.17	24.227
1179.52	152.469
1183.86	3.44531
1188.21	81.4038
1192.55	69.5352
1196.89	16.1265
1201.22	4.38086
1205.55	63.4434
1209.88	39.7051
1214.21	96.8062
1218.54	62.2393
1222.86	98.4663
1227.18	14.4829
1231.5	80.2905
1235.81	72.0762
1240.12	135.925
1244.43	125.182
1248.74	170.314
1253.04	175.276
1257.34	0.520996
1261.64	40.1904
1265.94	97.7529
1270.23	105.197
1274.52	139.54
1278.81	167.659
1283.1	101.751
1287.38	69.334
1291.66	161.491
1295.94	108.148
1300.21	219.314
1304.48	94.6685
1308.75	210.438
1313.02	69.9619
1317.29	148.725
1321.55	19.5523
1325.81	104.938
1330.06	94.3657
1334.32	107.971
1338.57	148.228
1342.82	62.0176
1347.06	112.072
1351.31	39.7388
1355.55	58.374
1359.79	68.9009
1364.02	111.732
1368.26	7.40527
1372.49	119.29
1376.71	107.167
1380.94	15.7466
1385.16	109.428
1389.38	107.335
1393.6	55.0356
1397.81	77.0102
1402.02	38.4912
1406.23	35.9522
1410.44	69.3804
1414.64	133.852
1418.85	232.071
1423.04	177.536
1427.24	194.331
1431.43	304.806
1435.62	203.371
1439.81	126.047
1444	79.0723
1448.18	32.667
1452.36	246.421
1456.54	911.375
1460.71	873.442
1464.89	363.184
1469.06	107.55
1473.22	212.173
1477.39	192.458
1481.55	179.708
1485.71	159.415
1489.86	81.4419
1494.02	151.047
1498.17	71.665
1502.32	105.716
1506.46	61.9863
1510.61	57.4902
1514.75	115.131
1518.88	183.815
1523.02	138.986
1527.15	169.702
1531.28	136.9
1535.41	106.835
1539.53	127.295
1543.66	202.376
1547.78	106.431
1551.89	192.946
1556.01	199.034
1560.12	54.5938
1564.23	46.9815
1568.33	175.809
