Measurement: Raman, 514 nm, depolarized, Raman Data Processed
Mineral: Azurite
Rruff sample: R050638
Ideal chemistry: Cu^2+^_3_(CO_3_)_2_(OH)_2_
Locality: Zacatecas, Mexico
Source: University of Arizona Mineral Museum
Description: Blue bladed crystals
Measured chemistry: Cu_3.00_(CO_3_)_2_(OH)_2_
Pin_id: M00381
Orientation: Laser parallel to a* (1 0 0). Fiducial mark perpendicular to laser is parallel to b [0 1 0]
Raman shift (cm-1)	intensity
52.671	0
57.626	255.074
62.579	35.2601
67.529	417.392
72.477	5374.36
77.423	29810.7
82.367	46012.1
87.308	18660.5
92.246	5900.02
97.182	2902.09
102.116	2129.7
107.047	2545.76
111.976	2273.98
116.903	2274.18
121.827	4780.61
126.749	9373.25
131.668	16898.7
136.585	15867.5
141.5	9797.74
146.412	6637
151.321	5133.69
156.229	3550.01
161.134	4392.04
166.036	7707.74
170.936	12149.1
175.834	10809
180.729	7243.58
185.622	5560.67
190.512	5586.25
195.4	4696.98
200.286	3098.45
205.169	1562.89
210.049	271.245
214.928	152.358
219.803	170.093
224.677	377.455
229.548	1483.04
234.416	3212.47
239.282	10481.2
244.146	13886.5
249.007	10486.4
253.866	4777.41
258.722	3305.57
263.576	3475.7
268.427	4062.49
273.276	7606.76
278.123	9692.5
282.967	7625.73
287.809	3850.45
292.648	1315.65
297.485	165.269
302.319	248.672
307.151	374.719
311.98	384.4
316.807	129.713
321.631	716.114
326.454	1763.67
331.273	1901.06
336.09	1212.35
340.905	694.125
345.717	771.388
350.527	1102.47
355.334	2030.42
360.139	3312.13
364.941	4998.4
369.741	7371.57
374.538	11033.8
379.333	14924.3
384.126	19306.1
388.916	29423.1
393.703	50993.1
398.488	56369.2
403.271	40192.1
408.051	22369
412.828	13625.6
417.603	8895.04
422.376	5814.16
427.146	3828.95
431.914	2478.37
436.679	1661.38
441.442	979.488
446.202	700.657
450.96	443.372
455.715	368.694
460.467	330.669
465.218	303.895
469.965	330.042
474.711	222.255
479.454	147.739
484.194	199.556
488.932	230.821
493.667	254.418
498.4	187.696
503.13	115.018
507.858	46.9009
512.583	86.4373
517.306	106.594
522.026	296.949
526.744	632.929
531.459	1682.08
536.172	2563.57
540.882	2559.48
545.59	1727.33
550.295	951.852
554.998	526.085
559.698	421.56
564.396	241.353
569.091	192.655
573.784	156.459
578.474	78.7411
583.162	8.53406
587.847	17.4498
592.529	46.7667
597.209	46.4421
601.887	93.3566
606.562	53.9197
611.235	39.8186
615.905	50.0463
620.572	47.7555
625.237	8.7688
629.9	1.06738
634.56	37.4753
639.217	52.9302
643.872	35.3281
648.524	13.3834
653.174	25.3178
657.821	4.26892
662.466	20.0624
667.108	21.7285
671.748	14.3658
676.385	73.0203
681.02	104.787
685.652	95.7097
690.281	143.804
694.908	191.094
699.533	223.634
704.155	206.454
708.774	251.569
713.391	320.988
718.005	429.723
722.617	525.319
727.226	772.359
731.833	1172.03
736.437	1742.48
741.039	2001.93
745.638	2206.79
750.234	2472.42
754.828	3368.39
759.419	4379.78
764.008	3975.03
768.595	2727.72
773.178	1588.9
777.759	1084.03
782.338	836.111
786.914	746.649
791.488	690.247
796.059	678.337
800.627	717.157
805.193	891.509
809.756	1210.08
814.317	1834.37
818.875	2904.05
823.431	5186.84
827.984	8097.17
832.534	8473.19
837.082	6415.23
841.627	3913.5
846.17	2347.81
850.71	1335.17
855.248	795.597
859.783	528.124
864.316	337.948
868.846	274.644
873.373	242.171
877.898	276.81
882.42	287.922
886.94	399.25
891.457	417.393
895.971	440.018
900.483	534.063
904.993	635.615
909.5	882.586
914.004	1201.98
918.505	1711.75
923.004	2809.97
927.501	4799.64
931.995	7264.76
936.486	7904.34
940.975	6234.38
945.461	3846.5
949.945	2163.66
954.426	1394.84
958.904	1031.35
963.38	846.206
967.853	663.389
972.324	474.903
976.792	343.684
981.258	258.749
985.72	161.095
990.181	94.7173
994.639	5.59705
999.094	29.7293
1003.55	47.9607
1008	51.5862
1012.44	56.2341
1016.89	53.9194
1021.33	40.5129
1025.77	15.5219
1030.21	21.5704
1034.64	55.196
1039.07	57.035
1043.5	73.7161
1047.93	74.8949
1052.35	79.1897
1056.78	175.477
1061.19	220.172
1065.61	365.134
1070.02	501.571
1074.43	714.686
1078.84	1120.34
1083.25	1982.49
1087.65	4808.77
1092.05	13197.7
1096.45	13427.2
1100.85	5668.59
1105.24	2304.53
1109.63	1200.25
1114.02	727.543
1118.4	517.367
1122.78	319.05
1127.16	217.728
1131.54	152.798
1135.92	59.0625
1140.29	56.8723
1144.66	65.5613
1149.02	21.0455
1153.39	20.0894
1157.75	19.0613
1162.11	31.7711
1166.46	71.295
1170.82	5.48157
1175.17	23.287
1179.52	66.9595
1183.86	2.50378
1188.21	17.7466
1192.55	42.9417
1196.89	20.2385
1201.22	37.228
1205.55	24.7426
1209.88	18.2517
1214.21	18.6094
1218.54	69.6777
1222.86	8.28271
1227.18	13.2097
1231.5	16.8253
1235.81	29.6692
1240.12	52.9758
1244.43	69.6464
1248.74	19.6777
1253.04	35.5981
1257.34	65.6743
1261.64	37.2364
1265.94	77.1432
1270.23	60.2336
1274.52	82.6058
1278.81	76.5426
1283.1	77.1653
1287.38	75.1226
1291.66	86.3318
1295.94	23.1982
1300.21	81.6031
1304.48	103.226
1308.75	58.7778
1313.02	88.9696
1317.29	43.2107
1321.55	40.2922
1325.81	22.0898
1330.06	54.5898
1334.32	0.482178
1338.57	28.6945
1342.82	20.219
1347.06	41.1952
1351.31	27.9845
1355.55	23.0272
1359.79	32.9669
1364.02	1.38538
1368.26	10.7408
1372.49	16.2393
1376.71	33.2668
1380.94	3.51221
1385.16	16.1827
1389.38	9.02039
1393.6	21.7765
1397.81	43.4945
1402.02	3.21545
1406.23	121.089
1410.44	128.036
1414.64	313.994
1418.85	474.003
1423.04	330.996
1427.24	462.206
1431.43	427.476
1435.62	149.786
1439.81	124.873
1444	118.536
1448.18	153.484
1452.36	411.014
1456.54	1331.61
1460.71	862.988
1464.89	350.639
1469.06	173.587
1473.22	199.098
1477.39	214.648
1481.55	261.391
1485.71	212.675
1489.86	195.909
1494.02	248.023
1498.17	131.143
1502.32	160.254
1506.46	98.3149
1510.61	125.215
1514.75	80.1893
1518.88	129.392
1523.02	135.164
1527.15	113.896
1531.28	121.169
1535.41	68.7349
1539.53	134.633
1543.66	52.0421
1547.78	64.1602
1551.89	148.129
1556.01	237.218
1560.12	7.9574
1564.23	5.776
1568.33	19.1346
