Measurement: Raman, 514 nm, depolarized, Raman Data Processed
Mineral: Azurite
Rruff sample: R050638
Ideal chemistry: Cu^2+^_3_(CO_3_)_2_(OH)_2_
Locality: Zacatecas, Mexico
Source: University of Arizona Mineral Museum
Description: Blue bladed crystals
Measured chemistry: Cu_3.00_(CO_3_)_2_(OH)_2_
Pin_id: M00496
Orientation: Laser parallel to -b* (0 -1 0). Fiducial mark perpendicular to laser is parallel to -c [0 0 -1]
Raman shift (cm-1)	intensity
52.671	0
57.626	82.1268
62.579	13.2285
67.529	61.9724
72.477	1339.19
77.423	3518.12
82.367	22534.5
87.308	12801.2
92.246	3841.92
97.182	2360.93
102.116	1968.22
107.047	2870.3
111.976	8418.24
116.903	4023.84
121.827	1753.45
126.749	2307.05
131.668	8398.77
136.585	7486.76
141.5	11959.5
146.412	3999.43
151.321	4110.73
156.229	6900.59
161.134	1782.08
166.036	3128.22
170.936	11207
175.834	6678.27
180.729	11092.1
185.622	2831.43
190.512	2904.16
195.4	3396.49
200.286	2643.85
205.169	1704.96
210.049	543.236
214.928	888.572
219.803	429.002
224.677	303.392
229.548	682.226
234.416	2821.12
239.282	5594.75
244.146	10108.9
249.007	28349.3
253.866	4637.89
258.722	1675.55
263.576	3064.13
268.427	2074.45
273.276	2084.35
278.123	5318.82
282.967	6304.88
287.809	2793.51
292.648	1077.71
297.485	134.432
302.319	220.38
307.151	310.049
311.98	254.808
316.807	84.5464
321.631	626.175
326.454	2375.9
331.273	4509.66
336.09	2718.66
340.905	1240.49
345.717	908.677
350.527	1158.66
355.334	1859.46
360.139	3378.14
364.941	5332.33
369.741	7271.57
374.538	10543
379.333	15581.7
384.126	19190.8
388.916	21807.3
393.703	32079.9
398.488	57387.7
403.271	50736.5
408.051	26405.4
412.828	16316.1
417.603	10329.8
422.376	6439.42
427.146	4338.68
431.914	2848.82
436.679	1856.7
441.442	1092.6
446.202	600.046
450.96	343.623
455.715	205.825
460.467	135.693
465.218	173.601
469.965	108.508
474.711	64.9775
479.454	56.1838
484.194	35.9304
488.932	100.798
493.667	56.165
498.4	109.817
503.13	65.3049
507.858	5.48364
512.583	99.646
517.306	115.586
522.026	151.795
526.744	409.774
531.459	936.463
536.172	1965.59
540.882	2714.1
545.59	1939.42
550.295	1009.92
554.998	610.159
559.698	478.039
564.396	338.565
569.091	220.709
573.784	186.443
578.474	80.7407
583.162	2.57031
587.847	68.0974
592.529	28.1787
597.209	73.5674
601.887	83.5806
606.562	0.190186
611.235	76.2609
615.905	19.9934
620.572	2.01965
625.237	23.5342
629.9	55.8486
634.56	28.2107
639.217	47.5674
643.872	16.0496
648.524	60.8541
653.174	105.041
657.821	37.2574
662.466	69.4905
667.108	38.2861
671.748	118.908
676.385	114.335
681.02	138.649
685.652	239.284
690.281	251.187
694.908	232.376
699.533	293.857
704.155	345.637
708.774	398.541
713.391	488.118
718.005	674.833
722.617	885.368
727.226	1270.72
731.833	2137.2
736.437	3386.49
741.039	3723.72
745.638	2994.47
750.234	2659.25
754.828	3216.79
759.419	4815.42
764.008	6267.47
768.595	5145.46
773.178	3044.47
777.759	1790.42
782.338	1214.78
786.914	882.595
791.488	733.703
796.059	677.452
800.627	671.936
805.193	836.801
809.756	1049.06
814.317	1982.83
818.875	2461.27
823.431	2476.95
827.984	4168.38
832.534	5132.66
837.082	4863.9
841.627	3853.07
846.17	2257.2
850.71	1333.3
855.248	788.396
859.783	480.582
864.316	314.401
868.846	243.394
873.373	100.468
877.898	45.0352
882.42	94.616
886.94	101.844
891.457	115.985
895.971	83.2737
900.483	118.871
904.993	159.897
909.5	172.201
914.004	195.832
918.505	310.883
923.004	410.27
927.501	788.262
931.995	1145.03
936.486	1493.47
940.975	1402.26
945.461	889.368
949.945	519.782
954.426	332.476
958.904	264.423
963.38	198.642
967.853	239.095
972.324	104.75
976.792	76.6075
981.258	95.6765
985.72	16.9454
990.181	1.58459
994.639	2.92871
999.094	18.0958
1003.55	39.1035
1008	38.9717
1012.44	62.6278
1016.89	45.1938
1021.33	14.7087
1025.77	5.26733
1030.21	20.0467
1034.64	4.57019
1039.07	31.2595
1043.5	100.284
1047.93	107.852
1052.35	127.514
1056.78	136.093
1061.19	190.322
1065.61	286.799
1070.02	332.588
1074.43	559.279
1078.84	683.763
1083.25	1158.08
1087.65	2313.94
1092.05	5975.15
1096.45	11809.1
1100.85	5204.4
1105.24	2068.24
1109.63	1002.07
1114.02	649.482
1118.4	436.935
1122.78	349.93
1127.16	269.542
1131.54	126.774
1135.92	52.4273
1140.29	51.1976
1144.66	33.2356
1149.02	6.98462
1153.39	31.5808
1157.75	1.84351
1162.11	24.9138
1166.46	21.4871
1170.82	46.9603
1175.17	56.1254
1179.52	12.5165
1183.86	39.9631
1188.21	26.8204
1192.55	25.5153
1196.89	10.4818
1201.22	25.4285
1205.55	12.6822
1209.88	31.0551
1214.21	16.892
1218.54	10.147
1222.86	27.7621
1227.18	19.0259
1231.5	9.69263
1235.81	71.0974
1240.12	20.3406
1244.43	38.4988
1248.74	43.5035
1253.04	82.0917
1257.34	42.5333
1261.64	49.8523
1265.94	28.0491
1270.23	100.157
1274.52	52.9595
1278.81	109.183
1283.1	98.2795
1287.38	30.1867
1291.66	139.501
1295.94	26.1727
1300.21	132.552
1304.48	106.554
1308.75	113.465
1313.02	59.5405
1317.29	52.4683
1321.55	90.8292
1325.81	70.1982
1330.06	57.8193
1334.32	7.02295
1338.57	52.4939
1342.82	24.8306
1347.06	8.47913
1351.31	11.4305
1355.55	32.8574
1359.79	21.168
1364.02	20.2391
1368.26	73.2626
1372.49	83.9412
1376.71	82.5593
1380.94	176.817
1385.16	160.613
1389.38	185.015
1393.6	202.039
1397.81	287.31
1402.02	490.303
1406.23	805.459
1410.44	1410.96
1414.64	3170.47
1418.85	6119.28
1423.04	4804.85
1427.24	6995.05
1431.43	8538.4
1435.62	3217.24
1439.81	1267.17
1444	670.157
1448.18	464.008
1452.36	675.027
1456.54	1976.5
1460.71	1922.75
1464.89	506.964
1469.06	190.396
1473.22	126.156
1477.39	153.696
1481.55	101.284
1485.71	143.709
1489.86	95.9614
1494.02	26.9823
1498.17	144.692
1502.32	72.0938
1506.46	86.267
1510.61	65.8486
1514.75	115.912
1518.88	111.198
1523.02	145.121
1527.15	123.405
1531.28	127.473
1535.41	97.2675
1539.53	85.7142
1543.66	27.5741
1547.78	53.2219
1551.89	87.6766
1556.01	205.394
1560.12	2.35107
1564.23	22.9294
1568.33	20.0757
