Measurement: Raman, 514 nm, depolarized, Raman Data Processed
Mineral: Azurite
Rruff sample: R050497
Ideal chemistry: Cu^2+^_3_(CO_3_)_2_(OH)_2_
Locality: Tsumeb mine, Tsumeb, Otavi District, Oshikoto, Namibia
Source: Marcus Origlieri
Description: Blue prismatic single crystal
Measured chemistry: Cu_3.00_(CO_3_)_2_(OH)_2_
Pin_id: L01223
Orientation: Laser parallel to -a* (-1 0 0). Fiducial mark perpendicular to laser is parallel to b [0 1 0]
Raman shift (cm-1)	intensity
52.671	0
57.626	73.4801
62.579	12.5649
67.529	47.7645
72.477	754.306
77.423	2124.5
82.367	5825.56
87.308	1909.72
92.246	1855.27
97.182	1542.77
102.116	1913.06
107.047	4634.04
111.976	8391.06
116.903	2556
121.827	1527.94
126.749	2331.55
131.668	3152.76
136.585	3597.99
141.5	6331.34
146.412	2452.26
151.321	2875.99
156.229	1429.63
161.134	1509.22
166.036	4273.77
170.936	5360.26
175.834	2208.66
180.729	1389.97
185.622	2362.18
190.512	5179.6
195.4	3852.91
200.286	2001.66
205.169	1502.89
210.049	1386.94
214.928	1025.38
219.803	345.959
224.677	250.417
229.548	738.414
234.416	2382.73
239.282	3331.11
244.146	8862.34
249.007	5432.26
253.866	1052.75
258.722	1560.72
263.576	1082.09
268.427	951.704
273.276	2390.47
278.123	4940.38
282.967	3827.55
287.809	1976.95
292.648	715.52
297.485	34.3565
302.319	211.736
307.151	275.166
311.98	169.992
316.807	129.052
321.631	865.187
326.454	2151.83
331.273	2549.34
336.09	1036.84
340.905	505.427
345.717	549.018
350.527	1013.81
355.334	1976.84
360.139	3584.08
364.941	5285.4
369.741	6734.48
374.538	10126.6
379.333	14547.6
384.126	17250.9
388.916	20949
393.703	34953.8
398.488	51270.4
403.271	32838.6
408.051	19097.6
412.828	11278.2
417.603	6899.52
422.376	4507.49
427.146	3188.65
431.914	2267.39
436.679	1594.56
441.442	982.625
446.202	649.211
450.96	431.964
455.715	458.036
460.467	423.543
465.218	418.452
469.965	396.609
474.711	316.628
479.454	253.501
484.194	243.2
488.932	284.552
493.667	193.984
498.4	183.584
503.13	114.949
507.858	71.0396
512.583	9.69446
517.306	3.06323
522.026	11.2461
526.744	25.4924
531.459	140.035
536.172	491.22
540.882	595.532
545.59	372.457
550.295	161.189
554.998	26.8581
559.698	10.0552
564.396	16.1265
569.091	8.12927
573.784	22.7385
578.474	38.8831
583.162	21.2864
587.847	18.219
592.529	18.219
597.209	25.5426
601.887	7.54199
606.562	36.3414
611.235	166.041
615.905	22.2086
620.572	26.3646
625.237	15.5936
629.9	31.8283
634.56	50.4164
639.217	42.4305
643.872	62.8499
648.524	51.6655
653.174	17.2816
657.821	75.5552
662.466	25.0217
667.108	31.095
671.748	19.6445
676.385	73.5898
681.02	60.9796
685.652	104.818
690.281	99.1166
694.908	135.897
699.533	194.626
704.155	216.795
708.774	209.512
713.391	365.866
718.005	543.266
722.617	751.956
727.226	1275.85
731.833	2369.94
736.437	3238.05
741.039	2729.22
745.638	1868.13
750.234	1780.83
754.828	2423.18
759.419	4278.7
764.008	5178
768.595	3575.66
773.178	1981.09
777.759	1084.64
782.338	704.865
786.914	603.472
791.488	344.074
796.059	292.563
800.627	301.356
805.193	304.881
809.756	534.876
814.317	1488.21
818.875	1360.03
823.431	1382.66
827.984	1646.66
832.534	1983.69
837.082	1523.72
841.627	957.821
846.17	509.065
850.71	278.427
855.248	113.925
859.783	75.6451
864.316	12.5028
868.846	50.6736
873.373	68.1624
877.898	111.874
882.42	94.8964
886.94	221.644
891.457	256.596
895.971	269.118
900.483	259.978
904.993	374.635
909.5	521.539
914.004	654.624
918.505	941.888
923.004	1595.35
927.501	2818.03
931.995	4757.94
936.486	5724.08
940.975	4479.47
945.461	2673.08
949.945	1434.96
954.426	861.069
958.904	672.419
963.38	557.987
967.853	420.711
972.324	393.597
976.792	276.636
981.258	224.819
985.72	131.145
990.181	115.61
994.639	37.2074
999.094	0.838379
1003.55	2.21252
1008	25.1514
1012.44	25.0532
1016.89	46.7439
1021.33	1.06006
1025.77	6.68372
1030.21	5.66272
1034.64	37.2017
1039.07	24.7368
1043.5	49.0574
1047.93	106.969
1052.35	78.9106
1056.78	121.939
1061.19	139.978
1065.61	223.392
1070.02	349.918
1074.43	485.51
1078.84	759.508
1083.25	1422.72
1087.65	2858.12
1092.05	7802.84
1096.45	9346.2
1100.85	3221.54
1105.24	1338.83
1109.63	697.298
1114.02	416.619
1118.4	310.237
1122.78	235.253
1127.16	158.346
1131.54	67.4119
1135.92	30.3107
1140.29	63.2707
1144.66	11.8534
1149.02	25.0519
1153.39	17.7004
1157.75	31.2538
1162.11	3.2356
1166.46	9.38525
1170.82	11.0039
1175.17	24.1895
1179.52	44.2699
1183.86	32.0378
1188.21	6.9613
1192.55	46.4976
1196.89	6.69421
1201.22	34.8108
1205.55	12.0795
1209.88	3.14343
1214.21	27.8546
1218.54	40.4192
1222.86	11.8651
1227.18	21.0967
1231.5	17.9165
1235.81	5.77502
1240.12	2.19519
1244.43	44.6963
1248.74	48.4668
1253.04	14.1279
1257.34	55.7256
1261.64	10.0776
1265.94	39.6099
1270.23	38.0985
1274.52	59.8561
1278.81	52.2294
1283.1	67.6848
1287.38	64.3414
1291.66	83.519
1295.94	78.2699
1300.21	58.9519
1304.48	25.1031
1308.75	43.4038
1313.02	41.6465
1317.29	9.81006
1321.55	40.2685
1325.81	74.9244
1330.06	24.1357
1334.32	75.0361
1338.57	17.524
1342.82	15.984
1347.06	53.0925
1351.31	19.2915
1355.55	41.5261
1359.79	15.128
1364.02	32.793
1368.26	124.029
1372.49	169.395
1376.71	192.088
1380.94	297.694
1385.16	433.695
1389.38	333.071
1393.6	421.546
1397.81	568.975
1402.02	843.301
1406.23	1345.27
1410.44	2533.77
1414.64	6266.37
1418.85	12493.6
1423.04	7895.48
1427.24	11675.1
1431.43	11975.8
1435.62	3951.38
1439.81	1625.61
1444	917.273
1448.18	629.256
1452.36	929.755
1456.54	3133.52
1460.71	2721.14
1464.89	630.6
1469.06	304.744
1473.22	154.602
1477.39	158.717
1481.55	139.565
1485.71	132.056
1489.86	94.1397
1494.02	143.72
1498.17	57.7249
1502.32	108.422
1506.46	91.1428
1510.61	115.263
1514.75	134.226
1518.88	151.519
1523.02	226.225
1527.15	160.066
1531.28	205.464
1535.41	161.914
1539.53	152.879
1543.66	78.0053
1547.78	88.2889
1551.89	123.93
1556.01	270.082
1560.12	25.9755
1564.23	42.6052
1568.33	13.0723
