Measurement: Raman, 514 nm, depolarized, Raman Data Processed
Mineral: Azurite
Rruff sample: R050497
Ideal chemistry: Cu^2+^_3_(CO_3_)_2_(OH)_2_
Locality: Tsumeb mine, Tsumeb, Otavi District, Oshikoto, Namibia
Source: Marcus Origlieri
Description: Blue prismatic single crystal
Measured chemistry: Cu_3.00_(CO_3_)_2_(OH)_2_
Pin_id: L01361
Orientation: Laser parallel to b* (0 1 0). Fiducial mark perpendicular to laser is parallel to c [0 0 1]
Raman shift (cm-1)	intensity
52.671	0
57.626	33.2118
62.579	55.6616
67.529	24.8257
72.477	3646.82
77.423	25910.6
82.367	13920
87.308	8022.3
92.246	2952.98
97.182	1467.51
102.116	1160.62
107.047	1724.4
111.976	1730.27
116.903	1579.19
121.827	4235.18
126.749	8530.08
131.668	3939.41
136.585	4115.95
141.5	1730.96
146.412	960.242
151.321	621.954
156.229	855.176
161.134	3553.94
166.036	7244.23
170.936	2951.01
175.834	1847.27
180.729	889.495
185.622	996.388
190.512	929.76
195.4	800.826
200.286	809.629
205.169	639.646
210.049	25.1221
214.928	93.9834
219.803	85.8076
224.677	312.983
229.548	865.178
234.416	2436.15
239.282	12520.7
244.146	13414.7
249.007	5515.94
253.866	4314.43
258.722	4615.07
263.576	2740.8
268.427	3519.49
273.276	7349.06
278.123	7300.48
282.967	4199.73
287.809	2125.85
292.648	744.831
297.485	148.652
302.319	40.6943
307.151	128.365
311.98	145.547
316.807	108.23
321.631	39.605
326.454	258.039
331.273	193.478
336.09	283.005
340.905	470.007
345.717	698.689
350.527	1026.26
355.334	1771.92
360.139	2772.54
364.941	4515.26
369.741	7425.85
374.538	11318.2
379.333	14464.4
384.126	16680.2
388.916	26920.7
393.703	48563.8
398.488	39049.5
403.271	23824.8
408.051	13595.6
412.828	7008.85
417.603	4282.56
422.376	2649.71
427.146	1858.27
431.914	1208.23
436.679	743.889
441.442	472.232
446.202	205.753
450.96	111.277
455.715	101.301
460.467	74.4873
465.218	135.979
469.965	91.6775
474.711	100.801
479.454	14.043
484.194	23.3799
488.932	31.5752
493.667	54.3611
498.4	64.969
503.13	75.1824
507.858	49.9163
512.583	75.052
517.306	99.189
522.026	348.471
526.744	727.967
531.459	1477.22
536.172	2096.97
540.882	1590.38
545.59	960.03
550.295	468.577
554.998	266.951
559.698	186.102
564.396	165.033
569.091	87.7292
573.784	14.1765
578.474	9.34595
583.162	7.21533
587.847	30.7449
592.529	6.88306
597.209	8.29273
601.887	11.7754
606.562	5.14282
611.235	8.89868
615.905	27.7307
620.572	3.43262
625.237	3.73901
629.9	12.0671
634.56	20.4141
639.217	1.77417
643.872	8.86133
648.524	15.5059
653.174	37.2356
657.821	6.43433
662.466	44.0459
667.108	4.15942
671.748	37.7407
676.385	56.8472
681.02	73.4814
685.652	122.667
690.281	141.461
694.908	165.876
699.533	171.916
704.155	223.585
708.774	234.889
713.391	321.492
718.005	468.545
722.617	743.991
727.226	1418.59
731.833	2225.51
736.437	2280.68
741.039	1967.36
745.638	2122.2
750.234	2946.7
754.828	4747.14
759.419	5972.35
764.008	4611.99
768.595	2887.75
773.178	1761.15
777.759	1170.34
782.338	751.992
786.914	563.197
791.488	437.38
796.059	382.516
800.627	426.071
805.193	592.356
809.756	932.532
814.317	898.507
818.875	529.526
823.431	662.203
827.984	1372.48
832.534	2515.71
837.082	3392.96
841.627	2354.2
846.17	1294.45
850.71	664.721
855.248	377.493
859.783	165.916
864.316	146.349
868.846	78.8679
873.373	48.5737
877.898	77.0288
882.42	69.7314
886.94	60.6509
891.457	71.4902
895.971	79.3594
900.483	97.7383
904.993	157.26
909.5	213.071
914.004	240.144
918.505	392.494
923.004	590.12
927.501	1239.96
931.995	1850.03
936.486	1947.29
940.975	1500.76
945.461	942.421
949.945	509.294
954.426	397.406
958.904	242.682
963.38	236.095
967.853	168.786
972.324	165.382
976.792	121.225
981.258	62.2146
985.72	116.347
990.181	18.3921
994.639	40.9795
999.094	21.5315
1003.55	11.0676
1008	17.2268
1012.44	10.7637
1016.89	54.6782
1021.33	13.7466
1025.77	24.9514
1030.21	28.3608
1034.64	39.6936
1039.07	78.9531
1043.5	90.0083
1047.93	123.031
1052.35	101.844
1056.78	147.884
1061.19	212.061
1065.61	207.209
1070.02	439.982
1074.43	591.276
1078.84	779.015
1083.25	1384.35
1087.65	3545.4
1092.05	9919.49
1096.45	6962.16
1100.85	2933.74
1105.24	1244.93
1109.63	730.284
1114.02	419.882
1118.4	341.103
1122.78	249.237
1127.16	142.397
1131.54	149.62
1135.92	138.884
1140.29	83.1831
1144.66	64.8955
1149.02	3.07886
1153.39	17.3442
1157.75	25.9497
1162.11	7.10474
1166.46	6.7644
1170.82	42.2324
1175.17	81.1179
1179.52	67.019
1183.86	16.999
1188.21	10.0056
1192.55	71.0369
1196.89	3.34497
1201.22	2.93921
1205.55	11.457
1209.88	7.07935
1214.21	33.9304
1218.54	70.8296
1222.86	22.3838
1227.18	3.72729
1231.5	27.0835
1235.81	2.40185
1240.12	10.8125
1244.43	64.5579
1248.74	20.342
1253.04	21.9924
1257.34	102.41
1261.64	2.72656
1265.94	66.8755
1270.23	85.9206
1274.52	44.644
1278.81	61.3391
1283.1	76.3982
1287.38	75.2683
1291.66	72.689
1295.94	60.5727
1300.21	93.5994
1304.48	142.927
1308.75	4.32373
1313.02	1.76733
1317.29	5.90332
1321.55	60.2126
1325.81	42.573
1330.06	27.7727
1334.32	2.79492
1338.57	56.4524
1342.82	70.2961
1347.06	74.7793
1351.31	588.253
1355.55	953.729
1359.79	9.07812
1364.02	53.7576
1368.26	19.9355
1372.49	66.031
1376.71	97.8572
1380.94	72.394
1385.16	77.7573
1389.38	76.8933
1393.6	152.687
1397.81	164.727
1402.02	205.72
1406.23	296.819
1410.44	484.963
1414.64	856.125
1418.85	1546.32
1423.04	3255.55
1427.24	9196.14
1431.43	6469.55
1435.62	2232.09
1439.81	948.061
1444	501.238
1448.18	360.121
1452.36	663.846
1456.54	2229.38
1460.71	1081.92
1464.89	335.11
1469.06	131.539
1473.22	78.7905
1477.39	47.7065
1481.55	78.98
1485.71	83.4072
1489.86	45.8687
1494.02	48.3601
1498.17	100.876
1502.32	94.3909
1506.46	121.801
1510.61	39.148
1514.75	83.7588
1518.88	146.61
1523.02	123.908
1527.15	101.647
1531.28	138.635
1535.41	132.919
1539.53	191.597
1543.66	99.5618
1547.78	42.5234
1551.89	209.312
1556.01	389.186
1560.12	7.18872
1564.23	83.511
1568.33	2.25317
