Measurement: Raman, 514 nm, depolarized, Raman Data Processed
Mineral: Azurite
Rruff sample: R050638
Ideal chemistry: Cu^2+^_3_(CO_3_)_2_(OH)_2_
Locality: Zacatecas, Mexico
Source: University of Arizona Mineral Museum
Description: Blue bladed crystals
Measured chemistry: Cu_3.00_(CO_3_)_2_(OH)_2_
Pin_id: M00225
Orientation: Laser parallel to (1 0 1). Fiducial mark perpendicular to laser is parallel to -b [0 -1 0]
Raman shift (cm-1)	intensity
73.714	0
78.659	9954.13
83.602	18356.5
88.542	3414.45
93.48	653.765
98.416	251.686
103.349	72.4006
108.28	1970.18
113.208	1394.95
118.134	373.978
123.058	1924.06
127.979	6365.77
132.898	8097.73
137.814	8485.25
142.728	3574.72
147.639	2097.98
152.549	3445.51
157.455	976.434
162.359	1478.06
167.261	4983.44
172.161	5830.32
177.058	6505.36
181.952	2121.3
186.845	578.637
191.734	606.992
196.622	651.427
201.507	777.4
206.389	6.60083
211.269	110.633
216.147	123.464
221.022	201.919
225.895	89.7493
230.765	1225.13
235.633	3795.59
240.498	9169.25
245.361	18579.7
250.222	8383.52
255.08	3417.75
259.936	4016.33
264.789	3832.81
269.64	2934.29
274.488	4844.93
279.334	6240.73
284.178	3988.69
289.019	1715.9
293.857	590.872
298.693	83.5828
303.527	87.1379
308.358	22.3496
313.187	65.011
318.013	426.104
322.837	1444.9
327.659	2438.38
332.478	2286.54
337.294	1396.98
342.108	1225.67
346.92	1408.92
351.729	2118.44
356.535	3130.41
361.34	4756.39
366.141	6658.34
370.94	9407.99
375.737	13378.4
380.531	16962.9
385.323	20898.9
390.113	31341.4
394.9	51641.3
399.684	56395.7
404.466	32788.3
409.245	17444.2
414.022	10880.2
418.797	6884.31
423.569	4496.61
428.338	3030.05
433.105	1982.02
437.87	1253.53
442.632	659.598
447.391	475.787
452.149	364.525
456.903	238.037
461.655	244.565
466.405	229.191
471.152	169.214
475.897	79.4106
480.639	84.3562
485.378	126.786
490.116	105.96
494.85	92.0474
499.582	98.6291
504.312	87.9934
509.039	59.238
513.764	102.192
518.486	263.625
523.206	481.49
527.923	1037.32
532.638	2073.22
537.35	2958.35
542.059	2389.55
546.766	1320.93
551.471	747.233
556.173	385.033
560.873	255.402
565.57	151.476
570.264	149.226
574.957	93.6947
579.646	26.8156
584.333	26.4602
589.018	61.2683
593.7	24.6324
598.379	18.6392
603.056	50.4661
607.73	48.1141
612.402	47.6356
617.072	40.0708
621.739	48.349
626.403	13.538
631.065	39.2903
635.724	24.1129
640.381	19.845
645.035	32.9712
649.687	24.554
654.336	48.8127
658.983	2.86206
663.627	35.3946
668.268	47.9607
672.907	88.8939
677.544	54.2388
682.178	75.0133
686.809	145.228
691.438	193.921
696.065	179.105
700.688	177.792
705.31	228.987
709.929	296.696
714.545	386.924
719.158	521.336
723.77	808.121
728.378	1195.36
732.984	1928.83
737.588	2497.61
742.189	2518.3
746.787	2600.86
751.383	3382.68
755.976	5273.51
760.567	7217.33
765.155	6741.69
769.741	4406.08
774.324	2595.11
778.904	1687.31
783.482	1157.74
788.058	894.767
792.631	775.933
797.201	798.227
801.769	827.45
806.334	1123.99
810.897	1549.23
815.457	1977.36
820.014	2343.53
824.569	3779.28
829.122	5828.58
833.671	6646.24
838.219	6115.02
842.763	4188.82
847.306	2412.2
851.845	1365.57
856.382	791.929
860.917	482.701
865.448	253.532
869.978	208.17
874.505	138.433
879.029	87.3738
883.55	94.8965
888.069	78.1289
892.586	36.8066
897.1	132.361
901.611	76.1844
906.12	37.2518
910.626	44.5815
915.129	12.1583
919.63	82.896
924.129	96.8773
928.625	189.127
933.118	294.576
937.609	295.289
942.097	241.218
946.582	164.345
951.065	85.642
955.546	29.1005
960.023	35.7119
964.499	49.4564
968.971	53.3589
973.441	30.3894
977.909	37.5565
982.374	1.86231
986.836	7.30457
991.295	11.8825
995.753	9.41443
1000.21	3.38965
1004.66	11.7074
1009.11	47.5546
1013.55	14.3405
1018	20.1405
1022.44	29.8591
1026.88	4.40186
1031.32	39.8273
1035.75	54.4347
1040.18	108.362
1044.61	111.184
1049.04	135.9
1053.46	207.542
1057.88	170.981
1062.3	263.959
1066.71	242.775
1071.13	441.899
1075.54	598.263
1079.94	935.197
1084.35	1644.8
1088.75	4021.23
1093.15	9674.84
1097.55	8208.08
1101.94	3036.83
1106.34	1291.38
1110.73	772.125
1115.11	474.69
1119.5	432.171
1123.88	445.797
1128.26	261.685
1132.63	147.933
1137.01	58.0627
1141.38	51.3752
1145.75	16.7422
1150.12	19.8833
1154.48	0.538452
1158.84	21.567
1163.2	25.1843
1167.55	4.39185
1171.91	37.0537
1176.26	32.9283
1180.61	58.3538
1184.95	5.77332
1189.29	24.6099
1193.63	26.632
1197.97	12.3395
1202.31	10.0603
1206.64	10.2435
1210.97	29.8975
1215.29	3.55896
1219.62	26.6064
1223.94	58.5258
1228.26	16.5657
1232.57	33.9648
1236.89	40.621
1241.2	37.9216
1245.51	1.08862
1249.81	68.0997
1254.12	7.61768
1258.42	38.0402
1262.72	44.3765
1267.01	11.632
1271.3	76.5292
1275.59	49.7531
1279.88	51.9216
1284.17	45.6117
1288.45	35.5391
1292.73	52.0332
1297.01	72.5509
1301.28	59.5391
1305.55	32.3257
1309.82	27.4307
1314.09	16.7024
1318.35	30.824
1322.61	15.2424
1326.87	15.4805
1331.13	64.3633
1335.38	8.93518
1339.63	3.09436
1343.88	28.2208
1348.12	38.7512
1352.37	46.5286
1356.61	43.3302
1360.85	298.637
1365.08	35.7688
1369.31	59.8239
1373.54	13.4016
1377.77	93.4792
1381.99	129.674
1386.22	192.563
1390.43	149.386
1394.65	193.988
1398.87	281.248
1403.08	457.084
1407.29	808.697
1411.49	1536.35
1415.69	3509.23
1419.89	4147.32
1424.09	4115.82
1428.29	7204.46
1432.48	4383.1
1436.67	1547.76
1440.86	748.126
1445.04	420.67
1449.23	399.738
1453.4	748.815
1457.58	1790.97
1461.76	679.428
1465.93	235.67
1470.1	122.322
1474.26	102.882
1478.43	95.2522
1482.59	146.633
1486.75	112.886
1490.9	93.0001
1495.06	142.933
1499.21	72.6108
1503.35	96.986
1507.5	86.1356
1511.64	117.157
1515.78	114.084
1519.92	115.329
1524.05	136.438
1528.18	157.206
1532.31	144.31
1536.44	144.446
1540.56	99.4197
1544.69	85.672
1548.8	80.8071
1552.92	170.624
1557.03	74.8608
1561.14	25.3452
1565.25	26.245
1569.36	6.12598
