Measurement: Raman, 514 nm, depolarized, Raman Data Processed
Mineral: Baddeleyite
Rruff sample: R060078
Ideal chemistry: Zr^4+^O_2_
Locality: Wetloo mine, Mogok, Burma
Source: Marcus Origlieri
Description: Dark brown fragment
Measured chemistry: (Zr_0.99_Hf_0.01_)_Î£=1_O_2_
Pin_id: L01986
Orientation: Laser parallel to a* (1 0 0). Fiducial mark perpendicular to laser is parallel to -b [0 -1 0]
Raman shift (cm-1)	intensity
72.477	0
77.423	134.993
82.367	214.513
87.308	239.22
92.246	1574.46
97.182	3042
102.116	4363.8
107.047	8400.74
111.976	2869.83
116.903	1992.95
121.827	1134.73
126.749	702.654
131.668	573.775
136.585	499.275
141.5	531.329
146.412	439.997
151.321	712.995
156.229	734.541
161.134	1226.21
166.036	3249.72
170.936	9176.61
175.834	14172.9
180.729	33186.7
185.622	20427
190.512	26856.3
195.4	36138.8
200.286	6074.27
205.169	2099.74
210.049	1138.2
214.928	1378.61
219.803	1579.47
224.677	2581.31
229.548	869.301
234.416	189.012
239.282	73.3447
244.146	43.5576
249.007	45.9072
253.866	9.44824
258.722	247.741
263.576	90.5181
268.427	100.38
273.276	162.879
278.123	289.728
282.967	647.444
287.809	977.71
292.648	1835.12
297.485	3244.34
302.319	5668.35
307.151	9207.02
311.98	8852.13
316.807	4369.95
321.631	3095.44
326.454	3819.53
331.273	4769.13
336.09	7154.22
340.905	9789.79
345.717	16540.8
350.527	23715.3
355.334	10330.3
360.139	3930.74
364.941	2540.64
369.741	3142.45
374.538	5876.14
379.333	10210.6
384.126	13475.9
388.916	9994.4
393.703	3875.1
398.488	1431.21
403.271	606.899
408.051	212.28
412.828	36.5273
417.603	184.395
422.376	166.371
427.146	225.762
431.914	22.3882
436.679	161.813
441.442	366.491
446.202	831.023
450.96	1572.85
455.715	3164.25
460.467	6617.23
465.218	15660.8
469.965	31529
474.711	52750.7
479.454	47754.1
484.194	17408
488.932	7257.53
493.667	4742.68
498.4	3928.44
503.13	3931.01
507.858	2161.8
512.583	1128.42
517.306	689.643
522.026	439.491
526.744	401.998
531.459	710.002
536.172	1367.27
540.882	1862.21
545.59	2196.01
550.295	3597.66
554.998	6158.48
559.698	7590.72
564.396	4036.72
569.091	1479.79
573.784	509.451
578.474	14.8213
583.162	37.8267
587.847	85.7061
592.529	225.435
597.209	509.954
601.887	1649.24
606.562	3620.28
611.235	6746.07
615.905	9354.61
620.572	7252.88
625.237	3791.84
629.9	2559.51
634.56	2828.85
639.217	2857.86
643.872	1709.55
648.524	640.876
653.174	469.019
657.821	266.545
662.466	129.614
667.108	199.03
671.748	265.37
676.385	304.504
681.02	287.501
685.652	413.172
690.281	532.657
694.908	704.422
699.533	859.003
704.155	1022.95
708.774	1294.52
713.391	1171.64
718.005	1033.52
722.617	794.386
727.226	568.915
731.833	565.196
736.437	501.158
741.039	596.122
745.638	766.037
750.234	781.625
754.828	828.107
759.419	745.625
764.008	593.737
768.595	423.6
773.178	339.69
777.759	217.244
782.338	100.676
786.914	7.7876
791.488	26.5395
796.059	32.1211
800.627	18.0093
805.193	38.0185
809.756	20.9243
814.317	3.30029
818.875	60.4175
823.431	0.149902
827.984	116.415
832.534	99.8564
837.082	54.6553
841.627	68.5444
846.17	13.7104
850.71	34.7793
855.248	20.8686
859.783	9.25146
864.316	65.6304
868.846	23.895
873.373	80.6016
877.898	123.752
882.42	132.356
886.94	107.385
891.457	42.8379
895.971	191.702
900.483	103.021
904.993	159.778
909.5	153.004
914.004	191.69
918.505	240.79
923.004	222.138
927.501	207.231
931.995	233.871
936.486	284.005
940.975	294.453
945.461	177.378
949.945	236.574
954.426	249.408
958.904	219.733
963.38	205.209
967.853	179.806
972.324	184.027
976.792	141.128
981.258	182.457
985.72	188.527
990.181	214.737
994.639	172.03
999.094	267.613
1003.55	119.904
1008	244.871
1012.44	244.017
1016.89	135.129
1021.33	177.067
1025.77	150.114
1030.21	159.522
1034.64	176.864
1039.07	175.39
1043.5	137.54
1047.93	146.635
1052.35	272.368
1056.78	213.185
1061.19	130.421
1065.61	121.668
1070.02	191.821
1074.43	236.691
1078.84	146.682
1083.25	55.5054
1087.65	177.567
1092.05	114.475
1096.45	136.26
1100.85	83.7168
1105.24	118.647
1109.63	117.312
1114.02	96.9951
1118.4	112.255
1122.78	259.64
1127.16	160.12
1131.54	153.712
1135.92	50.3286
1140.29	111.941
1144.66	103.579
1149.02	78.2349
1153.39	97.9375
1157.75	70.6797
1162.11	77.46
1166.46	75.2783
1170.82	67.1338
1175.17	59.9658
1179.52	39.3882
1183.86	22.2739
1188.21	66.7353
1192.55	35.0806
1196.89	28.2212
1201.22	40.5908
1205.55	91.9238
1209.88	17.5503
1214.21	123.024
1218.54	179.796
1222.86	123.564
1227.18	112.373
1231.5	61.2192
1235.81	87.1123
1240.12	63.0518
1244.43	230.027
1248.74	120.248
1253.04	28.2471
1257.34	164.273
1261.64	42.3272
1265.94	236.374
1270.23	182.462
1274.52	98.5898
1278.81	113.747
1283.1	69.9287
1287.38	83.1348
1291.66	93.3662
1295.94	82.6211
1300.21	95.9053
1304.48	185.513
1308.75	121.738
1313.02	53.9575
1317.29	90.3755
1321.55	137.647
1325.81	117.216
1330.06	19.1973
1334.32	135.232
1338.57	73.6963
1342.82	165.178
1347.06	53.6182
1351.31	129.185
1355.55	117.8
1359.79	78.6162
1364.02	45.6611
1368.26	134.429
1372.49	5.74902
1376.71	215.139
1380.94	180.077
1385.16	89.8569
1389.38	83.1118
1393.6	133.256
1397.81	177.38
1402.02	146.238
1406.23	79.209
1410.44	74.2168
1414.64	108.275
1418.85	91.478
1423.04	177.626
1427.24	198.857
1431.43	176.248
1435.62	170.323
1439.81	51.1504
1444	118.26
1448.18	131.084
1452.36	107.097
1456.54	146.193
1460.71	49.1367
1464.89	182.178
1469.06	151.305
1473.22	25.2275
1477.39	7.57471
1481.55	3.02881
1485.71	51.5938
1489.86	36.2988
1494.02	55.1577
1498.17	69.5337
1502.32	141.42
1506.46	210.781
1510.61	104.592
1514.75	14.6455
1518.88	84.8106
1523.02	29.7529
1527.15	101.76
1531.28	21.2832
1535.41	81.0747
1539.53	1.67334
1543.66	115.774
1547.78	129.145
1551.89	413.701
1556.01	161.096
1560.12	148.443
1564.23	21.0093
1568.33	0.874512
