Measurement: Raman, 514 nm, depolarized, Raman Data Processed
Mineral: Baddeleyite
Rruff sample: R060016
Ideal chemistry: Zr^4+^O_2_
Locality: Wet Loo, Myanmar
Source: American Museum of Natural History
Description: Brown crystal fragment
Measured chemistry: (Zr_0.99_Ti_0.01_)_Î£=1_O_2_
Pin_id: M00302
Orientation: Laser parallel to a* (1 0 0). Fiducial mark perpendicular to laser is parallel to b [0 1 0]
Raman shift (cm-1)	intensity
40.393	0
45.367	19.0187
50.339	48.2762
55.309	74.2203
60.276	126.134
65.24	120.29
70.202	61.7358
75.161	8.26062
80.118	23.2073
85.072	16.9914
90.024	130.387
94.973	952.529
99.919	3492.34
104.863	3446.08
109.805	1204.86
114.744	773.485
119.681	669.538
124.615	648.555
129.546	662.192
134.475	646.177
139.401	723.251
144.325	671.156
149.247	782.001
154.165	950.805
159.082	1219.19
163.995	2183.61
168.906	6109.78
173.815	13421.6
178.721	19311.2
183.625	14042.5
188.526	21044
193.424	15894.2
198.32	3167.7
203.214	1253.42
208.105	845.235
212.993	946.004
217.879	1447.98
222.762	1586.94
227.643	599.669
232.521	322.779
237.396	228.726
242.269	192.713
247.14	114.442
252.008	179.889
256.873	202.023
261.736	135.818
266.596	167.16
271.454	188.164
276.309	364.73
281.162	496.211
286.012	809.418
290.86	1246.78
295.705	2471.81
300.547	4470.52
305.387	6620.85
310.225	5136.68
315.059	2666.97
319.892	1974.71
324.721	2277.91
329.549	3086.54
334.373	4201.6
339.195	7088.14
344.015	12326.2
348.832	12896.7
353.646	5565.81
358.458	2255.47
363.267	1673.69
368.074	2099.5
372.878	4296.98
377.679	7946.14
382.478	9352.88
387.275	5866.15
392.069	2269.92
396.86	907.213
401.649	350.008
406.435	137.305
411.219	24.0901
416	107.782
420.778	120.857
425.554	141.979
430.327	34.4399
435.098	100.318
439.866	226.271
444.632	526.347
449.395	1024.1
454.156	1972.04
458.914	4219.44
463.669	10211.3
468.422	21791.6
473.172	33432.4
477.92	24732.6
482.665	9381.32
487.408	4034.47
492.148	2741.06
496.885	2737.09
501.62	2486.57
506.352	1350.48
511.082	505.819
515.809	228.583
520.533	87.7947
525.255	91.4192
529.975	313.46
534.692	550.945
539.406	790.91
544.118	959.442
548.827	1985.45
553.533	3481.02
558.237	3791.11
562.938	1882.92
567.637	570.513
572.333	77.3191
577.027	22.21
581.718	50.7847
586.407	11.1289
591.093	168.845
595.776	478.218
600.457	1251
605.135	2639.18
609.81	5254.77
614.483	6975.73
619.154	4939.1
623.822	2583.83
628.487	1751.92
633.15	1777.37
637.81	1601.18
642.467	923.307
647.122	454.758
651.774	192.511
656.424	108.26
661.071	118.626
665.716	65.47
670.358	59.8005
674.997	83.9526
679.634	130.536
684.268	145.671
688.9	206.879
693.529	284.571
698.156	344.047
702.78	385.319
707.401	517.053
712.02	514.047
716.636	365.675
721.249	351.147
725.86	318.656
730.469	244.155
735.074	354.041
739.678	380.384
744.278	475.881
748.876	567.746
753.472	556.433
758.064	592.445
762.655	389.585
767.242	265.868
771.827	207.645
776.41	112.146
780.99	157.371
785.567	83.8942
790.142	48.188
794.714	19.2245
799.283	7.55994
803.85	39.0535
808.415	20.2628
812.976	13.9294
817.535	30.5215
822.092	29.3323
826.646	35.2612
831.197	29.2875
835.746	38.1914
840.292	14.041
844.836	4.07104
849.377	9.38879
853.915	12.5845
858.451	3.98413
862.984	93.2165
867.515	91.2002
872.043	45.7874
876.568	94.0626
881.091	95.1537
885.611	97.8307
890.129	47.1924
894.644	93.355
899.156	56.0497
903.666	76.5283
908.173	51.6416
912.678	94.5294
917.18	97.8983
921.679	111.23
926.176	61.0549
930.67	87.8276
935.162	123.388
939.651	68.4066
944.137	120.971
948.621	104.201
953.102	121.855
957.581	90.4742
962.057	102.697
966.53	94.55
971.001	109.688
975.469	58.0847
979.935	47.8201
984.398	110.647
988.859	95.5211
993.316	43.4926
997.772	34.4673
1002.22	58.7316
1006.67	87.1328
1011.12	50.5583
1015.57	50.3492
1020.01	85.6091
1024.45	44.9576
1028.88	80.5549
1033.32	39.8851
1037.75	42.2246
1042.18	49.3177
1046.61	76.2461
1051.03	78.5084
1055.45	30.9822
1059.87	31.5657
1064.29	79.8547
1068.7	96.1155
1073.11	6.65942
1077.52	21.0598
1081.93	37.197
1086.33	65.4905
1090.73	36.7891
1095.13	91.3093
1099.52	42.8345
1103.92	4.15979
1108.31	2.18481
1112.69	18.5581
1117.08	9.91882
1121.46	22.3788
1125.84	62.0793
1130.22	49.712
1134.59	52.4863
1138.96	27.2411
1143.33	84.927
1147.7	57.5279
1152.06	56.235
1156.43	9.14331
1160.79	28.4065
1165.14	0.010742
1169.49	56.5772
1173.85	36.1963
1178.19	15.3182
1182.54	0.359985
1186.88	13.7024
1191.22	7.30981
1195.56	31.0186
1199.9	14.8521
1204.23	13.0382
1208.56	38.544
1212.89	43.2592
1217.21	73.4875
1221.54	107.676
1225.86	66.1399
1230.17	95.7039
1234.49	49.1593
1238.8	60.7643
1243.11	22.0989
1247.41	71.5194
1251.72	81.2706
1256.02	43.1246
1260.32	75.6433
1264.62	60.5073
1268.91	50.4219
1273.2	26.3586
1277.49	58.3214
1281.78	35.6611
1286.06	30.3697
1290.34	43.4034
1294.62	43.1435
1298.89	17.238
1303.16	78.36
1307.44	84.7385
1311.7	74.8749
1315.97	35.677
1320.23	10.9023
1324.49	47.4994
1328.75	3.07214
1333	38.5432
1337.25	57.5637
1341.5	13.9213
1345.75	7.31006
1349.99	28.8727
1354.24	18.3208
1358.47	40.8068
1362.71	39.3291
1366.94	18.4846
1371.18	4.70606
1375.4	41.9386
1379.63	71.6285
1383.85	38.3657
1388.08	63.1453
1392.29	37.014
1396.51	24.9594
1400.72	96.0542
1404.93	35.9945
1409.14	36.8981
1413.35	66.887
1417.55	22.1998
1421.75	53.4325
1425.94	12.4854
1430.14	21.5717
1434.33	60.6334
1438.52	3.55786
1442.71	21.5819
1446.89	42.5725
1451.07	60.6974
1455.25	31.9978
1459.43	33.7272
1463.6	17.007
1467.77	30.2811
1471.94	30.7209
1476.11	30.2208
1480.27	37.7773
1484.43	64.3804
1488.59	16.0422
1492.74	100.759
1496.9	96.5181
1501.05	41.3417
1505.2	53.2925
1509.34	71.4152
1513.48	53.7037
1517.62	56.1439
1521.76	38.3032
1525.9	49.0466
1530.03	69.194
1534.16	25.2693
1538.28	62.6522
1542.41	41.9971
1546.53	54.5429
1550.65	101.812
1554.77	63.6531
1558.88	10.1915
