Measurement: Raman, 514 nm, depolarized, Raman Data Processed
Mineral: Baddeleyite
Rruff sample: R060016
Ideal chemistry: Zr^4+^O_2_
Locality: Wet Loo, Myanmar
Source: American Museum of Natural History
Description: Brown crystal fragment
Measured chemistry: (Zr_0.99_Ti_0.01_)_Î£=1_O_2_
Pin_id: M00268
Orientation: Laser parallel to b* (0 1 0). Fiducial mark perpendicular to laser is parallel to -c [0 0 -1]
Raman shift (cm-1)	intensity
129.546	0
134.475	119.719
139.401	48.166
144.325	78.7988
149.247	3.97315
154.165	192.256
159.082	509.696
163.995	1036.78
168.906	2621.39
173.815	7068.03
178.721	14243.3
183.625	5266.87
188.526	9209.76
193.424	7592.42
198.32	2043.53
203.214	1512.86
208.105	1227.5
212.993	1183.13
217.879	1493.65
222.762	1589.44
227.643	910.725
232.521	769.647
237.396	687.287
242.269	876.695
247.14	890.883
252.008	1119.85
256.873	1176.61
261.736	1151.16
266.596	1023.35
271.454	1023.94
276.309	1212.58
281.162	1572.32
286.012	1990.5
290.86	2540.05
295.705	3045.93
300.547	3990.94
305.387	5702.77
310.225	4917.23
315.059	3481.19
319.892	3193.5
324.721	4126.05
329.549	6352.78
334.373	6755.64
339.195	4027.58
344.015	5284.59
348.832	6044.58
353.646	2561.38
358.458	1069.98
363.267	903.4
368.074	1014.67
372.878	1726.79
377.679	3744.78
382.478	2690.65
387.275	1233.4
392.069	495.042
396.86	163.594
401.649	72.9512
406.435	164.861
411.219	149.622
416	124.238
420.778	147.545
425.554	101.386
430.327	93.1499
435.098	61.7754
439.866	179.502
444.632	212.316
449.395	485.21
454.156	588.178
458.914	1142.22
463.669	2408.34
468.422	4905.53
473.172	9647.81
477.92	7458.19
482.665	3015.65
487.408	1561.23
492.148	1419.92
496.885	1785.74
501.62	2129.71
506.352	1171.82
511.082	516.098
515.809	388.566
520.533	371.254
525.255	578.253
529.975	948.517
534.692	1823.31
539.406	1937.7
544.118	1358.32
548.827	1458.19
553.533	2434.4
558.237	2875.06
562.938	1786.31
567.637	930.667
572.333	597.237
577.027	366.64
581.718	232.613
586.407	414.139
591.093	412.178
595.776	910.737
600.457	1574.82
605.135	2776.59
609.81	4703.61
614.483	6055.33
619.154	5473.58
623.822	5350.37
628.487	7564.7
633.15	12762.6
637.81	14663
642.467	9445.91
647.122	4650.36
651.774	2524.33
656.424	1617.22
661.071	1021.71
665.716	743.161
670.358	589.817
674.997	531.076
679.634	543.033
684.268	637.727
688.9	774.785
693.529	1000.8
698.156	1170.83
702.78	1376.33
707.401	1564.52
712.02	1381.13
716.636	1152.32
721.249	678.425
725.86	406.33
730.469	416.156
735.074	297.565
739.678	326.464
744.278	422.224
748.876	364.271
753.472	339.27
758.064	470.302
762.655	297.421
767.242	336.623
771.827	147.208
776.41	151.421
780.99	32.3047
785.567	48.2437
790.142	33.4541
794.714	21.8311
799.283	42.9761
803.85	12.6465
808.415	133.863
812.976	6.75195
817.535	75.1665
822.092	0.239746
826.646	86.165
831.197	0.951172
835.746	13.5093
840.292	60.2134
844.836	16.332
849.377	96.1977
853.915	38.2964
858.451	62.9302
862.984	137.994
867.515	187.72
872.043	137.99
876.568	186.07
881.091	132.821
885.611	78.0166
890.129	112.847
894.644	192.379
899.156	155.465
903.666	188.326
908.173	195.997
912.678	212.065
917.18	228.018
921.679	197.207
926.176	242.845
930.67	215.614
935.162	219.092
939.651	184.006
944.137	140.729
948.621	96.3794
953.102	48.2266
957.581	140.081
962.057	131.789
966.53	123.232
971.001	42.3916
975.469	148.835
979.935	43.3047
984.398	40.7046
988.859	58.5566
993.316	113.159
997.772	79.3862
1002.22	332.095
1006.67	229.312
1011.12	78.0903
1015.57	163.394
1020.01	148.523
1024.45	162.359
1028.88	152.181
1033.32	134.219
1037.75	12.3442
1042.18	84.2148
1046.61	63.6489
1051.03	60.2041
1055.45	140.007
1059.87	64.5957
1064.29	36.4688
1068.7	56.4902
1073.11	32.0894
1077.52	60.583
1081.93	104.557
1086.33	102.045
1090.73	52.4653
1095.13	34.2656
1099.52	124.785
1103.92	57.5874
1108.31	44.772
1112.69	138.176
1117.08	2.97998
1121.46	61.8442
1125.84	79.4722
1130.22	106.403
1134.59	70.5459
1138.96	11.0767
1143.33	82.3037
1147.7	131.191
1152.06	121.662
1156.43	21.3921
1160.79	89.8013
1165.14	148.968
1169.49	118.435
1173.85	9.56445
1178.19	60.9409
1182.54	86.0303
1186.88	47.6133
1191.22	44.0967
1195.56	24.978
1199.9	158.436
1204.23	3.36377
1208.56	54.5659
1212.89	155.758
1217.21	11.331
1221.54	103.865
1225.86	12.7319
1230.17	196.483
1234.49	18.0855
1238.8	68.4028
1243.11	134.49
1247.41	80.957
1251.72	19.0625
1256.02	148.345
1260.32	156.489
1264.62	158.833
1268.91	129.33
1273.2	74.667
1277.49	49.1914
1281.78	9.37695
1286.06	56.8901
1290.34	118.345
1294.62	179.054
1298.89	181.846
1303.16	110.728
1307.44	278.652
1311.7	248.663
1315.97	275.737
1320.23	102.877
1324.49	126.022
1328.75	65.0811
1333	157.374
1337.25	118.764
1341.5	130.309
1345.75	96.9248
1349.99	70.6484
1354.24	170.4
1358.47	60.9673
1362.71	93.3208
1366.94	125.376
1371.18	168.724
1375.4	71.8418
1379.63	52.4155
1383.85	126.887
1388.08	61.394
1392.29	61.2026
1396.51	36.0195
1400.72	76.8945
1404.93	225.533
1409.14	117.59
1413.35	62.5024
1417.55	124.483
1421.75	178.393
1425.94	192.119
1430.14	67.7832
1434.33	230.455
1438.52	209.102
1442.71	306.212
1446.89	333.492
1451.07	261.971
1455.25	494.598
1459.43	392.375
1463.6	172.28
1467.77	297.776
1471.94	188.539
1476.11	280.294
1480.27	200.489
1484.43	108.731
1488.59	138.124
1492.74	163.661
1496.9	60.3809
1501.05	0.335938
1505.2	89.5391
1509.34	88.9805
1513.48	145.662
1517.62	80.6465
1521.76	55.0156
1525.9	177.043
1530.03	213.78
1534.16	123.638
1538.28	13.8047
1542.41	132.918
1546.53	29.1504
1550.65	167.089
1554.77	140.075
1558.88	40.4893
