Measurement: Raman, 514 nm, depolarized, Raman Data Processed
Mineral: Baddeleyite
Rruff sample: R060016
Ideal chemistry: Zr^4+^O_2_
Locality: Wet Loo, Myanmar
Source: American Museum of Natural History
Description: Brown crystal fragment
Measured chemistry: (Zr_0.99_Ti_0.01_)_Î£=1_O_2_
Pin_id: M01376
Orientation: Laser parallel to c* (0 0 1). Fiducial mark perpendicular to laser is parallel to -a [-1 0 0]
Raman shift (cm-1)	intensity
135.707	0
140.633	19.3457
145.556	56.9473
150.476	134.732
155.395	272.168
160.31	511.775
165.223	1214.14
170.134	2903.78
175.042	4852.88
179.947	6105.38
184.85	4555.3
189.751	6259.98
194.649	3608.36
199.544	1529.71
204.437	1095.33
209.327	1092.7
214.215	1730.1
219.1	2574.11
223.982	2218.56
228.862	873.886
233.74	548.311
238.615	686.95
243.487	836.862
248.357	950.066
253.224	973.538
258.089	1079.26
262.951	872.206
267.811	945.37
272.668	1068.94
277.523	1317.27
282.375	1758.92
287.224	1878.72
292.071	2349.71
296.916	2578.55
301.758	2787.62
306.597	3101.09
311.434	2871.82
316.268	3024.26
321.099	4242.6
325.928	6795.66
330.755	9116.29
335.579	7757.39
340.4	4153.9
345.219	3412.74
350.035	2523.87
354.849	1136.14
359.66	806.4
364.469	782.677
369.275	1427.98
374.078	2585.33
378.879	3574.72
383.678	2857.16
388.473	1354.64
393.267	384.165
398.057	166.74
402.845	7.65625
407.631	80.4277
412.414	323.896
417.194	209.52
421.972	152.524
426.748	10.709
431.52	50.8818
436.29	323.68
441.058	393.167
445.823	565.525
450.586	1005.07
455.345	1992.8
460.103	3676.7
464.858	8281.74
469.61	15231.9
474.359	19164.3
479.106	11729.8
483.851	4869.37
488.593	2568.13
493.332	1873.03
498.069	2026.08
502.803	1703.3
507.535	915.691
512.264	561.25
516.99	475.117
521.714	642.387
526.435	1216.96
531.154	2059.9
535.87	3340.38
540.584	2868.87
545.295	2382.77
550.004	3379.29
554.709	4336.1
559.413	4172.5
564.113	2011.59
568.812	936.664
573.507	511.713
578.2	87.8594
582.891	25.4121
587.578	119.377
592.264	353.744
596.946	563.146
601.626	1438.69
606.304	2234.3
610.979	3102.46
615.651	3062.05
620.321	2175.07
624.988	1339.48
629.653	1371.41
634.315	1651.82
638.974	1438.61
643.631	935.434
648.285	242.957
652.937	197.832
657.586	88.4746
662.233	234.117
666.877	122.203
671.518	27.1562
676.157	269.268
680.793	301.365
685.427	451.848
690.058	569.227
694.686	837.031
699.312	1049.92
703.935	1315.85
708.556	1373.73
713.174	875.383
717.789	781.775
722.402	458.971
727.013	423.389
731.62	274.977
736.225	148.397
740.828	272.312
745.428	464.49
750.025	417.039
754.62	498.894
759.212	331.027
763.802	369.801
768.389	132.215
772.973	156.352
777.555	162.127
782.134	15.623
786.711	218.779
791.285	122.731
795.856	7.07031
800.425	96.0156
804.992	84.5019
809.555	136.033
814.116	25.9297
818.675	246.037
823.231	86.7227
827.784	17.8672
832.335	89.3789
836.883	13.4766
841.428	67.6035
845.971	31.6719
850.512	227.707
855.049	144.275
859.584	135.682
864.117	127.611
868.647	186.853
873.174	199.885
877.699	322.498
882.221	32.7402
886.741	82.25
891.258	161.106
895.772	214.607
900.284	11.6777
904.793	263.973
909.3	144.555
913.803	315.668
918.305	391.674
922.804	268.894
927.3	315.719
931.793	376.549
936.284	187.084
940.773	65.9863
945.258	222.723
949.742	255.242
954.222	254.559
958.7	350.01
963.176	220.26
967.648	196.418
972.119	76.8984
976.586	180.002
981.051	257.705
985.513	159.369
989.973	97.375
994.43	271.697
998.885	35.584
1003.34	383.232
1007.79	292.721
1012.23	75.4492
1016.68	351.84
1021.12	300.926
1025.56	267.188
1029.99	60.752
1034.43	189.822
1038.86	361.609
1043.29	263.996
1047.71	240.955
1052.14	315.613
1056.56	98.2773
1060.98	237.924
1065.39	199.615
1069.8	126.721
1074.21	155.135
1078.62	145.631
1083.03	370.781
1087.43	143.266
1091.83	199.525
1096.23	13.373
1100.62	210.084
1105.01	323.412
1109.4	177.375
1113.79	156.809
1118.17	53.1777
1122.56	93.2754
1126.93	333.152
1131.31	190.496
1135.69	247.148
1140.06	193.889
1144.42	442.41
1148.79	199.197
1153.15	279.397
1157.52	207.309
1161.87	38.0586
1166.23	176.336
1170.58	157.492
1174.93	146.606
1179.28	261.748
1183.63	244.91
1187.97	98.1094
1192.31	248.277
1196.65	2.49609
1200.98	196.543
1205.31	132.772
1209.64	344.857
1213.97	161.998
1218.29	225.195
1222.62	81.084
1226.93	311.156
1231.25	123.531
1235.57	295.986
1239.88	351.529
1244.18	168.301
1248.49	42.3027
1252.8	8.61719
1257.1	215.26
1261.39	14.0039
1265.69	140.867
1269.98	129.85
1274.27	76.9707
1278.56	17.7598
1282.85	151.623
1287.13	188.408
1291.41	238.391
1295.69	33.8105
1299.96	323.027
1304.23	307.022
1308.5	345.199
1312.77	379.549
1317.03	287.014
1321.3	390.5
1325.56	412.69
1329.81	265.537
1334.07	146.467
1338.32	320.869
1342.57	318.164
1346.81	330.613
1351.06	474.978
1355.3	88.7812
1359.54	439.787
1363.77	197.959
1368	234.322
1372.23	107.059
1376.46	175.611
1380.69	237.455
1384.91	360.078
1389.13	312.66
1393.35	316.742
1397.56	141.074
1401.77	199.537
1405.98	238.918
1410.19	148.256
1414.39	207.652
1418.6	93.3926
1422.8	141.127
1426.99	362.309
1431.19	383.477
1435.38	418.488
1439.57	344.727
1443.75	295.022
1447.94	396.887
1452.12	151.297
1456.3	164.051
1460.47	420.137
1464.64	120.553
1468.82	429.291
1472.98	460.902
1477.15	284.281
1481.31	312.342
1485.47	137.688
1489.63	2.79688
1493.78	147.109
1497.94	157.44
1502.09	213.906
1506.23	123.967
1510.38	98.6875
1514.52	106.103
1518.66	43.8906
1522.8	198.188
1526.93	328.033
1531.06	144.162
1535.19	108.168
1539.32	198.568
1543.44	102.125
1547.56	253.861
1551.68	52.4375
1555.79	5.63867
1559.91	249.269
