Measurement: Raman, 514 nm, depolarized, Raman Data Processed
Mineral: Baddeleyite
Rruff sample: R060078
Ideal chemistry: Zr^4+^O_2_
Locality: Wetloo mine, Mogok, Burma
Source: Marcus Origlieri
Description: Dark brown fragment
Measured chemistry: (Zr_0.99_Hf_0.01_)_Î£=1_O_2_
Pin_id: L00545
Orientation: Laser parallel to b* (0 1 0). Fiducial mark perpendicular to laser is parallel to c [0 0 1]
Raman shift (cm-1)	intensity
51.431	0
56.387	244.641
61.341	191.202
66.292	97.0992
71.241	332.861
76.187	1071.25
81.131	2504.72
86.072	4848.05
91.012	14964.7
95.948	56101.4
100.883	32238.3
105.815	16516.6
110.744	9373.49
115.671	6091.27
120.596	4738.35
125.519	4266.36
130.439	3959.25
135.356	3523.9
140.271	3566.08
145.184	3437.21
150.094	4005.79
155.002	4880.32
159.908	6357.17
164.811	12030.2
169.711	42046.8
174.61	27557.6
179.505	24968.9
184.399	40239.7
189.29	19258.7
194.178	11528
199.064	7742.85
203.948	6510.45
208.829	5522.24
213.708	6019.41
218.585	5081.97
223.459	4410.8
228.33	3997.15
233.199	3809.2
238.066	4253.23
242.93	3997.69
247.792	4467.17
252.651	4750.59
257.508	4316.83
262.363	4281.49
267.215	4318.69
272.064	4671.66
276.912	6079.47
281.756	7447.6
286.598	8880.76
291.438	10764.5
296.276	15817.1
301.111	19953.2
305.943	15104.4
310.773	11192.4
315.601	9860.03
320.426	10717.1
325.248	13385.5
330.068	11879.4
334.886	13846.5
339.701	24641.8
344.514	18982.5
349.324	9365.38
354.132	4636.81
358.938	3125.86
363.741	3553.35
368.541	8556.92
373.339	12278.4
378.135	8060.78
382.928	4175.87
387.718	1548.62
392.506	537.96
397.292	90.2734
402.075	615.716
406.856	658.131
411.634	728.68
416.41	486.549
421.183	257.464
425.954	158.028
430.722	49.3252
435.488	179.016
440.251	387.226
445.012	789.729
449.77	1510.52
454.526	2975.59
459.28	6121.93
464.03	15370.6
468.779	26495.5
473.525	17617.7
478.268	8568.26
483.009	4024.11
487.747	2797.27
492.483	3277.75
497.217	3143.52
501.948	1964.56
506.676	1106.86
511.402	474.405
516.125	575.19
520.846	955.341
525.565	1544.92
530.281	2653.23
534.994	3256.45
539.705	3582.81
544.413	5548.46
549.119	10628.3
553.822	11284.8
558.523	7240.31
563.222	3970.63
567.917	1996.67
572.611	1245.65
577.302	969.901
581.99	935.316
586.676	1302.66
591.359	2127.97
596.04	4109.21
600.718	7495.32
605.394	11769.3
610.067	14405.1
614.737	14435.7
619.406	16465
624.071	26297.2
628.734	46093
633.395	51397.5
638.053	34716.7
642.708	18883.5
647.361	9973.83
652.012	5672.78
656.66	3902.86
661.305	2667.75
665.948	2251.45
670.588	1987.85
675.226	1899.78
679.861	2091.78
684.494	2439.94
689.124	2937.82
693.752	3776.06
698.377	4712.22
702.999	4951.6
707.619	4625.16
712.237	3573.24
716.852	2494.67
721.464	1566.07
726.074	1115.06
730.681	928.477
735.286	891.005
739.888	998.894
744.488	900.354
749.085	1009.45
753.68	900.864
758.272	756.527
762.861	614.33
767.448	411.243
772.033	346.843
776.614	223.456
781.194	20.9155
785.77	94.2324
790.345	10.4072
794.916	83.5664
799.485	34.6304
804.052	140.031
808.616	139.371
813.177	137.806
817.736	83.939
822.292	163.24
826.846	34.7637
831.397	116.282
835.945	86.2485
840.491	7.3208
845.035	65.9497
849.576	10.9438
854.114	142.105
858.65	264.094
863.183	156.928
867.713	246.223
872.241	386.19
876.767	393.873
881.29	399.394
885.81	330.492
890.328	430.399
894.843	428.113
899.356	567.309
903.866	649.212
908.373	554.942
912.878	609.282
917.38	561.559
921.88	510.104
926.377	599.538
930.872	568.235
935.364	648.046
939.853	660.559
944.34	595.056
948.824	516.913
953.306	425.701
957.785	518.944
962.261	307.58
966.735	421.729
971.207	371.316
975.675	461.342
980.141	290.141
984.605	281.095
989.066	441.405
993.524	241.552
997.98	386.041
1002.43	426.738
1006.88	328.915
1011.33	391.304
1015.78	329.648
1020.22	372.291
1024.66	191.697
1029.1	282.502
1033.53	255.973
1037.97	208.503
1042.4	218.49
1046.82	254.399
1051.25	92.5312
1055.67	188.039
1060.09	80.187
1064.51	169.905
1068.92	170.312
1073.33	83.876
1077.74	103.943
1082.15	50.8545
1086.55	92.2139
1090.95	22.3486
1095.35	80.3042
1099.75	59.0005
1104.14	17.6514
1108.53	75.3833
1112.92	74.0474
1117.31	13.5879
1121.69	1.60938
1126.07	116.783
1130.45	164.423
1134.82	38.0391
1139.19	53.6309
1143.57	198.19
1147.93	121.564
1152.3	155.073
1156.66	119.253
1161.02	79.7437
1165.38	132.23
1169.73	4.33594
1174.08	45.9639
1178.43	51.561
1182.78	11.1992
1187.12	41.5659
1191.46	20.3911
1195.8	131.878
1200.14	11.9194
1204.47	45.3145
1208.8	16.4785
1213.13	180.736
1217.46	274.9
1221.78	327.411
1226.1	255.165
1230.42	120.741
1234.73	13.9219
1239.04	35.2188
1243.35	41.8086
1247.66	88.1406
1251.97	121.928
1256.27	50.6504
1260.57	65.8076
1264.86	93.9341
1269.16	161.938
1273.45	76.6631
1277.74	35.1494
1282.03	20.6846
1286.31	87.1333
1290.59	102.662
1294.87	47.3491
1299.14	82.7978
1303.42	71.1509
1307.69	75.8989
1311.95	32.5742
1316.22	55.5322
1320.48	24.5317
1324.74	126.636
1329	2.25098
1333.26	38.3999
1337.51	59.9087
1341.76	7.39014
1346	129.486
1350.25	159.935
1354.49	9.81641
1358.73	32.5772
1362.96	92.9131
1367.2	64.5015
1371.43	74.2129
1375.66	161.014
1379.88	77.8613
1384.11	113.162
1388.33	135.12
1392.54	161.178
1396.76	147.938
1400.97	97.0117
1405.18	113.136
1409.39	143.774
1413.59	140.137
1417.8	128.507
1421.99	156.888
1426.19	157.195
1430.38	113.53
1434.58	90.8897
1438.77	125.744
1442.95	116.237
1447.13	85.5713
1451.32	64.6133
1455.49	147.438
1459.67	41.647
1463.84	9.57715
1468.01	4.32666
1472.18	20.1538
1476.35	63.0688
1480.51	39.2095
1484.67	78.2002
1488.83	119.17
1492.98	10.1626
1497.13	14.1807
1501.28	96.1045
1505.43	3.12598
1509.57	89.3892
1513.71	58.5386
1517.85	53.7285
1521.99	126.697
1526.12	111.082
1530.25	139.866
1534.38	14.1255
1538.5	27.54
1542.62	198.977
1546.74	86.2217
1550.86	111.51
1554.98	334.903
1559.09	3.51367
1563.2	153.446
1567.31	3.69873
