Measurement: Raman, 514 nm, depolarized, Raman Data Processed
Mineral: Baddeleyite
Rruff sample: R060016
Ideal chemistry: Zr^4+^O_2_
Locality: Wet Loo, Myanmar
Source: American Museum of Natural History
Description: Brown crystal fragment
Measured chemistry: (Zr_0.99_Ti_0.01_)_Î£=1_O_2_
Pin_id: M00083
Orientation: Laser parallel to (1 0 -1). Fiducial mark perpendicular to laser is parallel to b [0 1 0]
Raman shift (cm-1)	intensity
40.393	0
45.367	26.1628
50.339	50.4344
55.309	67.5935
60.276	147.257
65.24	84.715
70.202	27.7294
75.161	14.3753
80.118	28.7101
85.072	42.1633
90.024	688.524
94.973	3594.89
99.919	11348.4
104.863	10123.5
109.805	2823.12
114.744	1587.86
119.681	1205.97
124.615	1100.92
129.546	1028.39
134.475	1046.03
139.401	1110.91
144.325	1128.63
149.247	1148.33
154.165	1335.6
159.082	1751.54
163.995	3074.68
168.906	7864.96
173.815	15888.4
178.721	21466.1
183.625	10390.9
188.526	13813.2
193.424	10460.8
198.32	2424.67
203.214	1243.7
208.105	1028.73
212.993	1306.98
217.879	1924.38
222.762	2186.74
227.643	924.452
232.521	563.067
237.396	501.796
242.269	524.17
247.14	479.156
252.008	507.712
256.873	463.372
261.736	440.07
266.596	473.834
271.454	526.836
276.309	631.513
281.162	768.372
286.012	1128.92
290.86	1431.87
295.705	2207.88
300.547	3553.16
305.387	4791.64
310.225	3802.26
315.059	2712
319.892	3496.85
324.721	6728.81
329.549	12284.9
334.373	12447.1
339.195	6719.48
344.015	6601.08
348.832	6068.92
353.646	2466.02
358.458	978.404
363.267	640.08
368.074	678.086
372.878	1026.49
377.679	1532.26
382.478	1257.27
387.275	536.536
392.069	186.046
396.86	27.8013
401.649	58.3916
406.435	108.048
411.219	141.527
416	170.927
420.778	171.444
425.554	88.9187
430.327	26.9185
435.098	136.99
439.866	180.733
444.632	493.707
449.395	859.558
454.156	1675.75
458.914	3461.3
463.669	8041.22
468.422	17167.5
473.172	28495.2
477.92	22485.3
482.665	8833.83
487.408	4486.77
492.148	3845.15
496.885	4924.96
501.62	5455.23
506.352	2681.95
511.082	1111.14
515.809	720.803
520.533	570.937
525.255	934.569
529.975	2109.71
534.692	3660.46
539.406	3739.58
544.118	2119.7
548.827	2339.6
553.533	3539.49
558.237	3802.58
562.938	1806.95
567.637	724.164
572.333	263.576
577.027	114.487
581.718	131.275
586.407	328.851
591.093	578.2
595.776	1247.36
600.457	2396.39
605.135	4969.18
609.81	9253.74
614.483	12613.1
619.154	11015.2
623.822	10188
628.487	14156.6
633.15	20649.9
637.81	20938.9
642.467	12642.6
647.122	6430.98
651.774	3383.06
656.424	2083.82
661.071	1281.57
665.716	906.463
670.358	538.681
674.997	520.678
679.634	340.346
684.268	368.695
688.9	295.028
693.529	392.783
698.156	445.509
702.78	467.957
707.401	479.831
712.02	459.728
716.636	421.97
721.249	292.316
725.86	260.148
730.469	300.143
735.074	350.125
739.678	463.505
744.278	596.7
748.876	838.699
753.472	949.346
758.064	896.346
762.655	721.287
767.242	458.714
771.827	268.72
776.41	167.027
780.99	133.155
785.567	103.173
790.142	39.2544
794.714	17.1072
799.283	16.1623
803.85	15.7019
808.415	45.207
812.976	26.4383
817.535	28.016
822.092	59.1951
826.646	61.7296
831.197	19.8231
835.746	39.9476
840.292	56.3907
844.836	38.3511
849.377	17.4913
853.915	33.5142
858.451	31.0061
862.984	44.045
867.515	31.5983
872.043	41.8229
876.568	96.4136
881.091	55.2861
885.611	47.8344
890.129	58.0286
894.644	89.7647
899.156	78.8638
903.666	132.435
908.173	144.588
912.678	114.507
917.18	151.943
921.679	167.66
926.176	144.907
930.67	198.061
935.162	183.921
939.651	209.254
944.137	143.552
948.621	161.78
953.102	162.154
957.581	106.204
962.057	62.6589
966.53	92.9316
971.001	152.063
975.469	117.764
979.935	79.908
984.398	86.2428
988.859	100.251
993.316	97.473
997.772	100.114
1002.22	49.8159
1006.67	60.2259
1011.12	115.766
1015.57	63.1265
1020.01	43.7026
1024.45	74.1565
1028.88	65.5486
1033.32	63.0371
1037.75	112.775
1042.18	73.7981
1046.61	47.4739
1051.03	50.6773
1055.45	121.757
1059.87	36.3713
1064.29	57.1242
1068.7	50.6439
1073.11	48.7808
1077.52	17.2566
1081.93	80.9922
1086.33	79.639
1090.73	50.043
1095.13	65.0775
1099.52	88.2629
1103.92	10.8126
1108.31	40.6847
1112.69	40.337
1117.08	35.1112
1121.46	53.5299
1125.84	50.1191
1130.22	31.8227
1134.59	41.5281
1138.96	116.134
1143.33	120.617
1147.7	142.292
1152.06	55.1963
1156.43	127.227
1160.79	25.8898
1165.14	52.6045
1169.49	51.8789
1173.85	30.6915
1178.19	74.3077
1182.54	70.0873
1186.88	36.1125
1191.22	6.82251
1195.56	12.5918
1199.9	37.9727
1204.23	21.7899
1208.56	62.9651
1212.89	28.598
1217.21	89.271
1221.54	36.1456
1225.86	88.6193
1230.17	31.041
1234.49	20.9571
1238.8	40.7863
1243.11	57.4242
1247.41	15.3636
1251.72	56.6237
1256.02	19.7842
1260.32	68.215
1264.62	40.4424
1268.91	82.6979
1273.2	18.9734
1277.49	75.3088
1281.78	60.6825
1286.06	48.132
1290.34	23.5095
1294.62	33.3555
1298.89	43.8543
1303.16	28.788
1307.44	74.3414
1311.7	50.9467
1315.97	51.3552
1320.23	85.8608
1324.49	51.5707
1328.75	66.2412
1333	28.9246
1337.25	35.6068
1341.5	10.3218
1345.75	48.3636
1349.99	56.9849
1354.24	27.7604
1358.47	41.5576
1362.71	1.62195
1366.94	36.2239
1371.18	34.0981
1375.4	3.98828
1379.63	43.9777
1383.85	28.9778
1388.08	69.9896
1392.29	58.0227
1396.51	36.0845
1400.72	106.714
1404.93	54.4529
1409.14	25.2118
1413.35	76.4334
1417.55	8.2041
1421.75	26.9805
1425.94	32.148
1430.14	65.1951
1434.33	72.0205
1438.52	96.9315
1442.71	40.9121
1446.89	67.3951
1451.07	14.5175
1455.25	77.0177
1459.43	58.6659
1463.6	87.4064
1467.77	62.9796
1471.94	60.4546
1476.11	45.3565
1480.27	58.9783
1484.43	49.5765
1488.59	70.1239
1492.74	78.0131
1496.9	22.5472
1501.05	77.1384
1505.2	68.7858
1509.34	77.4644
1513.48	83.3942
1517.62	40.4282
1521.76	84.218
1525.9	18.4645
1530.03	79.0698
1534.16	45.8289
1538.28	26.8391
1542.41	61.2413
1546.53	69.6465
1550.65	11.7808
1554.77	66.5237
1558.88	13.6995
