Measurement: Raman, 514 nm, depolarized, Raman Data Processed
Mineral: Baddeleyite
Rruff sample: R060078
Ideal chemistry: Zr^4+^O_2_
Locality: Wetloo mine, Mogok, Burma
Source: Marcus Origlieri
Description: Dark brown fragment
Measured chemistry: (Zr_0.99_Hf_0.01_)_Î£=1_O_2_
Pin_id: L00612
Orientation: Laser parallel to (1 0 1). Fiducial mark perpendicular to laser is parallel to b [0 1 0]
Raman shift (cm-1)	intensity
51.431	0
56.387	114.393
61.341	114.017
66.292	49.78
71.241	130.942
76.187	244.262
81.131	510.952
86.072	885.933
91.012	1894.46
95.948	4342.83
100.883	8089.22
105.815	12590.3
110.744	5402.25
115.671	2560.66
120.596	2065.85
125.519	1839.07
130.439	1513.42
135.356	1411.99
140.271	1496.76
145.184	1458.43
150.094	1402.26
155.002	1554.32
159.908	1788.81
164.811	2836.9
169.711	5547.33
174.61	9549.29
179.505	18109.9
184.399	13484.1
189.29	15115.9
194.178	22104.3
199.064	6077.76
203.948	3394.86
208.829	2516.51
213.708	2772.53
218.585	4131.91
223.459	6511.1
228.33	3702.94
233.199	1575.04
238.066	1262.08
242.93	1214.25
247.792	1281.07
252.651	1365.65
257.508	1345.42
262.363	1470.41
267.215	1319.45
272.064	1319.96
276.912	1557.65
281.756	1897.46
286.598	2463.11
291.438	3005.94
296.276	3688.34
301.111	4491.99
305.943	5757.81
310.773	5807.66
315.601	4852.36
320.426	5663.81
325.248	9952.99
330.068	16473.9
334.886	23423.5
339.701	13207.7
344.514	8832.66
349.324	9277.74
354.132	4983.12
358.938	2140.84
363.741	1498.86
368.541	1998.97
373.339	4119.13
378.135	7663.27
382.928	8821.36
387.718	5597.35
392.506	2071.22
397.292	760.926
402.075	39.4541
406.856	254.741
411.634	395.335
416.41	317.273
421.183	385.8
425.954	221.607
430.722	39.3608
435.488	299.57
440.251	496.489
445.012	988.157
449.77	1771.6
454.526	3159.76
459.28	6373.66
464.03	13780.3
468.779	29857.7
473.525	53599.9
478.268	57325.8
483.009	25611.6
487.747	10647
492.483	6241.31
497.217	5126.34
501.948	5129.13
506.676	3466.67
511.402	1850.96
516.125	1254.99
520.846	1210.76
525.565	1731.3
530.281	3231.69
534.994	6024.09
539.705	8364.53
544.413	6139.33
549.119	6212.01
553.822	10108
558.523	13489.8
563.222	8870.05
567.917	3801.99
572.611	1604.68
577.302	758.892
581.99	304.605
586.676	79.519
591.359	187.584
596.04	465.756
600.718	1299.01
605.394	2799.34
610.067	4844.73
614.737	6245.19
619.406	5135.7
624.071	3246.24
628.734	2809.79
633.395	3435.34
638.053	3788.9
642.708	2459.4
647.361	985.856
652.012	474.237
656.66	137.531
661.305	44.7236
665.948	32.8926
670.588	51.27
675.226	75.3735
679.861	278.839
684.494	424.601
689.124	506.743
693.752	937.006
698.377	1260.25
702.999	1674.07
707.619	1910.14
712.237	1742.17
716.852	1380.08
721.464	987.91
726.074	633.485
730.681	562.049
735.286	558.229
739.888	515.454
744.488	660.842
749.085	794.559
753.68	940.276
758.272	801.132
762.861	771.794
767.448	518.523
772.033	448.043
776.614	276.909
781.194	214.715
785.77	179.38
790.345	56.9321
794.916	57.667
799.485	7.03174
804.052	14.9507
808.616	86.5337
813.177	25.1587
817.736	73.2949
822.292	37.0815
826.846	19.6186
831.397	53.4863
835.945	9.0791
840.491	14.604
845.035	27.9395
849.576	30.4902
854.114	45.5232
858.65	118.933
863.183	118.207
867.713	126.709
872.241	239.53
876.767	203.687
881.29	204.131
885.81	166.947
890.328	167.936
894.843	229.527
899.356	269.018
903.866	202.913
908.373	250.307
912.878	282.573
917.38	351.466
921.88	364.785
926.377	292.356
930.872	307.893
935.364	345.473
939.853	340.697
944.34	313.484
948.824	313.15
953.306	315.197
957.785	219.751
962.261	238.746
966.735	189.546
971.207	135.677
975.675	139.544
980.141	220.637
984.605	278.041
989.066	116.84
993.524	219.825
997.98	196.858
1002.43	159.754
1006.88	151.744
1011.33	159.17
1015.78	186.308
1020.22	225.42
1024.66	156.753
1029.1	188.489
1033.53	137.725
1037.97	163.742
1042.4	180.905
1046.82	103.942
1051.25	181.422
1055.67	100.381
1060.09	96.0615
1064.51	107.568
1068.92	44.979
1073.33	49.1897
1077.74	59.7793
1082.15	126.29
1086.55	102.549
1090.95	53.2515
1095.35	107.9
1099.75	101.973
1104.14	33.074
1108.53	31.3191
1112.92	65.3601
1117.31	29.6511
1121.69	80.9067
1126.07	23.6252
1130.45	63.2495
1134.82	24.8616
1139.19	42.3684
1143.57	106.852
1147.93	149.284
1152.3	94.6025
1156.66	14.9815
1161.02	18.9922
1165.38	54.561
1169.73	4.45044
1174.08	54.4907
1178.43	31.6941
1182.78	25.7395
1187.12	20.6213
1191.46	19.0967
1195.8	54.189
1200.14	136.732
1204.47	158.573
1208.8	55.6851
1213.13	10.7351
1217.46	99.5881
1221.78	172.479
1226.1	137.616
1230.42	136.13
1234.73	64.2273
1239.04	123.103
1243.35	89.019
1247.66	42.2117
1251.97	31.5461
1256.27	33.5264
1260.57	117.726
1264.86	152.832
1269.16	95.0154
1273.45	95.6553
1277.74	127.305
1282.03	65.9612
1286.31	94.4727
1290.59	68.9888
1294.87	68.6055
1299.14	53.2871
1303.42	88.5603
1307.69	53.5144
1311.95	31.2283
1316.22	128.387
1320.48	69.126
1324.74	46.8391
1329	27.6453
1333.26	31.4805
1337.51	9.82275
1341.76	52.5855
1346	33.6711
1350.25	6.94922
1354.49	48.7629
1358.73	10.552
1362.96	20.1077
1367.2	126.793
1371.43	20.5095
1375.66	35.1831
1379.88	36.9595
1384.11	94.6077
1388.33	55.3623
1392.54	60.1948
1396.76	144.984
1400.97	64.8435
1405.18	93.6055
1409.39	108.466
1413.59	93.53
1417.8	84.3748
1421.99	71.124
1426.19	7.80078
1430.38	41.4795
1434.58	115.12
1438.77	69.7637
1442.95	43.5464
1447.13	43.6267
1451.32	41.1035
1455.49	145.299
1459.67	83.7319
1463.84	72.4097
1468.01	108.785
1472.18	34.0207
1476.35	17.2459
1480.51	111.443
1484.67	37.6118
1488.83	75.7495
1492.98	107.899
1497.13	21.9482
1501.28	105.22
1505.43	120.95
1509.57	83.0393
1513.71	2.07935
1517.85	118.151
1521.99	14.259
1526.12	93.5774
1530.25	86.6367
1534.38	74.9341
1538.5	87.4277
1542.62	82.6863
1546.74	74.2673
1550.86	98.6113
1554.98	214.881
1559.09	113.704
1563.2	75.3394
1567.31	103.028
