Measurement: Raman, 514 nm, depolarized, Raman Data Processed
Mineral: Baddeleyite
Rruff sample: R060078
Ideal chemistry: Zr^4+^O_2_
Locality: Wetloo mine, Mogok, Burma
Source: Marcus Origlieri
Description: Dark brown fragment
Measured chemistry: (Zr_0.99_Hf_0.01_)_Î£=1_O_2_
Pin_id: L01430
Orientation: Laser parallel to c* (0 0 1). Fiducial mark perpendicular to laser is parallel to a [1 0 0]
Raman shift (cm-1)	intensity
51.431	0
56.387	203.656
61.341	66.7391
66.292	86.3373
71.241	633.307
76.187	1636.06
81.131	2319.96
86.072	3346.72
91.012	6162.13
95.948	7637.78
100.883	14379
105.815	56063.5
110.744	16818.1
115.671	8659.05
120.596	5912.85
125.519	4792.64
130.439	4454.03
135.356	3833.96
140.271	4198.32
145.184	3062.41
150.094	3176.86
155.002	3221.38
159.908	3019.42
164.811	4768.6
169.711	6523.53
174.61	10402.3
179.505	42196.8
184.399	13390.2
189.29	14026.1
194.178	27551.7
199.064	8626.81
203.948	7390.83
208.829	3442.61
213.708	3186.01
218.585	3215.99
223.459	5379.65
228.33	3027.11
233.199	2017.71
238.066	1717.91
242.93	1661.25
247.792	1946.41
252.651	1887.12
257.508	2344.66
262.363	2532.39
267.215	1962.15
272.064	1890.96
276.912	2203.68
281.756	2546.48
286.598	3483.35
291.438	3966.32
296.276	4768.36
301.111	6150.23
305.943	10511.5
310.773	11856.2
315.601	6448.21
320.426	5233.26
325.248	6208.3
330.068	10217.3
334.886	17631.2
339.701	7527.91
344.514	7826.54
349.324	13984.8
354.132	5864.84
358.938	2289.87
363.741	1348.56
368.541	1382.85
373.339	2158.17
378.135	6751.89
382.928	6247.77
387.718	3081.73
392.506	1024.72
397.292	188.671
402.075	49.501
406.856	329.344
411.634	380.736
416.41	486.596
421.183	447.597
425.954	295.674
430.722	199.596
435.488	53.2534
440.251	75.1196
445.012	180.782
449.77	407.867
454.526	744.002
459.28	1436.59
464.03	2962.83
468.779	6846.71
473.525	17539.2
478.268	19306.4
483.009	6837.19
487.747	2903.63
492.483	2055.7
497.217	2792.37
501.948	4997.63
506.676	2689.46
511.402	1100.83
516.125	554.748
520.846	646.21
525.565	764.295
530.281	1306.03
534.994	2885.58
539.705	5006.07
544.413	2777.1
549.119	2117.18
553.822	3378.3
558.523	5129.02
563.222	3570.78
567.917	1666.15
572.611	901.087
577.302	452.656
581.99	362.593
586.676	345.377
591.359	394.099
596.04	1076.81
600.718	1912.49
605.394	4048.13
610.067	7350.72
614.737	11863.2
619.406	11610.7
624.071	9597.06
628.734	12825.3
633.395	23512.4
638.053	34514.4
642.708	23268.2
647.361	11009.8
652.012	5713.24
656.66	3351.49
661.305	2362.15
665.948	1512.37
670.588	1254.59
675.226	1070.76
679.861	1251.62
684.494	1133.15
689.124	1221.73
693.752	1610.97
698.377	1949.99
702.999	2392.64
707.619	2692.76
712.237	2384.24
716.852	1872.57
721.464	1314.47
726.074	819.676
730.681	638.225
735.286	603.068
739.888	626.227
744.488	737.4
749.085	1012.19
753.68	1073.84
758.272	976.443
762.861	845.923
767.448	636.452
772.033	383.265
776.614	295.382
781.194	216.684
785.77	258.092
790.345	117.33
794.916	39.373
799.485	7.09912
804.052	124.582
808.616	21.9868
813.177	141.277
817.736	133.951
822.292	30.084
826.846	22.4585
831.397	150.154
835.945	49.7358
840.491	9.2959
845.035	22.8252
849.576	67.5005
854.114	31.2339
858.65	60.481
863.183	185.596
867.713	139.547
872.241	187.89
876.767	180.165
881.29	270.84
885.81	137.769
890.328	191.927
894.843	353.313
899.356	318.96
903.866	296.872
908.373	358.078
912.878	507.563
917.38	526.324
921.88	523.358
926.377	450.674
930.872	408.272
935.364	645.352
939.853	459.672
944.34	473.141
948.824	576.445
953.306	408.838
957.785	420.728
962.261	345.028
966.735	407.599
971.207	363.701
975.675	348.02
980.141	314.498
984.605	439.655
989.066	441.575
993.524	527.24
997.98	353.832
1002.43	440.093
1006.88	482.952
1011.33	399.136
1015.78	422.622
1020.22	437.558
1024.66	368.427
1029.1	423.171
1033.53	433.381
1037.97	426.037
1042.4	384.775
1046.82	430.082
1051.25	435.237
1055.67	444.668
1060.09	326.725
1064.51	430.245
1068.92	347.964
1073.33	465.103
1077.74	457.882
1082.15	333.183
1086.55	280.006
1090.95	224.294
1095.35	267.982
1099.75	303.171
1104.14	322.882
1108.53	184.834
1112.92	250.467
1117.31	161.011
1121.69	266.089
1126.07	298.353
1130.45	241.041
1134.82	131.565
1139.19	141.883
1143.57	188.967
1147.93	56.8687
1152.3	89.9458
1156.66	92.3989
1161.02	110.43
1165.38	138.909
1169.73	37.4795
1174.08	130.354
1178.43	24.7944
1182.78	15.3979
1187.12	50.8428
1191.46	111.047
1195.8	7.30078
1200.14	8.5918
1204.47	51.9541
1208.8	17.521
1213.13	20.8281
1217.46	132.162
1221.78	83.6665
1226.1	242.848
1230.42	13.8213
1234.73	41.4756
1239.04	29.6841
1243.35	24.168
1247.66	69.8516
1251.97	85.8018
1256.27	31.2783
1260.57	150.526
1264.86	209.385
1269.16	36.7202
1273.45	136.793
1277.74	68.3569
1282.03	76.2788
1286.31	57.688
1290.59	10.9702
1294.87	57.0185
1299.14	61.7129
1303.42	112.807
1307.69	128.548
1311.95	58.0859
1316.22	111.798
1320.48	131.247
1324.74	104.243
1329	116.359
1333.26	39.3525
1337.51	26.2041
1341.76	61.2378
1346	120.427
1350.25	65.4233
1354.49	51.3565
1358.73	33.3945
1362.96	73.6577
1367.2	50.3828
1371.43	65.0356
1375.66	142.601
1379.88	45.748
1384.11	149
1388.33	130.399
1392.54	103.802
1396.76	117.351
1400.97	131.675
1405.18	138.334
1409.39	154.889
1413.59	81.8027
1417.8	40.0493
1421.99	102.182
1426.19	41.9253
1430.38	161.894
1434.58	139.685
1438.77	5.67383
1442.95	101.293
1447.13	61.1733
1451.32	68.8135
1455.49	103.552
1459.67	31.4053
1463.84	27.2998
1468.01	4.05566
1472.18	112.585
1476.35	92.355
1480.51	68.1494
1484.67	64.3125
1488.83	133.491
1492.98	31.1006
1497.13	65.8467
1501.28	97.3467
1505.43	66.4853
1509.57	108.749
1513.71	10.0942
1517.85	47.2778
1521.99	103.858
1526.12	45.7666
1530.25	95.5068
1534.38	114.011
1538.5	99.6875
1542.62	97.2827
