Measurement: Raman, 514 nm, depolarized, Raman Data Processed
Mineral: Barrerite
Rruff sample: R050135
Ideal chemistry: Na_2_(Al_2_Si_7_)O_18_6H_2_O
Locality: Kuiu Island, Alaska, USA
Source: Ben Norton
Description: Colorless laminar crystals
Measured chemistry: (Na_4.49_K_1.30_Ca_1.23_[box]_0.98_)_Σ=8_(Si_27.75_Al_8.25_)O_72_·19H_2_O
Pin_id: M00229
Orientation: Laser parallel to -a* (-1 0 0). Fiducial mark perpendicular to laser is parallel to b [0 1 0]
Raman shift (cm-1)	intensity
141.323	0
145.48	0.381
149.635	118.156
153.788	297.221
157.939	716.969
162.088	988.355
166.235	1011.86
170.38	1205.82
174.523	1159.19
178.664	973.285
182.803	685.77
186.94	323.84
191.076	139.439
195.209	5.583
199.34	9.983
203.47	37.739
207.597	5.842
211.722	243.608
215.846	561.6
219.967	936.717
224.087	1352.04
228.204	1792.91
232.32	1906.71
236.434	1932.21
240.545	1623.2
244.655	1093.7
248.763	787.462
252.869	588.302
256.973	435.924
261.075	351.485
265.175	267.014
269.273	403.355
273.369	390.922
277.463	709.451
281.556	957.968
285.646	1246.06
289.734	1103.59
293.821	850.559
297.905	607.195
301.988	623.521
306.069	629.884
310.147	596.067
314.224	907.787
318.299	1041.59
322.372	1247.02
326.443	1145.16
330.512	1295.74
334.579	1287.28
338.645	1368.96
342.708	1164.28
346.769	1364.57
350.829	1407.31
354.887	1404.58
358.942	1372.98
362.996	1498.79
367.048	1825.3
371.098	2355.26
375.146	2977.72
379.192	3804.79
383.236	4706.48
387.279	5637.12
391.319	6938.78
395.358	8847.35
399.394	11478.7
403.429	15193.9
407.462	19496
411.493	23453.1
415.522	24306.7
419.549	21425.9
423.575	16778
427.598	13168
431.619	10374.2
435.639	8281.25
439.657	6738.15
443.673	5927.92
447.687	5569.61
451.699	5730.83
455.709	6321.11
459.717	7839.26
463.724	8585.6
467.728	7531.07
471.731	5926.71
475.732	4263.25
479.731	3500.71
483.728	3427.56
487.723	3813.78
491.716	5099.4
495.708	7734.52
499.697	11169.2
503.685	10333.7
507.671	6708.2
511.655	3492.71
515.637	1967.32
519.617	1182.62
523.596	667.96
527.572	324.873
531.547	331.862
535.52	69.177
539.491	14.633
543.46	16.18
547.427	119.992
551.393	55.221
555.356	61.676
559.318	59.248
563.278	67.897
567.236	175.795
571.192	24.689
575.147	35.302
579.099	35.342
583.05	34.902
586.999	134.522
590.946	223.273
594.891	441.01
598.834	398.967
602.776	586.574
606.715	973.448
610.653	1220.22
614.589	1546.35
618.523	1592.13
622.456	1897.6
626.386	1572.77
630.315	1637.61
634.242	1362.12
638.167	1056.29
642.09	860.113
646.012	783.589
649.931	816.723
653.849	609.517
657.765	491.975
661.679	324.099
665.592	455.926
669.502	307.834
673.411	199.624
677.318	311.581
681.223	214.596
685.126	186.618
689.028	106.994
692.927	174.513
696.825	173.422
700.721	178.014
704.616	326.823
708.508	275.558
712.399	378.241
716.288	379.538
720.175	206.354
724.06	337.256
727.944	298.779
731.825	392.061
735.705	212.863
739.584	198.516
743.46	289.972
747.334	392.394
751.207	186.247
755.078	204.714
758.947	337.298
762.815	450.163
766.68	555.363
770.544	567.119
774.406	478.577
778.267	339.757
782.125	540.259
785.982	750.438
789.837	856.875
793.69	769.84
797.542	829.064
801.391	908.021
805.239	726.627
809.085	603.403
812.93	593.038
816.772	452.035
820.613	176.612
824.452	183.075
828.29	98.832
832.125	124.641
835.959	99.442
839.791	167.147
843.621	5.598
847.45	101.513
851.277	99.617
855.102	61.673
858.925	83.873
862.746	104.115
866.566	38.709
870.384	8.531
874.2	233.914
878.015	34.387
881.828	33.264
885.639	88.473
889.448	38.201
893.256	30.121
897.061	4.77
900.865	42.121
904.668	163.109
908.468	83.885
912.267	5.184
916.064	165.607
919.86	25.988
923.653	194.844
927.445	116.924
931.236	117.221
935.024	177.42
938.811	207.533
942.596	187.566
946.379	427.531
950.161	97.432
953.94	167.268
957.719	7.051
961.495	66.775
965.27	136.459
969.043	156.076
972.814	145.291
976.583	94.338
980.351	32.748
984.117	41.08
987.882	327.779
991.644	322.432
995.405	369.533
999.165	484.779
1002.92	483.223
1006.68	408.951
1010.43	678.355
1014.18	687.045
1017.93	664.85
1021.68	622.793
1025.43	663.65
1029.18	591.156
1032.92	789.104
1036.66	759.666
1040.4	759.85
1044.14	739.947
1047.88	799.127
1051.62	839.471
1055.35	758.908
1059.08	595.004
1062.81	916.709
1066.54	989.352
1070.27	878.467
1073.99	561.32
1077.72	643.977
1081.44	816.744
1085.16	1080.19
1088.88	1383.97
1092.59	1428.31
1096.31	1382.33
1100.02	1466.46
1103.73	1580.65
1107.44	1974.88
1111.15	2009.31
1114.86	2113.85
1118.57	2316.64
1122.27	2515.45
1125.97	3180.31
1129.67	2755.26
1133.37	2591.98
1137.07	2839.2
1140.76	3105.99
1144.45	3291.58
1148.15	3369.31
1151.84	3098.02
1155.53	2924.99
1159.21	3024.64
1162.9	2943.72
1166.58	3029.86
1170.26	2765.41
1173.94	2710.34
1177.62	2452.66
1181.3	2190.11
1184.97	2019.65
1188.65	1707.66
1192.32	1532.05
1195.99	1247.41
1199.66	1077.01
1203.33	979.23
1206.99	847.816
1210.65	586.713
1214.32	334.592
1217.98	552.322
1221.64	509.15
1225.29	436.102
1228.95	526.031
1232.6	562.832
1236.26	461.418
1239.91	168.137
1243.56	323.732
1247.2	231.744
1250.85	247.061
1254.49	253.229
1258.13	559.07
1261.78	577.961
1265.41	433.123
1269.05	307.625
1272.69	262.979
1276.32	7.531
1279.95	91.236
1283.59	104.477
1287.21	288.242
1290.84	150.027
1294.47	101.439
1298.09	392.98
1301.72	6.58
1305.34	127.297
1308.96	58.928
1312.58	241.158
1316.19	74.125
1319.81	112.254
1323.42	148.066
1327.03	223.297
1330.64	338.004
1334.25	242.135
1337.86	135.596
1341.46	131.545
1345.07	29.301
1348.67	72.41
1352.27	133.672
1355.87	354.637
1359.46	245.701
1363.06	389.307
1366.65	259.551
1370.25	78.676
1373.84	93.555
1377.43	117.859
1381.02	172.857
1384.6	353.65
1388.18	234.09
1391.77	473.184
1395.35	942.619
1398.93	529.801
1402.51	724.17
1406.08	586.896
1409.66	596.139
1413.23	160.592
1416.8	121.211
1420.37	173.916
1423.94	232.744
1427.51	387.172
1431.08	503.525
1434.64	509.145
1438.2	639.863
1441.76	632.863
1445.32	529.625
1448.88	423.096
1452.43	419.123
1455.99	319.529
1459.54	418.99
1463.09	318.512
1466.64	453.996
1470.19	798.248
1473.74	819.576
1477.28	775.746
1480.83	677.701
1484.37	496.797
1487.91	516.291
1491.45	176.736
1494.98	108.805
1498.52	23.758
1502.05	37.453
1505.59	65.775
1509.12	112.547
1512.65	182.625
1516.17	0
