Measurement: Raman, 514 nm, depolarized, Raman Data Processed
Mineral: Barrerite
Rruff sample: R050135
Ideal chemistry: Na_2_(Al_2_Si_7_)O_18_6H_2_O
Locality: Kuiu Island, Alaska, USA
Source: Ben Norton
Description: Colorless laminar crystals
Measured chemistry: (Na_4.49_K_1.30_Ca_1.23_[box]_0.98_)_Σ=8_(Si_27.75_Al_8.25_)O_72_·19H_2_O
Pin_id: M00182
Orientation: Laser parallel to c* (0 0 1). Fiducial mark perpendicular to laser is parallel to -a [-1 0 0]
Raman shift (cm-1)	intensity
135.777	0
139.937	95.514
144.094	530.729
148.25	910.544
152.403	1897.16
156.555	2601.34
160.705	2807.63
164.853	2379.28
168.998	1716.9
173.142	1372.73
177.284	993.006
181.424	671.167
185.562	699.479
189.698	602.607
193.831	492.173
197.963	251.131
202.093	208.007
206.221	134.305
210.347	90.524
214.472	94.389
218.594	60.785
222.714	73.604
226.832	32.845
230.948	90.776
235.063	143.953
239.175	38.043
243.286	67.621
247.394	212.151
251.501	165.05
255.605	45.876
259.708	264.301
263.808	200.039
267.907	33.286
272.004	85.24
276.099	64.827
280.192	64.688
284.283	26.745
288.372	130.51
292.459	286.252
296.544	270.983
300.627	418.751
304.709	670.098
308.788	1177.68
312.865	1360.64
316.941	1568.69
321.015	1781.75
325.086	1929.69
329.156	1712.2
333.224	1499.58
337.29	1561.98
341.354	1379.53
345.416	1310.99
349.476	1425.88
353.534	1454.88
357.591	1759.97
361.645	1990.56
365.698	2067.44
369.748	2569.04
373.797	3307.41
377.844	3938.83
381.889	4735.29
385.932	5476.78
389.973	6521.75
394.012	7640.54
398.049	9006.18
402.084	11047.5
406.118	14279.6
410.15	16422.7
414.179	17618.4
418.207	16131.8
422.233	13986.5
426.257	10988.2
430.279	8858.47
434.299	6888.51
438.318	5756.74
442.334	4886.63
446.349	4170.9
450.361	4018.68
454.372	4529.24
458.381	5180.35
462.388	5672.85
466.394	5580.13
470.397	4854.79
474.398	3921.69
478.398	3457.75
482.396	3283.03
486.391	3937.6
490.385	5151.52
494.377	7724.85
498.368	11077.7
502.356	12390
506.342	9151.93
510.327	5224.22
514.31	3026.18
518.291	1698.52
522.27	1330.9
526.247	963.898
530.222	691.587
534.196	404.097
538.167	217.147
542.137	165.003
546.105	198.781
550.071	41.369
554.035	65.815
557.998	38.386
561.958	16.625
565.917	20.023
569.874	4.232
573.829	31.684
577.782	58.22
581.733	94.092
585.683	34.08
589.63	22.38
593.576	19.341
597.52	171.169
601.462	363.19
605.402	495.313
609.341	647.436
613.277	929.582
617.212	1171.7
621.145	1093.73
625.076	1125.65
629.006	1127.43
632.933	1079.05
636.859	900.514
640.783	741.882
644.705	623.109
648.625	554.196
652.543	625.155
656.46	485.982
660.375	426.682
664.288	67.279
668.199	157.79
672.108	178.165
676.016	28.389
679.921	8.445
683.825	20.99
687.727	49.158
691.628	70.771
695.526	9.793
699.423	21.395
703.318	48.749
707.211	65.764
711.102	98.451
714.992	84.886
718.879	113.74
722.765	51.936
726.649	22.529
730.532	38.086
734.412	378.73
738.291	220.518
742.168	154.756
746.043	209.58
749.916	355.829
753.788	462.452
757.658	528.13
761.526	323.76
765.392	399.147
769.257	612.467
773.119	707.443
776.98	932.642
780.839	1037.37
784.697	1241.59
788.552	1525.59
792.406	1762.89
796.258	1826.63
800.108	1929.59
803.957	2044.96
807.804	2115.5
811.649	2017.76
815.492	1311.51
819.333	1157.04
823.173	698.308
827.011	369.153
830.847	258.497
834.681	178.063
838.514	215.326
842.345	230.612
846.174	139.317
850.001	25.987
853.827	169.979
857.651	223.571
861.473	25.344
865.293	223.268
869.112	87.156
872.928	48.927
876.744	114.763
880.557	242.063
884.369	98.763
888.178	34.864
891.987	11.11
895.793	222.571
899.598	16.376
903.401	10.478
907.202	64.764
911.001	140.576
914.799	75.722
918.595	119.279
922.389	175.37
926.182	39.882
929.972	254.246
933.761	78.47
937.549	32.566
941.334	96.543
945.118	40.387
948.9	164.053
952.681	117.621
956.459	1.092
960.236	124.463
964.012	7.75
967.785	10.934
971.557	294.002
975.327	216.957
979.095	239.857
982.862	282.721
986.627	95.426
990.39	187.668
994.152	369.959
997.912	510.854
1001.67	621.629
1005.43	472.338
1009.18	545.48
1012.93	467.006
1016.68	651.357
1020.43	791.553
1024.18	774.088
1027.93	742.896
1031.67	734.277
1035.42	642.248
1039.16	714.734
1042.9	860.9
1046.63	838.611
1050.37	944.299
1054.11	806.619
1057.84	985.738
1061.57	794.869
1065.3	728.893
1069.03	835.453
1072.75	859.709
1076.47	843.752
1080.2	868.098
1083.92	862.305
1087.64	1016.97
1091.36	1132.69
1095.07	1304.31
1098.79	1429.4
1102.5	1675.18
1106.21	1739.93
1109.92	1775.57
1113.62	2440.82
1117.33	2064.85
1121.04	2060.48
1124.74	2567.03
1128.44	2743.33
1132.14	2399.87
1135.83	2346.21
1139.53	2212.47
1143.22	2119.05
1146.92	2563.78
1150.61	2423.05
1154.3	2357.72
1157.98	2381.01
1161.67	2341.91
1165.35	1778.9
1169.04	1746.07
1172.72	1669.37
1176.4	1758.99
1180.07	1809.39
1183.75	1737.33
1187.42	1581.56
1191.1	1451.25
1194.77	1030.39
1198.44	993.631
1202.1	626.756
1205.77	564.236
1209.43	550.617
1213.1	627.977
1216.76	504.803
1220.42	274.086
1224.07	280.609
1227.73	204.506
1231.38	181.02
1235.04	203.467
1238.69	642.375
1242.34	396.875
1245.99	461.768
1249.63	297.615
1253.28	262.881
1256.92	247.758
1260.56	194.691
1264.2	50.975
1267.84	143.205
1271.48	507.125
1275.11	421.738
1278.74	244.453
1282.38	276.52
1286.01	127.475
1289.63	102.174
1293.26	97.729
1296.89	87.631
1300.51	56.67
1304.13	364.838
1307.75	102.227
1311.37	271.248
1314.99	105.43
1318.6	151.113
1322.22	33.797
1325.83	30.623
1329.44	4.506
1333.05	67.863
1336.66	160.602
1340.26	202.738
1343.87	204.262
1347.47	355.199
1351.07	225.68
1354.67	115.771
1358.27	85.508
1361.86	46.479
1365.46	76.713
1369.05	364.92
1372.64	226.352
1376.23	266.619
1379.82	255.43
1383.41	394.393
1386.99	453.209
1390.57	77.482
1394.16	123.865
1397.74	278.701
1401.32	254.102
1404.89	337.857
1408.47	382.221
1412.04	610.955
1415.61	676.842
1419.18	476.568
1422.75	390.662
1426.32	297.492
1429.89	378.92
1433.45	294.494
1437.01	204.691
1440.58	350.312
1444.13	527.314
1447.69	637.84
1451.25	544.043
1454.81	503.324
1458.36	462.893
1461.91	544.295
1465.46	351.238
1469.01	235.119
1472.56	373.439
1476.1	310.633
1479.64	456.477
1483.19	286.02
1486.73	325.186
1490.27	716.059
1493.81	639.5
1497.34	535.371
1500.88	424.727
1504.41	339.311
1507.94	81.168
1511.47	36.133
