Measurement: Raman, 514 nm, depolarized, Raman Data Processed
Mineral: Barrerite
Rruff sample: R050135
Ideal chemistry: Na_2_(Al_2_Si_7_)O_18_6H_2_O
Locality: Kuiu Island, Alaska, USA
Source: Ben Norton
Description: Colorless laminar crystals
Measured chemistry: (Na_4.49_K_1.30_Ca_1.23_[box]_0.98_)_Σ=8_(Si_27.75_Al_8.25_)O_72_·19H_2_O
Pin_id: L00222
Orientation: Laser parallel to b* (0 1 0). Fiducial mark perpendicular to laser is parallel to c [0 0 1]
Raman shift (cm-1)	intensity
120.508	0
124.675	261.341
128.84	607.168
133.003	738.818
137.164	786.68
141.323	937.852
145.48	1059.17
149.635	1097.02
153.788	1159.22
157.939	1049.08
162.088	987.27
166.235	736.803
170.38	506.546
174.523	414.815
178.664	296.13
182.803	233.817
186.94	290.066
191.076	75.104
195.209	31.677
199.34	16.648
203.47	80.487
207.597	65.279
211.722	60.393
215.846	4.87
219.967	81.182
224.087	112.356
228.204	79.803
232.32	61.351
236.434	58.388
240.545	74.545
244.655	32.531
248.763	79.44
252.869	33.731
256.973	66.847
261.075	160.217
265.175	27.293
269.273	10.357
273.369	81.188
277.463	188.236
281.556	245.266
285.646	171.453
289.734	210.705
293.821	161.572
297.905	153.186
301.988	55.055
306.069	46.934
310.147	228.662
314.224	270.137
318.299	81.277
322.372	172.082
326.443	352.574
330.512	212.5
334.579	232.027
338.645	191.043
342.708	209.514
346.769	377.436
350.829	324.975
354.887	212.346
358.942	219.684
362.996	337.127
367.048	484.01
371.098	505.584
375.146	734.84
379.192	776.832
383.236	1039.61
387.279	1253.64
391.319	1281.56
395.358	1725.13
399.394	2259.02
403.429	3225.61
407.462	4205.16
411.493	4516.54
415.522	4121.56
419.549	3285.61
423.575	2612.89
427.598	1790.91
431.619	1447.44
435.639	1254.5
439.657	1251.96
443.673	969.266
447.687	966.502
451.699	893.65
455.709	1160.68
459.717	1247.56
463.724	994.297
467.728	930.879
471.731	717.307
475.732	623.578
479.731	509.701
483.728	525.672
487.723	1021.5
491.716	1747.18
495.708	2762.73
499.697	2818.14
503.685	1923.43
507.671	1178.59
511.655	705.039
515.637	421.709
519.617	288.104
523.596	82.951
527.572	225.002
531.547	110.824
535.52	116.043
539.491	17.678
543.46	35.174
547.427	399.732
551.393	95.371
555.356	18.338
559.318	127.133
563.278	46.721
567.236	51.777
571.192	302.07
575.147	134.537
579.099	162.084
583.05	196.297
586.999	138.039
590.946	199.613
594.891	191.029
598.834	342.266
602.776	303.324
606.715	404.209
610.653	424.963
614.589	505.525
618.523	533.668
622.456	546.121
626.386	666.189
630.315	656.086
634.242	515.809
638.167	605.369
642.09	504.76
646.012	413.992
649.931	183.066
653.849	401.975
657.765	310.717
661.679	429.301
665.592	127.84
669.502	36.256
673.411	98.018
677.318	212.516
681.223	251.518
685.126	89.205
689.028	116.244
692.927	17.352
696.825	22.816
700.721	113.268
704.616	102.652
708.508	240.947
712.399	147.855
716.288	13.559
720.175	258.146
724.06	230.869
727.944	136.051
731.825	61.678
735.705	17.998
739.584	246.232
743.46	269.678
747.334	253.506
751.207	177.115
755.078	320.826
758.947	314.516
762.815	388.105
766.68	353.619
770.544	327.021
774.406	200.336
778.267	625.869
782.125	669.016
785.982	632.082
789.837	672.115
793.69	588.521
797.542	611.375
801.391	625.447
805.239	568.178
809.085	550.85
812.93	483.848
816.772	576.412
820.613	362.793
824.452	323.729
828.29	427.426
832.125	34.248
835.959	208.686
839.791	453.186
843.621	414.238
847.45	504.537
851.277	431.5
855.102	141.688
858.925	313.314
862.746	424.633
866.566	385.424
870.384	606.998
874.2	109.646
878.015	19.965
881.828	345.111
885.639	282.557
889.448	283.203
893.256	116.232
897.061	119.326
900.865	192.477
904.668	55.707
908.468	479.027
912.267	452.418
916.064	225.879
919.86	299.371
923.653	142.977
927.445	126.662
931.236	250.412
935.024	144.248
938.811	328.262
942.596	17.633
946.379	106.557
950.161	39.154
953.94	285.205
957.719	249.674
961.495	304.256
965.27	28.949
969.043	276.236
972.814	78.363
976.583	173.104
980.351	157.957
984.117	432.869
987.882	196.361
991.644	171.484
995.405	56.768
999.165	92.203
1002.92	415.23
1006.68	359.486
1010.43	265.469
1014.18	171.621
1017.93	388.047
1021.68	468.936
1025.43	471.707
1029.18	457.986
1032.92	595.459
1036.66	153.096
1040.4	440.928
1044.14	572.736
1047.88	597.072
1051.62	695.305
1055.35	646.797
1059.08	585.395
1062.81	564.225
1066.54	183.137
1070.27	553.711
1073.99	422.949
1077.72	622.352
1081.44	729.621
1085.16	518.941
1088.88	408.887
1092.59	568.508
1096.31	298.84
1100.02	368.09
1103.73	738.824
1107.44	889.762
1111.15	830.91
1114.86	661.891
1118.57	561.422
1122.27	543.145
1125.97	554.203
1129.67	914.094
1133.37	780.547
1137.07	1100.49
1140.76	652.93
1144.45	275.715
1148.15	176.344
1151.84	599.441
1155.53	692.801
1159.21	556.43
1162.9	760.398
1166.58	692.77
1170.26	607.648
1173.94	351.832
1177.62	324.707
1181.3	117.414
1184.97	210.543
1188.65	503.949
1192.32	447.59
1195.99	191.461
1199.66	105.586
1203.33	139.973
1206.99	5.426
1210.65	149.309
1214.32	95.652
1217.98	409.688
1221.64	435.309
1225.29	291.566
1228.95	358.285
1232.6	445.676
1236.26	113.469
1239.91	261.73
1243.56	290.375
1247.2	559.156
1250.85	508.117
1254.49	487.578
1258.13	477.66
1261.78	718.414
1265.41	282.531
1269.05	134.141
1272.69	437.078
1276.32	759.875
1279.95	943.02
1283.59	474.797
1287.21	466.98
1290.84	419.562
1294.47	42.996
1298.09	45.93
1301.72	229.887
1305.34	429.301
1308.96	79.789
1312.58	728.078
1316.19	974.957
1319.81	723.859
1323.42	535.855
