Measurement: Raman, 514 nm, depolarized, Raman Data Processed
Mineral: Baryte
Rruff sample: R050375
Ideal chemistry: BaS^6+^O_4_
Locality: unknown
Source: Eugene Schlepp
Description: Pale green tabular crystals
Measured chemistry: Ba_1.00_SO_4_
Pin_id: L01098
Orientation: Laser parallel to -a* (-1 0 0). Fiducial mark perpendicular to laser is parallel to -b [0 -1 0]
Raman shift (cm-1)	intensity
51.431	0
56.387	15.9019
61.341	0.870972
66.292	181.885
71.241	733.049
76.187	1031.52
81.131	386.471
86.072	417.846
91.012	654.952
95.948	844.108
100.883	748.913
105.815	501.161
110.744	479.713
115.671	472.419
120.596	567.217
125.519	680.97
130.439	713.993
135.356	494.206
140.271	494.879
145.184	656.222
150.094	686.156
155.002	588.604
159.908	391.746
164.811	359.445
169.711	295.528
174.61	311.979
179.505	315.788
184.399	329.812
189.29	405.268
194.178	286.06
199.064	200.786
203.948	225.475
208.829	157.255
213.708	105.875
218.585	100.335
223.459	147.891
228.33	123.52
233.199	72.3613
238.066	149.973
242.93	131.614
247.792	93.8663
252.651	88.6705
257.508	132.139
262.363	108.555
267.215	54.3745
272.064	107.863
276.912	66.7234
281.756	73.8053
286.598	29.1005
291.438	21.6016
296.276	29.2986
301.111	71.022
305.943	28.2388
310.773	68.4525
315.601	23.8174
320.426	32.3344
325.248	25.9984
330.068	31.2129
334.886	36.6948
339.701	56.7201
344.514	25.8744
349.324	23.2382
354.132	2.83691
358.938	8.63586
363.741	11.0262
368.541	1.22278
373.339	27.5553
378.135	1.84363
382.928	37.2263
387.718	45.6995
392.506	0.036377
397.292	65.7065
402.075	30.6738
406.856	20.274
411.634	39.0215
416.41	13.1053
421.183	67.7812
425.954	133.5
430.722	279.627
435.488	585.083
440.251	1513.43
445.012	4310.44
449.77	7854.38
454.526	9071.19
459.28	4092.86
464.03	2151.64
468.779	708.505
473.525	342.467
478.268	169.445
483.009	102.507
487.747	90.63
492.483	57.8102
497.217	43.0411
501.948	5.29382
506.676	66.5208
511.402	47.3358
516.125	89.4821
520.846	25.7129
525.565	28.9159
530.281	5.4397
534.994	66.0369
539.705	57.5507
544.413	61.3899
549.119	68.3655
553.822	2.73682
558.523	2.73901
563.222	28.1244
567.917	47.2039
572.611	23.7084
577.302	33.6602
581.99	44.5095
586.676	110.293
591.359	95.394
596.04	148.447
600.718	276.959
605.394	789.998
610.067	2209.44
614.737	4140.63
619.406	4185.42
624.071	1983.3
628.734	1169.22
633.395	729.011
638.053	326.716
642.708	256.024
647.361	282.929
652.012	76.4751
656.66	104.221
661.305	56.6422
665.948	55.2305
670.588	39.0151
675.226	12.3928
679.861	48.2363
684.494	56.3262
689.124	47.5211
693.752	63.723
698.377	4.55261
702.999	5.9209
707.619	54.5402
712.237	69.6346
716.852	18.4888
721.464	43.4836
726.074	74.7429
730.681	16.9246
735.286	66.0232
739.888	10.9867
744.488	21.6023
749.085	40.1149
753.68	54.6575
758.272	54.0288
762.861	18.3339
767.448	27.5689
772.033	87.7393
776.614	49.8551
781.194	47.9144
785.77	65.9163
790.345	19.855
794.916	5.73425
799.485	69.5488
804.052	41.5527
808.616	60.706
813.177	47.9846
817.736	2.62256
822.292	21.1931
826.846	0.305786
831.397	21.9905
835.945	25.09
840.491	49.045
845.035	10.5499
849.576	26.2009
854.114	49.7191
858.65	25.4019
863.183	31.3229
867.713	4.52161
872.241	11.9263
876.767	75.4362
881.29	36.6132
885.81	10.1356
890.328	64.2485
894.843	62.7485
899.356	39.3047
903.866	45.3865
908.373	75.8909
912.878	48.9531
917.38	19.4053
921.88	48.7102
926.377	28.3462
930.872	26.6033
935.364	50.7483
939.853	47.4641
944.34	104.234
948.824	30.0393
953.306	135.415
957.785	112.812
962.261	312.71
966.735	482.5
971.207	653.421
975.675	1376.49
980.141	6720.29
984.605	36594.7
989.066	62574
993.524	9784.78
997.98	1832.61
1002.43	859.539
1006.88	458.465
1011.33	285.62
1015.78	217.443
1020.22	176.355
1024.66	65.2537
1029.1	58.3408
1033.53	39.5161
1037.97	82.7808
1042.4	15.8662
1046.82	28.9893
1051.25	41.093
1055.67	42.0566
1060.09	73.2915
1064.51	0.494873
1068.92	62.2517
1073.33	174.283
1077.74	520.463
1082.15	970.73
1086.55	836.085
1090.95	303.539
1095.35	339.106
1099.75	968.793
1104.14	1524.61
1108.53	814.519
1112.92	182.552
1117.31	104.709
1121.69	113.989
1126.07	94.3645
1130.45	75.8528
1134.82	258.454
1139.19	308.166
1143.57	318.025
1147.93	235.979
1152.3	69.1475
1156.66	109.25
1161.02	106.424
1165.38	141.67
1169.73	76.9834
1174.08	43.0571
1178.43	20.781
1182.78	16.4126
1187.12	48.8982
1191.46	29.022
1195.8	16.4658
1200.14	26.7537
1204.47	33.9912
1208.8	47.4941
1213.13	27.0415
1217.46	106.638
1221.78	21.2791
1226.1	69.2131
1230.42	68.9426
1234.73	86.0396
1239.04	51.3738
1243.35	15.1475
1247.66	44.241
1251.97	88.1321
1256.27	61.0471
1260.57	84.9778
1264.86	81.1387
1269.16	79.1174
1273.45	75.3542
1277.74	80.387
1282.03	64.3442
1286.31	99.2974
1290.59	99.2891
1294.87	21.3425
1299.14	45.2825
1303.42	44.2195
1307.69	26.939
1311.95	18.0571
1316.22	5.3772
1320.48	23.5569
1324.74	30.3955
1329	8.28442
1333.26	41.9783
1337.51	52.6362
1341.76	47.5986
1346	91.2615
1350.25	1.92407
1354.49	24.5356
1358.73	2.23242
1362.96	52.8044
1367.2	85.2488
1371.43	3.16089
1375.66	45.6052
1379.88	42.0957
1384.11	20.3967
1388.33	42.6492
1392.54	64.8711
1396.76	7.03662
1400.97	11.1055
1405.18	82.2056
1409.39	58.0273
1413.59	50.8921
1417.8	9.94116
1421.99	109.792
1426.19	59.9468
1430.38	107.955
1434.58	82.947
1438.77	18.9053
1442.95	69.6023
1447.13	91.7651
1451.32	68.519
1455.49	48.271
1459.67	49.7969
1463.84	88.9819
1468.01	96.991
1472.18	24.2002
1476.35	27.3843
1480.51	82.5229
1484.67	7.79834
1488.83	50.8227
1492.98	38.5554
1497.13	92.9932
1501.28	47.6072
1505.43	42.054
1509.57	59.7817
1513.71	58.469
1517.85	54.2566
1521.99	56.9412
1526.12	81.7234
1530.25	66.5889
1534.38	47.113
1538.5	23.2229
1542.62	70.1011
1546.74	81.8113
1550.86	82.3108
1554.98	84.3733
1559.09	32.7454
1563.2	58.4846
1567.31	73.8076
