Measurement: Raman, 514 nm, depolarized, Raman Data Processed
Mineral: Baryte
Rruff sample: R040036
Ideal chemistry: BaS^6+^O_4_
Locality: Cumbria County, England
Source: University of Arizona Mineral Museum
Description: Golden brown tabular crystal
Measured chemistry: Ba_1.00_S_1.00_O_4_; trace amounts of Pb
Pin_id: M00021
Orientation: Laser parallel to c* (0 0 1). Fiducial mark perpendicular to laser is parallel to -a [-1 0 0]
Raman shift (cm-1)	intensity
103.064	0
107.252	80.068
111.437	145.681
115.62	246.61
119.801	303.444
123.98	355.583
128.157	302.045
132.331	305.17
136.503	353.019
140.673	465.525
144.841	658.147
149.007	945.083
153.17	897.25
157.331	705.478
161.49	453.969
165.647	309.711
169.801	268.718
173.953	198.027
178.104	223.615
182.251	222.525
186.397	257.915
190.541	309.217
194.682	366.802
198.821	286.752
202.958	250.102
207.093	176.853
211.225	191.993
215.356	180
219.484	182.792
223.61	163.141
227.734	170.559
231.855	131.319
235.975	147.942
240.092	123.056
244.207	147.545
248.32	151.147
252.431	100.049
256.539	97.185
260.646	35.507
264.75	147.612
268.852	91.35
272.952	107.585
277.05	47.076
281.146	40.484
285.239	119.796
289.33	85.671
293.419	115.981
297.506	64.635
301.591	96.572
305.674	38.75
309.755	61.133
313.833	73.65
317.909	32.278
321.983	151.017
326.055	84.852
330.125	38.786
334.193	43.817
338.258	68.942
342.322	40.205
346.383	17.505
350.442	89.913
354.499	97.791
358.554	52.632
362.607	63.584
366.658	75.643
370.706	83.81
374.753	82.672
378.797	37.542
382.839	15.979
386.879	75.939
390.917	101.549
394.953	52.538
398.987	81.33
403.018	80.458
407.048	120.952
411.075	22.07
415.1	174.997
419.124	42.604
423.145	65.839
427.164	77.601
431.18	15.365
435.195	164.021
439.208	243.513
443.219	207.104
447.227	405.776
451.233	809.501
455.238	1819.28
459.24	2973.1
463.24	3491.98
467.238	5708.88
471.234	3073.82
475.228	895.767
479.22	393.738
483.21	338.73
487.197	177.725
491.183	113.779
495.166	78.844
499.148	56.788
503.127	92.907
507.104	56.028
511.08	81.439
515.053	101.621
519.024	73.745
522.993	83.875
526.96	59.705
530.925	18.88
534.888	16.945
538.848	86.263
542.807	107.864
546.764	60.369
550.718	21.538
554.671	37.595
558.622	116.883
562.57	70.622
566.516	7.611
570.461	28.627
574.403	107.416
578.344	28.833
582.282	49.186
586.218	40.958
590.152	10.12
594.084	73.525
598.014	67.974
601.943	91.36
605.869	55.512
609.793	284.618
613.715	295.451
617.635	685.861
621.553	1560.19
625.468	1182.66
629.382	875.939
633.294	1078.29
637.204	915.737
641.112	348.292
645.018	316.434
648.922	416.798
652.823	369.88
656.723	199.696
660.621	132.458
664.517	139.103
668.411	85.492
672.302	61.725
676.192	135.153
680.08	96.959
683.966	150.03
687.849	77.455
691.731	40.227
695.611	30.976
699.489	18.608
703.364	148.686
707.238	110.237
711.11	35.119
714.98	20.7
718.848	34.933
722.713	43.143
726.577	95.364
730.439	61.713
734.299	92.908
738.157	62.909
742.013	1.865
745.867	121.537
749.719	127.394
753.569	84.396
757.417	16.254
761.263	59.998
765.107	115.613
768.949	129.182
772.789	55.638
776.627	84.992
780.463	38.264
784.298	194.45
788.13	164.556
791.96	74.575
795.789	101.51
799.615	34.324
803.439	92.032
807.262	81.635
811.083	45.105
814.901	30.5
818.718	18.821
822.532	110.78
826.345	16.845
830.156	91.966
833.965	51.997
837.772	65.313
841.577	82.466
845.38	74.869
849.181	86.223
852.98	68.96
856.777	101.034
860.573	105.552
864.366	158.559
868.157	133.176
871.947	136.933
875.734	125.989
879.52	13.788
883.304	30.556
887.086	4.722
890.865	92.238
894.643	108.057
898.419	3.391
902.194	79.363
905.966	114.984
909.736	96.018
913.504	217.238
917.271	106.424
921.035	86.694
924.798	76.969
928.559	259.308
932.317	162.383
936.074	129.734
939.829	271.809
943.582	187.724
947.334	71.042
951.083	87.023
954.83	106.968
958.576	194.988
962.319	342.128
966.061	289.275
969.801	348.516
973.539	431.931
977.275	702.543
981.009	1073.11
984.741	2882.89
988.472	19279.9
992.2	32041.4
995.927	4263
999.651	1344.65
1003.37	642.371
1007.1	590.141
1010.81	470.987
1014.53	373.933
1018.25	172.035
1021.96	237.3
1025.67	193.748
1029.38	305.738
1033.09	315.122
1036.8	293.486
1040.5	196.143
1044.2	41.442
1047.9	50.084
1051.6	37.057
1055.3	39.837
1058.99	203.739
1062.68	110.79
1066.38	43.934
1070.07	69.815
1073.75	48.638
1077.44	3.125
1081.12	156.854
1084.8	238.6
1088.48	341.704
1092.16	19.971
1095.84	51.099
1099.51	45.261
1103.18	148.32
1106.86	307.413
1110.52	84.609
1114.19	49.642
1117.86	56.723
1121.52	9.001
1125.18	23.393
1128.84	156.649
1132.5	260.061
1136.15	504.296
1139.81	1067.76
1143.46	1722.1
1147.11	1640.4
1150.76	833.712
1154.41	258.713
1158.05	189.72
1161.7	64.681
1165.34	149.05
1168.98	214.046
1172.61	1.669
1176.25	80.781
1179.88	165.589
1183.52	128.311
1187.15	1.027
1190.78	113.317
1194.4	107.05
1198.03	88.679
1201.65	200.679
1205.27	112.842
1208.89	44.396
1212.51	35.591
1216.13	114.845
1219.74	270.724
1223.35	369.486
1226.96	306.32
1230.57	255.06
1234.18	335.181
1237.78	234.435
1241.39	173.702
1244.99	212.85
1248.59	191.905
1252.19	390.838
1255.78	269.969
1259.38	298.747
1262.97	247.508
1266.56	135.333
1270.15	163.308
1273.74	115.321
1277.32	163.224
1280.91	320.487
1284.49	47.48
1288.07	274.051
1291.65	240.368
1295.22	46.441
1298.8	21.873
1302.37	66.568
1305.94	50.793
1309.51	34.847
1313.08	138.451
1316.65	291.174
1320.21	264.144
1323.77	135.271
1327.34	67.443
1330.89	207.566
1334.45	11.064
1338.01	55.175
1341.56	165.653
1345.11	186.307
1348.66	236.46
1352.21	176.058
1355.76	213.189
1359.3	242.742
1362.85	152.532
1366.39	56.636
1369.93	87.222
1373.46	152.634
1377	177.546
1380.54	322.382
1384.07	377.033
1387.6	331.278
1391.13	304.531
1394.65	337.403
1398.18	189.118
1401.7	123.516
1405.23	202.104
1408.75	170.352
1412.27	24.154
1415.78	112.271
1419.3	257.737
1422.81	280.496
1426.32	322.07
1429.83	399.142
1433.34	323.028
1436.85	242.658
1440.35	360.478
1443.86	325.949
1447.36	419.327
1450.86	352.451
1454.36	394.01
1457.85	562.669
1461.35	472.003
1464.84	447.288
1468.33	574.816
1471.82	551.37
1475.31	377.645
1478.8	327.92
1482.28	68.417
1485.76	238.63
1489.24	90.445
1492.72	134.579
1496.2	91.418
1499.67	271.489
1503.15	207.004
1506.62	361.284
1510.09	120.38
