Measurement: Raman, 514 nm, depolarized, Raman Data Processed
Mineral: Baryte
Rruff sample: R040036
Ideal chemistry: BaS^6+^O_4_
Locality: Cumbria County, England
Source: University of Arizona Mineral Museum
Description: Golden brown tabular crystal
Measured chemistry: Ba_1.00_S_1.00_O_4_; trace amounts of Pb
Pin_id: M00028
Orientation: Laser parallel to -a* (-1 0 0). Fiducial mark perpendicular to laser is parallel to -b [0 -1 0]
Raman shift (cm-1)	intensity
51.231	0
55.447	131.272
59.66	313.259
63.871	438.593
68.079	394.986
72.286	343.106
76.49	153.69
80.692	335.539
84.891	69.747
89.089	16.458
93.284	48.33
97.477	20.323
101.667	198.144
105.856	197.526
110.042	58.489
114.226	78.925
118.408	9.653
122.588	122.151
126.765	98.454
130.94	189.774
135.113	320.817
139.284	135.463
143.452	93.249
147.618	121.979
151.782	189.777
155.944	302.191
160.104	269.846
164.261	104.601
168.417	77.972
172.57	32.388
176.72	38.322
180.869	38.719
185.015	8.431
189.16	27.587
193.302	68.274
197.442	39.246
201.579	23.59
205.715	3.843
209.848	16.758
213.979	36.406
218.108	21.222
222.235	9.944
226.359	4.599
230.482	3.1
234.602	43.65
238.72	59.758
242.836	38.496
246.949	75.193
251.061	65.934
255.17	68.096
259.277	62.749
263.382	40.606
267.485	53.387
271.586	51.611
275.684	56.806
279.781	66.717
283.875	52.353
287.967	69.344
292.057	64.354
296.144	61.728
300.23	114.52
304.313	111.207
308.395	144.24
312.474	119.032
316.551	106.414
320.625	77.89
324.698	73.086
328.769	79.885
332.837	69.501
336.903	89.222
340.968	80.652
345.03	84.178
349.089	55.971
353.147	85.751
357.203	59.861
361.256	72.457
365.308	71.548
369.357	54.305
373.404	92.193
377.449	74.326
381.492	78.38
385.533	95.164
389.571	119.726
393.608	133.43
397.642	135.454
401.675	107.778
405.705	143.819
409.733	130.841
413.759	129.809
417.783	99.25
421.804	106.357
425.824	73.255
429.842	79.039
433.857	93.83
437.871	155.909
441.882	246.824
445.891	401.696
449.898	865.604
453.903	2133.56
457.906	4974.6
461.907	4210.98
465.906	1935.5
469.902	1180.12
473.897	496.725
477.889	196.264
481.88	140.638
485.868	72.88
489.854	34.088
493.839	50.344
497.821	22.64
501.801	16.016
505.779	8.491
509.755	24.897
513.729	10.653
517.7	9.845
521.67	32.831
525.638	34.664
529.603	12.525
533.567	4.38
537.528	14.732
541.488	4.036
545.445	36.472
549.4	41.071
553.354	25.573
557.305	2.22
561.254	42.854
565.201	13.839
569.146	12.944
573.089	3.269
577.03	3.765
580.969	8.384
584.906	13.685
588.841	5.524
592.774	11.399
596.705	33.631
600.633	48.494
604.56	65.38
608.485	116.223
612.408	243.818
616.328	742.638
620.247	2088.49
624.163	2602.65
628.078	1314.03
631.991	767.923
635.901	608.613
639.81	346.586
643.716	170.542
647.621	129.547
651.523	155.669
655.424	100.037
659.322	41.484
663.218	22.199
667.113	19.007
671.005	5.717
674.896	45.618
678.784	47.048
682.671	3.93
686.555	28.125
690.437	76.176
694.318	55.644
698.196	16.199
702.073	9.02
705.947	17.862
709.82	19.611
713.69	30.209
717.558	26.578
721.425	5.783
725.289	2.323
729.152	27.865
733.013	18.95
736.871	38.653
740.728	15.122
744.582	16.464
748.435	8.614
752.286	20.866
756.134	30.144
759.981	26.612
763.826	3.452
767.668	2.351
771.509	18.678
775.348	45.656
779.185	15.573
783.02	34.429
786.853	15.756
790.684	19.985
794.513	27.666
798.34	14.302
802.165	3.902
805.988	16.462
809.809	26.982
813.628	16.452
817.446	18.869
821.261	14.761
825.074	5.498
828.886	34.753
832.695	15.951
836.503	14.07
840.309	18.152
844.112	16.173
847.914	5.835
851.714	20.1
855.512	33.972
859.308	20.751
863.102	10.407
866.894	21.732
870.684	21.076
874.472	15.13
878.258	15.345
882.043	20.82
885.825	33.522
889.606	6.623
893.384	11.467
897.161	79.647
900.936	91.08
904.709	98.422
908.479	81.913
912.248	22.371
916.016	52.272
919.781	72.067
923.544	113.074
927.305	69.602
931.065	101.743
934.822	80.75
938.578	79.824
942.332	70.767
946.083	112.19
949.833	118.519
953.581	98.68
957.328	108.077
961.072	137.086
964.814	182.948
968.555	351.589
972.293	403.645
976.03	563.432
979.765	879.821
983.497	2105.71
987.228	9006.17
990.958	48619.3
994.685	10584.7
998.41	2328.55
1002.13	977.996
1005.86	571.5
1009.58	446.984
1013.29	345.671
1017.01	358.698
1020.72	336.747
1024.43	405.433
1028.14	468.879
1031.85	589.979
1035.56	425.769
1039.27	253.279
1042.97	154.24
1046.67	101.547
1050.37	73.947
1054.07	59.321
1057.76	65.261
1061.45	92.23
1065.15	71.239
1068.84	93.358
1072.52	104.749
1076.21	122.562
1079.89	233.715
1083.58	485.943
1087.26	576.242
1090.94	300.58
1094.61	183.956
1098.29	246.352
1101.96	450.775
1105.63	794.223
1109.3	483.694
1112.97	221.194
1116.63	105.725
1120.3	87.281
1123.96	109.918
1127.62	58.547
1131.28	13.184
1134.94	36.853
1138.59	166.57
1142.24	216.314
1145.89	183.262
1149.55	151.127
1153.19	99.961
1156.84	48.354
1160.48	14.177
1164.12	45.561
1167.76	106.518
1171.4	81.431
1175.04	70.473
1178.67	22.493
1182.31	43.542
1185.94	23.358
1189.57	14.141
1193.19	50.222
1196.82	43.229
1200.44	5.822
1204.07	26.613
1207.69	51.428
1211.3	63.227
1214.92	6.975
1218.54	13.205
1222.15	32.082
1225.76	26.478
1229.37	79.566
1232.98	70.312
1236.58	51.398
1240.19	88.095
1243.79	49.886
1247.39	61.143
1250.99	44.797
1254.59	25.479
1258.18	24.244
1261.77	80.872
1265.37	107.508
1268.95	68.186
1272.54	92.752
1276.13	73.247
1279.71	35.855
1283.3	28.53
1286.88	27.055
1290.46	61.47
1294.03	35.981
1297.61	22.483
1301.18	36.815
1304.75	35.452
1308.32	19.51
1311.89	35.593
1315.46	16.563
1319.02	31.544
1322.59	48.526
1326.15	62.351
1329.71	61.047
1333.27	39.251
1336.82	56.22
1340.38	4.761
1343.93	44.359
1347.48	15.92
1351.03	17.484
1354.58	43.917
1358.12	25.921
1361.66	59.567
1365.21	61.024
1368.75	25.718
1372.29	50.717
1375.82	36.818
1379.36	41.075
1382.89	47.287
1386.42	1.458
1389.95	58.588
1393.48	43.613
1397.01	49.66
1400.53	91.654
1404.05	71.368
1407.57	83.446
1411.09	56.064
1414.61	65.527
1418.13	12.815
1421.64	7.003
1425.15	18.833
1428.66	44.73
1432.17	51.084
1435.68	90.545
1439.19	83.876
1442.69	96.655
1446.19	62.518
1449.69	65.863
1453.19	35.026
1456.69	16.159
1460.18	6.844
1463.68	31.35
1467.17	52.928
1470.66	72.673
1474.15	52.645
1477.63	82.106
1481.12	81.646
1484.6	36.953
1488.08	62.723
1491.56	47.047
1495.04	30.82
1498.52	41.177
1501.99	1.279
1505.46	38.563
1508.94	0.318
1512.4	19.663
