Measurement: Raman, 514 nm, depolarized, Raman Data Processed
Mineral: Baryte
Rruff sample: R050342
Ideal chemistry: BaS^6+^O_4_
Locality: Palos Verdes, Los Angeles County, California, USA
Source: California Institute of Technology
Description: Light brown fragment
Measured chemistry: Ba_1.00_S_1.00_O_4_
Pin_id: L00807
Orientation: Laser parallel to b* (0 1 0). Fiducial mark perpendicular to laser is parallel to c [0 0 1]
Raman shift (cm-1)	intensity
93.48	0
98.416	145.361
103.349	171.637
108.28	115.002
113.208	85.5474
118.134	92.9326
123.058	281.298
127.979	191.907
132.898	248.162
137.814	323.136
142.728	334.405
147.639	413.886
152.549	404.681
157.455	329.606
162.359	438.722
167.261	266.783
172.161	319.219
177.058	371.316
181.952	397.185
186.845	628.078
191.734	584.531
196.622	461.767
201.507	269.764
206.389	101.497
211.269	150.767
216.147	235.842
221.022	298.153
225.895	261.453
230.765	103.819
235.633	146.361
240.498	218.53
245.361	207.373
250.222	236.62
255.08	70.0752
259.936	272.878
264.789	135.978
269.64	48.458
274.488	12.5986
279.334	139.245
284.178	93.5596
289.019	76.458
293.857	159.877
298.693	101.754
303.527	43.0498
308.358	88.7705
313.187	20.8379
318.013	67.2246
322.837	88.9248
327.659	28.0762
332.478	66.1924
337.294	77.7324
342.108	67.5312
346.92	30.0449
351.729	132.825
356.535	22.7637
361.34	9.65332
366.141	29.9316
370.94	23.084
375.737	92.2324
380.531	97.4082
385.323	12.1875
390.113	98.5977
394.9	38.1836
399.684	13.5576
404.466	72.8731
409.245	76.1084
414.022	37.041
418.797	55.2539
423.569	236.393
428.338	184.751
433.105	358.452
437.87	477.361
442.632	1587
447.391	3300.19
452.149	6125.55
456.903	4903.72
461.655	3838.93
466.405	1817.2
471.152	530.858
475.897	271.24
480.639	172.665
485.378	166.144
490.116	136.568
494.85	210.12
499.582	174.88
504.312	98.083
509.039	89.5117
513.764	188.381
518.486	10.8867
523.206	71.1709
527.923	170.117
532.638	84.959
537.35	121.873
542.059	1.48047
546.766	9.60156
551.471	1.92578
556.173	93.0059
560.873	18.6631
565.57	0.333984
570.264	132.913
574.957	148.37
579.646	70.1885
584.333	94.9658
589.018	8.27148
593.7	184.734
598.379	93.5791
603.056	221.026
607.73	248.091
612.402	528.688
617.072	1061.05
621.739	620.656
626.403	572.821
631.065	847.592
635.724	507.081
640.381	555.334
645.035	864.483
649.687	1028.71
654.336	312.316
658.983	81.3467
663.627	155.352
668.268	194.301
672.907	59.7529
677.544	151.15
682.178	60.6328
686.809	117.725
691.438	49.3066
696.065	145.227
700.688	137.858
705.31	151.488
709.929	51.9004
714.545	139.395
719.158	60.3887
723.77	181.875
728.378	103.365
732.984	126.025
737.588	75.3818
742.189	19.084
746.787	112.013
751.383	155.026
755.976	1.36719
760.567	78.207
765.155	147.781
769.741	102.16
774.324	239.435
778.904	137.981
783.482	66.4736
788.058	60.6846
792.631	38.3125
797.201	151.144
801.769	45.7832
806.334	179.145
810.897	151.403
815.457	82.7227
820.014	128.597
824.569	200.736
829.122	124.847
833.671	82.8623
838.219	89.0625
842.763	106.605
847.306	82.2852
851.845	154.268
856.382	22.208
860.917	207.082
865.448	167.706
869.978	148.279
874.505	88.3555
879.029	65.9766
883.55	28.541
888.069	6.41602
892.586	114.338
897.1	68.7578
901.611	95.6953
906.12	185.393
910.626	26.3555
915.129	153.219
919.63	130.836
924.129	58.5645
928.625	57.7676
933.118	52.2383
937.609	165.195
942.097	220.103
946.582	11.3438
951.065	56.6992
955.546	122.514
960.023	170.375
964.499	205.172
968.971	324.4
973.441	838.32
977.909	1335.12
982.374	8251.07
986.836	30238.1
991.295	23638.3
995.753	2394.42
1000.21	844.035
1004.66	367.512
1009.11	319.463
1013.55	312.795
1018	53.6172
1022.44	193.127
1026.88	120.961
1031.32	139.445
1035.75	5.76953
1040.18	11.7754
1044.61	63.7539
1049.04	89.959
1053.46	15.4258
1057.88	31.9922
1062.3	242.83
1066.71	88.2519
1071.13	181.584
1075.54	98.1504
1079.94	93.0254
1084.35	115.588
1088.75	93.4102
1093.15	153.834
1097.55	312.791
1101.94	731.709
1106.34	715.402
1110.73	384.076
1115.11	258.725
1119.5	93.2246
1123.88	416.553
1128.26	391.129
1132.63	914.695
1137.01	1802.25
1141.38	2242.13
1145.75	1809.07
1150.12	1006.85
1154.48	322.883
1158.84	448.998
1163.2	675.219
1167.55	1210.62
1171.91	660.519
1176.26	310.742
1180.61	231.353
1184.95	106.33
1189.29	131.748
1193.63	1.96094
1197.97	84.0488
1202.31	91.1836
1206.64	28.4922
1210.97	118.84
1215.29	148.629
1219.62	72.3184
1223.94	54.5312
1228.26	108.756
1232.57	192.992
1236.89	208.281
1241.2	165.615
1245.51	122.875
1249.81	10.9277
1254.12	140.381
1258.42	62.623
1262.72	164.133
1267.01	149.219
1271.3	49.3086
1275.59	285.879
1279.88	289.203
1284.17	184.346
1288.45	267.779
1292.73	39.2324
1297.01	251.315
1301.28	248.85
1305.55	263.893
1309.82	240.506
1314.09	69.6055
1318.35	158.131
1322.61	219.43
1326.87	151.801
1331.13	186.076
1335.38	422.455
1339.63	120.17
1343.88	269.287
1348.12	225.977
1352.37	143.613
1356.61	185.529
1360.85	102.117
1365.08	223.732
1369.31	100.246
1373.54	112.152
1377.77	162.803
1381.99	278.092
1386.22	20.2344
1390.43	222.25
1394.65	130.713
1398.87	55.7188
1403.08	10.375
1407.29	123.836
1411.49	9.32422
1415.69	13.4355
1419.89	147.746
1424.09	180.619
1428.29	43.4297
1432.48	352.385
1436.67	201.475
1440.86	121.045
1445.04	265.379
1449.23	150.502
1453.4	138.199
1457.58	41.3906
1461.76	100.219
1465.93	407.201
1470.1	84.9941
1474.26	114.834
1478.43	247.611
1482.59	159.205
1486.75	366.67
1490.9	283.674
1495.06	317.016
1499.21	380.016
1503.35	203.545
1507.5	229.611
1511.64	199.603
1515.78	282.732
1519.92	187.457
1524.05	228.596
1528.18	326.727
1532.31	136.285
1536.44	204.342
1540.56	101.326
1544.69	443.893
1548.8	142.486
1552.92	20.2422
1557.03	146.516
1561.14	273.932
1565.25	157.863
1569.36	39.1758
