Measurement: Raman, 514 nm, depolarized, Raman Data Processed
Mineral: Baryte
Rruff sample: R050335
Ideal chemistry: BaS^6+^O_4_
Locality: Bullion Mountains, San Bernardino County, California, USA
Source: California Institute of Technology
Description: Colorless cleavage fragment
Measured chemistry: (Ba_0.95_Sr_0.05_)_Î£=1_S_1.00_O_4_
Pin_id: L01894
Orientation: Laser parallel to -a* (-1 0 0). Fiducial mark perpendicular to laser is parallel to b [0 1 0]
Raman shift (cm-1)	intensity
93.48	0
98.416	140.981
103.349	62.8091
108.28	745.542
113.208	1187.64
118.134	123.534
123.058	179.252
127.979	439.914
132.898	532.366
137.814	1200.72
142.728	2819.88
147.639	2407.38
152.549	780.33
157.455	345.044
162.359	192.666
167.261	188.244
172.161	193.834
177.058	228.611
181.952	172.742
186.845	352.606
191.734	427.912
196.622	259.785
201.507	249.343
206.389	32.334
211.269	39.7275
216.147	80.3384
221.022	8.10303
225.895	55.3799
230.765	105.151
235.633	10.9121
240.498	50.8599
245.361	15.3359
250.222	30.9336
255.08	36.9961
259.936	165.719
264.789	40.0112
269.64	64.1621
274.488	26.8838
279.334	83.2666
284.178	82.6313
289.019	141.112
293.857	21.7134
298.693	14.3545
303.527	70.999
308.358	48.3535
313.187	14.2398
318.013	0.271973
322.837	46.0947
327.659	26.4311
332.478	24.7036
337.294	90.9819
342.108	101.213
346.92	75.6602
351.729	94.2915
356.535	9.12549
361.34	45.919
366.141	60.8169
370.94	147.409
375.737	63.9399
380.531	153.114
385.323	62.8975
390.113	119.344
394.9	206.25
399.684	136.574
404.466	133.41
409.245	194.407
414.022	73.7349
418.797	65.1963
423.569	105.493
428.338	165.29
433.105	314.728
437.87	676.491
442.632	1865.73
447.391	4466.41
452.149	8081.07
456.903	5145.24
461.655	2804.1
466.405	941.581
471.152	427.157
475.897	224.715
480.639	158.285
485.378	97.3584
490.116	87.9883
494.85	82.604
499.582	74.375
504.312	151.889
509.039	168.554
513.764	206.404
518.486	196.522
523.206	207.17
527.923	174.9
532.638	105.544
537.35	24.6343
542.059	93.3188
546.766	10.0024
551.471	23.6387
556.173	101.611
560.873	62.3999
565.57	59.3672
570.264	69.9595
574.957	1.57861
579.646	35.7827
584.333	118.152
589.018	145.535
593.7	24.1499
598.379	138.042
603.056	311.775
607.73	744.314
612.402	1731.68
617.072	3153.94
621.739	1678.32
626.403	847.559
631.065	810.917
635.724	707.601
640.381	730.018
645.035	708.558
649.687	624.956
654.336	323.331
658.983	169.286
663.627	142.753
668.268	118.723
672.907	82.8379
677.544	178.845
682.178	124.383
686.809	189.393
691.438	20.0752
696.065	72.4268
700.688	21.8281
705.31	94.5996
709.929	97.3486
714.545	109.674
719.158	180.654
723.77	193.975
728.378	83.0947
732.984	52.6538
737.588	57.8076
742.189	134.905
746.787	118.515
751.383	70.5928
755.976	124.244
760.567	150.073
765.155	17.7373
769.741	107.981
774.324	184.973
778.904	6.95019
783.482	113.604
788.058	171.355
792.631	99.6856
797.201	10.9883
801.769	23.3145
806.334	157.35
810.897	176.265
815.457	149.64
820.014	13.6104
824.569	30.8838
829.122	172.935
833.671	5.68359
838.219	16.4414
842.763	121.288
847.306	24.1025
851.845	65.8623
856.382	99.5488
860.917	64.084
865.448	63.4375
869.978	47.3662
874.505	137.015
879.029	80.7471
883.55	8.54492
888.069	124.405
892.586	12.2373
897.1	150.704
901.611	188.294
906.12	94.7441
910.626	41.8506
915.129	174.497
919.63	163.025
924.129	105.109
928.625	150.478
933.118	25.7627
937.609	75.5801
942.097	138.578
946.582	81.3838
951.065	43.1855
955.546	193.727
960.023	132.212
964.499	308.09
968.971	447.592
973.441	633.082
977.909	1489.84
982.374	8606.71
986.836	33068.1
991.295	25690
995.753	2680.16
1000.21	1008.41
1004.66	370.081
1009.11	206.073
1013.55	253.049
1018	168.206
1022.44	220.154
1026.88	171.084
1031.32	44.8945
1035.75	19.585
1040.18	36.5576
1044.61	152.644
1049.04	75.6113
1053.46	63.4082
1057.88	161.242
1062.3	47.4092
1066.71	94.5225
1071.13	193.388
1075.54	323.458
1079.94	723.07
1084.35	930.819
1088.75	749.807
1093.15	344.938
1097.55	448.948
1101.94	1038.51
1106.34	1144.74
1110.73	404.122
1115.11	340.484
1119.5	174.822
1123.88	328.294
1128.26	111.137
1132.63	381.596
1137.01	760.062
1141.38	676.557
1145.75	470.28
1150.12	217.861
1154.48	169.505
1158.84	109.163
1163.2	277.945
1167.55	445.271
1171.91	377.284
1176.26	246.49
1180.61	81.6367
1184.95	81.3066
1189.29	78.9053
1193.63	136.772
1197.97	167.882
1202.31	131.227
1206.64	82.3691
1210.97	16.8809
1215.29	56.0225
1219.62	129.253
1223.94	23.8008
1228.26	158.181
1232.57	121.347
1236.89	25.4307
1241.2	97.6699
1245.51	73.2197
1249.81	40.3398
1254.12	131.482
1258.42	97.2744
1262.72	187.225
1267.01	190.2
1271.3	131.551
1275.59	97.6377
1279.88	215.956
1284.17	112.232
1288.45	85.3965
1292.73	183.859
1297.01	225.301
1301.28	96.2539
1305.55	79.8125
1309.82	219.626
1314.09	81.5244
1318.35	103.119
1322.61	214.057
1326.87	16.832
1331.13	171.221
1335.38	76.9678
1339.63	203.643
1343.88	52.1641
1348.12	6.88281
1352.37	78.7393
1356.61	213.561
1360.85	214.477
1365.08	117.974
1369.31	104.698
1373.54	99.4424
1377.77	96.2969
1381.99	9.96777
1386.22	115.927
1390.43	253.688
1394.65	252.767
1398.87	168.283
1403.08	167.435
1407.29	126.8
1411.49	170.648
1415.69	2.85644
1419.89	152.555
1424.09	0.579102
1428.29	293.472
1432.48	309.397
1436.67	101.947
1440.86	268.976
1445.04	7.62891
1449.23	83.6201
1453.4	122.115
1457.58	157.374
1461.76	45.501
1465.93	100.452
1470.1	170.002
1474.26	121.414
1478.43	164.007
1482.59	91.4961
1486.75	118.976
1490.9	228.37
1495.06	107.585
1499.21	13.5625
1503.35	96.5654
1507.5	96.8789
1511.64	165.185
1515.78	285.546
1519.92	16.6016
1524.05	52.9473
1528.18	60.919
1532.31	138.09
1536.44	217.852
1540.56	105.783
1544.69	114.365
1548.8	109.264
1552.92	179.237
1557.03	72.3086
1561.14	222.741
1565.25	13.2715
1569.36	25.5801
