Measurement: Raman, 514 nm, depolarized, Raman Data Processed
Mineral: Baryte
Rruff sample: R040036
Ideal chemistry: BaS^6+^O_4_
Locality: Cumbria County, England
Source: University of Arizona Mineral Museum
Description: Golden brown tabular crystal
Measured chemistry: Ba_1.00_S_1.00_O_4_; trace amounts of Pb
Pin_id: M00019
Orientation: Laser parallel to b* (0 1 0). Fiducial mark perpendicular to laser is parallel to c [0 0 1]
Raman shift (cm-1)	intensity
51.231	0
55.447	60.205
59.66	125.426
63.871	186.849
68.079	126.216
72.286	41.88
76.49	31.429
80.692	205.294
84.891	100.854
89.089	58.051
93.284	181.749
97.477	584.846
101.667	593.253
105.856	660.892
110.042	416.092
114.226	341.464
118.408	297.942
122.588	308.536
126.765	322.272
130.94	243.094
135.113	271.975
139.284	237.961
143.452	234.011
147.618	211.016
151.782	205.862
155.944	331.768
160.104	432.007
164.261	340.922
168.417	203.386
172.57	176.727
176.72	180.547
180.869	152.559
185.015	178.625
189.16	262.61
193.302	479.536
197.442	646.373
201.579	356.446
205.715	195.327
209.848	124.3
213.979	64.193
218.108	93.758
222.235	77.931
226.359	78.247
230.482	85.554
234.602	95.439
238.72	60.169
242.836	49.835
246.949	113.392
251.061	69.571
255.17	47.631
259.277	26.203
263.382	32.361
267.485	1.545
271.586	13.272
275.684	35.922
279.781	16.133
283.875	22.35
287.967	10.569
292.057	39.794
296.144	62.023
300.23	41.254
304.313	2.487
308.395	0.719
312.474	47.946
316.551	12.168
320.625	6.391
324.698	48.612
328.769	39.775
332.837	4.079
336.903	22.053
340.968	16.246
345.03	26.368
349.089	5.132
353.147	14.961
357.203	23.048
361.256	37.133
365.308	3.193
369.357	4.249
373.404	35.308
377.449	34.346
381.492	7.494
385.533	18.508
389.571	34.54
393.608	21.932
397.642	51.912
401.675	23.909
405.705	51.968
409.733	55.043
413.759	9.099
417.783	6.856
421.804	73.509
425.824	33.456
429.842	74.397
433.857	76.249
437.871	140.031
441.882	285.107
445.891	507.665
449.898	1135.47
453.903	2925.49
457.906	7292.51
461.907	5496.52
465.906	1816.46
469.902	857.401
473.897	336.505
477.889	192.474
481.88	92.405
485.868	26.416
489.854	62.386
493.839	47.557
497.821	0.469
501.801	17.73
505.779	24.295
509.755	50.637
513.729	12.643
517.7	6.675
521.67	76.632
525.638	58.68
529.603	38.773
533.567	20.834
537.528	2.392
541.488	48.601
545.445	37.586
549.4	41.03
553.354	19.001
557.305	31.794
561.254	2.571
565.201	43.136
569.146	28.099
573.089	16.114
577.03	4.436
580.969	52.031
584.906	41.907
588.841	4.228
592.774	29.418
596.705	75.855
600.633	37.662
604.56	24.078
608.485	41.857
612.408	116.617
616.328	260.405
620.247	871.129
624.163	1213.92
628.078	551.793
631.991	649.494
635.901	1172.17
639.81	704.993
643.716	466.332
647.621	628.934
651.523	1342.23
655.424	1144.28
659.322	382.834
663.218	119.665
667.113	65.236
671.005	70.524
674.896	74.388
678.784	12.526
682.671	14.342
686.555	40.448
690.437	58.307
694.318	57.543
698.196	37.149
702.073	22.452
705.947	29.698
709.82	74.544
713.69	40.767
717.558	54.898
721.425	14.016
725.289	6.125
729.152	66.192
733.013	74.611
736.871	42.501
740.728	18.479
744.582	1.367
748.435	34.344
752.286	50.214
756.134	65.006
759.981	19.811
763.826	39.417
767.668	12.18
771.509	32.939
775.348	29.677
779.185	4.378
783.02	25.958
786.853	16.634
790.684	26.198
794.513	13.902
798.34	19.39
802.165	6.148
805.988	3.724
809.809	40.668
813.628	42.043
817.446	78.396
821.261	5.693
825.074	3.06
828.886	4.121
832.695	31.27
836.503	70.352
840.309	21.385
844.112	5.466
847.914	19.515
851.714	23.504
855.512	80.479
859.308	84.49
863.102	38.466
866.894	7.486
870.684	20.659
874.472	7.989
878.258	85.751
882.043	5.738
885.825	4.267
889.606	13.125
893.384	3.078
897.161	119.146
900.936	107.155
904.709	129.745
908.479	39.795
912.248	47.604
916.016	45.268
919.781	74.871
923.544	81.952
927.305	59.445
931.065	46.31
934.822	48.44
938.578	24.712
942.332	83.887
946.083	163.921
949.833	89.437
953.581	101.983
957.328	87.725
961.072	102.031
964.814	151.363
968.555	348.431
972.293	322.384
976.03	535.652
979.765	811.107
983.497	1871.94
987.228	7656.09
990.958	58587
994.685	13389.1
998.41	2559.46
1002.13	1051.18
1005.86	549.93
1009.58	407.728
1013.29	318.63
1017.01	265.605
1020.72	193.66
1024.43	169.768
1028.14	135.897
1031.85	88.098
1035.56	108.52
1039.27	153.042
1042.97	114.396
1046.67	96.805
1050.37	56.751
1054.07	25.262
1057.76	18.169
1061.45	2.461
1065.15	20.146
1068.84	95.911
1072.52	39.629
1076.21	13.398
1079.89	34.627
1083.58	7.417
1087.26	41.626
1090.94	115.717
1094.61	123.67
1098.29	193.876
1101.96	480.092
1105.63	983.348
1109.3	633.64
1112.97	223.966
1116.63	166.775
1120.3	148.201
1123.96	161.672
1127.62	199.332
1131.28	288.038
1134.94	684.688
1138.59	2004.31
1142.24	2564.02
1145.89	2563.83
1149.55	1591.74
1153.19	805.836
1156.84	459.923
1160.48	452.137
1164.12	633.118
1167.76	1209.2
1171.4	818.235
1175.04	382.789
1178.67	256.866
1182.31	109.752
1185.94	87.258
1189.57	31.066
1193.19	30.6
1196.82	102.248
1200.44	65.189
1204.07	109.559
1207.69	131.075
1211.3	122.006
1214.92	41.346
1218.54	66.668
1222.15	6.455
1225.76	86.209
1229.37	184.306
1232.98	95.077
1236.58	135.971
1240.19	138.539
1243.79	87.156
1247.39	113.6
1250.99	78.022
1254.59	47.708
1258.18	126.157
1261.77	116.591
1265.37	145.556
1268.95	142.743
1272.54	170.669
1276.13	163.762
1279.71	78.844
1283.3	38.106
1286.88	70.057
1290.46	33.849
1294.03	67.663
1297.61	97.253
1301.18	4.367
1304.75	1.242
1308.32	36.772
1311.89	16.704
1315.46	4.557
1319.02	43.313
1322.59	50.961
1326.15	110.49
1329.71	83.91
1333.27	85.213
1336.82	46.919
1340.38	49.01
1343.93	16.98
1347.48	15.009
1351.03	15.198
1354.58	82.533
1358.12	59.17
1361.66	136.825
1365.21	76.072
1368.75	55.009
1372.29	87.438
1375.82	75.311
1379.36	40.912
1382.89	35.483
1386.42	82.994
1389.95	106.793
1393.48	83.924
1397.01	132.86
1400.53	194.929
1404.05	123.037
1407.57	118.727
1411.09	129.99
1414.61	97.548
1418.13	47.244
1421.64	18.646
1425.15	44.155
1428.66	67.508
1432.17	81.717
1435.68	134.504
1439.19	219.748
1442.69	198.191
1446.19	183.781
1449.69	183.823
1453.19	152.006
1456.69	114.894
1460.18	66.163
1463.68	109.034
1467.17	105.4
1470.66	136.433
1474.15	161.927
1477.63	142.088
1481.12	229.47
1484.6	150.675
1488.08	69.978
1491.56	55.976
1495.04	33.831
1498.52	38.669
1501.99	23.064
1505.46	3.928
1508.94	24.731
1512.4	0
