Measurement: Raman, 514 nm, depolarized, Raman Data Processed
Mineral: Baryte
Rruff sample: R050335
Ideal chemistry: BaS^6+^O_4_
Locality: Bullion Mountains, San Bernardino County, California, USA
Source: California Institute of Technology
Description: Colorless cleavage fragment
Measured chemistry: (Ba_0.95_Sr_0.05_)_Î£=1_S_1.00_O_4_
Pin_id: M00253
Orientation: Laser parallel to -b* (0 -1 0). Fiducial mark perpendicular to laser is parallel to -c [0 0 -1]
Raman shift (cm-1)	intensity
93.48	0
98.416	96.4981
103.349	2.78857
108.28	167.352
113.208	153.018
118.134	90.3901
123.058	223.609
127.979	402.126
132.898	745.952
137.814	1403.22
142.728	2004.42
147.639	1428.08
152.549	859.218
157.455	563.834
162.359	462.583
167.261	300.251
172.161	251.004
177.058	225.816
181.952	380.307
186.845	478.644
191.734	564.341
196.622	491.24
201.507	301.658
206.389	146.666
211.269	130.267
216.147	241.544
221.022	166.265
225.895	163.425
230.765	69.52
235.633	98.0688
240.498	110.927
245.361	89.8799
250.222	153.394
255.08	99.0947
259.936	72.8897
264.789	40.1421
269.64	29.1387
274.488	43.4248
279.334	112.98
284.178	75.5288
289.019	86.9341
293.857	155.264
298.693	47.7876
303.527	65.5171
308.358	0.513184
313.187	62.6055
318.013	109.821
322.837	21.8662
327.659	13.4712
332.478	144.994
337.294	53.522
342.108	44.8608
346.92	26.0493
351.729	125.043
356.535	34.3389
361.34	72.4062
366.141	54.0938
370.94	29.1948
375.737	80.4819
380.531	14.8291
385.323	113.874
390.113	154.704
394.9	182.653
399.684	10.77
404.466	170.938
409.245	7.83594
414.022	197.988
418.797	172.065
423.569	146.427
428.338	102.833
433.105	140.281
437.87	544.519
442.632	1268.85
447.391	3519.62
452.149	6309.19
456.903	4939.14
461.655	1987.42
466.405	731.208
471.152	342.325
475.897	182.047
480.639	166.177
485.378	115.728
490.116	223.432
494.85	28.5234
499.582	11.3838
504.312	68.8057
509.039	165.394
513.764	153.484
518.486	32.1416
523.206	151.191
527.923	89.9668
532.638	90.3193
537.35	72.126
542.059	28.6494
546.766	166.213
551.471	18.6807
556.173	99.0986
560.873	70.4971
565.57	28.957
570.264	132.428
574.957	81.9775
579.646	65.6318
584.333	10.6035
589.018	66.7529
593.7	13.0332
598.379	130.098
603.056	259.396
607.73	403.6
612.402	700.741
617.072	1426.89
621.739	996.123
626.403	1147.74
631.065	1255.84
635.724	1008.25
640.381	1114.9
645.035	1290.35
649.687	1366.88
654.336	704.648
658.983	123.75
663.627	135.95
668.268	93.0225
672.907	75.376
677.544	82.6953
682.178	203.699
686.809	162.557
691.438	43.6309
696.065	63.9717
700.688	49.5996
705.31	91.6836
709.929	142.264
714.545	89.2744
719.158	205.542
723.77	119.724
728.378	113.014
732.984	81.7363
737.588	116.946
742.189	31.9189
746.787	216.696
751.383	110.659
755.976	83.1797
760.567	102.554
765.155	148.056
769.741	90.1289
774.324	133.691
778.904	25.9258
783.482	112.84
788.058	7.39941
792.631	57.1455
797.201	132.534
801.769	0.956055
806.334	0.564453
810.897	57.2109
815.457	148.99
820.014	203.498
824.569	88.4053
829.122	111.627
833.671	102.681
838.219	25.625
842.763	17.5762
847.306	109.966
851.845	74.2305
856.382	158.235
860.917	73.9775
865.448	61.916
869.978	98.7588
874.505	150.476
879.029	97.8262
883.55	0.267578
888.069	51.5195
892.586	176.611
897.1	63.0596
901.611	116.142
906.12	98.5068
910.626	28.4268
915.129	80.5488
919.63	136.775
924.129	172.782
928.625	184.943
933.118	127.061
937.609	32.5977
942.097	128.963
946.582	172.795
951.065	134.809
955.546	11.8145
960.023	207.833
964.499	192.401
968.971	429.249
973.441	685.473
977.909	1436.98
982.374	7254.54
986.836	29597.5
991.295	34444
995.753	3722.28
1000.21	1082.53
1004.66	589.924
1009.11	362.013
1013.55	293.321
1018	285.695
1022.44	204.16
1026.88	125.45
1031.32	121.022
1035.75	97.6025
1040.18	25.1689
1044.61	42.0908
1049.04	7.97949
1053.46	17.1953
1057.88	3.44531
1062.3	137.5
1066.71	60.9355
1071.13	49.4307
1075.54	240.568
1079.94	284.97
1084.35	393.83
1088.75	298.673
1093.15	236.377
1097.55	396.356
1101.94	733.236
1106.34	700.261
1110.73	389.284
1115.11	50.9824
1119.5	389.274
1123.88	152.919
1128.26	484.287
1132.63	805.725
1137.01	1891.09
1141.38	3048.34
1145.75	2686.83
1150.12	1472.38
1154.48	793.894
1158.84	580.167
1163.2	849.279
1167.55	1245.93
1171.91	867.494
1176.26	516.783
1180.61	180.148
1184.95	90.2773
1189.29	49.1582
1193.63	151.49
1197.97	189.393
1202.31	27.9541
1206.64	39.7656
1210.97	105.106
1215.29	6.51269
1219.62	76.1211
1223.94	182.41
1228.26	12.2285
1232.57	43.002
1236.89	213.43
1241.2	180.932
1245.51	77.6172
1249.81	315.121
1254.12	157.262
1258.42	49.1602
1262.72	391.002
1267.01	34.418
1271.3	108.344
1275.59	244.291
1279.88	101.809
1284.17	146.848
1288.45	146.752
1292.73	253.092
1297.01	233.209
1301.28	214.639
1305.55	118.812
1309.82	334.836
1314.09	291.01
1318.35	177.414
1322.61	51.3477
1326.87	15.0449
1331.13	255.941
1335.38	159.197
1339.63	68.0332
1343.88	39.6504
1348.12	127.908
1352.37	153.881
1356.61	36.6055
1360.85	110.697
1365.08	16.3184
1369.31	150.094
1373.54	46.9473
1377.77	376.06
1381.99	203.1
1386.22	204.076
1390.43	171.781
1394.65	12.4141
1398.87	81.332
1403.08	122.623
1407.29	226.275
1411.49	91.1992
1415.69	75.1348
1419.89	164.244
1424.09	59.1895
1428.29	79.3633
1432.48	143.147
1436.67	182.812
1440.86	82.3027
1445.04	156.266
1449.23	136.602
1453.4	206.582
1457.58	52.6055
1461.76	181.496
1465.93	31.7207
1470.1	241.606
1474.26	164.799
1478.43	198.547
1482.59	212.221
1486.75	170.26
1490.9	20.627
1495.06	321.5
1499.21	99.5234
1503.35	255.238
1507.5	36.0859
1511.64	229.592
1515.78	171.092
1519.92	203.068
1524.05	195.891
1528.18	252.428
1532.31	251.562
1536.44	142.41
1540.56	19.9453
1544.69	51.7461
1548.8	105.936
1552.92	214.898
1557.03	236.938
1561.14	239.547
1565.25	256.141
1569.36	148.84
