Measurement: Raman, 514 nm, depolarized, Raman Data Processed
Mineral: Baryte
Rruff sample: R050342
Ideal chemistry: BaS^6+^O_4_
Locality: Palos Verdes, Los Angeles County, California, USA
Source: California Institute of Technology
Description: Light brown fragment
Measured chemistry: Ba_1.00_S_1.00_O_4_
Pin_id: L01107
Orientation: Laser parallel to -a* (-1 0 0). Fiducial mark perpendicular to laser is parallel to b [0 1 0]
Raman shift (cm-1)	intensity
140.271	0
145.184	141.791
150.094	248.151
155.002	158.227
159.908	156.461
164.811	13.3979
169.711	121.701
174.61	116.492
179.505	121.442
184.399	136.065
189.29	117.098
194.178	166.091
199.064	158.139
203.948	99.418
208.829	111.982
213.708	205.714
218.585	32.4346
223.459	53.2188
228.33	24.8662
233.199	92.3223
238.066	55.2188
242.93	4.44434
247.792	74.4795
252.651	15.6065
257.508	135.162
262.363	133.76
267.215	222.914
272.064	92.4863
276.912	85.4297
281.756	165.5
286.598	99.6963
291.438	131.553
296.276	111.853
301.111	152.602
305.943	150.684
310.773	107.847
315.601	102.384
320.426	269.054
325.248	134.824
330.068	103.721
334.886	133.702
339.701	179.764
344.514	43.9082
349.324	114.075
354.132	14.542
358.938	108.72
363.741	70.0557
368.541	57.4463
373.339	102.195
378.135	5.67188
382.928	74.2129
387.718	89.3711
392.506	77.8564
397.292	48.209
402.075	106.69
406.856	85.7656
411.634	192.427
416.41	161.136
421.183	195.904
425.954	201.721
430.722	100.997
435.488	251.197
440.251	680.259
445.012	2045.38
449.77	4068.55
454.526	5451.81
459.28	2183.15
464.03	961.188
468.779	488.616
473.525	307.073
478.268	90.0664
483.009	203.922
487.747	142.488
492.483	18.1631
497.217	188.323
501.948	79.042
506.676	100.99
511.402	114.382
516.125	73.4307
520.846	78.2705
525.565	84.4014
530.281	5.13965
534.994	51.3887
539.705	33.6504
544.413	13.0996
549.119	38.9326
553.822	21.0225
558.523	193.023
563.222	78.9756
567.917	4.00488
572.611	209.786
577.302	258.508
581.99	48.6953
586.676	58.3721
591.359	184.439
596.04	203.573
600.718	232.458
605.394	451.559
610.067	1022.11
614.737	2368.67
619.406	2644.19
624.071	1343.93
628.734	845.702
633.395	322.358
638.053	278.603
642.708	57.9961
647.361	263.087
652.012	80.3203
656.66	118.721
661.305	60.4316
665.948	210.931
670.588	246.755
675.226	87.3603
679.861	220.051
684.494	161.225
689.124	94.5127
693.752	149.504
698.377	123.644
702.999	201.002
707.619	13.4473
712.237	98.9004
716.852	39.9893
721.464	132.263
726.074	100.069
730.681	115.067
735.286	117.281
739.888	102.329
744.488	149.491
749.085	175.356
753.68	114.974
758.272	266.603
762.861	149.199
767.448	295.244
772.033	73.4297
776.614	167.152
781.194	86.6182
785.77	8.42383
790.345	144.878
794.916	75.9228
799.485	117.462
804.052	167.821
808.616	184.899
813.177	90.5996
817.736	107.043
822.292	124.269
826.846	223.702
831.397	37.581
835.945	137.352
840.491	146.961
845.035	48.6914
849.576	96.6006
854.114	19.4082
858.65	152.141
863.183	38.8301
867.713	174.905
872.241	228.7
876.767	124.067
881.29	112.968
885.81	101.725
890.328	30.2617
894.843	41.5488
899.356	188.527
903.866	293.719
908.373	109.847
912.878	112.92
917.38	248.914
921.88	92.332
926.377	102.363
930.872	72.2031
935.364	115.84
939.853	143.857
944.34	370.672
948.824	90.2734
953.306	355.941
957.785	139.586
962.261	225.953
966.735	387.992
971.207	467.418
975.675	794.996
980.141	2619.45
984.605	13957.7
989.066	40245.3
993.524	5730.65
997.98	1066.43
1002.43	585.217
1006.88	296.199
1011.33	374.012
1015.78	264.435
1020.22	170.992
1024.66	160.391
1029.1	129.955
1033.53	59.457
1037.97	27.002
1042.4	60.291
1046.82	153.416
1051.25	39.8164
1055.67	322.455
1060.09	178.279
1064.51	232.148
1068.92	154.617
1073.33	59.2773
1077.74	345.709
1082.15	629.303
1086.55	670.938
1090.95	398.707
1095.35	200.16
1099.75	441.008
1104.14	978.434
1108.53	627.795
1112.92	313.107
1117.31	218.365
1121.69	48.3965
1126.07	229.742
1130.45	208.1
1134.82	62.1621
1139.19	173.447
1143.57	349.422
1147.93	153.363
1152.3	289.449
1156.66	188.502
1161.02	53.6406
1165.38	68.3945
1169.73	82.1602
1174.08	166.062
1178.43	146.818
1182.78	99.6211
1187.12	213.537
1191.46	84.8203
1195.8	156.158
1200.14	48.582
1204.47	24.75
1208.8	223.799
1213.13	115.959
1217.46	23.334
1221.78	32.6055
1226.1	17.8438
1230.42	134.863
1234.73	137.543
1239.04	147.353
1243.35	225.916
1247.66	122.125
1251.97	81.1231
1256.27	281.744
1260.57	157.773
1264.86	219.34
1269.16	315.381
1273.45	204.566
1277.74	36.9492
1282.03	39.8359
1286.31	110.809
1290.59	104.445
1294.87	143.076
1299.14	229.955
1303.42	217.496
1307.69	94.0098
1311.95	412.625
1316.22	287.152
1320.48	118.826
1324.74	243.213
1329	217.988
1333.26	170.166
1337.51	108.172
1341.76	102.549
1346	121.297
1350.25	169.852
1354.49	159.752
1358.73	76.6094
1362.96	43.6191
1367.2	381.481
1371.43	88.1777
1375.66	11.7676
1379.88	93.2285
1384.11	257.371
1388.33	183.707
1392.54	5.83594
1396.76	226.74
1400.97	1.25
1405.18	26.416
1409.39	174.449
1413.59	93.1777
1417.8	198.926
1421.99	143.613
1426.19	9.40234
1430.38	112.695
1434.58	190.935
1438.77	77.582
1442.95	143.018
1447.13	94.3789
1451.32	134.836
1455.49	162.885
1459.67	71.1328
1463.84	253.334
1468.01	94.418
1472.18	200.688
1476.35	212.69
1480.51	206.654
1484.67	273.227
1488.83	296.826
1492.98	237.096
1497.13	418.469
1501.28	387.221
1505.43	57.5332
1509.57	390.924
1513.71	197.07
1517.85	297.625
1521.99	355.332
1526.12	4.33594
1530.25	371.783
1534.38	240.121
1538.5	488.006
1542.62	439.166
1546.74	76.9883
1550.86	176.932
1554.98	326.15
1559.09	244.168
1563.2	167.236
1567.31	148.113
