Measurement: Raman, 514 nm, depolarized, Raman Data Processed
Mineral: Barysilite
Rruff sample: R050002
Ideal chemistry: Pb^2+^_8_Mn^2+^(Si_2_O_7_)_3_
Locality: Franklin, Sussex County, New Jersey, USA
Source: University of Arizona Mineral Museum
Description: A lamellar aggregate of platy crystals
Measured chemistry: Pb_8.00_Mn_1.00_(Si_2.00_O_7_)_3_
Pin_id: M00057
Orientation: Laser parallel to c* (0 0 1). Fiducial mark perpendicular to laser is parallel to a [1 0 0]
Raman shift (cm-1)	intensity
84.311	0
88.496	161.671
92.678	1414.13
96.858	10855.1
101.036	25595.9
105.212	30031.9
109.387	19872.2
113.559	12762.8
117.729	10552
121.897	7492.49
126.063	5609.95
130.228	4495.19
134.39	3705.18
138.55	3106.87
142.709	1656.74
146.865	674.408
151.019	30.747
155.171	233.747
159.322	78.41
163.47	694.353
167.617	2147.36
171.761	5613.34
175.904	13221.7
180.044	25076.4
184.183	35962.1
188.319	36166.5
192.454	26602.5
196.586	17092.2
200.717	10958.4
204.846	7449.52
208.972	5697.87
213.097	3965.43
217.22	2949.91
221.341	2339.14
225.46	1993.57
229.577	2022.42
233.692	2271.74
237.805	2712.48
241.916	2895.54
246.025	2871.76
250.132	2954.87
254.237	3560.59
258.34	3931.24
262.442	2977.91
266.541	1639.03
270.639	542.741
274.734	86.894
278.828	336.282
282.919	320.087
287.009	45.381
291.097	109.936
295.183	175.377
299.266	22.799
303.348	28.23
307.428	121.193
311.507	236.885
315.583	100.179
319.657	752.214
323.729	1513.34
327.8	1543.11
331.868	1491.47
335.935	1253.32
339.999	974.765
344.062	510.764
348.123	206.092
352.182	89.632
356.239	297.458
360.294	427.837
364.347	829.585
368.398	1029.07
372.448	1348.43
376.495	1484.62
380.54	1711.58
384.584	1589.05
388.626	1285.18
392.666	969.977
396.704	350.415
400.74	166.478
404.774	54.066
408.806	31.084
412.836	270.174
416.865	516.647
420.891	628.746
424.916	1343.89
428.939	1953.47
432.959	2521.85
436.978	3183.38
440.996	2990.87
445.011	2211.8
449.024	1698.67
453.036	1055.86
457.045	603.883
461.053	538.975
465.059	733.912
469.063	864.053
473.065	1362.39
477.065	1919.53
481.063	3185.32
485.06	3704.91
489.054	4141.62
493.047	5806.91
497.038	9269.9
501.027	14234.7
505.014	19063.7
508.999	19221.2
512.982	15137.4
516.964	9969.12
520.944	6285.46
524.921	4022.24
528.897	2728.08
532.871	2665.29
536.844	2393.87
540.814	1655.2
544.783	1364.53
548.749	1178.22
552.714	1337.29
556.677	1026.71
560.638	731.323
564.597	665.134
568.555	251.946
572.511	226.444
576.464	164.563
580.416	85.785
584.366	5.262
588.315	7.708
592.261	320.623
596.206	0.048
600.148	63.934
604.089	0.046
608.028	137.476
611.965	126.929
615.901	39.396
619.834	134.411
623.766	93.132
627.696	198.486
631.624	41.409
635.551	3
639.475	224.442
643.398	248.845
647.318	81.484
651.237	21.415
655.155	158.732
659.07	106.062
662.984	24.681
666.895	168.586
670.805	130.925
674.713	21.084
678.62	182.72
682.524	15.607
686.427	312.846
690.328	11.908
694.227	136.809
698.124	278.556
702.02	1030.88
705.913	1574.85
709.805	1857.46
713.695	650.718
717.584	380.665
721.47	314.424
725.355	69.136
729.238	248.197
733.119	154.405
736.998	85.936
740.876	157.478
744.752	31.191
748.626	44.118
752.498	75.768
756.368	138.054
760.237	81.94
764.104	25.804
767.969	103.904
771.832	247.769
775.693	190.805
779.553	204.255
783.411	241.082
787.267	168.911
791.122	127.406
794.974	90.35
798.825	27.469
802.674	195.047
806.522	543.02
810.367	519.466
814.211	809.583
818.053	974.693
821.893	1408.21
825.732	1561.71
829.568	653.936
833.403	579.945
837.236	301.955
841.068	202.495
844.898	3.185
848.726	13.561
852.552	293.216
856.376	134.162
860.199	291.288
864.02	545.603
867.839	513.007
871.656	800.63
875.472	957.443
879.286	1387.56
883.098	3072.32
886.909	5441.65
890.717	7849.46
894.524	6081.72
898.33	4809.48
902.133	5300.35
905.935	5984.8
909.735	5735.08
913.533	4588.23
917.33	5388.9
921.124	5746.59
924.918	4785.71
928.709	3952.1
932.499	2867.35
936.286	2163.31
940.073	1905.1
943.857	1509.35
947.64	972.375
951.421	853.227
955.2	667.954
958.978	705.949
962.753	831.458
966.527	680.411
970.3	563.649
974.071	506.415
977.84	576.91
981.607	553.039
985.372	746.333
989.136	339.268
992.898	192.662
996.659	360.488
1000.42	363.529
1004.17	118.956
1007.93	122.221
1011.68	301.407
1015.43	199.487
1019.18	307.434
1022.93	322.649
1026.68	584.36
1030.42	296.48
1034.17	43.242
1037.91	226.299
1041.65	377.685
1045.39	171.328
1049.12	408.826
1052.86	554.077
1056.59	312.619
1060.33	459.966
1064.06	255.867
1067.78	357.977
1071.51	12.188
1075.23	269.505
1078.96	261.23
1082.68	132.604
1086.4	367.703
1090.12	156.968
1093.83	229.081
1097.55	191.617
1101.26	32.42
1104.97	223.778
1108.68	27.16
1112.39	22.623
1116.1	9.132
1119.8	52.074
1123.5	5.824
1127.2	87.323
1130.9	58.743
1134.6	5.619
1138.3	246.972
1141.99	22.122
1145.69	25.995
1149.38	37.52
1153.07	37.448
1156.76	61.365
1160.44	10.379
1164.13	104.193
1167.81	394.807
1171.49	237.041
1175.17	136.18
1178.85	231.052
1182.52	111.724
1186.2	285.392
1189.87	446.323
1193.54	319.918
1197.21	260.422
1200.88	90.245
1204.55	474.953
1208.21	445.342
1211.88	373.372
1215.54	214.829
1219.2	379.527
1222.86	281.628
1226.51	315.096
1230.17	88.023
1233.82	306.223
1237.47	246.829
1241.12	52.781
1244.77	302.099
1248.42	352.815
1252.06	361.977
1255.71	312.833
1259.35	68.465
1262.99	46.596
1266.63	379.082
1270.26	91.045
1273.9	221.325
1277.53	58.873
1281.16	218.223
1284.8	99.901
1288.42	111.475
1292.05	3.393
1295.68	39.215
1299.3	41.261
1302.92	211.049
1306.55	12.471
1310.16	248.02
1313.78	51.772
1317.4	312.541
1321.01	23.345
1324.62	68.768
1328.24	209.366
1331.85	2.519
1335.45	56.922
1339.06	157.946
1342.66	325.708
1346.27	340.809
1349.87	438.508
1353.47	479.729
1357.07	475.969
1360.66	530.161
1364.26	291.597
1367.85	371.88
1371.44	575.329
1375.04	273.148
1378.62	254.908
1382.21	444.565
1385.8	496.533
1389.38	314.002
1392.96	498.093
1396.54	492.479
1400.12	549.312
1403.7	728.786
1407.28	367.072
1410.85	449.298
1414.42	682.919
1417.99	389.763
1421.56	628.406
1425.13	554.72
1428.7	410.56
1432.26	510.385
1435.83	434.166
1439.39	904.055
1442.95	561.592
1446.51	768.271
1450.06	576.952
1453.62	746.78
1457.17	853.682
1460.73	836.31
1464.28	476.798
1467.83	272.192
1471.37	589.016
1474.92	397.125
1478.46	167.433
1482.01	347.744
1485.55	504.272
1489.09	289.603
1492.63	72.751
1496.16	357.977
1499.7	139.105
1503.23	197.526
1506.76	274.368
1510.29	171.584
1513.82	381.167
1517.35	0.941
1520.88	0
