Measurement: Raman, 514 nm, depolarized, Raman Data Processed
Mineral: Baryte
Rruff sample: R050335
Ideal chemistry: BaS^6+^O_4_
Locality: Bullion Mountains, San Bernardino County, California, USA
Source: California Institute of Technology
Description: Colorless cleavage fragment
Measured chemistry: (Ba_0.95_Sr_0.05_)_Î£=1_S_1.00_O_4_
Pin_id: M00174
Orientation: Laser parallel to -c* (0 0 -1). Fiducial mark perpendicular to laser is parallel to a [1 0 0]
Raman shift (cm-1)	intensity
93.48	0
98.416	138.961
103.349	117.245
108.28	100.755
113.208	49.4341
118.134	8.2605
123.058	76.9109
127.979	78.6897
132.898	46.1697
137.814	84.6057
142.728	181.602
147.639	250.981
152.549	409.586
157.455	303.889
162.359	178.708
167.261	177.039
172.161	151.815
177.058	117.521
181.952	199.23
186.845	237.356
191.734	320.002
196.622	150.132
201.507	200.407
206.389	51.5867
211.269	55.706
216.147	49.9158
221.022	57.4075
225.895	67.1936
230.765	35.6262
235.633	41.9314
240.498	25.5049
245.361	96.5286
250.222	21.9458
255.08	21.4329
259.936	104.652
264.789	11.6787
269.64	96.3923
274.488	91.0169
279.334	2.78149
284.178	69.5176
289.019	55.2332
293.857	16.0735
298.693	31.5625
303.527	93.1204
308.358	82.6421
313.187	20.8655
318.013	40.5713
322.837	21.9453
327.659	34.8044
332.478	1.65381
337.294	22.3818
342.108	11.363
346.92	9.31079
351.729	73.2161
356.535	93.0859
361.34	125.902
366.141	5.38525
370.94	17.4165
375.737	22.1438
380.531	80.8694
385.323	112.599
390.113	55.4299
394.9	65.2048
399.684	13.3489
404.466	15.4729
409.245	59.9028
414.022	49.7759
418.797	152.705
423.569	115.428
428.338	187.45
433.105	275.516
437.87	559.944
442.632	1301.34
447.391	2956.11
452.149	5706.27
456.903	6733.75
461.655	7337.06
466.405	3448.53
471.152	890.865
475.897	376.971
480.639	276.029
485.378	147.732
490.116	162.829
494.85	121.667
499.582	46.4888
504.312	80.168
509.039	72.8074
513.764	51.2739
518.486	95.4902
523.206	86.7644
527.923	94.1814
532.638	78.6929
537.35	27.9924
542.059	41.0398
546.766	49.811
551.471	64.6829
556.173	84.6834
560.873	51.2356
565.57	62.4458
570.264	27.8682
574.957	99.2219
579.646	100.165
584.333	47.9009
589.018	60.6899
593.7	197.95
598.379	163.585
603.056	255.663
607.73	769.881
612.402	1737.12
617.072	2686.49
621.739	1782.98
626.403	1373.65
631.065	1416.3
635.724	768.923
640.381	419.582
645.035	318.272
649.687	187.008
654.336	126.685
658.983	76.2871
663.627	60.1626
668.268	35.1567
672.907	20.063
677.544	82.7686
682.178	41.644
686.809	97.4922
691.438	94.5801
696.065	129.544
700.688	1.52393
705.31	131.728
709.929	27.6186
714.545	60.895
719.158	13.5757
723.77	35.8115
728.378	65.5024
732.984	84.7905
737.588	81.709
742.189	62.0483
746.787	33.123
751.383	53.1343
755.976	59.0874
760.567	80.98
765.155	41.8096
769.741	128.795
774.324	107.49
778.904	82.1201
783.482	669.328
788.058	42.2344
792.631	79.6958
797.201	61.0376
801.769	34.3052
806.334	42.4634
810.897	77.3486
815.457	33.8091
820.014	29.7314
824.569	120.56
829.122	18.3076
833.671	93.9058
838.219	25.9145
842.763	12.7598
847.306	0.429688
851.845	36.3984
856.382	89.8164
860.917	14.439
865.448	44.1704
869.978	27.6509
874.505	26.0591
879.029	13.3828
883.55	43.563
888.069	29.251
892.586	48.896
897.1	129.979
901.611	32.8086
906.12	117.094
910.626	32.0322
915.129	59.3301
919.63	36.5435
924.129	75.0498
928.625	90.9023
933.118	136.255
937.609	82.4565
942.097	154.398
946.582	144.253
951.065	225.127
955.546	166.976
960.023	143.873
964.499	308.405
968.971	520.352
973.441	855.174
977.909	2316.08
982.374	14354.1
986.836	40922.1
991.295	35156.3
995.753	3723.2
1000.21	1186.64
1004.66	622.089
1009.11	389.931
1013.55	176.373
1018	235.1
1022.44	219.913
1026.88	97.8057
1031.32	101.782
1035.75	100.621
1040.18	167.791
1044.61	13.0747
1049.04	14.5601
1053.46	76.8721
1057.88	88.4321
1062.3	34.1011
1066.71	18.0254
1071.13	39.1299
1075.54	98.3579
1079.94	197.48
1084.35	231.599
1088.75	55.978
1093.15	215.473
1097.55	248.108
1101.94	388.893
1106.34	210.8
1110.73	136.617
1115.11	17.9439
1119.5	198.406
1123.88	240.984
1128.26	441.684
1132.63	663.566
1137.01	1125.59
1141.38	2275.8
1145.75	2447.16
1150.12	1376.57
1154.48	620.177
1158.84	382.894
1163.2	346.822
1167.55	314.588
1171.91	168.035
1176.26	159.397
1180.61	125.157
1184.95	52.4092
1189.29	113.238
1193.63	66.0005
1197.97	18.4111
1202.31	39.9053
1206.64	91.7007
1210.97	18.7559
1215.29	95.6841
1219.62	103.891
1223.94	36.1504
1228.26	59.5195
1232.57	73.9619
1236.89	180.447
1241.2	45.9902
1245.51	124.554
1249.81	115.159
1254.12	54.7798
1258.42	27.4819
1262.72	6.21875
1267.01	113.787
1271.3	12.6631
1275.59	49.5703
1279.88	39.3882
1284.17	164.432
1288.45	131.817
1292.73	27.0869
1297.01	85.0376
1301.28	109.751
1305.55	75.5552
1309.82	85.2695
1314.09	51.9858
1318.35	111.634
1322.61	49.4775
1326.87	114.928
1331.13	69.9629
1335.38	15.4712
1339.63	21.1338
1343.88	18.3296
1348.12	59.6533
1352.37	21.8906
1356.61	24.3496
1360.85	46.9668
1365.08	100.198
1369.31	41.5156
1373.54	33.6768
1377.77	75.3364
1381.99	91.0186
1386.22	91.5122
1390.43	54.2744
1394.65	49.3716
1398.87	67.8848
1403.08	176.404
1407.29	21.4077
1411.49	50.2148
1415.69	44.8218
1419.89	117.535
1424.09	126.137
1428.29	63.8496
1432.48	95.6172
1436.67	208.014
1440.86	44.6655
1445.04	39.8618
1449.23	85.0845
1453.4	104.746
1457.58	135.454
1461.76	172.985
1465.93	165.336
1470.1	74.6055
1474.26	14.1899
1478.43	64.9697
1482.59	206.194
1486.75	97.7588
1490.9	122.769
1495.06	82.1777
1499.21	104.514
1503.35	41.9853
1507.5	74.8306
1511.64	136.309
1515.78	195.024
1519.92	101.871
1524.05	114.165
1528.18	173.852
1532.31	197.625
1536.44	177.476
1540.56	83.2295
1544.69	18.0855
1548.8	99.2988
1552.92	163.964
1557.03	102.49
1561.14	89.7524
1565.25	205.539
1569.36	0.458984
