Measurement: Raman, 514 nm, depolarized, Raman Data Processed
Mineral: Baryte
Rruff sample: R050375
Ideal chemistry: BaS^6+^O_4_
Locality: unknown
Source: Eugene Schlepp
Description: Pale green tabular crystals
Measured chemistry: Ba_1.00_SO_4_
Pin_id: L01233
Orientation: Laser parallel to b* (0 1 0). Fiducial mark perpendicular to laser is parallel to -c [0 0 -1]
Raman shift (cm-1)	intensity
51.431	0
56.387	40.289
61.341	5.79135
66.292	30.7577
71.241	332.969
76.187	717.124
81.131	648.964
86.072	916.125
91.012	1387.7
95.948	1474.71
100.883	1476.46
105.815	1114.65
110.744	1093.13
115.671	1031.72
120.596	954.263
125.519	988.626
130.439	1003.79
135.356	924.32
140.271	925.645
145.184	918.899
150.094	974.214
155.002	1091.66
159.908	889.694
164.811	819.399
169.711	799.28
174.61	744.123
179.505	806.916
184.399	912.641
189.29	1091.28
194.178	977.806
199.064	685.02
203.948	554.502
208.829	529.304
213.708	460.921
218.585	446.603
223.459	489.361
228.33	427.881
233.199	338.278
238.066	372.767
242.93	346.143
247.792	378.148
252.651	329.365
257.508	244.108
262.363	328.931
267.215	282.34
272.064	259.369
276.912	234.297
281.756	258.147
286.598	151.64
291.438	221.76
296.276	184.47
301.111	262.733
305.943	148.532
310.773	149.859
315.601	79.7168
320.426	91.0635
325.248	136.886
330.068	49.1711
334.886	121.906
339.701	3.07642
344.514	142.681
349.324	78.2659
354.132	99.0669
358.938	84.9932
363.741	0.648438
368.541	11.8787
373.339	59.6465
378.135	32.0015
382.928	9.34082
387.718	23.7378
392.506	24.1775
397.292	41.0781
402.075	50.4329
406.856	36.1692
411.634	0.525879
416.41	17.3335
421.183	58.6221
425.954	56.2131
430.722	205.615
435.488	411.444
440.251	914.372
445.012	2673.83
449.77	5868.42
454.526	7689.52
459.28	2658.71
464.03	956.174
468.779	455.892
473.525	182.848
478.268	137.035
483.009	25.4475
487.747	47.0806
492.483	17.1575
497.217	0.636719
501.948	14.5002
506.676	94.4795
511.402	46.1611
516.125	75.3152
520.846	8.73511
525.565	6.13306
530.281	54.5552
534.994	6.97559
539.705	70.0002
544.413	17.032
549.119	34.8179
553.822	75.7927
558.523	8.86963
563.222	89.0015
567.917	89.0029
572.611	75.4597
577.302	40.3606
581.99	48.666
586.676	68.8652
591.359	42.05
596.04	80.7107
600.718	122.485
605.394	138.057
610.067	389.79
614.737	988.927
619.406	1322.95
624.071	749.256
628.734	978.451
633.395	1055.74
638.053	621.947
642.708	980.46
647.361	1249.62
652.012	653.259
656.66	310.57
661.305	153.239
665.948	67.1348
670.588	39.1352
675.226	16.1216
679.861	63.6921
684.494	84.5496
689.124	110.884
693.752	49.0159
698.377	28.4128
702.999	66.5181
707.619	24.1802
712.237	65.0476
716.852	28.0212
721.464	121.76
726.074	36.8203
730.681	2.54468
735.286	98.749
739.888	10.2673
744.488	60.0259
749.085	62.2927
753.68	75.4114
758.272	42.3118
762.861	17.1372
767.448	67.8818
772.033	55.6277
776.614	10.4031
781.194	13.1797
785.77	103.916
790.345	134.59
794.916	22.2073
799.485	41.738
804.052	25.1924
808.616	37.3687
813.177	35.5657
817.736	66.8701
822.292	44.3694
826.846	90.1916
831.397	16.1904
835.945	71.8643
840.491	59.1445
845.035	99.8384
849.576	129.829
854.114	86.6773
858.65	53.2168
863.183	96.311
867.713	146.398
872.241	25.4756
876.767	7.14941
881.29	26.0913
885.81	14.0425
890.328	35.7446
894.843	103.431
899.356	61.6138
903.866	69.5322
908.373	63.835
912.878	124.229
917.38	79.4238
921.88	154.409
926.377	45.3813
930.872	21.3672
935.364	54.1187
939.853	58.3257
944.34	63.9453
948.824	73.3516
953.306	66.2046
957.785	107.059
962.261	155.113
966.735	312.955
971.207	502.98
975.675	828.966
980.141	3193.88
984.605	17364.1
989.066	54482
993.524	7846.39
997.98	1535.85
1002.43	632.384
1006.88	295.3
1011.33	297.741
1015.78	229.438
1020.22	105.126
1024.66	111.759
1029.1	70.6802
1033.53	7.96826
1037.97	14.7021
1042.4	49.7744
1046.82	55.123
1051.25	49.9458
1055.67	59.0737
1060.09	0.245605
1064.51	55.2554
1068.92	13.5879
1073.33	10.1865
1077.74	47.2148
1082.15	84.2344
1086.55	79.7715
1090.95	133.376
1095.35	253.05
1099.75	590.793
1104.14	1207.61
1108.53	689.508
1112.92	257.503
1117.31	160.599
1121.69	170.784
1126.07	298.09
1130.45	489.418
1134.82	1354.81
1139.19	2750.28
1143.57	2685.43
1147.93	1844.11
1152.3	838.947
1156.66	528.873
1161.02	627.865
1165.38	1183.89
1169.73	817.014
1174.08	360.514
1178.43	240.807
1182.78	85.834
1187.12	56.2163
1191.46	68.4756
1195.8	30.0479
1200.14	2.14062
1204.47	106.113
1208.8	107.891
1213.13	3.61475
1217.46	114.431
1221.78	94.3081
1226.1	204.249
1230.42	50.2602
1234.73	6.4668
1239.04	175.213
1243.35	91.2519
1247.66	122.512
1251.97	128.819
1256.27	72.166
1260.57	3.54053
1264.86	76.9604
1269.16	103.423
1273.45	28.2632
1277.74	14.6958
1282.03	76.1499
1286.31	139.712
1290.59	23.3037
1294.87	58.9414
1299.14	128.828
1303.42	62.5283
1307.69	82.2729
1311.95	60.165
1316.22	38.9136
1320.48	103.79
1324.74	92.8999
1329	6.94092
1333.26	76.9111
1337.51	112.924
1341.76	28.4331
1346	116.602
1350.25	75.4888
1354.49	29.3828
1358.73	80.4321
1362.96	6.58691
1367.2	145.286
1371.43	88.1269
1375.66	10.3076
1379.88	42.5083
1384.11	135.306
1388.33	124.245
1392.54	123.091
1396.76	12.0776
1400.97	78.5977
1405.18	40.6919
1409.39	140.031
1413.59	35.5386
1417.8	38.0381
1421.99	51.9922
1426.19	103.436
1430.38	175.831
1434.58	96.3384
1438.77	92.9356
1442.95	130.481
1447.13	150.16
1451.32	189.54
1455.49	59.4746
1459.67	135.588
1463.84	133.053
1468.01	75.5928
1472.18	146.453
1476.35	9.35889
1480.51	37.5523
1484.67	42.1167
1488.83	149.701
1492.98	58.3687
1497.13	39.0102
1501.28	75.1953
1505.43	86.7715
1509.57	61.3281
1513.71	30.7769
1517.85	105.146
1521.99	173.385
1526.12	78.4233
1530.25	105.832
1534.38	109.767
1538.5	64.8887
1542.62	58.2554
1546.74	60.7002
1550.86	90.4932
1554.98	10.5845
1559.09	5.88379
1563.2	33.2988
1567.31	110.236
