Measurement: Raman, 514 nm, depolarized, Raman Data Processed
Mineral: Barysilite
Rruff sample: R050002
Ideal chemistry: Pb^2+^_8_Mn^2+^(Si_2_O_7_)_3_
Locality: Franklin, Sussex County, New Jersey, USA
Source: University of Arizona Mineral Museum
Description: A lamellar aggregate of platy crystals
Measured chemistry: Pb_8.00_Mn_1.00_(Si_2.00_O_7_)_3_
Pin_id: M00298
Orientation: Laser parallel to a* (1 0 0). Fiducial mark perpendicular to laser is parallel to c [0 0 1]
Raman shift (cm-1)	intensity
60.563	0
64.758	230.545
68.952	140.422
73.144	24.713
77.333	520.106
81.521	3978.31
85.706	6496.14
89.89	5478.74
94.071	7510.74
98.251	19302.4
102.428	33168.1
106.604	38190
110.777	25316.1
114.949	18258.2
119.119	15870.8
123.286	12747.2
127.452	10023.5
131.615	8189.62
135.777	7279.96
139.937	5861.38
144.094	4513.15
148.25	3505.44
152.403	2739.14
156.555	2500.59
160.705	2667.71
164.853	3429.55
168.998	5325.17
173.142	9750.77
177.284	19947
181.424	35986.7
185.562	48995.4
189.698	50357.7
193.831	36875.9
197.963	23096.2
202.093	14944.4
206.221	10167.4
210.347	7407.33
214.472	5711.8
218.594	4406.61
222.714	3571.66
226.832	3114.57
230.948	3052.84
235.063	3262.03
239.175	3524.09
243.286	3757.39
247.394	3991.58
251.501	4497.42
255.605	5185.05
259.708	5327.48
263.808	4379.21
267.907	2636.26
272.004	1210.32
276.099	435.158
280.192	46.641
284.283	167.446
288.372	232.928
292.459	130.646
296.544	140.189
300.627	61.343
304.709	49.896
308.788	78.902
312.865	196.489
316.941	275.423
321.015	927.02
325.086	1501.27
329.156	1654.1
333.224	1529.49
337.29	1308.25
341.354	814.15
345.416	281.12
349.476	26.665
353.534	15.122
357.591	94.69
361.645	285.923
365.698	497.52
369.748	803.445
373.797	1178.48
377.844	1400.71
381.889	1355.13
385.932	1209.72
389.973	934.495
394.012	464.849
398.049	109.855
402.084	21.239
406.118	132.898
410.15	150.705
414.179	46.219
418.207	84.405
422.233	483.494
426.257	1139.35
430.279	2102.7
434.299	3206.51
438.318	3858.69
442.334	3458.4
446.349	2520.84
450.361	1643.76
454.372	1100.38
458.381	761.032
462.388	653.492
466.394	782.172
470.397	971.428
474.398	1510.34
478.398	2684.22
482.396	3964.97
486.391	4608.79
490.385	5638.28
494.377	8096.17
498.368	12924.7
502.356	19923.7
506.342	25441.8
510.327	25285.3
514.31	18799.4
518.291	11866
522.27	7288.9
526.247	4874.44
530.222	3524.32
534.196	2932.24
538.167	2622.25
542.137	2000.78
546.105	1494.93
550.071	1547.7
554.035	1651.05
557.998	1311
561.958	862.274
565.917	523.239
569.874	265.311
573.829	230.51
577.782	116.423
581.733	99.122
585.683	56.463
589.63	9.61
593.576	21.014
597.52	12.06
601.462	13.234
605.402	0.901
609.341	0.701
613.277	18.782
617.212	12.158
621.145	21.388
625.076	0.342
629.006	7.037
632.933	18.516
636.859	8.149
640.783	21.594
644.705	6.631
648.625	6.613
652.543	3.165
656.46	21.463
660.375	11.891
664.288	5.01
668.199	34.898
672.108	7.355
676.016	3.418
679.921	13.453
683.825	11.851
687.727	3.705
691.628	98.438
695.526	148.788
699.423	526.773
703.318	1277.4
707.211	2420.68
711.102	1879.61
714.992	663.198
718.879	213.622
722.765	77.166
726.649	55.939
730.532	12.12
734.412	24.836
738.291	27.516
742.168	21.2
746.043	39.553
749.916	42.974
753.788	33.416
757.658	30.755
761.526	6.618
765.392	14.358
769.257	9.287
773.119	2.099
776.98	18.508
780.839	24.984
784.697	12.854
788.552	21.602
792.406	14.356
796.258	12.144
800.108	17.846
803.957	21.556
807.804	59.192
811.649	211.637
815.492	466.658
819.333	965.128
823.173	1438.21
827.011	1242.97
830.847	764.335
834.681	367.343
838.514	233.404
842.345	185.08
846.174	155.922
850.001	173.455
853.827	192.099
857.651	250.796
861.473	262.547
865.293	348.364
869.112	526.255
872.928	770.232
876.744	1204.26
880.557	2033.87
884.369	4073.88
888.178	7898.99
891.987	9520.3
895.793	7211.4
899.598	5884.45
903.401	6626.88
907.202	7279.43
911.001	6214.26
914.799	5142.05
918.595	5853.55
922.389	6322.52
926.182	4995.64
929.972	3745.45
933.761	2924.11
937.549	2274.74
941.334	1638.93
945.118	1325.35
948.9	1086.14
952.681	862.216
956.459	783.569
960.236	754.198
964.012	674.854
967.785	689.071
971.557	565.594
975.327	518.146
979.095	422.919
982.862	344.628
986.627	314.682
990.39	234.621
994.152	199.508
997.912	166.497
1001.67	144.326
1005.43	135.153
1009.18	119.545
1012.93	46.015
1016.68	53.246
1020.43	39.699
1024.18	16.233
1027.93	4.92
1031.67	31.133
1035.42	29.477
1039.16	2.051
1042.9	75.164
1046.63	74.617
1050.37	100.175
1054.11	210.159
1057.84	172.14
1061.57	196.323
1065.3	217.79
1069.03	215.586
1072.75	212.101
1076.47	274.937
1080.2	187.459
1083.92	166.937
1087.64	179.061
1091.36	112.981
1095.07	95.543
1098.79	72.812
1102.5	88.087
1106.21	51.935
1109.92	52.184
1113.62	29.19
1117.33	5.411
1121.04	16.031
1124.74	17.32
1128.44	7.718
1132.14	7.606
1135.83	24.381
1139.53	0.256
1143.22	3.393
1146.92	25.589
1150.61	7.003
1154.3	2.216
1157.98	0.617
1161.67	7.146
1165.35	1.714
1169.04	5.577
1172.72	20.075
1176.4	27.668
1180.07	28.014
1183.75	1.512
1187.42	7.371
1191.1	6.963
1194.77	4.284
1198.44	4.17
1202.1	29.495
1205.77	4.808
1209.43	4.796
1213.1	4.076
1216.76	1.479
1220.42	34.765
1224.07	12.851
1227.73	17.784
1231.38	30.575
1235.04	66.229
1238.69	66.75
1242.34	66.121
1245.99	46.342
1249.63	45.41
1253.28	23.314
1256.92	43.065
1260.56	45.886
1264.2	18.856
1267.84	65.323
1271.48	61.438
1275.11	34.928
1278.74	73.241
1282.38	37.306
1286.01	67.45
1289.63	39.673
1293.26	3.413
1296.89	14.924
1300.51	4.615
1304.13	34.958
1307.75	22.448
1311.37	33.38
1314.99	35.898
1318.6	75.383
1322.22	109.363
1325.83	27.095
1329.44	43.963
1333.05	34.814
1336.66	29.623
1340.26	40.098
1343.87	79.422
1347.47	42.293
1351.07	63.915
1354.67	88.83
1358.27	52.295
1361.86	53.027
1365.46	78.154
1369.05	75.19
1372.64	64.239
1376.23	42.347
1379.82	79.611
1383.41	70.142
1386.99	54.217
1390.57	118.492
1394.16	104.405
1397.74	133.542
1401.32	179.327
1404.89	197.179
1408.47	207.142
1412.04	177.407
1415.61	117.446
1419.18	153.587
1422.75	79.253
1426.32	47.556
1429.89	66.881
1433.45	70.046
1437.01	43.377
1440.58	69.972
1444.13	119.75
1447.69	82.575
1451.25	93.36
1454.81	78.128
1458.36	62.96
1461.91	89.926
1465.46	77.031
1469.01	104.414
1472.56	113.011
1476.1	96.823
1479.64	83.877
1483.19	68.177
1486.73	45.741
1490.27	54.657
1493.81	92.019
1497.34	22.902
1500.88	10.4
1504.41	9.671
1507.94	0.517
1511.47	2.434
1515	17.735
1518.53	0.054
