Measurement: Raman, 514 nm, depolarized, Raman Data Processed
Mineral: Baryte
Rruff sample: R050375
Ideal chemistry: BaS^6+^O_4_
Locality: unknown
Source: Eugene Schlepp
Description: Pale green tabular crystals
Measured chemistry: Ba_1.00_SO_4_
Pin_id: L01220
Orientation: Laser parallel to -c* (0 0 -1). Fiducial mark perpendicular to laser is parallel to -a [-1 0 0]
Raman shift (cm-1)	intensity
51.431	0
56.387	36.8728
61.341	2.14691
66.292	6.01269
71.241	116.694
76.187	521.927
81.131	549.516
86.072	813.151
91.012	1069.96
95.948	1352
100.883	1567.62
105.815	1293.53
110.744	1243.58
115.671	1205.64
120.596	1140.53
125.519	1076.11
130.439	1075.41
135.356	1026.06
140.271	1061.46
145.184	1016.09
150.094	1156.94
155.002	1276.19
159.908	1055.66
164.811	902.332
169.711	895.04
174.61	826.6
179.505	852.974
184.399	886.149
189.29	981.109
194.178	936.835
199.064	686.353
203.948	657.546
208.829	614.952
213.708	595.422
218.585	515.858
223.459	477.153
228.33	493.715
233.199	442.606
238.066	456.966
242.93	390.623
247.792	418.1
252.651	357.691
257.508	417.886
262.363	315.156
267.215	321.471
272.064	260.126
276.912	298.178
281.756	260.321
286.598	259.017
291.438	243.254
296.276	225.007
301.111	175.256
305.943	183.983
310.773	164.172
315.601	178.806
320.426	108.874
325.248	118.366
330.068	73.2717
334.886	162.581
339.701	74.2839
344.514	146.381
349.324	81.9873
354.132	76.2222
358.938	5.55249
363.741	27.9722
368.541	14.5552
373.339	4.98975
378.135	80.4829
382.928	45.8418
387.718	24.2564
392.506	20.3594
397.292	9.44043
402.075	45.0207
406.856	57.2285
411.634	2.10791
416.41	18.2107
421.183	81.1514
425.954	35.2937
430.722	67.3987
435.488	117.427
440.251	340.267
445.012	921.365
449.77	2195.78
454.526	4867.51
459.28	4072.54
464.03	6386.87
468.779	1640.5
473.525	484.418
478.268	279.609
483.009	101.995
487.747	113.801
492.483	91.782
497.217	62.0156
501.948	11.3789
506.676	81.5388
511.402	4.15723
516.125	7.10767
520.846	18.8279
525.565	8.06909
530.281	8.302
534.994	62.999
539.705	50.1985
544.413	62.2986
549.119	54.7632
553.822	17.3459
558.523	2.69287
563.222	11.1475
567.917	85.2717
572.611	16.9189
577.302	89.1655
581.99	35.3052
586.676	127.074
591.359	98.5471
596.04	114.982
600.718	174.822
605.394	189.892
610.067	460.019
614.737	1480.23
619.406	2489.8
624.071	1133.03
628.734	1271.32
633.395	1207.99
638.053	530.821
642.708	169.569
647.361	124.077
652.012	86.7456
656.66	60.1448
661.305	102.373
665.948	81.3586
670.588	34.3591
675.226	62.5938
679.861	28.6416
684.494	144.216
689.124	136.792
693.752	64.3809
698.377	180.769
702.999	61.3726
707.619	28.4768
712.237	64.2493
716.852	122.673
721.464	86.9983
726.074	67.0515
730.681	0.571777
735.286	59.3462
739.888	2.26953
744.488	140.506
749.085	109.093
753.68	59.5955
758.272	49.8843
762.861	70.2207
767.448	90.5391
772.033	37.9382
776.614	39.033
781.194	16.0557
785.77	41.0017
790.345	63.1428
794.916	120.242
799.485	78.1067
804.052	59.0239
808.616	26.3579
813.177	70.0952
817.736	79.3291
822.292	62.6489
826.846	118.528
831.397	23.3574
835.945	25.8562
840.491	8.67163
845.035	53.8193
849.576	32.585
854.114	64.9277
858.65	100.25
863.183	10.9746
867.713	51.0972
872.241	27.8989
876.767	9.82666
881.29	75.0772
885.81	41.3897
890.328	48.623
894.843	63.4692
899.356	7.68848
903.866	71.7832
908.373	67.3193
912.878	39.4727
917.38	53.8062
921.88	24.2529
926.377	39.5933
930.872	99.7598
935.364	64.2002
939.853	51.7261
944.34	28.9277
948.824	38.3223
953.306	74.9956
957.785	163.71
962.261	195.621
966.735	329.127
971.207	324.211
975.675	726.348
980.141	2174.88
984.605	11345.6
989.066	61041.4
993.524	9654.15
997.98	1628.78
1002.43	683.78
1006.88	374.503
1011.33	241.513
1015.78	168.471
1020.22	85.6826
1024.66	167.002
1029.1	98.8574
1033.53	117.594
1037.97	100.233
1042.4	122.494
1046.82	157.978
1051.25	28.8857
1055.67	95.6616
1060.09	16.8814
1064.51	30.6089
1068.92	50.9282
1073.33	31.8423
1077.74	41.7647
1082.15	15.6421
1086.55	71.8555
1090.95	84.9165
1095.35	48.0308
1099.75	79.2583
1104.14	334.614
1108.53	219.057
1112.92	113.625
1117.31	17.3086
1121.69	168.122
1126.07	207.042
1130.45	353.096
1134.82	555.286
1139.19	1381.59
1143.57	2573.06
1147.93	2106.65
1152.3	889.358
1156.66	481.158
1161.02	149.558
1165.38	189.554
1169.73	127.696
1174.08	106.934
1178.43	18.4204
1182.78	83.9502
1187.12	8.2793
1191.46	25.3706
1195.8	137.062
1200.14	74.5352
1204.47	83.3779
1208.8	93.291
1213.13	79.5317
1217.46	157.617
1221.78	72.6479
1226.1	66.5562
1230.42	131.918
1234.73	130.362
1239.04	78.1816
1243.35	111.789
1247.66	140.475
1251.97	206.215
1256.27	129.004
1260.57	201.616
1264.86	60.3101
1269.16	143.395
1273.45	126.542
1277.74	117.08
1282.03	162.349
1286.31	12.3198
1290.59	48.0674
1294.87	136.67
1299.14	103.224
1303.42	46.7183
1307.69	68.2393
1311.95	38.8364
1316.22	29.4995
1320.48	74.2266
1324.74	14.0586
1329	68.9453
1333.26	11.4019
1337.51	93.1665
1341.76	26.959
1346	75.7925
1350.25	102.698
1354.49	41.5557
1358.73	9.34961
1362.96	49.3467
1367.2	104.182
1371.43	20.2993
1375.66	46.6748
1379.88	144.417
1384.11	92.3662
1388.33	2.93164
1392.54	112.303
1396.76	90.166
1400.97	98.2144
1405.18	53.0478
1409.39	105.014
1413.59	34.544
1417.8	16.0757
1421.99	6.96387
1426.19	62.8291
1430.38	91.0269
1434.58	50.1226
1438.77	69.2481
1442.95	101.256
1447.13	81.1948
1451.32	67.9404
1455.49	130.395
1459.67	232.832
1463.84	79.2178
1468.01	114.645
1472.18	47.7212
1476.35	49.2617
1480.51	78.2529
1484.67	33.084
1488.83	76.8745
1492.98	34.3198
1497.13	60.9722
1501.28	105.41
1505.43	59.9248
1509.57	64.2314
1513.71	83.6265
1517.85	18.2998
1521.99	105.325
1526.12	28.0815
1530.25	64.271
1534.38	7.02295
1538.5	81.3247
1542.62	47.2398
1546.74	127.742
1550.86	106.968
1554.98	101.324
1559.09	84.7022
1563.2	93.5772
1567.31	37.4243
