Measurement: Raman, 532 nm, ccw, Raman Data RAW
Mineral: Benitoite
Rruff sample: X060003
Ideal chemistry: BaTi^4+^Si_3_O_9_
Source: Michael Scott
Description: gemstone
Raman shift (cm-1)	intensity
99.658	310.942
107.372	762.732
115.086	2315.46
122.8	3985.66
130.514	1101.27
138.228	939.194
145.942	1169.61
153.656	2467.76
161.369	14796.2
169.083	1911.22
176.797	1239.08
184.511	1462.66
192.225	2585.67
199.939	11187.8
207.652	3722.16
215.366	13283.1
223.08	18429.7
230.794	7107.13
238.508	3475.37
246.222	3307.57
253.936	5819.7
261.65	16113.8
269.363	21076
277.077	5887.67
284.791	2794.48
292.505	1705.29
300.219	1302.41
307.933	1151.43
315.647	1104.23
323.361	1024.54
331.074	1055
338.788	1699.94
346.502	12438.8
354.216	5981.04
361.93	9463.47
369.644	25055.7
377.358	11511.3
385.072	3564.59
392.785	7217.02
400.499	5117.35
408.213	1471.38
415.927	878.159
423.641	762.543
431.355	725.046
439.069	664.675
446.782	717.035
454.496	853.452
462.21	1631.71
469.924	1881.12
477.638	2885.88
485.352	1425.09
493.066	1319.85
500.78	2658.82
508.493	2256.03
516.207	2050.18
523.921	3634.24
531.635	12212
539.349	15050
547.063	3565.81
554.777	1839.81
562.49	2185.64
570.204	10852.8
577.918	24569.8
585.632	2687.88
593.346	1380.78
601.06	986.782
608.774	806.41
616.487	714.963
624.201	685.841
631.915	1115.06
639.629	2036.5
647.343	1135.71
655.057	861.175
662.771	715.794
670.485	653.89
678.198	629.224
685.912	601.461
693.626	606.878
701.34	591.071
709.054	556.528
716.768	544.248
724.482	563.128
732.196	606.906
739.909	730.613
747.623	944.958
755.337	793.499
763.051	698.83
770.765	724.312
778.479	695.15
786.193	738.612
793.906	805.726
801.62	787.977
809.334	745.179
817.048	755.368
824.762	731.937
832.476	757.758
840.19	813.995
847.904	865.406
855.617	935.509
863.331	1016.74
871.045	1082.8
878.759	1223.35
886.473	1408.82
894.187	1766.34
901.901	2322.55
909.615	4068.06
917.328	6081.49
925.042	14186.8
932.756	35992.5
940.47	28672.6
948.184	23099.8
955.898	7818.07
963.612	3136.46
971.326	1859.02
979.039	1259.34
986.753	995.061
994.467	850.645
1002.18	803.982
1009.89	888.052
1017.61	1297.42
1025.32	1126.83
1033.04	820.772
1040.75	801.773
1048.46	1279.15
1056.18	3017.44
1063.89	1788.3
1071.61	873.433
1079.32	668.101
1087.03	691.672
1094.75	856.526
1102.46	688.892
1110.17	599.954
1117.89	539.307
1125.6	491.794
1133.32	433.258
1141.03	381.474
1148.74	359.895
1156.46	340.992
1164.17	317.017
1171.89	306.162
1179.6	300.009
1187.31	342.299
1195.03	375.965
1202.74	432.851
1210.45	455.095
1218.17	445.579
1225.88	381.468
1233.6	300.895
1241.31	261.873
1249.03	245.97
1256.74	244.956
1264.45	241.032
1272.17	239.316
1279.88	246.595
1287.59	247.805
1295.31	251.424
1303.02	256.782
1310.74	253.223
1318.45	269.82
1326.16	246.141
1333.88	228.603
1341.59	213.821
1349.31	188.896
1357.02	186.458
1364.73	186.951
1372.45	194.469
1380.16	186.919
1387.87	184.024
1395.59	171.59
1403.3	165.922
1411.02	177.773
1418.73	176.997
1426.44	170.775
1434.16	180.124
1441.87	205.847
1449.59	240.303
1457.3	265.083
1465.01	260.36
1472.73	276.075
1480.44	312.164
1488.15	306.861
1495.87	288.025
1503.58	254.473
1511.3	230.45
1519.01	217.336
1526.72	204.229
1534.44	219.007
1542.15	224.188
1549.87	220.988
1557.58	211.641
1565.29	191.205
1573.01	190.084
1580.72	192.902
1588.43	181.516
1596.15	171.346
1603.86	163.564
1611.58	157.744
1619.29	148.818
1627	159.171
1634.72	156.507
1642.43	152.217
1650.15	166.607
1657.86	161.696
1665.57	153.327
1673.29	148.359
1681	138.888
1688.71	128.874
1696.43	123.154
1704.14	127.586
1711.86	118.424
1719.57	103.979
1727.29	97.367
1735	112.419
1742.71	105.012
1750.43	104.535
1758.14	98.122
1765.85	101.112
1773.57	103.521
1781.28	105.452
1788.99	124.391
1796.71	125.889
1804.42	135.832
1812.14	152.652
1819.85	155.05
1827.57	143.712
1835.28	132.514
1842.99	135.507
1850.71	126.058
1858.42	126.751
1866.13	122.226
1873.85	110.111
1881.56	110.344
1889.28	108.118
1896.99	105.136
1904.7	108.078
1912.42	111.997
1920.13	112.313
1927.85	112.178
1935.56	114.373
1943.27	104.463
1950.99	115.398
1958.7	112.14
1966.41	114.986
1974.13	116.572
1981.84	120.174
1989.56	129.358
1997.27	116.56
2004.98	110.271
2012.7	108.273
2020.41	120.344
2028.12	112.291
2035.84	116.419
2043.55	122.516
2051.27	113.808
2058.98	108.066
2066.7	111.034
2074.41	120.041
2082.12	113.074
2089.84	104.159
2097.55	102.752
2105.26	102.444
2112.98	103.958
2120.69	101.955
2128.41	107.038
2136.12	100.708
2143.83	105.267
2151.55	117.815
2159.26	105.743
2166.97	107.481
2174.69	120.15
2182.4	127.698
2190.12	131.726
2197.83	158.813
2205.54	175.317
2213.26	177.477
2220.97	179.533
2228.69	158.692
2236.4	156.98
2244.11	134.258
2251.83	137.206
2259.54	128.221
2267.26	121.195
2274.97	118.438
2282.68	107.97
2290.4	103.357
2298.11	98.923
2305.82	93.304
2313.54	100.942
2321.25	105.432
2328.97	167.532
2336.68	89.781
2344.39	99.181
2352.11	94.671
2359.82	98.83
2367.54	101.236
2375.25	101.568
2382.96	102.832
2390.68	105.421
2398.39	107.925
2406.11	105.923
2413.82	108.42
2421.53	110.336
2429.25	113.114
2436.96	109.438
2444.67	118.81
2452.39	115.231
2460.1	108.747
2467.82	105.677
2475.53	111.644
2483.24	114.679
2490.96	112.015
2498.67	119.391
2506.39	116.574
2514.1	110.183
2521.81	122.441
2529.53	112.053
2537.24	122.329
2544.95	117.341
2552.67	121.233
2560.38	118.102
2568.1	123.033
2575.81	115.07
2583.52	123.9
2591.24	111.115
2598.95	113.992
2606.67	115.854
2614.38	113.628
2622.09	127.596
2629.81	115.463
2637.52	112.042
2645.24	112.235
2652.95	125.197
2660.66	112.543
2668.38	113.447
2676.09	111.988
2683.8	118.041
2691.52	124.589
2699.23	115.296
2706.95	115.684
2714.66	108.987
2722.37	107.808
2730.09	119.16
2737.8	114.48
2745.51	122.035
2753.23	117.604
2760.94	117.287
2768.66	118.87
2776.37	119.452
2784.08	117.525
2791.8	114.037
2799.51	122.229
2807.23	110.307
2814.94	113.34
2822.65	117.447
2830.37	121.435
2838.08	120.67
2845.8	122.342
2853.51	126.854
2861.22	131.64
2868.94	125.936
2876.65	121.907
2884.36	124.361
2892.08	133.645
2899.79	129.518
2907.51	138.292
2915.22	124.475
2922.93	135.608
2930.65	126.664
2938.36	130.776
2946.08	132.976
2953.79	138.696
2961.5	141.656
2969.22	135.201
2976.93	135.799
2984.64	148.916
2992.36	139.776
3000.07	143.21
