Measurement: Raman, 488 nm, ccw, Raman Data Processed
Mineral: Berborite
Rruff sample: X060021
Ideal chemistry: Be_2_BO_3_(OH)H_2_O
Locality: Saga, Tvedalen, Langesundfjord/Norge
Source: Rainer Thomas
Raman shift (cm-1)	intensity
87.0289	0
92.156	18.5228
97.2831	19.9616
102.41	13.1701
107.537	24.0261
112.664	47.4388
117.791	59.3839
122.918	56.4072
128.046	14.525
133.173	7.03296
138.3	16.4514
143.427	19.1365
148.554	15.2435
153.681	27.8598
158.808	26.1894
163.935	42.4811
169.062	45.3195
174.189	54.1521
179.316	68.7461
184.443	102.603
189.571	67.3344
194.698	131.521
199.825	204.629
204.952	252.816
210.079	261.8
215.206	228.271
220.333	185.86
225.46	150.612
230.587	113.209
235.714	76.6396
240.841	44.3348
245.968	16.6699
251.096	0.057068
256.223	12.0917
261.35	1.978
266.477	4.57715
271.604	36.7082
276.731	76.2037
281.858	156.552
286.985	243.309
292.112	235.54
297.239	171.38
302.366	131.386
307.493	99.812
312.621	82.2801
317.748	88.8705
322.875	59.7486
328.002	10.4576
333.129	23.6197
338.256	68.2086
343.383	72.043
348.51	52.2994
353.637	44.1536
358.764	48.426
363.891	88.7921
369.018	168.976
374.145	408.523
379.273	853.946
384.4	353.483
389.527	502.165
394.654	712.091
399.781	383.305
404.908	220.65
410.035	145.679
415.162	61.2165
420.289	19.5867
425.416	12.4237
430.543	0.303528
435.67	3.32752
440.798	1.64995
445.925	2.31551
451.052	3.11288
456.179	0.514427
461.306	1.87793
466.433	4.61789
471.56	6.53655
476.687	10.8203
481.814	9.33597
486.941	10.7226
492.068	16.0924
497.195	21.1426
502.323	25.696
507.45	22.5586
512.577	23.8912
517.704	17.827
522.831	17.6909
527.958	24.4833
533.085	28.8094
538.212	21.9301
543.339	21.0813
548.466	18.5424
553.593	24.1555
558.72	23.5244
563.847	14.3829
568.975	8.97572
574.102	9.56255
579.229	7.2875
584.356	10.8141
589.483	4.69186
594.61	2.68247
599.737	3.62286
604.864	0.041634
609.991	1.69
615.118	0.033295
620.245	1.51288
625.372	1.50755
630.5	6.36488
635.627	16.5345
640.754	22.0183
645.881	60.2131
651.008	285.865
656.135	202.347
661.262	94.2973
666.389	154.652
671.516	187.881
676.643	88.4953
681.77	39.2584
686.897	18.085
692.025	9.26744
697.152	1.19838
702.279	2.84253
707.406	0.083344
712.533	9.0598
717.66	24.0928
722.787	47.1858
727.914	62.4338
733.041	68.2618
738.168	89.7801
743.295	67.6791
748.422	58.6526
753.549	75.8263
758.677	132.719
763.804	188.166
768.931	213.722
774.058	218.062
779.185	228.781
784.312	319.575
789.439	516.389
794.566	507.198
799.693	271.307
804.82	154.813
809.947	79.5805
815.075	66.3658
820.202	59.7541
825.329	27.8831
830.456	23.2607
835.583	30.7635
840.71	29.9434
845.837	28.0861
850.964	30.4229
856.091	9.62956
861.218	5.11647
866.345	5.96805
871.472	3.94749
876.599	10.9173
881.727	0.721527
886.854	8.19986
891.981	15.0678
897.108	29.9734
902.235	26.5948
907.362	47.0603
912.489	48.5182
917.616	52.5215
922.743	49.4522
927.87	49.8027
932.997	53.7176
938.124	38.3914
943.252	44.4837
948.379	27.3953
953.506	36.1729
958.633	41.562
963.76	74.3144
968.887	145.263
974.014	312.541
979.141	989.411
984.268	2835.99
989.395	1096.66
994.522	358.063
999.649	168.842
1004.78	90.2532
1009.9	45.3236
1015.03	35.6189
1020.16	21.5913
1025.28	12.1597
1030.41	7.85976
1035.54	0.055389
1040.67	2.71584
1045.79	1.92296
1050.92	2.76527
1056.05	1.58139
1061.17	6.41826
1066.3	12.4739
1071.43	9.52348
1076.56	5.60429
1081.68	12.7893
1086.81	10.3057
1091.94	4.96912
1097.06	3.54802
1102.19	4.9805
1107.32	2.01668
1112.45	7.42201
1117.57	1.15833
1122.7	9.86839
1127.83	9.59775
1132.95	1.29504
1138.08	3.20357
1143.21	2.36543
1148.33	7.35355
1153.46	6.24669
1158.59	7.39064
1163.72	5.01656
1168.84	3.74207
1173.97	8.25688
1179.1	2.74622
1184.22	3.70854
1189.35	4.42087
1194.48	6.17534
1199.61	9.14673
1204.73	3.14703
1209.86	4.96497
1214.99	6.51154
1220.11	1.38313
1225.24	1.51747
1230.37	6.85013
1235.5	3.9713
1240.62	1.6282
1245.75	9.5818
1250.88	1.29396
1256	3.73567
1261.13	3.19778
1266.26	2.60692
1271.38	1.11884
1276.51	7.01198
1281.64	3.58057
1286.77	7.82219
1291.89	6.16441
1297.02	9.66237
1302.15	10.7536
1307.27	5.44907
1312.4	5.55727
1317.53	7.39621
1322.66	5.75948
1327.78	11.4181
1332.91	3.45149
1338.04	3.44452
1343.16	6.36261
1348.29	19.9215
1353.42	24.3586
1358.55	34.6728
1363.67	33.6227
1368.8	39.9426
1373.93	49.6339
1379.05	44.5599
1384.18	44.1786
1389.31	28.8951
1394.43	20.0891
1399.56	11.9349
1404.69	0.371109
1409.82	12.5983
1414.94	20.1728
1420.07	14.0341
1425.2	4.89862
1430.32	8.52298
1435.45	6.92822
1440.58	4.31642
1445.71	8.46155
1450.83	5.73407
1455.96	9.31075
1461.09	5.20139
1466.21	2.08229
1471.34	9.25668
1476.47	0.715057
1481.6	1.97452
1486.72	11.6579
1491.85	4.84143
1496.98	8.11311
1502.1	11.7589
1507.23	5.41248
1512.36	15.554
1517.48	2.83241
1522.61	11.552
1527.74	5.08337
1532.87	12.1803
1537.99	5.08231
1543.12	7.89902
1548.25	3.65448
1553.37	5.91197
1558.5	9.64279
1563.63	8.08223
1568.76	0.655945
1573.88	2.52
1579.01	1.48054
1584.14	6.65367
1589.26	9.92409
1594.39	10.1013
1599.52	6.03815
1604.65	7.64908
1609.77	5.05843
1614.9	12.0038
1620.03	9.10098
1625.15	14.2915
1630.28	18.5222
1635.41	16.6448
1640.53	15.4199
1645.66	8.18919
1650.79	8.28773
1655.92	4.86603
1661.04	2.91132
1666.17	0.505157
1671.3	1.87369
1676.42	4.37753
1681.55	3.71549
1686.68	0.706238
1691.81	1.42795
1696.93	5.37027
1702.06	5.93356
1707.19	4.53723
1712.31	6.19327
1717.44	4.94537
1722.57	14.0675
1727.69	20.3288
1732.82	14.6973
1737.95	2.40308
1743.08	25.183
1748.2	20.8952
1753.33	13.4434
1758.46	8.91187
1763.58	15.6306
1768.71	23.0583
1773.84	21.354
1778.97	16.7582
1784.09	17.7462
1789.22	12.1838
1794.35	15.5248
1799.47	17.5377
1804.6	22.7324
1809.73	12.1309
1814.86	10.4149
1819.98	19.2829
1825.11	8.42279
1830.24	10.214
1835.36	10.7105
1840.49	14.735
1845.62	5.08963
1850.74	4.38477
1855.87	8.59268
1861	10.4996
1866.13	0.812408
1871.25	1.61154
1876.38	5.69006
1881.51	7.25623
1886.63	14.1873
1891.76	12.4703
1896.89	11.8137
1902.02	12.4961
1907.14	7.10068
1912.27	13.9484
1917.4	16.2646
1922.52	13.9018
1927.65	8.09485
1932.78	11.3994
1937.91	2.52942
1943.03	2.85425
1948.16	15.1851
1953.29	3.19226
1958.41	3.68866
1963.54	12.7584
1968.67	18.0988
1973.79	16.4153
1978.92	9.32794
1984.05	9.52481
1989.18	17.3839
1994.3	9.37885
1999.43	9.8306
