Measurement: Raman, 514 nm, depolarized, Raman Data Processed
Mineral: Bertrandite
Rruff sample: R060800
Ideal chemistry: Be_4_Si_2_O_7_(OH)_2_
Locality: Golconda mine, Governador Valadares, Minas Gerais, Brazil
Source: Bob Jenkins
Description: Colorless pseudohexagonal prisms
Measured chemistry: Be_4.00_Si_2.00_O_7_(OH)_2_
Pin_id: M00454
Orientation: Laser parallel to a* (1 0 0). Fiducial mark perpendicular to laser is parallel to b [0 1 0]
Raman shift (cm-1)	intensity
123.058	0
127.979	24.1431
132.898	115.521
137.814	379.132
142.728	728.078
147.639	226.683
152.549	109.077
157.455	87.2666
162.359	167.69
167.261	538.441
172.161	3490.39
177.058	9338.83
181.952	22563.5
186.845	11843.3
191.734	6457.79
196.622	21629
201.507	52723
206.389	38917.9
211.269	9234.51
216.147	3068.9
221.022	9437.63
225.895	27080.7
230.765	20809.9
235.633	7318.28
240.498	4983.12
245.361	2448.53
250.222	751.965
255.08	303.868
259.936	355.036
264.789	131.432
269.64	175.956
274.488	17.4932
279.334	17.0908
284.178	30.4092
289.019	556.445
293.857	1813.68
298.693	2803.88
303.527	887.86
308.358	88.5117
313.187	1.69238
318.013	53.7051
322.837	73.5049
327.659	233.701
332.478	312.62
337.294	498.288
342.108	352.299
346.92	987.395
351.729	2512.59
356.535	4410.01
361.34	3413.6
366.141	1498.45
370.94	381.555
375.737	352.204
380.531	414.106
385.323	739.468
390.113	520.392
394.9	359.297
399.684	284.169
404.466	338.999
409.245	739.757
414.022	1175.67
418.797	1191.77
423.569	664.045
428.338	522.408
433.105	530.461
437.87	747.509
442.632	665.535
447.391	940.523
452.149	361.459
456.903	125.054
461.655	227.051
466.405	54.0908
471.152	42.0889
475.897	14.2969
480.639	108.579
485.378	531.215
490.116	619.748
494.85	646.084
499.582	348.398
504.312	120.594
509.039	43.209
513.764	162.747
518.486	204.997
523.206	61.9785
527.923	517.64
532.638	1463.17
537.35	2164.55
542.059	774.807
546.766	108.925
551.471	41.8975
556.173	23.3545
560.873	4.04004
565.57	343.257
570.264	1085.37
574.957	2522.37
579.646	2830.52
584.333	996.606
589.018	317.739
593.7	233.001
598.379	284.44
603.056	238.946
607.73	207.976
612.402	179.957
617.072	268.593
621.739	552.019
626.403	247.234
631.065	219.48
635.724	87.3877
640.381	250.165
645.035	12.1309
649.687	3.04004
654.336	122.847
658.983	44.4541
663.627	134.399
668.268	273.787
672.907	762.187
677.544	1749.61
682.178	3534.05
686.809	6847.52
691.438	7935.15
696.065	5079.13
700.688	4774.37
705.31	8939.77
709.929	14891.5
714.545	11173.3
719.158	4793.21
723.77	2202.58
728.378	1494.77
732.984	1208.84
737.588	1183.35
742.189	1017.16
746.787	1607.09
751.383	3126.64
755.976	2864.87
760.567	2076.44
765.155	2526.09
769.741	4376.8
774.324	3424.64
778.904	1216.47
783.482	566.309
788.058	212.594
792.631	214.867
797.201	279.205
801.769	144.708
806.334	396.479
810.897	739.351
815.457	1882.32
820.014	3168.4
824.569	1893.6
829.122	627.912
833.671	73.4258
838.219	33.1934
842.763	6.14258
847.306	137.246
851.845	96.5547
856.382	85.5703
860.917	170.954
865.448	52.4902
869.978	74.4902
874.505	34.4248
879.029	10.7432
883.55	217.135
888.069	158.17
892.586	194.347
897.1	242.664
901.611	290.121
906.12	515.723
910.626	811.573
915.129	1780.58
919.63	5828.74
924.129	16439.1
928.625	13960.7
933.118	5058.54
937.609	2206.55
942.097	1595.71
946.582	1943.04
951.065	1907.53
955.546	1108.25
960.023	963.145
964.499	1052.21
968.971	1338.33
973.441	1900.76
977.909	4126.02
982.374	8962.87
986.836	16398.9
991.295	12370.7
995.753	5125.3
1000.21	2598.84
1004.66	1669.96
1009.11	845.881
1013.55	519.863
1018	505.231
1022.44	496.131
1026.88	587.285
1031.32	335.679
1035.75	335.268
1040.18	250.06
1044.61	191.147
1049.04	211.858
1053.46	277.351
1057.88	270.024
1062.3	514.877
1066.71	1151.76
1071.13	1384.96
1075.54	896.612
1079.94	611.134
1084.35	477.882
1088.75	419.68
1093.15	71.6523
1097.55	45.0781
1101.94	202.273
1106.34	29.4512
1110.73	135.924
1115.11	12.2793
1119.5	312.891
1123.88	599.82
1128.26	327.225
1132.63	171.353
1137.01	80.9609
1141.38	98.9981
1145.75	139.602
1150.12	166.473
1154.48	106.484
1158.84	355.938
1163.2	344.065
1167.55	454.41
1171.91	315.602
1176.26	290.037
1180.61	180.613
1184.95	169.918
1189.29	98.2109
1193.63	83.6152
1197.97	101.856
1202.31	59.0566
1206.64	111.219
1210.97	110.342
1215.29	44.3887
1219.62	182.281
1223.94	50.1055
1228.26	125.832
1232.57	195.584
1236.89	139.336
1241.2	75.1758
1245.51	166.203
1249.81	44.457
1254.12	8.27344
1258.42	163.57
1262.72	141.147
1267.01	26.3457
1271.3	2.63086
1275.59	9.47461
1279.88	58.5586
1284.17	20.1484
1288.45	193.09
1292.73	75.9746
1297.01	140.137
1301.28	88.7266
1305.55	171.627
1309.82	217.758
1314.09	219.836
1318.35	146.773
1322.61	290.07
1326.87	250.861
1331.13	202.383
1335.38	287.481
1339.63	343.213
1343.88	243.904
1348.12	217.945
1352.37	179.935
1356.61	156.42
1360.85	238.094
1365.08	225.871
1369.31	171.848
1373.54	183.228
1377.77	256.496
1381.99	218.67
1386.22	284.918
1390.43	171.848
1394.65	297.606
1398.87	291.699
1403.08	185.231
1407.29	133.412
1411.49	120.018
1415.69	64.1152
1419.89	97.8027
1424.09	122.027
1428.29	267.049
1432.48	27.7422
1436.67	215.356
1440.86	169.516
1445.04	125.041
1449.23	223.898
1453.4	119.156
1457.58	409.227
1461.76	65.1894
1465.93	133.037
1470.1	191.772
1474.26	260.297
1478.43	211.629
1482.59	115.338
1486.75	267.643
1490.9	239.815
1495.06	89.5039
1499.21	192.213
1503.35	161.75
1507.5	95.6348
1511.64	199.553
1515.78	303.412
1519.92	79.1035
1524.05	128.619
1528.18	230.65
1532.31	167.685
1536.44	86.5508
1540.56	80.75
1544.69	54.2754
1548.8	6.08789
1552.92	192.353
1557.03	297.135
1561.14	96.5078
1565.25	184.728
1569.36	221.529
