Measurement: Raman, 514 nm, depolarized, Raman Data Processed
Mineral: Bertrandite
Rruff sample: R060800
Ideal chemistry: Be_4_Si_2_O_7_(OH)_2_
Locality: Golconda mine, Governador Valadares, Minas Gerais, Brazil
Source: Bob Jenkins
Description: Colorless pseudohexagonal prisms
Measured chemistry: Be_4.00_Si_2.00_O_7_(OH)_2_
Pin_id: M00212
Orientation: Laser parallel to c* (0 0 1). Fiducial mark perpendicular to laser is parallel to a [1 0 0]
Raman shift (cm-1)	intensity
123.058	0
127.979	53.3262
132.898	9.61719
137.814	100.121
142.728	65.3809
147.639	52.3848
152.549	169.406
157.455	262.703
162.359	216.51
167.261	320.904
172.161	338.535
177.058	1061.86
181.952	3969.77
186.845	1916.59
191.734	1046.12
196.622	2633.25
201.507	6409.01
206.389	17202
211.269	3188.83
216.147	1021.69
221.022	527.232
225.895	1925.23
230.765	1989.99
235.633	947.24
240.498	1764.86
245.361	553.094
250.222	212.373
255.08	210.897
259.936	290.803
264.789	87.8887
269.64	117.025
274.488	325.836
279.334	90.9258
284.178	44.2734
289.019	251.125
293.857	295.522
298.693	563.74
303.527	162.633
308.358	75.0781
313.187	197.377
318.013	123.637
322.837	105.82
327.659	540.434
332.478	448.143
337.294	162.31
342.108	106.086
346.92	190.191
351.729	185.289
356.535	768.297
361.34	764.606
366.141	327.414
370.94	123.316
375.737	262.547
380.531	394.723
385.323	410.373
390.113	485.914
394.9	238.99
399.684	132.603
404.466	255.357
409.245	204.037
414.022	159.176
418.797	117.58
423.569	285.387
428.338	217.717
433.105	146.295
437.87	43.0215
442.632	302.586
447.391	451.031
452.149	61.543
456.903	60.0586
461.655	66.6211
466.405	206.486
471.152	231.719
475.897	89.8945
480.639	39.5996
485.378	365.156
490.116	115.32
494.85	270.17
499.582	401.256
504.312	101.742
509.039	6.1875
513.764	111.541
518.486	311.801
523.206	112.498
527.923	246.684
532.638	122.17
537.35	533.312
542.059	502.432
546.766	229.15
551.471	127.906
556.173	102.67
560.873	180.902
565.57	239.361
570.264	455.41
574.957	746.086
579.646	1292.38
584.333	559.264
589.018	372.717
593.7	72.7402
598.379	245.334
603.056	10.25
607.73	53.709
612.402	22.8535
617.072	340.037
621.739	484.641
626.403	428.231
631.065	270.295
635.724	99.2754
640.381	208.982
645.035	395.705
649.687	5.17773
654.336	186.932
658.983	31.0898
663.627	106.627
668.268	179.828
672.907	52.0664
677.544	229.951
682.178	486.51
686.809	1152.94
691.438	1952.41
696.065	1554.74
700.688	1081.95
705.31	991.01
709.929	930.49
714.545	512.037
719.158	469.715
723.77	591.902
728.378	601.252
732.984	481.428
737.588	255.293
742.189	290.555
746.787	539.324
751.383	822.469
755.976	654.191
760.567	667.508
765.155	710.473
769.741	356.34
774.324	414.371
778.904	34.5391
783.482	187.383
788.058	47.1211
792.631	209.863
797.201	226.621
801.769	462.949
806.334	483.426
810.897	500.852
815.457	286.934
820.014	245.762
824.569	338.336
829.122	37.0898
833.671	209.543
838.219	224.566
842.763	43.0469
847.306	239.262
851.845	544.312
856.382	352.133
860.917	121.754
865.448	299.129
869.978	276.238
874.505	110.871
879.029	213.188
883.55	113.461
888.069	153.863
892.586	189.137
897.1	282.25
901.611	58.3125
906.12	281.547
910.626	118.094
915.129	277.379
919.63	47.082
924.129	56.0664
928.625	292.477
933.118	291.535
937.609	4.89062
942.097	245.402
946.582	452.832
951.065	434.18
955.546	269.621
960.023	275.207
964.499	308.848
968.971	112.527
973.441	296.754
977.909	677.231
982.374	1863.69
986.836	2544.8
991.295	1748.07
995.753	648.652
1000.21	643.664
1004.66	368.231
1009.11	170.121
1013.55	223.559
1018	360.324
1022.44	72.6133
1026.88	198.551
1031.32	196.891
1035.75	248.07
1040.18	128.633
1044.61	17.4805
1049.04	255.84
1053.46	20.5195
1057.88	78.2969
1062.3	315.535
1066.71	279.133
1071.13	555.676
1075.54	332.035
1079.94	775.004
1084.35	894.711
1088.75	579.195
1093.15	623.344
1097.55	787.367
1101.94	223.106
1106.34	272.797
1110.73	310.367
1115.11	586.648
1119.5	32.5977
1123.88	338.207
1128.26	308.102
1132.63	2.54297
1137.01	339.449
1141.38	128.18
1145.75	126.207
1150.12	83.1016
1154.48	233.691
1158.84	244.926
1163.2	212.356
1167.55	211.805
1171.91	55.5156
1176.26	236.906
1180.61	32.7617
1184.95	28.7695
1189.29	156.797
1193.63	391.328
1197.97	132.973
1202.31	254.957
1206.64	82.7734
1210.97	499.535
1215.29	331.648
1219.62	110.348
1223.94	247.285
1228.26	179.781
1232.57	14.1211
1236.89	239.406
1241.2	348.606
1245.51	358.785
1249.81	198.973
1254.12	240.375
1258.42	250.445
1262.72	449.848
1267.01	461.184
1271.3	92.5781
1275.59	51.9922
1279.88	292.691
1284.17	267.008
1288.45	398.867
1292.73	340.289
1297.01	175.383
1301.28	184.684
1305.55	593.082
1309.82	299.121
1314.09	330.117
1318.35	329.758
1322.61	534.258
1326.87	7.61719
1331.13	214.465
1335.38	210.363
1339.63	409.801
1343.88	276.356
1348.12	376.91
1352.37	506.152
1356.61	418.598
1360.85	209.59
1365.08	511.918
1369.31	261.707
1373.54	367.711
1377.77	226.887
1381.99	385.258
1386.22	258.715
1390.43	358.578
1394.65	309.113
1398.87	398.266
1403.08	12
1407.29	268.578
1411.49	80.0859
1415.69	62.4961
1419.89	7.49219
1424.09	209.523
1428.29	243.625
1432.48	332.727
1436.67	324.391
1440.86	689.519
1445.04	451.418
1449.23	423.676
1453.4	977.684
1457.58	327.402
1461.76	235.207
1465.93	180.199
1470.1	214.57
1474.26	160.59
1478.43	412.324
1482.59	401.828
1486.75	163.363
1490.9	182.449
1495.06	92.7383
1499.21	130.992
1503.35	268.781
1507.5	76.1406
1511.64	311.594
1515.78	236.734
1519.92	235.602
1524.05	496.176
1528.18	441.125
1532.31	447.961
1536.44	183.016
1540.56	244.324
1544.69	432.285
1548.8	125.656
1552.92	214.234
1557.03	138.199
1561.14	242.504
1565.25	99.457
1569.36	116.363
