Measurement: Raman, 514 nm, depolarized, Raman Data Processed
Mineral: Bertrandite
Rruff sample: R060800
Ideal chemistry: Be_4_Si_2_O_7_(OH)_2_
Locality: Golconda mine, Governador Valadares, Minas Gerais, Brazil
Source: Bob Jenkins
Description: Colorless pseudohexagonal prisms
Measured chemistry: Be_4.00_Si_2.00_O_7_(OH)_2_
Pin_id: M00406
Orientation: Laser parallel to b* (0 1 0). Fiducial mark perpendicular to laser is parallel to c [0 0 1]
Raman shift (cm-1)	intensity
123.058	0
127.979	26.4106
132.898	21.4863
137.814	20.0273
142.728	83.2573
147.639	81.8608
152.549	9.21631
157.455	271.774
162.359	345.539
167.261	693.511
172.161	3239.86
177.058	7897.68
181.952	21310.5
186.845	10087.1
191.734	7377.27
196.622	20678.8
201.507	47756.4
206.389	30595.5
211.269	7160.99
216.147	3098.07
221.022	7190.7
225.895	19646.5
230.765	14551.9
235.633	5014.21
240.498	4051.74
245.361	1749.56
250.222	506.551
255.08	371.251
259.936	361.043
264.789	145.898
269.64	98.2056
274.488	0.635742
279.334	19.1768
284.178	130.206
289.019	540.732
293.857	1395.11
298.693	1931.18
303.527	493.835
308.358	83.9888
313.187	99.5664
318.013	56.1938
322.837	222.963
327.659	384.26
332.478	450.334
337.294	255.504
342.108	342.039
346.92	920.167
351.729	2058.39
356.535	3187.7
361.34	2654.1
366.141	1201.98
370.94	225.337
375.737	235.454
380.531	372.662
385.323	659.224
390.113	499.714
394.9	279.11
399.684	236.392
404.466	445.133
409.245	864.658
414.022	1139.71
418.797	1129.13
423.569	413.534
428.338	369.372
433.105	506.178
437.87	584.906
442.632	455.54
447.391	660.067
452.149	266.474
456.903	29.752
461.655	80.5581
466.405	1.75977
471.152	117.797
475.897	40.8477
480.639	33.2451
485.378	347.07
490.116	419.713
494.85	285.171
499.582	182.16
504.312	90.5176
509.039	41.6773
513.764	34.3281
518.486	24.7056
523.206	134.406
527.923	433.072
532.638	1133.53
537.35	1556.77
542.059	366.802
546.766	115.627
551.471	80.2256
556.173	42.5645
560.873	166.656
565.57	278.531
570.264	1081.31
574.957	2432.99
579.646	2224.61
584.333	752.277
589.018	331.782
593.7	154.195
598.379	127.208
603.056	42.3887
607.73	232.88
612.402	231.288
617.072	172.369
621.739	417.603
626.403	232.049
631.065	82.3975
635.724	21.6553
640.381	84.8272
645.035	126.918
649.687	161.994
654.336	35.8174
658.983	36.6377
663.627	61.4199
668.268	306.759
672.907	536.088
677.544	1535.41
682.178	3077.74
686.809	6073.08
691.438	6298.23
696.065	3843.48
700.688	3958.95
705.31	7116.05
709.929	11020.2
714.545	7714.58
719.158	3227.78
723.77	1544.68
728.378	1079.79
732.984	1118.94
737.588	734.693
742.189	839.958
746.787	1388.94
751.383	2832.03
755.976	2636.01
760.567	1720.32
765.155	2075.74
769.741	3355.24
774.324	2245.83
778.904	888.525
783.482	245.322
788.058	235.304
792.631	237.731
797.201	198.9
801.769	114.644
806.334	147.742
810.897	460.983
815.457	1754.37
820.014	2580.91
824.569	1361.6
829.122	534.472
833.671	201.529
838.219	21.1846
842.763	89.7451
847.306	59.3486
851.845	27.0205
856.382	54.8662
860.917	101.058
865.448	63.8369
869.978	13.2568
874.505	14.4434
879.029	35.1758
883.55	224.977
888.069	132.974
892.586	225.147
897.1	162.482
901.611	277.979
906.12	536.638
910.626	639.459
915.129	1639.44
919.63	5198.59
924.129	13326.9
928.625	10013.4
933.118	3559.21
937.609	1532.35
942.097	1276.72
946.582	1534.31
951.065	1274.22
955.546	786.275
960.023	744.506
964.499	748.882
968.971	1074.4
973.441	1797.04
977.909	3623.59
982.374	8229.56
986.836	13481.5
991.295	9221.72
995.753	4160.54
1000.21	2023.44
1004.66	1320.01
1009.11	671.775
1013.55	450.618
1018	418.667
1022.44	353.853
1026.88	407.159
1031.32	187.589
1035.75	235.127
1040.18	180.772
1044.61	129.519
1049.04	99.4287
1053.46	289.374
1057.88	79.4102
1062.3	508.431
1066.71	843.531
1071.13	940.284
1075.54	828.452
1079.94	666.629
1084.35	530.323
1088.75	231.788
1093.15	81.9238
1097.55	130.807
1101.94	25.6318
1106.34	29.8779
1110.73	119.704
1115.11	203.361
1119.5	298.154
1123.88	440.171
1128.26	177.316
1132.63	35.3545
1137.01	85.6152
1141.38	57.0703
1145.75	147.538
1150.12	13.9775
1154.48	191.062
1158.84	54.8643
1163.2	298.286
1167.55	219.789
1171.91	203.377
1176.26	236.85
1180.61	148.273
1184.95	123.645
1189.29	88.9492
1193.63	15.1377
1197.97	73.1865
1202.31	49.0996
1206.64	24.1953
1210.97	19.1855
1215.29	23.2793
1219.62	124.555
1223.94	92.4199
1228.26	217.199
1232.57	49.6016
1236.89	73.0205
1241.2	115.353
1245.51	169.723
1249.81	118.015
1254.12	143.22
1258.42	63.3467
1262.72	83.3828
1267.01	201.597
1271.3	121.047
1275.59	147.607
1279.88	14.6631
1284.17	145.163
1288.45	138.48
1292.73	251.034
1297.01	358.271
1301.28	133.671
1305.55	125.957
1309.82	85.1123
1314.09	256.258
1318.35	315.326
1322.61	262.206
1326.87	93.4336
1331.13	299.803
1335.38	144.251
1339.63	52.0352
1343.88	178.001
1348.12	196.845
1352.37	128.827
1356.61	81.0703
1360.85	36.3935
1365.08	182.169
1369.31	80.334
1373.54	213.741
1377.77	111.844
1381.99	131.051
1386.22	86.708
1390.43	14.1631
1394.65	120.074
1398.87	157.418
1403.08	82.8203
1407.29	34.1904
1411.49	26.5283
1415.69	94.4512
1419.89	117.745
1424.09	50.9541
1428.29	272.091
1432.48	107.373
1436.67	212.928
1440.86	305.806
1445.04	321.168
1449.23	420.12
1453.4	476.709
1457.58	404.671
1461.76	302.664
1465.93	238.084
1470.1	155.157
1474.26	156.077
1478.43	349.644
1482.59	258.023
1486.75	125.832
1490.9	124.282
1495.06	162.251
1499.21	171.325
1503.35	105.223
1507.5	5.34863
1511.64	101.384
1515.78	104.208
1519.92	169.94
1524.05	172.602
1528.18	217.472
1532.31	158.075
1536.44	33.2734
1540.56	184.556
1544.69	109.725
1548.8	46.7383
1552.92	353.997
1557.03	155.886
1561.14	189.944
1565.25	111.058
1569.36	113.027
