Measurement: Raman, 514 nm, depolarized, Raman Data Processed
Mineral: Beryl
Rruff sample: R050120
Ideal chemistry: Be_3_Al_2_Si_6_O_18_
Locality: Cruziero mine, San Jose, Minas Gerais, Brazil
Source: Carlos and Paulo Vasconcelos
Description: Yellow gemmy fragment
Measured chemistry: (Be_2.76_Li_0.24_)_Σ=3_Al_2.00_Si_6.00_O_18_·Na_0.24_
Pin_id: L00520
Orientation: Laser parallel to a* (1 0 0). Fiducial mark perpendicular to laser is parallel to c [0 0 1]
Raman shift (cm-1)	intensity
91.981	0
96.161	15.831
100.34	230.698
104.516	306.263
108.691	616.144
112.864	1301.02
117.034	2262.51
121.203	1574.48
125.369	1475.73
129.534	1772.66
133.696	1388.07
137.857	1479.03
142.016	1175.99
146.172	1022.97
150.327	1030.31
154.48	940.032
158.63	928.617
162.779	979.246
166.926	790.666
171.07	1022.18
175.213	731.117
179.354	940.443
183.493	875.279
187.63	462.771
191.765	396.626
195.898	533.498
200.029	312.35
204.158	172.147
208.285	223.855
212.41	90.44
216.533	24.878
220.654	74.991
224.773	278.451
228.891	367.131
233.006	291.21
237.119	263.293
241.231	339.209
245.34	643.965
249.448	464.54
253.553	231.951
257.657	45.675
261.758	42.835
265.858	7.669
269.956	112.654
274.052	137.386
278.146	66.224
282.237	29.977
286.327	181.146
290.416	312.271
294.502	349.32
298.586	468.252
302.668	472.009
306.749	622.512
310.827	1101.74
314.903	1840.73
318.978	3468.36
323.051	5782.73
327.121	4073.81
331.19	1780.62
335.257	360.191
339.322	97.484
343.385	25.096
347.446	229.949
351.505	21.133
355.563	19.938
359.618	114.02
363.672	66.373
367.723	79.02
371.773	65.201
375.821	123.451
379.866	379.877
383.91	866.506
387.952	1622.36
391.992	3559.75
396.031	7607.75
400.067	9870.74
404.101	6263.75
408.134	2836.77
412.165	1428.81
416.193	985.867
420.22	866.836
424.245	642.602
428.268	338.908
432.289	474.809
436.309	371.977
440.326	472.242
444.342	824.875
448.355	536.096
452.367	703.916
456.377	496.746
460.385	267.568
464.391	146.365
468.395	64.127
472.398	386.867
476.398	71.586
480.397	134.365
484.394	188.199
488.389	381.1
492.382	75.264
496.373	216.754
500.362	283.254
504.349	365.982
508.335	192.523
512.319	298.598
516.3	438.336
520.28	488.051
524.259	501.559
528.235	666.084
532.209	741.713
536.182	549.623
540.152	462.525
544.121	409.492
548.088	347.525
552.053	193.627
556.017	366.799
559.978	254.031
563.938	291.402
567.895	602.924
571.851	451.598
575.805	612.402
579.758	854.381
583.708	454.648
587.657	399.783
591.603	353.609
595.548	552.305
599.491	313.236
603.432	462.746
607.372	215.992
611.309	380.602
615.245	750.516
619.179	846.328
623.111	678.623
627.041	919.609
630.97	886.514
634.896	466.09
638.821	507.955
642.744	640.934
646.665	1126.82
650.584	948.225
654.502	1064.15
658.418	1313.97
662.331	1112.06
666.244	1958.86
670.154	2873.45
674.062	4840.2
677.969	9450.33
681.874	21467.9
685.777	35634.4
689.678	24881.7
693.577	11945.2
697.475	5965.99
701.371	3691.04
705.265	2731.72
709.157	1942.19
713.047	1124.44
716.936	1041.75
720.823	742.834
724.708	735.062
728.591	835.766
732.472	665.645
736.352	641.369
740.23	545.607
744.106	595.996
747.98	557.912
751.853	358.529
755.723	185.846
759.592	363.844
763.459	232.531
767.325	44.109
771.188	122.777
775.05	366.322
778.91	221.523
782.768	109.389
786.625	87.9
790.479	82.943
794.332	196.635
798.183	4.762
802.033	130.27
805.88	206.217
809.726	68.967
813.57	150.32
817.413	19.955
821.253	10.01
825.092	124.994
828.929	35.215
832.764	137.064
836.598	210.664
840.429	326.855
844.259	351.598
848.088	62.98
851.914	37.016
855.739	129.283
859.562	299.055
863.383	303.086
867.203	177.818
871.02	85.209
874.836	85.162
878.65	11.596
882.463	76.363
886.274	7.15
890.083	62.287
893.89	69.078
897.695	364.518
901.499	190.664
905.301	163.58
909.102	305.092
912.9	372.352
916.697	112.605
920.492	363.703
924.285	322.082
928.077	379.73
931.867	337.141
935.655	151.305
939.442	313.766
943.226	291.42
947.009	472.213
950.791	285.451
954.57	289.875
958.348	158.486
962.124	2.529
965.899	400.549
969.671	287.775
973.442	95.262
977.211	15.414
980.979	97.398
984.745	527.061
988.509	505.133
992.271	625.969
996.032	1340.91
999.791	2358
1003.55	2516.44
1007.3	2580.27
1011.06	2723.32
1014.81	2458.3
1018.56	2126.52
1022.31	2023.29
1026.06	2298.74
1029.8	2310.71
1033.55	2314.81
1037.29	2791.08
1041.03	3253.02
1044.77	3980.57
1048.5	5547.38
1052.24	7611.74
1055.97	10520.4
1059.7	14100.3
1063.43	18510.4
1067.16	21103.7
1070.89	20413.3
1074.61	18177.2
1078.34	14747.3
1082.06	11176.6
1085.78	8816.22
1089.5	6969.03
1093.21	5528.11
1096.93	4885.48
1100.64	4156.16
1104.35	4040.81
1108.06	3676.45
1111.77	3589.24
1115.48	3586.79
1119.18	3385.02
1122.89	3620.73
1126.59	3260.92
1130.29	3266.75
1133.99	2718.52
1137.68	3142.57
1141.38	2731.52
1145.07	2756.94
1148.76	2580.22
1152.45	2116.12
1156.14	1488.42
1159.83	1494.96
1163.51	1048.83
1167.19	840.934
1170.88	497.66
1174.56	819.727
1178.23	789.488
1181.91	755.125
1185.59	311.484
1189.26	352.836
1192.93	270.305
1196.6	612.145
1200.27	280.332
1203.94	684.797
1207.6	111.598
1211.27	422.137
1214.93	563.75
1218.59	498.547
1222.25	117.34
1225.9	411.738
1229.56	543.664
1233.21	574.047
1236.86	554.008
1240.51	507.703
1244.16	256.543
1247.81	98.766
1251.45	247.715
1255.1	264.793
1258.74	375.145
1262.38	87.352
1266.02	129.996
1269.66	119.664
1273.29	6.609
1276.93	130.926
1280.56	100.504
1284.19	89.238
1287.82	224.934
1291.45	13.348
1295.07	133.516
1298.7	316.371
1302.32	50.938
1305.94	16.555
1309.56	317.977
1313.18	27.363
1316.8	524.504
1320.41	263.633
1324.02	61.801
1327.63	19.051
1331.24	323.449
1334.85	174.066
1338.46	241.996
1342.06	12.324
1345.67	132.086
1349.27	282.453
1352.87	559.594
1356.47	569.07
1360.07	528.398
1363.66	777.121
1367.25	677.871
1370.85	398.758
1374.44	685.285
1378.03	114.699
1381.61	327.383
1385.2	318.984
1388.78	312.008
1392.37	118.176
1395.95	194.594
1399.53	244.488
1403.1	419.445
1406.68	19.02
1410.26	115.078
1413.83	572.43
1417.4	1.75
1420.97	331.879
1424.54	374.543
