Measurement: Raman, 514 nm, depolarized, Raman Data Processed
Mineral: Beryl
Rruff sample: R040002
Ideal chemistry: Be_3_Al_2_Si_6_O_18_
Locality: Usakos, Namibia
Source: University of Arizona Mineral Museum
Description: Light blue hexagonal prism, variety aquamarine
Measured chemistry: (Be_0.97_Li_0.03_)_3_(Al_0.97_Fe^3+^_0.03_)_2_Si_6_O_18_Î‡Na_0.01_
Pin_id: m00036
Orientation: Laser parallel to a* (1 0 0). Fiducial mark perpendicular to laser is parallel to c [0 0 1]
Raman shift (cm-1)	intensity
97.554	0
101.732	7.189
105.908	125.307
110.082	596.483
114.254	1284.45
118.424	869.947
122.592	281.589
126.758	90.834
130.922	195.673
135.083	728.472
139.243	457.741
143.401	924.058
147.557	669.995
151.711	140.3
155.863	3.836
160.013	13.495
164.161	94.367
168.308	172.224
172.452	161.892
176.594	215.408
180.734	408.76
184.872	577.309
189.008	398.996
193.143	499.964
197.275	394.274
201.405	365.956
205.534	493.104
209.66	375.853
213.784	240.979
217.907	181.531
222.027	184.72
226.146	173.294
230.263	211.477
234.377	220.384
238.49	343.546
242.601	328.977
246.709	300.056
250.816	507.368
254.921	574.406
259.024	254.665
263.125	234.639
267.224	272.938
271.321	340.123
275.416	415.278
279.51	432.187
283.601	608.711
287.69	756.753
291.778	845.242
295.863	1030.12
299.947	952.342
304.029	999.93
308.108	1358.14
312.186	2290.23
316.262	5273.77
320.336	11506.4
324.408	7177.24
328.478	1675.09
332.546	392.303
336.612	87.916
340.677	85.762
344.739	17.393
348.799	33.063
352.858	25.526
356.915	41.844
360.969	56.925
365.022	129.79
369.073	221.743
373.122	255.777
377.169	744.884
381.215	1277.06
385.258	2145.84
389.299	5453.9
393.339	12620.8
397.376	11729.4
401.412	4308.76
405.446	1635.08
409.478	800.234
413.508	704.504
417.536	1000.96
421.562	1349.38
425.586	763.548
429.609	315.761
433.629	268.021
437.648	558.298
441.665	1384.59
445.68	1727.87
449.693	1560.15
453.704	655.448
457.713	219.662
461.721	105.831
465.726	156.949
469.73	94.979
473.731	45.106
477.731	24.631
481.729	121.28
485.725	153.864
489.72	31.39
493.712	63.834
497.703	20.317
501.691	73.193
505.678	125.267
509.663	122.385
513.646	286.02
517.627	481.044
521.607	905.221
525.584	1693.4
529.56	1828.55
533.534	1172.58
537.506	471.488
541.476	135.284
545.444	45.922
549.41	23.776
553.375	142.966
557.337	23.863
561.298	85.627
565.257	8.284
569.214	107.511
573.17	174.09
577.123	127.145
581.075	536.186
585.024	454.701
588.972	462.917
592.918	355.603
596.863	350.403
600.805	290.314
604.746	371.883
608.685	308.78
612.621	267.472
616.557	496.955
620.49	1121.23
624.421	1689.24
628.351	717.743
632.279	354.801
636.205	225.069
640.129	295.278
644.051	305.604
647.972	426.765
651.89	522.69
655.807	486.856
659.722	813.843
663.636	1201.63
667.547	1888.06
671.457	3392.84
675.365	7298.85
679.271	19622.5
683.175	44665.3
687.077	29187.5
690.978	11730.8
694.877	5436.07
698.774	3310.77
702.669	2085.53
706.562	1412.16
710.454	1694.32
714.344	740.906
718.232	581.409
722.118	314.49
726.002	325.954
729.885	333.978
733.766	272.847
737.645	273.096
741.522	139.093
745.397	349.117
749.271	215.492
753.143	197.818
757.013	286.915
760.881	284.784
764.748	383.437
768.613	868.828
772.476	898.061
776.337	622.089
780.196	386.913
784.054	232.556
787.91	223.034
791.764	94.339
795.616	46.229
799.467	82.256
803.316	195.854
807.163	125.242
811.008	60.426
814.851	33.225
818.693	103.627
822.533	73.446
826.371	78.725
830.208	23.314
834.042	91.723
837.875	25.567
841.706	76.634
845.536	33.95
849.363	22.57
853.189	37.663
857.013	49.75
860.836	138.84
864.656	64.043
868.475	103.398
872.292	10.89
876.108	41.334
879.922	177.705
883.733	122.944
887.544	211.743
891.352	120.311
895.159	105.763
898.964	141.61
902.767	228.171
906.568	385.633
910.368	438.67
914.166	846.763
917.962	903.258
921.757	656.677
925.55	567.021
929.341	390.293
933.13	378.494
936.918	343.567
940.703	282.081
944.488	310.999
948.27	165.122
952.051	188.821
955.83	352.625
959.607	228.674
963.383	167.006
967.156	229.884
970.928	301.882
974.699	414.664
978.468	398.011
982.234	553.311
986	479.111
989.763	602.039
993.525	798.624
997.285	1194.19
1001.04	1677.91
1004.8	2323.7
1008.55	3459.5
1012.31	4275.41
1016.06	3373.73
1019.81	2275.01
1023.56	1865.24
1027.31	1667.87
1031.05	1852.98
1034.79	1994.45
1038.53	2395.73
1042.27	2945.79
1046.01	3723.56
1049.75	4912.28
1053.48	7060.09
1057.22	11439.9
1060.95	19229.9
1064.68	33210.3
1068.4	43821.3
1072.13	35959.2
1075.86	21872.1
1079.58	13833
1083.3	9629.95
1087.02	6874.9
1090.74	4808.85
1094.45	3667.83
1098.17	2534.84
1101.88	1974.89
1105.59	1503.67
1109.3	1118.08
1113.01	766.524
1116.71	782.258
1120.42	712.757
1124.12	991.544
1127.82	393.202
1131.52	441.61
1135.22	422.113
1138.91	381.767
1142.61	355.381
1146.3	342.4
1149.99	95.828
1153.68	6.688
1157.37	9.485
1161.06	62.135
1164.74	63.071
1168.42	6.371
1172.1	76.064
1175.78	81.062
1179.46	24.819
1183.14	165.346
1186.81	99.85
1190.48	136.624
1194.15	181.525
1197.83	169.591
1201.49	319.852
1205.16	202.797
1208.82	56.637
1212.49	131.293
1216.15	93.87
1219.81	284.384
1223.46	221.838
1227.12	315.233
1230.78	386.582
1234.43	328.892
1238.08	532.146
1241.73	780.343
1245.38	1382.6
1249.03	960.721
1252.67	499.788
1256.31	146.809
1259.95	49.691
1263.6	202.487
1267.23	150.061
1270.87	45.532
1274.51	23.198
1278.14	166.773
1281.77	75.371
1285.4	179.635
1289.03	113.257
1292.66	68.609
1296.28	105.216
1299.91	27.77
1303.53	82.229
1307.15	41.645
1310.77	34.473
1314.38	14.318
1318	42.076
1321.61	129.605
1325.23	185.416
1328.84	105.484
1332.45	16.072
1336.06	47.621
1339.66	191.438
1343.27	25.188
1346.87	146.686
1350.47	188.537
1354.07	326.959
1357.67	279.076
1361.26	280.625
1364.86	355.324
1368.45	295.109
1372.04	109.045
1375.63	308.176
1379.22	274.523
1382.81	361.639
1386.39	387.406
1389.98	214.018
1393.56	218.971
1397.14	189.051
1400.72	242.74
1404.3	202.936
1407.87	245.969
1411.45	617.17
1415.02	290.062
1418.59	483.697
1422.16	104.613
1425.73	268.682
1429.29	378.396
1432.86	288.023
1436.42	536.551
1439.98	337.363
1443.54	598.221
1447.1	534.869
1450.66	695.219
1454.21	596.156
1457.77	685.414
1461.32	212.281
1464.87	246.775
1468.42	273.381
1471.96	374.143
1475.51	271.949
1479.06	63.471
1482.6	348.338
1486.14	273.5
1489.68	156.123
1493.22	169.568
1496.75	46.391
1500.29	226.057
1503.82	198.512
1507.35	274.219
1510.88	149.209
1514.41	10.297
1517.94	244.941
1521.46	261.463
