Measurement: Raman, 514 nm, depolarized, Raman Data Processed
Mineral: Beryl
Rruff sample: R060943
Ideal chemistry: Be_3_Al_2_Si_6_O_18_
Locality: Xinjiang, China
Source: Lawrence W. Snee
Description: Green hexagonal prisms, variety emerald
Measured chemistry: (Be_2.96_Li_0.04_)_Σ=3_(Al_1.64_Mg_0.21_V^3+^_0.06_Fe^3+^_0.04_Sc^3+^_0.03_Cr^3+^_0.02_)_Σ=2_Si_6.00_O_18_·Na_0.25_
Pin_id: L00265
Orientation: Laser parallel to a* (1 0 0). Fiducial mark perpendicular to laser is parallel to -c [0 0 -1]
Raman shift (cm-1)	intensity
167.334	0
172.265	54.5903
177.193	130.359
182.117	73.7583
187.039	194.221
191.958	239.413
196.874	311.998
201.787	332.451
206.696	148.716
211.603	69.5938
216.506	173.591
221.407	245.991
226.304	335.787
231.199	325.58
236.091	362.95
240.979	445.097
245.864	959.49
250.747	561.582
255.626	264.546
260.503	8.00684
265.376	110.44
270.247	291.216
275.114	253.273
279.979	213.284
284.84	535.244
289.699	633.227
294.554	647.18
299.407	628.727
304.257	937.83
309.103	1409.5
313.947	2772.21
318.788	5672.07
323.626	10306.7
328.461	5362.34
333.292	1073.1
338.121	113.798
342.947	40.4258
347.771	49.1069
352.591	44.6377
357.408	110.372
362.222	4.67041
367.034	132.04
371.842	267.024
376.648	650.972
381.45	1366.06
386.25	2703.15
391.047	5784.98
395.841	10651.5
400.632	9876.55
405.42	4064.72
410.205	2014.01
414.988	1441.27
419.767	1070.63
424.544	679.817
429.318	626.825
434.089	804.646
438.857	1131.26
443.622	1283.66
448.384	637.864
453.143	364.87
457.9	251.68
462.654	197.256
467.405	128.555
472.153	154.553
476.898	281.259
481.64	170.499
486.38	215.249
491.116	292.031
495.85	228.499
500.581	374.34
505.309	361.972
510.035	516.47
514.757	852.984
519.477	1437.65
524.194	1691.13
528.908	1237.45
533.62	581.59
538.328	88.6352
543.034	39.5122
547.737	100.758
552.437	85.9771
557.134	144.756
561.829	298.339
566.521	185.915
571.21	302.513
575.896	430.048
580.58	474.535
585.261	530.063
589.939	488.508
594.614	493.944
599.286	588.539
603.956	490.029
608.623	567.966
613.287	925.69
617.949	1610.49
622.608	1151.59
627.264	521.938
631.917	332.058
636.568	335.741
641.215	413.368
645.861	431.634
650.503	552.926
655.143	805.139
659.78	1156.26
664.414	1841.29
669.046	3270.24
673.674	6737.03
678.301	16430.2
682.924	36992
687.545	45411
692.163	19389.6
696.778	7966.68
701.391	4216.47
706.001	2628.83
710.609	1742.02
715.213	1149.65
719.815	787.714
724.415	550.841
729.011	425.641
733.606	359.504
738.197	295.684
742.786	275.696
747.372	302.437
751.955	325.992
756.536	389.297
761.114	491.461
765.69	612.481
770.262	543.083
774.833	344.089
779.4	326.668
783.965	222.087
788.528	249.345
793.087	78.4409
797.645	102.38
802.199	39.1626
806.751	49.7895
811.3	14.7505
815.847	44.418
820.391	28.3374
824.933	56.5762
829.471	33.7798
834.008	21.6689
838.541	72.7793
843.073	88.6035
847.601	87.8457
852.127	13.2466
856.65	25.0249
861.171	55.9927
865.69	11.1787
870.205	49.7842
874.718	24.708
879.229	18.936
883.737	19.4907
888.242	21.4961
892.745	143.496
897.246	131.335
901.743	204.233
906.239	368.135
910.731	455.051
915.221	519.995
919.709	621.979
924.194	504.015
928.677	329.115
933.157	201.293
937.634	334.548
942.109	164.916
946.582	53.3701
951.052	34.333
955.519	52.8496
959.984	5.20947
964.447	33.8105
968.906	56.3442
973.364	35.5615
977.819	203.992
982.271	333.056
986.721	526.268
991.169	1017.13
995.614	1671.37
1000.06	2399.38
1004.5	2939.46
1008.93	3165.33
1013.37	2908.39
1017.8	2382.6
1022.23	1915.68
1026.66	1875.03
1031.09	2000.1
1035.51	2237.73
1039.93	2965.8
1044.35	4017.32
1048.76	6050.43
1053.17	9893.03
1057.58	16915.1
1061.99	27500.7
1066.4	35198.7
1070.8	32023.2
1075.2	23598.2
1079.6	15406.7
1084	10346.8
1088.39	7520.07
1092.78	5581.6
1097.17	4406.46
1101.56	3726.96
1105.94	3139.1
1110.32	2832.84
1114.7	2588.2
1119.08	2727.75
1123.45	2897.42
1127.82	3300.13
1132.19	3225.45
1136.56	2712.53
1140.92	1899.78
1145.29	1322.88
1149.65	868.66
1154	526.858
1158.36	367.172
1162.71	251.899
1167.06	159.556
1171.41	100.841
1175.76	223.222
1180.1	198.202
1184.44	130.488
1188.78	183.246
1193.11	175.716
1197.45	92.4424
1201.78	57.2988
1206.11	132.381
1210.43	122.813
1214.76	316.925
1219.08	424.597
1223.4	434.339
1227.72	421.889
1232.03	364.419
1236.35	236.879
1240.66	78.2568
1244.96	63.1924
1249.27	143.883
1253.57	1.24951
1257.88	41.7656
1262.17	99.5444
1266.47	12.0254
1270.76	29.458
1275.06	138.805
1279.35	11.7495
1283.63	71.3848
1287.92	31.7056
1292.2	0.455566
1296.48	26.1885
1300.76	88.7153
1305.04	125.837
1309.31	122.299
1313.58	2.27637
1317.85	61.4463
1322.12	110.011
1326.38	44.0005
1330.64	6.95947
1334.9	120.68
1339.16	32.2075
1343.41	79.7505
1347.67	73.3081
1351.92	214.192
1356.17	143.582
1360.41	141.053
1364.66	98.3144
1368.9	93.4019
1373.14	222.821
1377.38	190.1
1381.61	673.48
1385.84	1543.92
1390.08	245.785
1394.3	172.944
1398.53	203.009
1402.75	110.82
1406.97	151.537
1411.19	195.205
1415.41	70.8833
1419.63	107.679
1423.84	164.069
1428.05	110.686
1432.26	127.322
1436.46	134.767
1440.67	39.5459
1444.87	169.058
1449.07	145.876
1453.27	116.708
1457.46	204.892
1461.66	118.653
1465.85	30.1211
1470.04	13.5059
1474.22	72.354
1478.41	3.22461
1482.59	113.48
1486.77	60.2319
1490.95	48.1079
1495.12	50.1221
1499.3	158.603
1503.47	100.66
1507.63	11.8481
1511.8	66.105
1515.97	9.89453
1520.13	63.1455
1524.29	72.8828
1528.45	46.8042
1532.61	138.401
1536.76	53.0977
1540.91	68.0093
1545.06	11.8706
1549.21	16.0986
1553.35	192.705
1557.5	155.444
1561.64	184.185
