Measurement: Raman, 514 nm, depolarized, Raman Data Processed
Mineral: Beryl
Rruff sample: R050065
Ideal chemistry: Be_3_Al_2_Si_6_O_18_
Locality: Xuebaoding, Sichuan Province, China
Source: Rock Currier
Description: Light blue colored tabular single crystal
Measured chemistry: (Be_2.78_Li_0.22_)_Σ=3_Al_2.00_Si_6.00_O_18_·Na_0.22_
Pin_id: L00371
Orientation: Laser parallel to c* (0 0 1). Fiducial mark perpendicular to laser is parallel to a [1 0 0]
Raman shift (cm-1)	intensity
87.798	0
91.981	3.598
96.161	193.828
100.34	340.757
104.516	767.892
108.691	1374.85
112.864	2248.7
117.034	3143.3
121.203	3162.45
125.369	2812.22
129.534	2730.85
133.696	2719.3
137.857	2813.49
142.016	2362.61
146.172	1957.99
150.327	1617.25
154.48	1729.04
158.63	1714.73
162.779	1751.18
166.926	1714.15
171.07	1614.85
175.213	1401.51
179.354	1170.94
183.493	1139.58
187.63	816.311
191.765	730.254
195.898	682.438
200.029	519.891
204.158	336.888
208.285	238.067
212.41	22.498
216.533	68.517
220.654	94.634
224.773	238.718
228.891	273.364
233.006	326.247
237.119	175.982
241.231	363.39
245.34	134.166
249.448	63.277
253.553	53.562
257.657	36.972
261.758	70.745
265.858	37.745
269.956	70.291
274.052	113.261
278.146	189.021
282.237	402.427
286.327	636.205
290.416	1187.17
294.502	1194.17
298.586	633.057
302.668	394.703
306.749	272.095
310.827	574.838
314.903	985.254
318.978	1858.43
323.051	2454.97
327.121	1567.78
331.19	463.926
335.257	83.597
339.322	101.985
343.385	74.847
347.446	146.532
351.505	79.669
355.563	110.135
359.618	86.089
363.672	213.337
367.723	383.014
371.773	301.152
375.821	649.572
379.866	1188.34
383.91	1785.92
387.952	3527.23
391.992	7322.53
396.031	14319.8
400.067	16895
404.101	10277.1
408.134	5195.17
412.165	3310.12
416.193	2962.23
420.22	3201.8
424.245	2757.08
428.268	1865.08
432.289	1227.69
436.309	1039.21
440.326	841.771
444.342	1160.55
448.355	423.966
452.367	610.714
456.377	317.725
460.385	242.772
464.391	113.67
468.395	80.626
472.398	88.161
476.398	137.341
480.397	136.524
484.394	273.659
488.389	263.53
492.382	163.731
496.373	163.422
500.362	128.802
504.349	116.616
508.335	1.539
512.319	13.423
516.3	57.354
520.28	53.797
524.259	33.049
528.235	146.862
532.209	79.329
536.182	122.368
540.152	30.859
544.121	281.316
548.088	358.096
552.053	473.615
556.017	715.817
559.978	818.7
563.938	1016.27
567.895	1290.52
571.851	1371.44
575.805	1576.04
579.758	1463.36
583.708	1275.36
587.657	820.025
591.603	499.348
595.548	452.314
599.491	488.924
603.432	305.141
607.372	118.961
611.309	261.301
615.245	407.209
619.179	436.732
623.111	403.828
627.041	535.701
630.97	402.365
634.896	369.361
638.821	435.908
642.744	458.217
646.665	691.756
650.584	563.076
654.502	905.604
658.418	1086.38
662.331	1162.27
666.244	1997.3
670.154	2908.86
674.062	5219.23
677.969	10927.4
681.874	25753.2
685.777	43461.9
689.678	30368.6
693.577	14511.4
697.475	7453.1
701.371	4620.86
705.265	3591.31
709.157	2550.64
713.047	2371.72
716.936	1706.08
720.823	1231.62
724.708	1131.17
728.591	1165.75
732.472	869.545
736.352	978.094
740.23	836.41
744.106	815.496
747.98	724.357
751.853	692
755.723	713.379
759.592	923.262
763.459	856.555
767.325	584.191
771.188	364.504
775.05	524.986
778.91	292.303
782.768	246.236
786.625	223.186
790.479	208.193
794.332	231.346
798.183	77.088
802.033	2.436
805.88	194.848
809.726	95.227
813.57	76.738
817.413	208.467
821.253	13.43
825.092	4.359
828.929	101.957
832.764	83.725
836.598	91.604
840.429	251.039
844.259	214.418
848.088	3.371
851.914	226.695
855.739	164.949
859.562	39.127
863.383	175.244
867.203	105.367
871.02	187.504
874.836	17.66
878.65	114.85
882.463	10.494
886.274	147.348
890.083	209.686
893.89	221.096
897.695	465.584
901.499	430.156
905.301	546.824
909.102	479.592
912.9	358.494
916.697	281.529
920.492	328.73
924.285	495.088
928.077	129.574
931.867	13.193
935.655	47.947
939.442	98.859
943.226	45.082
947.009	131.996
950.791	130.242
954.57	233.73
958.348	24.156
962.124	83.707
965.899	157.633
969.671	159.037
973.442	242.764
977.211	51.625
980.979	291.162
984.745	482.85
988.509	908.98
992.271	1217.59
996.032	2037.08
999.791	2577.77
1003.55	2061.59
1007.3	1841.94
1011.06	1371.87
1014.81	1056.12
1018.56	669.828
1022.31	447.447
1026.06	606.977
1029.8	458.67
1033.55	635.5
1037.29	506.156
1041.03	514.119
1044.77	759.436
1048.5	1139.01
1052.24	1571.83
1055.97	2304.9
1059.7	2865.18
1063.43	4078.66
1067.16	5160.34
1070.89	5358.21
1074.61	4881.26
1078.34	4109.49
1082.06	3057.9
1085.78	2236.49
1089.5	1839.25
1093.21	1374.55
1096.93	1296.65
1100.64	1086.92
1104.35	1068.5
1108.06	765.248
1111.77	845.961
1115.48	878.342
1119.18	875.064
1122.89	732.844
1126.59	750.861
1130.29	833.602
1133.99	661.711
1137.68	1160
1141.38	841.166
1145.07	1077.91
1148.76	908.053
1152.45	873.533
1156.14	390.977
1159.83	618.855
1163.51	436.916
1167.19	442.691
1170.88	481.504
1174.56	562.207
1178.23	591.76
1181.91	609.338
1185.59	818.498
1189.26	745.385
1192.93	711.789
1196.6	865.369
1200.27	693.744
1203.94	958.793
1207.6	595.652
1211.27	767.062
1214.93	993.285
1218.59	1067.62
1222.25	887.465
1225.9	1389.27
1229.56	1400.71
1233.21	1455.14
1236.86	1204.93
1240.51	810.488
1244.16	611.91
1247.81	366.814
1251.45	437.568
1255.1	223.094
1258.74	459.361
1262.38	310.174
1266.02	365.324
1269.66	80.352
1273.29	221.941
1276.93	45.48
1280.56	197.373
1284.19	122.414
1287.82	68.836
1291.45	78.365
1295.07	37.135
1298.7	118.303
1302.32	2.559
1305.94	111.76
1309.56	162.396
1313.18	186.703
1316.8	204.414
1320.41	13.889
1324.02	21.582
1327.63	9.318
1331.24	145.262
1334.85	193.328
1338.46	51.891
1342.06	22.014
1345.67	94.686
1349.27	96.971
1352.87	324.912
1356.47	431.57
1360.07	422.26
1363.66	622.484
1367.25	500.604
1370.85	396.365
1374.44	437.447
1378.03	407.393
1381.61	610.586
1385.2	397.078
1388.78	510.117
1392.37	410.438
1395.95	463.137
1399.53	525.324
1403.1	384.332
1406.68	343.404
1410.26	376.717
1413.83	382.334
1417.4	455.42
1420.97	337.617
1424.54	292.988
1428.1	343.43
1431.67	423.541
1435.23	580.412
1438.8	568.596
1442.36	654.207
1445.91	624.922
1449.47	454.672
1453.03	771.41
1456.58	718.777
1460.13	695.855
1463.68	668.297
1467.23	674.68
1470.78	624.641
1474.33	528.375
1477.87	478.797
1481.42	308.715
1484.96	217.52
1488.5	345.723
1492.04	452.574
1495.57	295.102
1499.11	74.867
1502.64	179.152
1506.17	51.637
1509.71	149.715
1513.23	444.648
1516.76	0
