Measurement: Raman, 514 nm, depolarized, Raman Data Processed
Mineral: Beryl
Rruff sample: R050120
Ideal chemistry: Be_3_Al_2_Si_6_O_18_
Locality: Cruziero mine, San Jose, Minas Gerais, Brazil
Source: Carlos and Paulo Vasconcelos
Description: Yellow gemmy fragment
Measured chemistry: (Be_2.76_Li_0.24_)_Σ=3_Al_2.00_Si_6.00_O_18_·Na_0.24_
Pin_id: L00313
Orientation: Laser parallel to c* (0 0 1). Fiducial mark perpendicular to laser is parallel to a [1 0 0]
Raman shift (cm-1)	intensity
94.768	0
98.947	49.761
103.124	205.279
107.3	742.345
111.473	1835.64
115.644	4204.5
119.813	3768.28
123.981	2763.16
128.146	2443.36
132.309	2508.93
136.47	2437.91
140.63	2162.79
144.787	1563.71
148.942	1110.38
153.096	1302.02
157.247	1472.61
161.396	1508.6
165.544	1632.32
169.689	1703.95
173.833	1506.06
177.974	1471.6
182.114	1154.01
186.251	917.7
190.387	646.817
194.52	348.481
198.652	423.763
202.782	169.707
206.909	35.234
211.035	79.447
215.159	124.207
219.281	51.676
223.4	129.178
227.518	231.41
231.634	342.188
235.748	227.373
239.86	130.504
243.97	118.447
248.079	243.209
252.185	47.248
256.289	131.053
260.391	51.998
264.492	118.59
268.59	224.625
272.687	153.404
276.781	151.477
280.874	188.816
284.964	258.078
289.053	734.035
293.14	1377.5
297.225	1036.64
301.308	284.021
305.389	316.701
309.468	258.699
313.545	618.846
317.62	1020.94
321.693	1611.72
325.765	1802.96
329.834	716.963
333.902	315.859
337.967	72.16
342.031	65.559
346.093	30.947
350.153	96.371
354.21	145.268
358.267	208.686
362.321	226.906
366.373	319.271
370.423	597.316
374.471	908.035
378.518	844.695
382.563	1577.82
386.605	2911.31
390.646	5002.6
394.685	10022.7
398.722	16820.5
402.757	14132
406.79	6923.15
410.821	4086.48
414.851	3149.98
418.878	2979.26
422.904	2768.91
426.927	2084.33
430.949	1238.97
434.969	1159.36
438.987	895.475
443.003	800.279
447.018	551.9
451.03	438.281
455.041	424.465
459.049	239.857
463.056	338.99
467.061	128.775
471.064	4.113
475.065	32.021
479.064	137.596
483.062	156.146
487.057	156.221
491.051	311.904
495.043	264.406
499.032	197.707
503.02	249.414
507.007	1.701
510.991	148.273
514.973	96.918
518.954	136.48
522.933	207.877
526.91	172.484
530.885	10.543
534.858	105.029
538.829	132.057
542.799	343.1
546.766	292.832
550.732	549.605
554.696	619.979
558.658	916.953
562.618	847.535
566.576	896.721
570.533	1259.54
574.488	1409.02
578.44	1329.22
582.391	1284.08
586.341	933.572
590.288	810.836
594.233	623.389
598.177	459.713
602.119	349.646
606.059	281.189
609.997	191.322
613.933	429.059
617.868	555.045
621.801	738.287
625.731	615.674
629.66	271.43
633.588	417.539
637.513	350.062
641.437	768.045
645.358	939.342
649.278	914.031
653.196	968.756
657.113	1057.36
661.027	1039.13
664.94	1225.77
668.851	2452.83
672.76	4246.15
676.667	7934.6
680.572	17339.8
684.476	36880.2
688.378	36441.1
692.278	17424.5
696.176	9334.78
700.072	5665.98
703.967	3635.77
707.86	2239.06
711.751	2144.7
715.64	1343.09
719.527	1457.26
723.413	1290.19
727.297	919.914
731.179	1076.42
735.059	849.707
738.937	1103.79
742.814	998.672
746.689	719.354
750.562	1140.85
754.433	967.16
758.303	734.146
762.17	648.676
766.036	644.752
769.901	352.873
773.763	94.361
777.624	330.369
781.482	196.582
785.339	315.314
789.195	75.047
793.048	6.795
796.9	202.857
800.75	66.342
804.598	363.285
808.445	39.178
812.289	78.566
816.132	57.477
819.973	34.557
823.813	110.98
827.65	13.988
831.486	133.975
835.32	116.021
839.152	258.08
842.983	96.148
846.812	407.24
850.639	377.363
854.464	469.438
858.288	447.48
862.11	676.137
865.93	500.551
869.748	178.588
873.564	253.627
877.379	440.686
881.192	184.762
885.004	110.859
888.813	104.992
892.621	257.16
896.427	304.369
900.232	343.627
904.034	501.938
907.835	748.309
911.634	882.742
915.432	437.246
919.227	551.842
923.021	427.502
926.813	260.674
930.604	494.539
934.393	568.484
938.18	307.082
941.965	217.697
945.749	421.031
949.53	212.01
953.311	24.248
957.089	162.225
960.866	44.457
964.641	192.078
968.414	55.492
972.185	153.137
975.955	86.246
979.723	96.377
983.49	196.908
987.254	1075.66
991.017	991.598
994.779	1890.82
998.538	2039.29
1002.3	2931.04
1006.05	2034.41
1009.81	1429.86
1013.56	944.742
1017.31	918.01
1021.06	1116.5
1024.81	500.166
1028.55	788.018
1032.3	450.076
1036.04	534.342
1039.78	873.859
1043.52	679.586
1047.26	598.508
1050.99	1407.61
1054.73	1584.91
1058.46	2415.38
1062.19	3493.99
1065.92	3946.76
1069.65	4537.66
1073.37	4393.69
1077.1	3584.81
1080.82	3505.04
1084.54	2571.35
1088.26	2250.75
1091.97	2065.34
1095.69	851.008
1099.4	1300.75
1103.12	1005.57
1106.83	1151.47
1110.54	1136.54
1114.24	969.484
1117.95	966.293
1121.65	999.906
1125.35	819.992
1129.06	962.355
1132.75	722.062
1136.45	676.113
1140.15	859.145
1143.84	979.645
1147.53	956.379
1151.22	645.348
1154.91	723.664
1158.6	467.344
1162.28	269.34
1165.97	405.957
1169.65	552.164
1173.33	373.816
1177.01	357.531
1180.69	412.703
1184.36	453.699
1188.04	534.57
1191.71	849.586
1195.38	793.668
1199.05	1023.45
1202.71	626.277
1206.38	1131.19
1210.04	1077.21
1213.71	775.5
1217.37	1124.16
1221.03	1032.78
1224.68	1248.19
1228.34	1062.21
1231.99	987.594
1235.65	644.137
1239.3	680.906
1242.95	389.82
1246.59	460.949
1250.24	418.273
1253.88	265.891
1257.53	433.785
1261.17	23.91
1264.81	110.414
1268.45	307.141
1272.08	63.848
1275.72	229.402
1279.35	11.969
1282.98	38.926
1286.61	32.219
1290.24	263.824
1293.87	41.047
1297.49	84.754
1301.11	103.32
1304.73	88.969
1308.36	89.75
1311.97	200.082
1315.59	205.559
1319.2	561.793
1322.82	566.867
1326.43	239.926
1330.04	435.078
1333.65	230.461
1337.26	333.234
1340.86	343.172
1344.47	339.527
1348.07	357.328
1351.67	567.832
1355.27	235.004
1358.87	416.324
1362.46	644.984
1366.06	516.895
1369.65	513.004
1373.24	389.77
1376.83	448.656
1380.42	451.684
1384	591.996
1387.59	472.68
1391.17	145.105
1394.75	136.66
1398.33	311.266
1401.91	267.055
1405.49	377.551
1409.06	374.273
1412.64	95.316
1416.21	309.566
1419.78	71.309
