Measurement: Raman, 514 nm, depolarized, Raman Data Processed
Mineral: Beryl
Rruff sample: R060944
Ideal chemistry: Be_3_Al_2_Si_6_O_18_
Locality: Habachtal, Salzburg, Austria
Source: Lawrence W. Snee
Description: Green hexagonal prisms in a muscovite schist, variety emerald. Note that there are micro inclusions of actinolite. The Raman signal is a mixture of the two phases.
Measured chemistry: Be_3.00_(Al_1.59_Mg_0.33_Fe^3+^_0.04_Cr^3+^_0.04_)_Σ=2_Si_6.00_O_18_·Na_0.33_ ; bright inclusions are actinolite
Pin_id: L01278
Orientation: Laser parallel to a* (1 0 0). Fiducial mark perpendicular to laser is parallel to c [0 0 1]
Raman shift (cm-1)	intensity
130.439	0
135.356	6.29102
140.271	313.844
145.184	59.5742
150.094	313.299
155.002	884.715
159.908	985.041
164.811	730.273
169.711	891.809
174.61	2021.97
179.505	2407.23
184.399	1117.74
189.29	773.469
194.178	776.031
199.064	632.152
203.948	619.723
208.829	732.271
213.708	1523.19
218.585	2795.77
223.459	3063.53
228.33	2035.33
233.199	1490.4
238.066	896.195
242.93	874.33
247.792	1104.79
252.651	521.584
257.508	16.6973
262.363	54.1211
267.215	273.853
272.064	85.3652
276.912	236.301
281.756	100.938
286.598	177.467
291.438	544.584
296.276	326.602
301.111	404.018
305.943	445.279
310.773	836.619
315.601	2036.46
320.426	4907.85
325.248	6167.61
330.068	2044.7
334.886	512.211
339.701	311.996
344.514	345.914
349.324	347.99
354.132	413.039
358.938	484.34
363.741	775.883
368.541	1070.64
373.339	1107.59
378.135	1252.69
382.928	1735.9
387.718	3352.22
392.506	6989.62
397.292	10807.1
402.075	6750.37
406.856	3046.34
411.634	1882.32
416.41	1352.33
421.183	821.512
425.954	827.568
430.722	631.857
435.488	832.328
440.251	1065.96
445.012	488.731
449.77	162.619
454.526	30.6133
459.28	75.7324
464.03	124.504
468.779	50.5449
473.525	3.91016
478.268	73.4082
483.009	254.822
487.747	114.678
492.483	164.016
497.217	300.4
501.948	410.828
506.676	860.297
511.402	1166.8
516.125	1824.37
520.846	2148.95
525.565	1845.56
530.281	849.213
534.994	421.894
539.705	216.617
544.413	101.43
549.119	32.709
553.822	19.252
558.523	450.904
563.222	558.316
567.917	395.951
572.611	580.875
577.302	379.307
581.99	446.195
586.676	279.102
591.359	125.018
596.04	195.891
600.718	190.846
605.394	324.924
610.067	802.367
614.737	1281.19
619.406	810.504
624.071	194.984
628.734	261.5
633.395	219.965
638.053	492.398
642.708	699.797
647.361	898.158
652.012	1257.64
656.66	2074.3
661.305	3403.49
665.948	6891.62
670.588	12377.9
675.226	13272.8
679.861	18012
684.494	33753.7
689.124	31014.9
693.752	12929.2
698.377	5677.53
702.999	3407.03
707.619	1788.63
712.237	1377.52
716.852	866.703
721.464	753.121
726.074	380.41
730.681	402.688
735.286	508.029
739.888	425.963
744.488	636.061
749.085	305.785
753.68	383.438
758.272	355.547
762.861	329.727
767.448	469.785
772.033	470.139
776.614	333.211
781.194	307.008
785.77	265.527
790.345	75.7461
794.916	137.42
799.485	236.99
804.052	24.6426
808.616	124.66
813.177	91.4043
817.736	96.7148
822.292	43.8262
826.846	195.685
831.397	57.6191
835.945	202.91
840.491	31.543
845.035	173.81
849.576	122.805
854.114	7.30078
858.65	141.219
863.183	1.9082
867.713	140.856
872.241	149.541
876.767	108.256
881.29	7.49805
885.81	143.002
890.328	184.246
894.843	184.24
899.356	57.0352
903.866	301.676
908.373	274.272
912.878	430.832
917.38	578.377
921.88	888.926
926.377	1221.04
930.872	1132.52
935.364	776.158
939.853	356.565
944.34	305.498
948.824	328.41
953.306	124.176
957.785	133.115
962.261	84.4062
966.735	33.4082
971.207	144.422
975.675	65.6602
980.141	278.959
984.605	25.6621
989.066	910.26
993.524	1259.84
997.98	1795.82
1002.43	2472.26
1006.88	2673.45
1011.33	2927.83
1015.78	2901.33
1020.22	2795.52
1024.66	3316.05
1029.1	3097.7
1033.53	2494.3
1037.97	2702.41
1042.4	3439.19
1046.82	4758.65
1051.25	7473.63
1055.67	11551.6
1060.09	16763.6
1064.51	23100.2
1068.92	25469.4
1073.33	22029.3
1077.74	16137.6
1082.15	11122.4
1086.55	7926.93
1090.95	6282.39
1095.35	4840.67
1099.75	4119.94
1104.14	3510.93
1108.53	3155.69
1112.92	2957.18
1117.31	3083.03
1121.69	3382.82
1126.07	3496.47
1130.45	2935.17
1134.82	2627.2
1139.19	2167.46
1143.57	1568.55
1147.93	1274.36
1152.3	925.332
1156.66	839.736
1161.02	448.963
1165.38	235.945
1169.73	127.992
1174.08	260.289
1178.43	186.863
1182.78	184.385
1187.12	343.102
1191.46	153.941
1195.8	63.4004
1200.14	24.6172
1204.47	321.576
1208.8	299.109
1213.13	250.428
1217.46	220.113
1221.78	353.885
1226.1	420.33
1230.42	228.147
1234.73	187.312
1239.04	120.508
1243.35	67.8438
1247.66	18.5586
1251.97	31.002
1256.27	9.78125
1260.57	76.1133
1264.86	155.17
1269.16	107.904
1273.45	27.2754
1277.74	111.541
1282.03	66.1152
1286.31	140.9
1290.59	20.0098
1294.87	73.0977
1299.14	81.8945
1303.42	207.41
1307.69	106.76
1311.95	97.2949
1316.22	369.883
1320.48	309.658
1324.74	343.065
1329	147.158
1333.26	161.709
1337.51	152.201
1341.76	246.312
1346	400.012
1350.25	298.44
1354.49	76.584
1358.73	266.879
1362.96	146.541
1367.2	221.543
1371.43	20.9316
1375.66	314.877
1379.88	287.512
1384.11	430.326
1388.33	97.582
1392.54	64.8203
1396.76	163.812
1400.97	242.295
1405.18	64.9453
1409.39	200.307
1413.59	93.6934
1417.8	14.7832
1421.99	87.3242
1426.19	43.0469
1430.38	125.123
1434.58	0.548828
1438.77	296.256
1442.95	345.69
1447.13	483.752
1451.32	286.037
1455.49	277.67
1459.67	376.613
1463.84	393.033
1468.01	253.543
1472.18	274.514
1476.35	136.887
1480.51	259.25
1484.67	115.264
1488.83	225.603
1492.98	139.818
1497.13	353.375
1501.28	200.508
1505.43	79.3184
1509.57	126.053
1513.71	293.51
1517.85	12.3145
1521.99	72.9297
1526.12	281.139
1530.25	300.481
1534.38	177.301
1538.5	159.877
1542.62	129.008
1546.74	270.176
1550.86	367.42
1554.98	279.045
1559.09	158.619
1563.2	242
1567.31	315.451
1571.41	0
