Measurement: Raman, 514 nm, depolarized, Raman Data Processed
Mineral: Beryl
Rruff sample: R050065
Ideal chemistry: Be_3_Al_2_Si_6_O_18_
Locality: Xuebaoding, Sichuan Province, China
Source: Rock Currier
Description: Light blue colored tabular single crystal
Measured chemistry: (Be_2.78_Li_0.22_)_Σ=3_Al_2.00_Si_6.00_O_18_·Na_0.22_
Pin_id: L00396
Orientation: Laser parallel to a* (1 0 0). Fiducial mark perpendicular to laser is parallel to c [0 0 1]
Raman shift (cm-1)	intensity
97.554	0
101.732	52.414
105.908	311.844
110.082	670.534
114.254	1483.15
118.424	1803.5
122.592	1530.37
126.758	1513.26
130.922	1346.94
135.083	1588.62
139.243	1452.98
143.401	1248.86
147.557	1049.06
151.711	916.299
155.863	961.951
160.013	944.926
164.161	784.222
168.308	725.486
172.452	737.9
176.594	586.336
180.734	608.212
184.872	575.585
189.008	489.213
193.143	431.354
197.275	364.324
201.405	293.001
205.534	255.548
209.66	139.731
213.784	33.021
217.907	118.021
222.027	124.591
226.146	153.821
230.263	231.52
234.377	332.812
238.49	529.188
242.601	511.817
246.709	454.745
250.816	525.35
254.921	361.488
259.024	86.129
263.125	131.041
267.224	44.156
271.321	94.414
275.416	51.111
279.51	48.434
283.601	3.891
287.69	175.08
291.778	462.01
295.863	522.635
299.947	529.805
304.029	573.604
308.108	744.244
312.186	1102.3
316.262	2157.63
320.336	4208.89
324.408	5563.4
328.478	2986.16
332.546	1015.7
336.612	381.609
340.677	171.645
344.739	17.582
348.799	176.826
352.858	95.725
356.915	21.074
360.969	94.105
365.022	45.557
369.073	134.154
373.122	187.688
377.169	392.15
381.215	709.527
385.258	1191.44
389.299	2454.07
393.339	4806.65
397.376	8446.18
401.412	7805.34
405.446	3930.64
409.478	2013.19
413.508	1194.42
417.536	812.094
421.562	749.707
425.586	500.27
429.609	320.957
433.629	364.402
437.648	355.129
441.665	629.367
445.68	834.506
449.693	539.678
453.704	306.625
457.713	309.777
461.721	276.475
465.726	264.859
469.73	110.881
473.731	115.215
477.731	88.371
481.729	0.838
485.725	65.447
489.72	48.824
493.712	314.992
497.703	215.91
501.691	308.471
505.678	268.123
509.663	122.232
513.646	292.65
517.627	425.889
521.607	527.346
525.584	606.578
529.56	911.441
533.534	716.873
537.506	591.893
541.476	481.486
545.444	470.615
549.41	88.289
553.375	77.58
557.337	175.746
561.298	264.498
565.257	209.553
569.214	315.961
573.17	552.945
577.123	177.381
581.075	118.344
585.024	19.195
588.972	399.58
592.918	70.742
596.863	167.535
600.805	6.463
604.746	48.514
608.685	165.184
612.621	111.939
616.557	648.752
620.49	653.105
624.421	678.812
628.351	261.217
632.279	200.533
636.205	338.338
640.129	462.309
644.051	432.115
647.972	570.012
651.89	1061.8
655.807	572.375
659.722	883.18
663.636	1267.81
667.547	1633.83
671.457	2629.21
675.365	5145.7
679.271	11273.6
683.175	25729.4
687.077	31338.7
690.978	17645.2
694.877	7817.7
698.774	4311.78
702.669	2181.85
706.562	1717.69
710.454	1104.59
714.344	919.803
718.232	832.754
722.118	686.41
726.002	622.977
729.885	566.023
733.766	302.379
737.645	371.129
741.522	390.957
745.397	350.924
749.271	276.57
753.143	346.953
757.013	459.594
760.881	154.053
764.748	1.785
768.613	199.115
772.476	218.102
776.337	198.854
780.196	161.006
784.054	113.729
787.91	222.137
791.764	90.988
795.616	131.805
799.467	63.223
803.316	435.182
807.163	185.037
811.008	0.678
814.851	204.139
818.693	160.332
822.533	182.191
826.371	76.955
830.208	177.686
834.042	28.609
837.875	106.047
841.706	235.721
845.536	82.422
849.363	256.176
853.189	146.994
857.013	201.92
860.836	448.953
864.656	180.199
868.475	326.691
872.292	332.418
876.108	14.402
879.922	252.635
883.733	288.967
887.544	411.537
891.352	479.318
895.159	300.357
898.964	434.697
902.767	501.396
906.568	563.186
910.368	414.5
914.166	720.836
917.962	477.844
921.757	331.578
925.55	412.604
929.341	335.91
933.13	333.504
936.918	829.572
940.703	373.291
944.488	335.797
948.27	145.986
952.051	181.668
955.83	324.209
959.607	270.262
963.383	450.09
967.156	193.738
970.928	164.371
974.699	433.252
978.468	351.348
982.234	647.262
986	547.129
989.763	588.395
993.525	859.285
997.285	1603.25
1001.04	2070.47
1004.8	2352.14
1008.55	2913.25
1012.31	3035.91
1016.06	2681.12
1019.81	2240.85
1023.56	2309.11
1027.31	2042.72
1031.05	2023.44
1034.79	2222.99
1038.53	2670.11
1042.27	3254.81
1046.01	3848.96
1049.75	4950.59
1053.48	7344.67
1057.22	10471
1060.95	14787.5
1064.68	18888.9
1068.4	19722.7
1072.13	18679.9
1075.86	15546.4
1079.58	12429.3
1083.3	9452.54
1087.02	6986.07
1090.74	5503.92
1094.45	4286.75
1098.17	3850.47
1101.88	3581.25
1105.59	2774.56
1109.3	2846.41
1113.01	2656.25
1116.71	2366.05
1120.42	2043.45
1124.12	2448.67
1127.82	1880.37
1131.52	2134.84
1135.22	2505.46
1138.91	1943.09
1142.61	1859.99
1146.3	2031.64
1149.99	1529.98
1153.68	1203.87
1157.37	954.16
1161.06	915.098
1164.74	463.941
1168.42	266.355
1172.1	139.535
1175.78	379.668
1179.46	348.758
1183.14	241.281
1186.81	329.766
1190.48	124.863
1194.15	236.77
1197.83	26.422
1201.49	608.523
1205.16	232.641
1208.82	278.434
1212.49	362.941
1216.15	87.246
1219.81	239.703
1223.46	283.879
1227.12	13.371
1230.78	279.246
1234.43	389.051
1238.08	121.254
1241.73	232.664
1245.38	447.281
1249.03	447.195
1252.67	117.367
1256.31	155
1259.95	222.543
1263.6	65.289
1267.23	106.164
1270.87	88.332
1274.51	102.551
1278.14	371.664
1281.77	466.688
1285.4	138.621
1289.03	428.531
1292.66	190.141
1296.28	156.449
1299.91	160.328
1303.53	22.219
1307.15	175.375
1310.77	284.051
1314.38	395.332
1318	114.559
1321.61	57.703
1325.23	512.902
1328.84	100.355
1332.45	129.984
1336.06	196.816
1339.66	161.129
1343.27	173.574
1346.87	527.801
1350.47	633.676
1354.07	895.688
1357.67	531.273
1361.26	363.91
1364.86	516.828
1368.45	580.355
1372.04	346.688
1375.63	508.598
1379.22	506.055
1382.81	769.359
1386.39	1021.25
1389.98	743.387
1393.56	416.469
1397.14	262.762
1400.72	439.961
1404.3	51.922
1407.87	235.086
1411.45	409.238
1415.02	419.574
1418.59	594.387
1422.16	29.676
1425.73	0
