Measurement: Raman, 514 nm, depolarized, Raman Data Processed
Mineral: Beryl
Rruff sample: R050121
Ideal chemistry: Be_3_Al_2_Si_6_O_18_
Locality: Cruziero mine, San Jose, Minas Gerais, Brazil
Source: Carlos and Paulo Vasconcelos
Description: Light blue fragment, variety aquamarine
Measured chemistry: (Be_0.96_Li_0.04_)_3_Al_2.00_Si_6.00_O_18_Î‡Na_0.09_Mg_0.03_
Pin_id: L00353
Orientation: Laser parallel to a* (1 0 0). Fiducial mark perpendicular to laser is parallel to c [0 0 1]
Raman shift (cm-1)	intensity
98.947	0
103.124	0.784
107.3	73.871
111.473	243.184
115.644	905.055
119.813	853.021
123.981	424.562
128.146	429.794
132.309	652.205
136.47	662.877
140.63	765.022
144.787	616.955
148.942	243.059
153.096	273.986
157.247	211.564
161.396	143.764
165.544	43.987
169.689	155.405
173.833	174.821
177.974	246.208
182.114	297.471
186.251	502.825
190.387	533.291
194.52	189.054
198.652	432.206
202.782	164.867
206.909	236.261
211.035	177.327
215.159	199.213
219.281	183.229
223.4	250.48
227.518	153.729
231.634	278.746
235.748	103.865
239.86	177.062
243.97	294.545
248.079	402.707
252.185	354.844
256.289	147.367
260.391	143.748
264.492	149.727
268.59	25.553
272.687	158.703
276.781	166.197
280.874	174.699
284.964	214.086
289.053	408.127
293.14	582.707
297.225	567.801
301.308	433.68
305.389	608.311
309.468	836.688
313.545	1599.05
317.62	3495.34
321.693	5553.56
325.765	3249.53
329.834	911.795
333.902	476.611
337.967	135.189
342.031	127.807
346.093	134.086
350.153	39
354.21	132.941
358.267	75.268
362.321	98.439
366.373	6.527
370.423	278.525
374.471	399.408
378.518	514.436
382.563	1063.28
386.605	2059.13
390.646	4181.62
394.685	7017.11
398.722	5507.29
402.757	2677.98
406.79	1168.66
410.821	724.48
414.851	595.123
418.878	479.537
422.904	690.791
426.927	540.416
430.949	411.832
434.969	354.145
438.987	489.131
443.003	766.596
447.018	916.375
451.03	527.375
455.041	294.9
459.049	58.01
463.056	13.762
467.061	2.111
471.064	107.955
475.065	49.482
479.064	23.439
483.062	39.006
487.057	91.133
491.051	80.9
495.043	39.014
499.032	124.258
503.02	29.973
507.007	2.17
510.991	297.432
514.973	284.656
518.954	491.455
522.933	796.842
526.91	1084.79
530.885	851.279
534.858	437.303
538.829	200.867
542.799	118.027
546.766	36.719
550.732	182.832
554.696	94.58
558.658	206.979
562.618	45.574
566.576	59.426
570.533	121.75
574.488	22.158
578.44	186.221
582.391	514.441
586.341	207.205
590.288	174.947
594.233	142.105
598.177	196.898
602.119	35.016
606.059	191.867
609.997	101.582
613.933	409.379
617.868	701.111
621.801	1606.88
625.731	964.684
629.66	434.445
633.588	576.645
637.513	217.127
641.437	701.668
645.358	694.982
649.278	725.037
653.196	706.277
657.113	615.623
661.027	697.623
664.94	581.471
668.851	1521.57
672.76	2648.84
676.667	5510.27
680.572	13979.5
684.476	25197.1
688.378	15364.2
692.278	5671.97
696.176	3247.07
700.072	1817.17
703.967	1073.24
707.86	304.184
711.751	817.574
715.64	17.6
719.527	319.916
723.413	53.207
727.297	48.256
731.179	18.354
735.059	200.336
738.937	355.65
742.814	183.238
746.689	267.787
750.562	175.582
754.433	178.57
758.303	6.123
762.17	238.857
766.036	618.812
769.901	357.619
773.763	12.531
777.624	256.113
781.482	118.623
785.339	290.055
789.195	115.838
793.048	161.637
796.9	95.809
800.75	42.869
804.598	2.186
808.445	49.09
812.289	105.84
816.132	15.043
819.973	101.865
823.813	31.641
827.65	49.311
831.486	99.1
835.32	94.334
839.152	102.746
842.983	217.135
846.812	229.518
850.639	60.869
854.464	391.205
858.288	650.787
862.11	565.551
865.93	457.621
869.748	414.916
873.564	389.58
877.379	477.818
881.192	170.535
885.004	218.656
888.813	349.707
892.621	608.008
896.427	331.393
900.232	515.42
904.034	444.625
907.835	706.793
911.634	846.035
915.432	587.604
919.227	442.668
923.021	754.246
926.813	604.059
930.604	611.832
934.393	732.785
938.18	486.676
941.965	482.086
945.749	588.363
949.53	194.086
953.311	253.895
957.089	403.863
960.866	177.219
964.641	350.324
968.414	440.344
972.185	454.547
975.955	309.039
979.723	328.645
983.49	42.348
987.254	392.578
991.017	545.062
994.779	1006.8
998.538	1097.1
1002.3	2468.3
1006.05	2304.97
1009.81	2762.52
1013.56	2824.06
1017.31	2666.99
1021.06	2141.52
1024.81	1448.99
1028.55	1864.65
1032.3	1589.27
1036.04	1872.63
1039.78	2330.23
1043.52	2361.08
1047.26	2565.46
1050.99	4275.53
1054.73	5623.09
1058.46	8871.25
1062.19	14297.1
1065.92	20307.6
1069.65	21160.1
1073.37	16556.7
1077.1	11106.1
1080.82	8171.54
1084.54	5872.7
1088.26	4231.54
1091.97	2953.55
1095.69	2049.33
1099.4	1779.31
1103.12	975.574
1106.83	1218.08
1110.54	797.836
1114.24	927.723
1117.95	633.848
1121.65	553.609
1125.35	262.344
1129.06	612.547
1132.75	176.488
1136.45	101.398
1140.15	516.832
1143.84	801.965
1147.53	616.012
1151.22	385.695
1154.91	417.809
1158.6	161.324
1162.28	61.012
1165.97	175.562
1169.65	294.289
1173.33	236.227
1177.01	241.062
1180.69	25.797
1184.36	154.598
1188.04	77.609
1191.71	309.086
1195.38	108.863
1199.05	389.051
1202.71	20.898
1206.38	527.164
1210.04	80
1213.71	145.957
1217.37	397.676
1221.03	282.242
1224.68	67.996
1228.34	500.289
1231.99	387.836
1235.65	499.473
1239.3	845.051
1242.95	983.336
1246.59	790.902
1250.24	302.273
1253.88	489.059
1257.53	658.43
1261.17	303.27
1264.81	180.375
1268.45	463.062
1272.08	572.09
1275.72	361.645
1279.35	301.402
1282.98	80.141
1286.61	94.031
1290.24	556.441
1293.87	198.984
1297.49	11.812
1301.11	67.965
1304.73	57.766
1308.36	112.234
1311.97	175.109
1315.59	414.922
1319.2	655.273
1322.82	429.473
1326.43	287.273
1330.04	387.07
1333.65	66.957
1337.26	271.879
1340.86	400.914
1344.47	280.074
1348.07	285.203
1351.67	437.785
1355.27	156.371
1358.87	197.121
1362.46	746.949
1366.06	689.074
1369.65	361.258
1373.24	579.09
1376.83	458.594
1380.42	385.066
1384	528.195
1387.59	464.223
1391.17	262.523
1394.75	372.234
1398.33	534.109
1401.91	365.441
1405.49	395.688
1409.06	507.562
1412.64	270.652
1416.21	460.738
1419.78	181.934
1423.35	228.34
