Measurement: Raman, 514 nm, depolarized, Raman Data Processed
Mineral: Beryl
Rruff sample: R040002
Ideal chemistry: Be_3_Al_2_Si_6_O_18_
Locality: Usakos, Namibia
Source: University of Arizona Mineral Museum
Description: Light blue hexagonal prism, variety aquamarine
Measured chemistry: (Be_0.97_Li_0.03_)_3_(Al_0.97_Fe^3+^_0.03_)_2_Si_6_O_18_Î‡Na_0.01_
Pin_id: M00004
Orientation: Laser parallel to -c* (0 0 -1). Fiducial mark perpendicular to laser is parallel to a [1 0 0]
Raman shift (cm-1)	intensity
97.554	0
101.732	101.003
105.908	235.213
110.082	215.881
114.254	820.589
118.424	2934.22
122.592	810.263
126.758	161.467
130.922	147.917
135.083	225.556
139.243	265.777
143.401	630.857
147.557	386.313
151.711	85.985
155.863	27.25
160.013	8.159
164.161	118.453
168.308	63.665
172.452	112.903
176.594	80.892
180.734	452.516
184.872	862.34
189.008	337.153
193.143	246.525
197.275	225.243
201.405	176.121
205.534	208.121
209.66	138.198
213.784	89.181
217.907	27.373
222.027	27.308
226.146	38.815
230.263	15.362
234.377	112.111
238.49	235.092
242.601	132.894
246.709	86.233
250.816	200.773
254.921	254.472
259.024	228.905
263.125	261.205
267.224	266.63
271.321	294.673
275.416	430.019
279.51	558.57
283.601	838.181
287.69	1419.97
291.778	1099.95
295.863	866.48
299.947	900.881
304.029	1013.55
308.108	1487.04
312.186	2609.26
316.262	5166.44
320.336	8637.41
324.408	5251.09
328.478	1247.2
332.546	233.102
336.612	195.452
340.677	181.715
344.739	93.66
348.799	257.504
352.858	327.626
356.915	404.314
360.969	320.167
365.022	248.977
369.073	141.901
373.122	150.664
377.169	281.292
381.215	532.174
385.258	1590.66
389.299	5211.44
393.339	13776.5
397.376	14662.6
401.412	6275.67
405.446	2706.96
409.478	1791.28
413.508	1709.8
417.536	2927.83
421.562	4120.75
425.586	2493.55
429.609	1088.69
433.629	825.683
437.648	1676.68
441.665	3630.4
445.68	3023.94
449.693	1133.18
453.704	403.085
457.713	291.673
461.721	336.937
465.726	291.879
469.73	265.485
473.731	44.736
477.731	194.646
481.729	137.252
485.725	268.646
489.72	200.847
493.712	203.629
497.703	175.57
501.691	286.502
505.678	318.804
509.663	237.09
513.646	217.574
517.627	281.295
521.607	173.677
525.584	225.423
529.56	369.725
533.534	236.557
537.506	72.119
541.476	26.349
545.444	7.391
549.41	107.188
553.375	15.981
557.337	113.126
561.298	607.646
565.257	517.063
569.214	505.062
573.17	890.762
577.123	1403.35
581.075	2004.05
585.024	1831.42
588.972	1500.84
592.918	1419.07
596.863	1309.88
600.805	1141.35
604.746	1215.49
608.685	953.174
612.621	628.306
616.557	888.993
620.49	952.781
624.421	1334.11
628.351	913.04
632.279	548.324
636.205	563.742
640.129	717.366
644.051	832.784
647.972	863.188
651.89	808.443
655.807	764.43
659.722	762.652
663.636	1004.27
667.547	1536.47
671.457	2837.2
675.365	6292.62
679.271	17517.5
683.175	40778.4
687.077	28015
690.978	11480.9
694.877	5348.51
698.774	3240.77
702.669	1934.96
706.562	1352.13
710.454	637.086
714.344	492.868
718.232	347.429
722.118	237.621
726.002	189.665
729.885	178.762
733.766	103.514
737.645	60.092
741.522	123.516
745.397	293.793
749.271	241.945
753.143	13.922
757.013	102.572
760.881	125.855
764.748	500.987
768.613	1753.02
772.476	2030.95
776.337	937.793
780.196	487.556
784.054	135.245
787.91	96.179
791.764	134.371
795.616	66.149
799.467	92.45
803.316	100.178
807.163	168.1
811.008	18.585
814.851	30.011
818.693	72.83
822.533	101.874
826.371	251.233
830.208	340.927
834.042	83.552
837.875	56.228
841.706	266.968
845.536	264.903
849.363	531.077
853.189	675.72
857.013	958.925
860.836	1356.66
864.656	808.677
868.475	498.911
872.292	222.936
876.108	284.401
879.922	375.621
883.733	187.938
887.544	369.789
891.352	372.361
895.159	308.389
898.964	495.123
902.767	590.379
906.568	761.955
910.368	791.697
914.166	1114.19
917.962	1003
921.757	481.717
925.55	413.334
929.341	437.832
933.13	374.211
936.918	385.254
940.703	151.547
944.488	130.604
948.27	233.268
952.051	235.133
955.83	262.645
959.607	121.6
963.383	161.295
967.156	191.404
970.928	31.525
974.699	355.625
978.468	285.113
982.234	485.49
986	639.67
989.763	751.885
993.525	943.43
997.285	1764.96
1001.04	2866.1
1004.8	2775.39
1008.55	2281.5
1012.31	1708.38
1016.06	1429.77
1019.81	1216.9
1023.56	1343.69
1027.31	1004.63
1031.05	1020.45
1034.79	932.818
1038.53	912.574
1042.27	972.982
1046.01	902.4
1049.75	1175.51
1053.48	1232.71
1057.22	1791.39
1060.95	2826.16
1064.68	4910.88
1068.4	6367.11
1072.13	5325.07
1075.86	3619.14
1079.58	2693.76
1083.3	2293.94
1087.02	1604.68
1090.74	1212.4
1094.45	1084.46
1098.17	752.852
1101.88	656.799
1105.59	527.697
1109.3	559.344
1113.01	610.326
1116.71	565.652
1120.42	657.447
1124.12	665.219
1127.82	128.496
1131.52	75.746
1135.22	255.342
1138.91	72.354
1142.61	146.348
1146.3	28.754
1149.99	106.697
1153.68	115.422
1157.37	59.629
1161.06	40.271
1164.74	131.096
1168.42	57.756
1172.1	61.213
1175.78	180.898
1179.46	115.215
1183.14	278.141
1186.81	282.158
1190.48	399.715
1194.15	182.982
1197.83	244.477
1201.49	525.643
1205.16	361.047
1208.82	307.98
1212.49	483.256
1216.15	340.146
1219.81	550.021
1223.46	843.602
1227.12	1259.53
1230.78	1407.77
1234.43	1703.41
1238.08	2164.35
1241.73	3599.18
1245.38	5211.62
1249.03	3501.74
1252.67	1771.16
1256.31	1080.06
1259.95	720.854
1263.6	686.627
1267.23	670.652
1270.87	660.152
1274.51	706.266
1278.14	800.955
1281.77	580.506
1285.4	476.01
1289.03	171.982
1292.66	284.818
1296.28	490.146
1299.91	286.951
1303.53	252.393
1307.15	314.32
1310.77	144.652
1314.38	522.803
1318	113.932
1321.61	99.734
1325.23	432.846
1328.84	77.709
1332.45	107.59
1336.06	51.518
1339.66	237.402
1343.27	16.625
1346.87	259.34
1350.47	350.213
1354.07	394.404
1357.67	326.365
1361.26	162.758
1364.86	232.207
1368.45	368.199
1372.04	356.016
1375.63	458.361
1379.22	415.855
1382.81	406.402
1386.39	70.697
1389.98	291.896
1393.56	398.512
1397.14	198.531
1400.72	244.551
1404.3	23.082
1407.87	66.156
1411.45	33.801
1415.02	212.195
1418.59	372.986
1422.16	189.113
1425.73	44.174
