Measurement: Raman, 514 nm, depolarized, Raman Data Processed
Mineral: Beryl
Rruff sample: R060942
Ideal chemistry: Be_3_Al_2_Si_6_O_18_
Locality: Mingore mine, Swat Valley, Pakistan
Source: Lawrence W. Snee
Description: Green hexagonal prisms, variety emerald
Measured chemistry: (Be_2.94_Li_0.06_)_Σ=3_(Al_1.55_Mg_0.37_Fe^3+^_0.06_Cr^3+^_0.02_)_Σ=2_Si_6.00_O_18_·Na_0.42_; Be and Li not measured but estimated by stoichiometry
Pin_id: L01519
Orientation: Laser parallel to a* (1 0 0). Fiducial mark perpendicular to laser is parallel to -c [0 0 -1]
Raman shift (cm-1)	intensity
119.365	0
124.288	30.1738
129.209	161.406
134.127	228.754
139.043	460.71
143.956	155.949
148.867	139.618
153.775	42.5586
158.681	185.642
163.585	213.553
168.486	249.632
173.385	362.516
178.282	566.267
183.176	570.403
188.067	623.102
192.956	750.999
197.843	779.636
202.727	789.914
207.609	195.921
212.489	253.633
217.366	333.058
222.24	396.762
227.112	418.984
231.982	590.84
236.849	834.609
241.714	1230.89
246.577	1115.73
251.437	767.826
256.294	253.849
261.149	701.011
266.002	759.894
270.852	641.234
275.7	430.675
280.545	310.363
285.388	665.955
290.229	570.485
295.067	651.247
299.902	614.158
304.735	569.074
309.566	1131.15
314.394	2831.94
319.22	5648.09
324.043	7522.4
328.864	4117.78
333.682	1019.41
338.498	125.883
343.311	76.1787
348.122	46.7695
352.931	127.135
357.737	202.136
362.54	37.2236
367.341	114.394
372.14	186.413
376.936	738.264
381.73	1515.51
386.521	3442.57
391.31	8066.35
396.096	13090.5
400.88	11359.3
405.661	5942.98
410.44	2930.99
415.216	1862.95
419.99	1208.1
424.761	1166.09
429.53	905.921
434.297	1319.6
439.061	938.284
443.822	572.477
448.581	393.749
453.337	467.893
458.091	66.8769
462.843	31.666
467.592	68.249
472.338	212.639
477.082	286.213
481.824	212.965
486.563	328.664
491.3	527.33
496.034	325.028
500.765	451.17
505.494	809.508
510.221	1198.24
514.945	1875.55
519.666	2131.77
524.385	1386.92
529.102	508.026
533.816	153.14
538.527	85.7861
543.236	1.22363
547.943	18.4531
552.647	29.1143
557.348	424.083
562.047	714.297
566.744	562.398
571.438	673.178
576.129	685.836
580.818	669.71
585.504	685.747
590.188	560.944
594.87	536.307
599.549	608.746
604.225	1010.73
608.899	1763.68
613.57	1900.17
618.239	1041.72
622.905	238.185
627.569	242.597
632.23	155.028
636.889	263.715
641.545	373.818
646.198	428.187
650.849	404.647
655.498	804.809
660.144	1166.89
664.787	1937.94
669.428	3673.94
674.067	7613.66
678.703	19356.2
683.336	40687.2
687.967	46169.5
692.595	24227.4
697.221	10154.1
701.844	5056.03
706.465	3128.8
711.083	1919.41
715.698	1074.22
720.311	916.697
724.922	654.278
729.53	642.036
734.135	498.675
738.738	405.988
743.338	494.258
747.936	413.841
752.531	369.015
757.124	454.132
761.714	291.642
766.302	414.807
770.887	439.606
775.469	437.072
780.049	382.177
784.626	106.911
789.201	278.264
793.773	245.245
798.343	185.853
802.91	27.0684
807.475	26.1484
812.037	84.1182
816.596	134.847
821.153	12.6133
825.707	67.3652
830.259	28.6191
834.808	60.625
839.355	64.5107
843.899	8.54492
848.441	13.1953
852.98	17.3193
857.516	27.9473
862.05	3.86816
866.581	55.1055
871.11	112.92
875.636	30.6514
880.159	44.1855
884.68	40.7607
889.199	2.52148
893.714	96.1397
898.228	752.911
902.738	324.685
907.246	314.208
911.752	401.587
916.255	540.645
920.755	529.794
925.253	427.837
929.748	400.801
934.241	214.659
938.731	174.358
943.218	131.184
947.703	6.47852
952.186	192.551
956.665	18.0381
961.142	23.8037
965.617	68.291
970.089	62.7324
974.558	122.256
979.025	325.723
983.489	571.506
987.951	1104.22
992.41	1720.16
996.866	2556.53
1001.32	2692.33
1005.77	2919.54
1010.22	3216.99
1014.67	3087.48
1019.11	2802.97
1023.55	2470.85
1027.99	2233.67
1032.42	2447.93
1036.86	2751.68
1041.29	3291.99
1045.72	4546.84
1050.14	6995.17
1054.56	11299
1058.98	18794.4
1063.4	27066.2
1067.82	31864.6
1072.23	29863.6
1076.64	22507.1
1081.05	16145.2
1085.45	11952
1089.85	9688.26
1094.25	8012.67
1098.65	6684.47
1103.04	6018.27
1107.43	5608.15
1111.82	5189.83
1116.21	5032.33
1120.59	5559.71
1124.97	5624.22
1129.35	4897.72
1133.73	4111.8
1138.1	3308.3
1142.47	2711.67
1146.84	2262.37
1151.21	1833.06
1155.57	1343.83
1159.93	990.873
1164.29	735.32
1168.64	664.264
1172.99	495.134
1177.34	607.796
1181.69	460.692
1186.04	641.684
1190.38	585.809
1194.72	605.713
1199.05	358.996
1203.39	496.93
1207.72	695.481
1212.05	664.223
1216.37	547.232
1220.7	431.545
1225.02	272.828
1229.34	200.314
1233.65	213.288
1237.97	47.8662
1242.28	129.78
1246.59	147.525
1250.89	43.1357
1255.19	88.5352
1259.49	110.384
1263.79	43.456
1268.09	13.543
1272.38	76.6318
1276.67	273.901
1280.95	32.1631
1285.24	29.4336
1289.52	45.5674
1293.8	119.274
1298.08	187.333
1302.35	86.9336
1306.62	124.689
1310.89	45.0127
1315.15	184.808
1319.42	91.5293
1323.68	225.737
1327.94	267.587
1332.19	277.163
1336.44	162.464
1340.69	99.6484
1344.94	161.318
1349.19	133.706
1353.43	226.676
1357.67	131.69
1361.9	336.84
1366.14	103.231
1370.37	147.627
1374.6	108.756
1378.83	320.168
1383.05	440.174
1387.27	137.611
1391.49	77.1426
1395.7	177.016
1399.92	190.148
1404.13	197.54
1408.34	147.897
1412.54	123.087
1416.74	25.1885
1420.94	14.9014
1425.14	75.2051
1429.34	63.6963
1433.53	127.281
1437.72	271.148
1441.9	140.445
1446.09	83.3867
1450.27	180.491
1454.45	229.163
1458.63	242.828
1462.8	180.73
1466.97	119.761
1471.14	239.869
1475.31	190.625
1479.47	14.75
1483.63	156.156
1487.79	208.212
1491.94	138.02
1496.09	73.8232
1500.24	182.594
1504.39	26.8828
1508.54	99.3467
1512.68	32.3789
1516.82	113.909
1520.95	76.9561
1525.09	76.3711
1529.22	745.014
1533.35	240.436
1537.47	226.873
1541.6	189.633
1545.72	83.3643
1549.83	329.17
1553.95	455.977
1558.06	219.874
1562.17	66.5967
1566.28	1.89356
1570.38	138.228
