Measurement: Raman, 514 nm, depolarized, Raman Data Processed
Mineral: Beryl
Rruff sample: R050368
Ideal chemistry: Be_3_Al_2_Si_6_O_18_
Locality: Wah Wah Mountains, Utah, USA
Source: Eugene Schlepp
Description: Red-violet hexagonal prism
Measured chemistry: (Be_0.99_Li_0.01_)_3_(Al_0.95_Fe^3+^_0.05_)_2_Si_6.00_O_18_Î‡K_0.02_Na_0.01_
Pin_id: L01802
Orientation: Laser parallel to -c* (0 0 -1). Fiducial mark perpendicular to laser is parallel to b [0 1 0]
Raman shift (cm-1)	intensity
82.367	0
87.308	354.946
92.246	1036.09
97.182	622.25
102.116	344.486
107.047	1329.28
111.976	458.84
116.903	591.273
121.827	311.326
126.749	266.136
131.668	565.046
136.585	778.415
141.5	1166.01
146.412	509.935
151.321	72.8428
156.229	216.231
161.134	131.099
166.036	444.755
170.936	707.645
175.834	916.601
180.729	1724.42
185.622	2360.14
190.512	2678.84
195.4	2992.91
200.286	2961.8
205.169	1972.58
210.049	1460.06
214.928	1390.65
219.803	1576.15
224.677	1670.38
229.548	1679.25
234.416	1631.06
239.282	1381.75
244.146	1118.54
249.007	1203.34
253.866	1290.29
258.722	1464.23
263.576	1626.66
268.427	2332.11
273.276	2296.63
278.123	2246.59
282.967	2255.88
287.809	1814.44
292.648	1597.23
297.485	1756.2
302.319	2339.44
307.151	3604.86
311.98	6770.81
316.807	11590.7
321.631	12483.6
326.454	3347.89
331.273	1121.22
336.09	726.909
340.905	651.552
345.717	445.175
350.527	398.78
355.334	67.3545
360.139	99.2295
364.941	172.575
369.741	84.666
374.538	219.31
379.333	535.588
384.126	2691.53
388.916	8339.48
393.703	16944.4
398.488	9686.37
403.271	4304.32
408.051	3396.45
412.828	3916.67
417.603	4502.54
422.376	3380.64
427.146	2299.81
431.914	2772.02
436.679	4937.29
441.442	7109.61
446.202	3313.21
450.96	988.641
455.715	508.638
460.467	272.772
465.218	14.9531
469.965	77.791
474.711	211.096
479.454	486.037
484.194	678.052
488.932	798.143
493.667	692.309
498.4	668.768
503.13	788.795
507.858	883.109
512.583	929.68
517.306	1092.44
522.026	1394.84
526.744	1383.45
531.459	986.986
536.172	696.14
540.882	330.784
545.59	39.9727
550.295	64.5352
554.998	57.9023
559.698	438.919
564.396	511.004
569.091	882.318
573.784	1735.84
578.474	2933.57
583.162	4071.57
587.847	5289.92
592.529	6406.77
597.209	6342.25
601.887	5171.24
606.562	4099.59
611.235	3669.09
615.905	3883.73
620.572	3901.67
625.237	2241.69
629.9	1177.79
634.56	908.951
639.217	1178.18
643.872	1429.67
648.524	1265.18
653.174	1163.26
657.821	1369.47
662.466	2502.35
667.108	4807.01
671.748	10417.1
676.385	25641.7
681.02	47218.5
685.652	27711.2
690.281	10665.9
694.908	5319.21
699.533	2990.56
704.155	1642.12
708.774	946.758
713.391	622.386
718.005	258.394
722.617	29.8711
727.226	17.667
731.833	9.2207
736.437	55.8447
741.039	179.072
745.638	4.77734
750.234	171.966
754.828	418.885
759.419	1305.43
764.008	3130.59
768.595	4911.36
773.178	2569.74
777.759	936.732
782.338	311.313
786.914	148.471
791.488	34.917
796.059	81.7539
800.627	149.799
805.193	12.4072
809.756	7.07519
814.317	34.4697
818.875	70.8936
823.431	165.31
827.984	38.1475
832.534	75.501
837.082	32.334
841.627	214.619
846.17	323.428
850.71	330.771
855.248	1026.66
859.783	317.688
864.316	299.79
868.846	194.178
873.373	63.5879
877.898	178.291
882.42	242.227
886.94	304.014
891.457	324.496
895.971	379.94
900.483	692.325
904.993	1147.52
909.5	1674.43
914.004	2016.03
918.505	1871.33
923.004	1358.99
927.501	1013.1
931.995	799.889
936.486	506.57
940.975	395.643
945.461	5.2168
949.945	50.6016
954.426	134.672
958.904	274.922
963.38	391.677
967.853	548.514
972.324	677.505
976.792	931.223
981.258	1130.67
985.72	1340.8
990.181	1988.24
994.639	2675.68
999.094	3714.23
1003.55	3960.09
1008	3482.92
1012.44	2780.66
1016.89	2412.87
1021.33	1990.48
1025.77	1876.58
1030.21	1537.76
1034.64	1419.23
1039.07	1463.4
1043.5	1344.29
1047.93	1249.49
1052.35	1699.29
1056.78	2435.25
1061.19	3972.54
1065.61	5236.29
1070.02	4401.59
1074.43	3112.56
1078.84	2416.99
1083.25	1834.85
1087.65	1352.03
1092.05	1087.38
1096.45	822.746
1100.85	613.11
1105.24	424.46
1109.63	368.777
1114.02	459.025
1118.4	366.196
1122.78	414.26
1127.16	372.204
1131.54	269.023
1135.92	170.726
1140.29	81.2188
1144.66	57.5352
1149.02	9.85547
1153.39	50.8242
1157.75	111.603
1162.11	80.6699
1166.46	15.6357
1170.82	146.276
1175.17	175.992
1179.52	346.762
1183.86	359.604
1188.21	855.106
1192.55	921.653
1196.89	1008.05
1201.22	1035.03
1205.55	1274.27
1209.88	1482.23
1214.21	2335.3
1218.54	3765.94
1222.86	4831.95
1227.18	5006.9
1231.5	4516.76
1235.81	5026.37
1240.12	6146.11
1244.43	5030.65
1248.74	2856.4
1253.04	1560.33
1257.34	1114.99
1261.64	832.664
1265.94	758.43
1270.23	857.695
1274.52	610.467
1278.81	454.216
1283.1	349.116
1287.38	273.8
1291.66	147.469
1295.94	171.125
1300.21	13.2529
1304.48	154.848
1308.75	99.0889
1313.02	64.3135
1317.29	32.0879
1321.55	130.442
1325.81	158.963
1330.06	245.871
1334.32	82.5527
1338.57	247.221
1342.82	262.456
1347.06	221.873
1351.31	298.56
1355.55	323.792
1359.79	276.341
1364.02	238.067
1368.26	264.59
1372.49	246.745
1376.71	229.874
1380.94	212.939
1385.16	223.895
1389.38	58.8428
1393.6	118.351
1397.81	83.0283
1402.02	77.7939
1406.23	99.8887
1410.44	66.1777
1414.64	7.01367
1418.85	77.2344
1423.04	96.584
1427.24	148.951
1431.43	20.8242
1435.62	144.769
1439.81	35.5557
1444	78.874
1448.18	126.649
1452.36	40.0889
1456.54	147.851
1460.71	131.776
1464.89	196.968
1469.06	156.572
1473.22	78.9834
1477.39	199.534
1481.55	233.506
1485.71	153.621
1489.86	374.35
1494.02	235.591
1498.17	248.504
1502.32	170.952
1506.46	410.106
1510.61	408.18
1514.75	345.016
1518.88	359.756
1523.02	460.519
1527.15	167.178
1531.28	328.721
1535.41	170.244
1539.53	89.4902
1543.66	210.199
1547.78	135.084
1551.89	288.389
1556.01	167.586
1560.12	25.4414
1564.23	80.9004
1568.33	222.33
