Measurement: Raman, 514 nm, depolarized, Raman Data Processed
Mineral: Beryl
Rruff sample: R050347
Ideal chemistry: Be_3_Al_2_Si_6_O_18_
Locality: North Keystone, South Dakota, USA
Source: California Institute of Technology
Description: Colorless fragment
Measured chemistry: (Be_0.96_Li_0.04_)_3_Al_2.00_(Si_0.99_Al_0.01_)_6_O_18_ Î‡0.17Na
Pin_id: L01036
Orientation: Laser parallel to a* (1 0 0). Fiducial mark perpendicular to laser is parallel to c [0 0 1]
Raman shift (cm-1)	intensity
120.596	0
125.519	22.126
130.439	374.226
135.356	698.489
140.271	1154.55
145.184	875.788
150.094	398.063
155.002	185.493
159.908	71.5508
164.811	251.634
169.711	318.752
174.61	269.685
179.505	455.191
184.399	592.738
189.29	772.79
194.178	875.776
199.064	798.323
203.948	702.148
208.829	71.3745
213.708	41.7803
218.585	110.914
223.459	73.0147
228.33	12.0391
233.199	219.718
238.066	172.497
242.93	291.201
247.792	464.823
252.651	355.31
257.508	136.609
262.363	63.7803
267.215	56.2969
272.064	33.2915
276.912	125.98
281.756	346.46
286.598	578.951
291.438	947.958
296.276	1030.34
301.111	1021.14
305.943	1276.51
310.773	2249.98
315.601	5094.68
320.426	9052.64
325.248	8005.44
330.068	2222.27
334.886	465.655
339.701	202.81
344.514	57.7881
349.324	11.5996
354.132	100.564
358.938	49.4199
363.741	138.379
368.541	228.039
373.339	462.597
378.135	980.177
382.928	2116.76
387.718	4845.48
392.506	10151.1
397.292	13791.6
402.075	7799.57
406.856	2991.51
411.634	1422.84
416.41	1173.49
421.183	1343.5
425.954	739.067
430.722	540.563
435.488	548.895
440.251	1070.08
445.012	1365.13
449.77	1166.09
454.526	519.676
459.28	344.303
464.03	204.508
468.779	123.274
473.525	90.0571
478.268	57.5034
483.009	20.3852
487.747	62.6113
492.483	102.124
497.217	116.495
501.948	9.90723
506.676	43.9927
511.402	176.514
516.125	515.227
520.846	863.953
525.565	1233.7
530.281	1198.44
534.994	864.145
539.705	589.858
544.413	265.7
549.119	49.7764
553.822	111.173
558.523	87.9541
563.222	158.836
567.917	253.806
572.611	441.825
577.302	493.317
581.99	369.145
586.676	235.288
591.359	81.4785
596.04	79.7129
600.718	23.2378
605.394	64.3823
610.067	35.9995
614.737	448.946
619.406	1094.97
624.071	894.505
628.734	181.405
633.395	248.148
638.053	281.796
642.708	337.141
647.361	352.798
652.012	499.058
656.66	760.578
661.305	1175.52
665.948	2184.06
670.588	4412.27
675.226	10741.9
679.861	27236.6
684.494	49789.9
689.124	31080
693.752	11392.4
698.377	5140.75
702.999	2951.58
707.619	1749.36
712.237	1262.03
716.852	878.633
721.464	555.84
726.074	535.589
730.681	434.964
735.286	427.447
739.888	451.731
744.488	372.133
749.085	197.54
753.68	410.526
758.272	435.313
762.861	543.382
767.448	703.183
772.033	561.791
776.614	388.112
781.194	418.129
785.77	234.904
790.345	247.405
794.916	62.6006
799.485	39.5273
804.052	185.859
808.616	33.2676
813.177	78.9531
817.736	79.2236
822.292	25.2695
826.846	102.192
831.397	31.2988
835.945	50.7363
840.491	68.541
845.035	60.624
849.576	73.6465
854.114	16.5439
858.65	146.11
863.183	110.462
867.713	26.6494
872.241	21.2988
876.767	35.1397
881.29	86.3857
885.81	51.0498
890.328	17.376
894.843	148.529
899.356	108.58
903.866	99.54
908.373	320.422
912.878	313.239
917.38	302.011
921.88	340.752
926.377	234.477
930.872	141.775
935.364	60.2461
939.853	167.863
944.34	15.6426
948.824	79.3037
953.306	55.3467
957.785	145.054
962.261	96.5752
966.735	75.4941
971.207	144.539
975.675	116.122
980.141	379.913
984.605	361.478
989.066	664.015
993.524	1234.61
997.98	1704.37
1002.43	2777.44
1006.88	4178.28
1011.33	4941.93
1015.78	4203.46
1020.22	2986.64
1024.66	2366.54
1029.1	2158.61
1033.53	2343.1
1037.97	2830.01
1042.4	3763.38
1046.82	5501.23
1051.25	8302.99
1055.67	14309
1060.09	24278.8
1064.51	35968.1
1068.92	38114
1073.33	30128.5
1077.74	20801.1
1082.15	14039.5
1086.55	9465.22
1090.95	6488.06
1095.35	4745.5
1099.75	3740.5
1104.14	2907.06
1108.53	2428.16
1112.92	1924.88
1117.31	1975.21
1121.69	1823.21
1126.07	1610.95
1130.45	1605.89
1134.82	1833.8
1139.19	2134.21
1143.57	2317.11
1147.93	1942.09
1152.3	1493.58
1156.66	956.702
1161.02	312.56
1165.38	219.859
1169.73	16.6631
1174.08	146.04
1178.43	101.178
1182.78	30.3896
1187.12	93.4219
1191.46	114.114
1195.8	96.5498
1200.14	139.037
1204.47	87.9228
1208.8	98.2148
1213.13	164.553
1217.46	103.121
1221.78	67.2832
1226.1	291.191
1230.42	213.214
1234.73	540.368
1239.04	391.666
1243.35	429.357
1247.66	165.763
1251.97	73.2539
1256.27	50.8691
1260.57	40.543
1264.86	44.4092
1269.16	24.2227
1273.45	3.57422
1277.74	17.9561
1282.03	32.2754
1286.31	85.54
1290.59	108.806
1294.87	22.3223
1299.14	116.94
1303.42	19.0771
1307.69	18.3232
1311.95	57.8916
1316.22	46.7432
1320.48	110.889
1324.74	4.13086
1329	78.333
1333.26	132.412
1337.51	200.303
1341.76	152.698
1346	24.9277
1350.25	334.649
1354.49	275.972
1358.73	122.019
1362.96	300.459
1367.2	178.065
1371.43	168.203
1375.66	218.011
1379.88	87.8955
1384.11	300.964
1388.33	242.24
1392.54	38.0469
1396.76	200.941
1400.97	220.149
1405.18	125.843
1409.39	72.001
1413.59	74.6807
1417.8	22.957
1421.99	170.583
1426.19	131.791
1430.38	137.815
1434.58	179.039
1438.77	92.7832
1442.95	98.96
1447.13	179.562
1451.32	60.3565
1455.49	188.4
1459.67	185.439
1463.84	178.439
1468.01	69.8926
1472.18	119.262
1476.35	145.709
1480.51	136.392
1484.67	184.51
1488.83	7.62793
1492.98	99.8096
1497.13	77.415
1501.28	28.082
1505.43	77.4414
1509.57	176.138
1513.71	99.2939
1517.85	227.895
1521.99	77.5762
1526.12	65.4258
1530.25	124.342
1534.38	238.828
1538.5	176.678
1542.62	264.522
1546.74	428.998
1550.86	124.865
1554.98	233.677
1559.09	95.3096
1563.2	22.4043
1567.31	130.676
