Measurement: Raman, 514 nm, depolarized, Raman Data Processed
Mineral: Beryl
Rruff sample: R050305
Ideal chemistry: Be_3_Al_2_Si_6_O_18_
Locality: Conselheiro Pena, Minas Gerais, Brazil
Source: Eugene Schlepp
Description: Light blue fragment, variety aquamarine
Measured chemistry: (Be_0.91_Li_0.09_)_3_(Al_0.99_Fe^3+^_0.01_)_2_Si_6.00_O_18_Î‡Na_0.27_
Pin_id: L01620
Orientation: Laser parallel to a* (1 0 0). Fiducial mark perpendicular to laser is parallel to -c [0 0 -1]
Raman shift (cm-1)	intensity
100.883	0
105.815	321.493
110.744	1733.09
115.671	1764.31
120.596	1826.38
125.519	1791.98
130.439	1943.58
135.356	1722.49
140.271	1871.35
145.184	1426.94
150.094	1300.86
155.002	1050.25
159.908	1012.72
164.811	1296.58
169.711	1363.6
174.61	989.023
179.505	1114.33
184.399	1072.81
189.29	941.792
194.178	895.071
199.064	862.038
203.948	963.932
208.829	52.3633
213.708	123.068
218.585	37.6045
223.459	34.1943
228.33	191.285
233.199	371.889
238.066	524.384
242.93	499.954
247.792	593.822
252.651	256.098
257.508	75.8242
262.363	192.73
267.215	24.1738
272.064	94.1221
276.912	48.1055
281.756	94.6514
286.598	290.997
291.438	505.815
296.276	740.432
301.111	709.259
305.943	873.512
310.773	1404.9
315.601	3036.39
320.426	5629.02
325.248	6410.93
330.068	2810.06
334.886	632.351
339.701	227.673
344.514	36.3428
349.324	148.141
354.132	61.6836
358.938	40.3672
363.741	60.8184
368.541	193.963
373.339	249.331
378.135	619.139
382.928	1177.82
387.718	2866.58
392.506	6486.43
397.292	11509.6
402.075	10491
406.856	4623.88
411.634	2084.67
416.41	1382.09
421.183	1191.36
425.954	758.856
430.722	412.638
435.488	707.44
440.251	758.266
445.012	1055.11
449.77	669.976
454.526	517.859
459.28	196.519
464.03	185.481
468.779	181.487
473.525	16.2334
478.268	31.582
483.009	125.79
487.747	39.5068
492.483	84.6748
497.217	165.569
501.948	84.7324
506.676	111.209
511.402	249.989
516.125	271.576
520.846	467.303
525.565	636.239
530.281	789.354
534.994	792.812
539.705	560.445
544.413	284.219
549.119	223.119
553.822	157.615
558.523	246.652
563.222	176.059
567.917	408.582
572.611	434.309
577.302	477.164
581.99	334.432
586.676	244.746
591.359	186.065
596.04	48.4395
600.718	37.2402
605.394	9.82227
610.067	24.4512
614.737	331.482
619.406	456.252
624.071	199.758
628.734	191.897
633.395	105.762
638.053	248.856
642.708	306.539
647.361	439.18
652.012	625.283
656.66	665.881
661.305	1058.46
665.948	2096.99
670.588	3969.45
675.226	8598.03
679.861	21372.8
684.494	40539.2
689.124	33178.9
693.752	13918.9
698.377	6411.81
702.999	3368.33
707.619	2024.17
712.237	1447.03
716.852	1122.21
721.464	799.201
726.074	695.588
730.681	642.371
735.286	464.363
739.888	342.738
744.488	336.641
749.085	532.66
753.68	317.232
758.272	422.783
762.861	211.955
767.448	109.328
772.033	269.637
776.614	344.533
781.194	799.953
785.77	79.916
790.345	105.35
794.916	278.17
799.485	4.38672
804.052	56.1367
808.616	104.797
813.177	61.584
817.736	51.6738
822.292	3.56055
826.846	111.93
831.397	77.8125
835.945	83.5019
840.491	23.9141
845.035	170.371
849.576	42.4238
854.114	71.5938
858.65	20.6074
863.183	19.9277
867.713	124.053
872.241	22.7344
876.767	91.1426
881.29	94.3457
885.81	100.455
890.328	59.2598
894.843	171.772
899.356	194.076
903.866	97.8008
908.373	242.772
912.878	361.586
917.38	363.131
921.88	175.019
926.377	308.832
930.872	70.9277
935.364	51.373
939.853	56.9531
944.34	95.1016
948.824	130.699
953.306	27.3594
957.785	51.498
962.261	91.666
966.735	132.312
971.207	31.5664
975.675	101.772
980.141	403.908
984.605	507.666
989.066	722.57
993.524	1289.12
997.98	2114.6
1002.43	3070.75
1006.88	3255.67
1011.33	3479.16
1015.78	3323.52
1020.22	2690.99
1024.66	2346.18
1029.1	1967.61
1033.53	2447.51
1037.97	2837.9
1042.4	3820.78
1046.82	5235.18
1051.25	8128.1
1055.67	12117.6
1060.09	18032.6
1064.51	23746.3
1068.92	25188.3
1073.33	22191.4
1077.74	17365.3
1082.15	12775.9
1086.55	9073.16
1090.95	6837.83
1095.35	5450.04
1099.75	4871.86
1104.14	4248.61
1108.53	3884.09
1112.92	3744.77
1117.31	3720.84
1121.69	3266.13
1126.07	3299.22
1130.45	3024.43
1134.82	3183.53
1139.19	3229.31
1143.57	3397.33
1147.93	2823.19
1152.3	2155.25
1156.66	1704.12
1161.02	1026.45
1165.38	504.227
1169.73	566.484
1174.08	505.182
1178.43	487.272
1182.78	387.731
1187.12	360.551
1191.46	309.717
1195.8	314.213
1200.14	112.971
1204.47	216.139
1208.8	97.0644
1213.13	120.35
1217.46	193.977
1221.78	190.06
1226.1	190.356
1230.42	217.865
1234.73	194.473
1239.04	150.65
1243.35	92.7969
1247.66	7.25195
1251.97	90.8203
1256.27	37.5293
1260.57	15.1387
1264.86	126.752
1269.16	69.9766
1273.45	58.8633
1277.74	293.856
1282.03	69.2129
1286.31	275.986
1290.59	248.775
1294.87	366.783
1299.14	297.625
1303.42	445.576
1307.69	183.365
1311.95	295.828
1316.22	382.049
1320.48	195.035
1324.74	423.777
1329	229.893
1333.26	73.5
1337.51	324.826
1341.76	277.508
1346	26.791
1350.25	35.7363
1354.49	301.055
1358.73	186.84
1362.96	103.978
1367.2	220.16
1371.43	271.144
1375.66	157.201
1379.88	251.381
1384.11	272.998
1388.33	46.8516
1392.54	323.006
1396.76	144.102
1400.97	306.133
1405.18	74.6016
1409.39	224.365
1413.59	120.332
1417.8	119.16
1421.99	1.89648
1426.19	231.338
1430.38	155.691
1434.58	298.139
1438.77	577.131
1442.95	449.578
1447.13	443.033
1451.32	424.086
1455.49	568.973
1459.67	665.773
1463.84	282.66
1468.01	334.539
1472.18	255.461
1476.35	363.856
1480.51	115.76
1484.67	45.0488
1488.83	359.096
1492.98	59.4766
1497.13	247.096
1501.28	208.18
1505.43	295.197
1509.57	136.94
1513.71	359.67
1517.85	336.67
1521.99	23.1406
1526.12	271.043
1530.25	2.53906
1534.38	266.377
1538.5	247.363
1542.62	292.18
1546.74	271.777
1550.86	391.992
1554.98	453.25
1559.09	196.109
1563.2	175.201
1567.31	3.95312
