Measurement: Raman, 514 nm, depolarized, Raman Data Processed
Mineral: Beryl
Rruff sample: R050368
Ideal chemistry: Be_3_Al_2_Si_6_O_18_
Locality: Wah Wah Mountains, Utah, USA
Source: Eugene Schlepp
Description: Red-violet hexagonal prism
Measured chemistry: (Be_0.99_Li_0.01_)_3_(Al_0.95_Fe^3+^_0.05_)_2_Si_6.00_O_18_Î‡K_0.02_Na_0.01_
Pin_id: L01133
Orientation: Laser parallel to -a* (-1 0 0). Fiducial mark perpendicular to laser is parallel to -c [0 0 -1]
Raman shift (cm-1)	intensity
82.367	0
87.308	95.5898
92.246	1253.39
97.182	1180.1
102.116	733.76
107.047	1908.62
111.976	1078.08
116.903	1403.36
121.827	1185.55
126.749	935.879
131.668	1392.23
136.585	1698.45
141.5	1206.43
146.412	366.291
151.321	18.4199
156.229	169.783
161.134	143.974
166.036	414.728
170.936	587.285
175.834	735.506
180.729	974.748
185.622	1424.79
190.512	1655.91
195.4	1836.99
200.286	2009.58
205.169	1299.92
210.049	546.013
214.928	613.151
219.803	665.54
224.677	991.835
229.548	1157.3
234.416	1395.88
239.282	1391.42
244.146	1478.44
249.007	2004.11
253.866	1338.56
258.722	1237.03
263.576	915.758
268.427	1147.63
273.276	1109.99
278.123	1119.4
282.967	1291.74
287.809	1053.97
292.648	1272.07
297.485	1644.67
302.319	2199.19
307.151	3783.53
311.98	8502.71
316.807	14964.2
321.631	13035.3
326.454	3636.23
331.273	811.026
336.09	266.15
340.905	78.9648
345.717	5.59668
350.527	126.788
355.334	101.857
360.139	196.133
364.941	70.4961
369.741	280.919
374.538	825.497
379.333	2247.85
384.126	5005.89
388.916	11432.6
393.703	14809
398.488	7001.03
403.271	2432.84
408.051	1455.93
412.828	1617.55
417.603	1480.5
422.376	1245.57
427.146	857.503
431.914	1185.33
436.679	2438.05
441.442	3330.67
446.202	2169.34
450.96	1014.77
455.715	280.545
460.467	208.251
465.218	15.0957
469.965	125.424
474.711	184.897
479.454	452.484
484.194	601.009
488.932	794.661
493.667	657.087
498.4	690.533
503.13	819.477
507.858	886.912
512.583	1240.24
517.306	1909.31
522.026	2893.81
526.744	2815.02
531.459	1683.87
536.172	849.176
540.882	393.973
545.59	97.4609
550.295	152.477
554.998	86.1992
559.698	49.2051
564.396	284.173
569.091	400.763
573.784	958.701
578.474	1555.91
583.162	2040.35
587.847	2695.03
592.529	3222.1
597.209	3146.16
601.887	2792.4
606.562	2307.89
611.235	2298.49
615.905	2633.85
620.572	2375.7
625.237	1522.7
629.9	1107.02
634.56	1222.91
639.217	1477.63
643.872	1658.3
648.524	1705.12
653.174	1821.39
657.821	2625.46
662.466	4369.91
667.108	7666.73
671.748	15947.1
676.385	35821.4
681.02	51576.9
685.652	29645.1
690.281	12086.1
694.908	5995.73
699.533	3601.3
704.155	2058.37
708.774	1278.33
713.391	873.271
718.005	419.352
722.617	225.574
727.226	136.364
731.833	216.215
736.437	244.121
741.039	264.662
745.638	99.8408
750.234	294.661
754.828	746.096
759.419	923.141
764.008	2096.8
768.595	2222.06
773.178	1481.93
777.759	738.383
782.338	349.401
786.914	288.959
791.488	37.999
796.059	102.343
800.627	126.343
805.193	25.6377
809.756	84.8857
814.317	10.4131
818.875	109.114
823.431	68.5723
827.984	194.849
832.534	30.2979
837.082	20.2178
841.627	36.4805
846.17	29.6162
850.71	44.0508
855.248	147.932
859.783	71.2949
864.316	253.158
868.846	281.362
873.373	263.304
877.898	533.812
882.42	843.664
886.94	1047.41
891.457	893.162
895.971	1175.03
900.483	1480.25
904.993	2370.6
909.5	3504.77
914.004	4423.63
918.505	3910.16
923.004	2373.04
927.501	1528.77
931.995	1123.67
936.486	552.578
940.975	350.222
945.461	255.454
949.945	149.495
954.426	29.9736
958.904	231.99
963.38	292.704
967.853	445.594
972.324	543.834
976.792	527.889
981.258	710.688
985.72	1263.76
990.181	2041.77
994.639	3049.65
999.094	4479.58
1003.55	5913.65
1008	6536.44
1012.44	5334.35
1016.89	3997.23
1021.33	3185.53
1025.77	3013.09
1030.21	3053.95
1034.64	3533.12
1039.07	4305.64
1043.5	5662.16
1047.93	8463.15
1052.35	13053.2
1056.78	22697.5
1061.19	38995
1065.61	48552.8
1070.02	38781.2
1074.43	23999.3
1078.84	15391.8
1083.25	10667.6
1087.65	7677.18
1092.05	5653.94
1096.45	4209.19
1100.85	3355.62
1105.24	2686
1109.63	2202.52
1114.02	2117.34
1118.4	1828.23
1122.78	1761.12
1127.16	1473
1131.54	1230.43
1135.92	906.719
1140.29	529.332
1144.66	256.212
1149.02	27.7178
1153.39	182.847
1157.75	7.96191
1162.11	132.2
1166.46	71.7568
1170.82	3.68848
1175.17	203.131
1179.52	204.539
1183.86	355.078
1188.21	829.484
1192.55	763.074
1196.89	580.537
1201.22	594.182
1205.55	805.437
1209.88	789.466
1214.21	1229.04
1218.54	1780.59
1222.86	2094.3
1227.18	1983.48
1231.5	1611
1235.81	1714.31
1240.12	1938.36
1244.43	1728.72
1248.74	778.144
1253.04	619.652
1257.34	556.987
1261.64	331.938
1265.94	462.069
1270.23	542.148
1274.52	293.803
1278.81	344.89
1283.1	443.471
1287.38	286.926
1291.66	274.788
1295.94	350.224
1300.21	340.321
1304.48	399.641
1308.75	326.68
1313.02	133.012
1317.29	63.6621
1321.55	87.1758
1325.81	10.7578
1330.06	240.787
1334.32	388.623
1338.57	278.172
1342.82	366.441
1347.06	240.057
1351.31	210.367
1355.55	270.574
1359.79	168.113
1364.02	161.576
1368.26	273.115
1372.49	42.8691
1376.71	338.426
1380.94	284.012
1385.16	32.3789
1389.38	44.7148
1393.6	62.791
1397.81	14.2051
1402.02	1.85352
1406.23	31.7754
1410.44	75.3477
1414.64	4.28906
1418.85	56.9902
1423.04	89.3164
1427.24	94.3691
1431.43	258.094
1435.62	405.236
1439.81	228.227
1444	344.938
1448.18	199.484
1452.36	311.049
1456.54	154.961
1460.71	211.398
1464.89	258.42
1469.06	370.158
1473.22	351.096
1477.39	96.9062
1481.55	217.385
1485.71	154.475
1489.86	190.815
1494.02	151.406
1498.17	72.3867
1502.32	115.932
1506.46	214.361
1510.61	127.715
1514.75	143.43
1518.88	256.199
1523.02	158.023
1527.15	258.598
1531.28	181.295
1535.41	336.728
1539.53	344.916
1543.66	201.697
1547.78	241.022
1551.89	295.992
1556.01	157.102
1560.12	158.772
1564.23	215.258
1568.33	83.9394
