Measurement: Raman, 514 nm, depolarized, Raman Data Processed
Mineral: Beryl
Rruff sample: R050305
Ideal chemistry: Be_3_Al_2_Si_6_O_18_
Locality: Conselheiro Pena, Minas Gerais, Brazil
Source: Eugene Schlepp
Description: Light blue fragment, variety aquamarine
Measured chemistry: (Be_0.91_Li_0.09_)_3_(Al_0.99_Fe^3+^_0.01_)_2_Si_6.00_O_18_Î‡Na_0.27_
Pin_id: L00797
Orientation: Laser parallel to c* (0 0 1). Fiducial mark perpendicular to laser is parallel to [-1 -1 0]
Raman shift (cm-1)	intensity
95.948	0
100.883	19.0898
105.815	395.556
110.744	1817.13
115.671	2716.91
120.596	3187.82
125.519	3336.05
130.439	3385.91
135.356	3295.11
140.271	3000.3
145.184	2139.24
150.094	1690.44
155.002	1742.51
159.908	1832.37
164.811	2004.72
169.711	2025.62
174.61	1879.88
179.505	1747.3
184.399	1375.83
189.29	1121.43
194.178	725.97
199.064	688.376
203.948	606.533
208.829	3.3291
213.708	139.265
218.585	7.19824
223.459	249.719
228.33	498.102
233.199	578.826
238.066	520.175
242.93	338.16
247.792	292.969
252.651	46.6475
257.508	19.3857
262.363	114.67
267.215	176.686
272.064	204.289
276.912	198.774
281.756	409.897
286.598	1130.46
291.438	1798.33
296.276	1702.42
301.111	651.516
305.943	440.41
310.773	637.271
315.601	1305.06
320.426	2212.75
325.248	2487.52
330.068	983.817
334.886	89.834
339.701	175.971
344.514	52.3057
349.324	196.186
354.132	130.064
358.938	142.858
363.741	194.825
368.541	275.747
373.339	615.352
378.135	2386.46
382.928	2005.66
387.718	4113.54
392.506	8626.28
397.292	15406
402.075	15328.4
406.856	7333.82
411.634	4430.15
416.41	4221.32
421.183	4275.1
425.954	3135.49
430.722	1998.45
435.488	1464.99
440.251	1120.1
445.012	1001.77
449.77	769.989
454.526	539.761
459.28	348.078
464.03	249.938
468.779	303.323
473.525	4.60742
478.268	11.2871
483.009	13.4492
487.747	152.506
492.483	144.255
497.217	158.011
501.948	31.2129
506.676	69.7549
511.402	115.439
516.125	7.13769
520.846	79.7266
525.565	205.889
530.281	150.648
534.994	373.138
539.705	388.496
544.413	452.872
549.119	651.105
553.822	929.337
558.523	1049.45
563.222	1444.4
567.917	1766.31
572.611	2121
577.302	2080.48
581.99	1620.64
586.676	1063.46
591.359	700.937
596.04	411.072
600.718	457.907
605.394	320.597
610.067	345.487
614.737	128.093
619.406	211.338
624.071	261.125
628.734	166.438
633.395	135.535
638.053	314.319
642.708	325.812
647.361	341.819
652.012	330.923
656.66	582.213
661.305	968.834
665.948	1838.79
670.588	3675.6
675.226	8460.86
679.861	21502.8
684.494	42932.1
689.124	37130.2
693.752	15540.2
698.377	7432.54
702.999	4180.73
707.619	2764.55
712.237	2088.44
716.852	1577.22
721.464	1473.28
726.074	1338.56
730.681	1103.98
735.286	955.335
739.888	771.481
744.488	809.043
749.085	1016.23
753.68	1156.62
758.272	1120.22
762.861	1056.69
767.448	705.776
772.033	450.572
776.614	327.843
781.194	285.048
785.77	279.08
790.345	113.276
794.916	161.788
799.485	56.1055
804.052	207.075
808.616	198.135
813.177	83.2812
817.736	54.167
822.292	33.7852
826.846	23.8994
831.397	7.54981
835.945	86.7305
840.491	45.8935
845.035	120.159
849.576	4.18164
854.114	123.914
858.65	179.673
863.183	53.1299
867.713	142.283
872.241	10.8477
876.767	28.3984
881.29	192.423
885.81	23.0732
890.328	200.624
894.843	372.062
899.356	477.845
903.866	597.452
908.373	605.911
912.878	511.242
917.38	489.452
921.88	292.56
926.377	185.477
930.872	136.906
935.364	238.388
939.853	80.8584
944.34	64.8262
948.824	77.7383
953.306	15.3115
957.785	111.642
962.261	38.958
966.735	100.311
971.207	246.49
975.675	200.228
980.141	350.128
984.605	791.107
989.066	1418.63
993.524	2330.56
997.98	3275.22
1002.43	3468.77
1006.88	3007.84
1011.33	2322.4
1015.78	1592.95
1020.22	1176.74
1024.66	987.371
1029.1	686.627
1033.53	595.328
1037.97	613.503
1042.4	598.338
1046.82	1050.95
1051.25	1450.28
1055.67	2407.2
1060.09	4004.9
1064.51	5291.19
1068.92	6127.05
1073.33	5796.49
1077.74	4893.07
1082.15	3716.96
1086.55	2777.28
1090.95	2085.14
1095.35	1683.97
1099.75	1387.31
1104.14	1441.62
1108.53	1270.88
1112.92	1210.14
1117.31	1245.23
1121.69	1181.06
1126.07	1328.55
1130.45	1262.32
1134.82	1343.52
1139.19	1326.45
1143.57	1451.67
1147.93	1185.19
1152.3	1264.73
1156.66	767.61
1161.02	576.795
1165.38	604.57
1169.73	724.991
1174.08	774.295
1178.43	902.006
1182.78	1092.42
1187.12	1066.7
1191.46	1209.87
1195.8	1317.18
1200.14	1390.81
1204.47	1321.51
1208.8	1322.92
1213.13	1542.44
1217.46	1424.72
1221.78	1608.41
1226.1	1580.27
1230.42	1576.08
1234.73	974.201
1239.04	719.192
1243.35	591.552
1247.66	342.8
1251.97	181.582
1256.27	107.12
1260.57	71.6338
1264.86	34.9961
1269.16	21.4893
1273.45	89.8897
1277.74	59.9785
1282.03	11.2676
1286.31	40.9277
1290.59	58.9678
1294.87	109.893
1299.14	135.986
1303.42	110.041
1307.69	125.543
1311.95	22.1348
1316.22	180.613
1320.48	12.625
1324.74	170.586
1329	18.6484
1333.26	113.533
1337.51	327.969
1341.76	173.334
1346	167.916
1350.25	193.223
1354.49	161.35
1358.73	14.8027
1362.96	279.57
1367.2	135.25
1371.43	247.705
1375.66	83.7676
1379.88	139.357
1384.11	438.49
1388.33	237.504
1392.54	160.644
1396.76	130.469
1400.97	57.6621
1405.18	52.1758
1409.39	177.904
1413.59	175.023
1417.8	123.135
1421.99	71.2578
1426.19	228.613
1430.38	139.19
1434.58	239.562
1438.77	15.9863
1442.95	138.391
1447.13	262.623
1451.32	219.088
1455.49	250.684
1459.67	236.147
1463.84	175.859
1468.01	170.432
1472.18	305.299
1476.35	172.295
1480.51	213.984
1484.67	422.562
1488.83	169.326
1492.98	211.881
1497.13	216.607
1501.28	234.588
1505.43	236.797
1509.57	23.7969
1513.71	92.3301
1517.85	125.777
1521.99	128.127
1526.12	116.268
1530.25	56.0332
1534.38	32.2637
1538.5	6.61523
1542.62	134.744
1546.74	3.75
1550.86	185.9
1554.98	119.592
1559.09	78.5098
1563.2	90.8047
1567.31	125.939
