Measurement: Raman, 514 nm, depolarized, Raman Data Processed
Mineral: Beryl
Rruff sample: R060943
Ideal chemistry: Be_3_Al_2_Si_6_O_18_
Locality: Xinjiang, China
Source: Lawrence W. Snee
Description: Green hexagonal prisms, variety emerald
Measured chemistry: (Be_2.96_Li_0.04_)_Σ=3_(Al_1.64_Mg_0.21_V^3+^_0.06_Fe^3+^_0.04_Sc^3+^_0.03_Cr^3+^_0.02_)_Σ=2_Si_6.00_O_18_·Na_0.25_
Pin_id: L01186
Orientation: Laser parallel to -c* (0 0 -1). Fiducial mark perpendicular to laser is parallel to a [1 0 0]
Raman shift (cm-1)	intensity
169.8	0
174.729	8.61426
179.655	238.132
184.579	289.631
189.499	739.122
194.416	1050.03
199.331	1245.18
204.242	588.141
209.15	46.7705
214.055	111.993
218.957	216.796
223.856	383.435
228.752	288.157
233.645	552.124
238.535	573.865
243.422	693.074
248.306	937.327
253.187	604.813
258.065	679.123
262.94	19.5674
267.812	374.442
272.681	304.513
277.547	473.618
282.41	733.487
287.27	677.132
292.127	807.458
296.981	634.51
301.832	606.779
306.68	760.335
311.526	1559.22
316.368	3149.24
321.207	5732.45
326.043	6014.85
330.877	1600.21
335.707	210.233
340.535	26.7012
345.359	110.825
350.181	119.547
355	85.7461
359.815	74.8184
364.628	3.46582
369.438	169.087
374.245	365.699
379.049	762.556
383.851	1383.75
388.649	2843.35
393.444	5359.41
398.237	7171.93
403.026	4503.94
407.813	2412.7
412.597	1728.85
417.378	1673.2
422.156	1261.8
426.931	1190.24
431.703	1355.63
436.473	1756.79
441.239	2285.71
446.003	1839.41
450.764	1271.91
455.522	830.201
460.277	822.974
465.029	644.033
469.779	603.393
474.525	484.356
479.269	391.155
484.01	537.453
488.748	289.937
493.484	417.108
498.216	338.036
502.946	473.853
507.672	642.171
512.396	1032.83
517.118	1646.45
521.836	2309.55
526.551	2013.7
531.264	1233.84
535.974	396.889
540.681	81.1387
545.386	111.506
550.087	149.639
554.786	94.6221
559.482	204.041
564.175	567.742
568.866	594.446
573.553	673.178
578.238	671.955
582.921	610.789
587.6	819.615
592.277	809.452
596.95	699.362
601.622	717.3
606.29	810.214
610.956	1068.55
615.618	1405.43
620.279	1358.3
624.936	1242.61
629.591	636.447
634.243	472.316
638.892	390.856
643.538	462.831
648.182	480.404
652.823	539.745
657.462	666.673
662.097	1230.05
666.73	2158.48
671.36	4014.84
675.988	9551.59
680.613	22535.1
685.235	39975.9
689.854	27343.1
694.471	10602.5
699.085	4866.6
703.697	2900.12
708.305	1788.63
712.911	1400.51
717.515	907.766
722.115	629.057
726.713	478.048
731.309	269.987
735.902	198.873
740.492	251.884
745.079	151.553
749.664	219.076
754.246	453.188
758.825	527.739
763.402	767.994
767.976	714.943
772.548	604.576
777.117	334.695
781.683	345.826
786.247	247.417
790.808	136.632
795.366	165.364
799.922	116.394
804.475	3.99414
809.026	86.8008
813.574	87.1289
818.119	16.0186
822.662	12.5977
827.202	19.3242
831.74	79.2393
836.275	82.001
840.807	132.439
845.337	40.4277
849.864	99.9258
854.389	212.888
858.911	104.353
863.431	91.4336
867.948	62.0391
872.462	190.118
876.974	54.8047
881.483	97.1162
885.99	62.207
890.494	119.478
894.996	229.935
899.495	337.175
903.991	546.237
908.485	727.106
912.977	958.797
917.466	1039.32
921.952	961.501
926.436	635.893
930.917	584.753
935.396	590.67
939.872	182.186
944.346	323.516
948.817	104.506
953.286	81.8936
957.752	44.0225
962.216	0.376953
966.677	50.3203
971.136	212.01
975.592	164.184
980.045	380.63
984.497	515.35
988.945	1288.42
993.392	2047.44
997.835	2817.82
1002.28	3839.47
1006.72	4041.45
1011.15	4008.5
1015.59	3242.59
1020.02	2544.59
1024.45	2065.48
1028.87	1917.83
1033.3	1677.04
1037.72	2044.09
1042.14	2577.5
1046.55	3501.28
1050.97	5482.43
1055.38	9167.98
1059.79	15448.9
1064.2	22573.4
1068.6	23887.6
1073	19255.3
1077.4	13446.4
1081.8	9474.41
1086.19	8373.76
1090.59	5186.29
1094.97	3765.01
1099.36	3145.69
1103.75	2424.28
1108.13	2081.47
1112.51	2044.72
1116.89	1916.34
1121.26	2231.06
1125.64	2544.23
1130.01	2384.36
1134.38	2099.38
1138.74	1655.21
1143.11	1076.01
1147.47	665.661
1151.83	349.229
1156.18	229.869
1160.54	83.5137
1164.89	22.5352
1169.23	10.6963
1173.58	168.593
1177.93	140.832
1182.27	388.785
1186.61	66.9834
1190.95	276.776
1195.28	179.857
1199.61	262.713
1203.94	237.752
1208.27	329.185
1212.6	356.026
1216.92	518.715
1221.24	677.294
1225.56	782.254
1229.88	541.006
1234.19	379.868
1238.5	233.23
1242.81	98.6084
1247.12	101.022
1251.42	46.5352
1255.72	31.7998
1260.02	95.0098
1264.32	44.5469
1268.62	30.0811
1272.91	25.8379
1277.2	89.3213
1281.49	8.51172
1285.78	113.63
1290.06	122.744
1294.34	216.064
1298.62	266.736
1302.9	151.262
1307.17	201.631
1311.44	180.84
1315.71	40.8916
1319.98	93.6875
1324.25	160.269
1328.51	79.4922
1332.77	2.6582
1337.03	59.5244
1341.29	137.157
1345.54	103.583
1349.79	173.762
1354.04	42.6543
1358.29	196.594
1362.54	127.649
1366.78	191.307
1371.02	226.155
1375.26	248.283
1379.49	446.352
1383.73	1526.94
1387.96	789.431
1392.19	176.533
1396.42	56.669
1400.64	278.342
1404.86	245.34
1409.09	16.832
1413.3	45.2236
1417.52	65.8223
1421.73	208.055
1425.94	294.61
1430.15	262.701
1434.36	594.218
1438.57	507.817
1442.77	616.851
1446.97	578.083
1451.17	664.379
1455.37	388.112
1459.56	415.227
1463.75	341.301
1467.94	342.277
1472.13	193.812
1476.31	211.91
1480.5	81.2344
1484.68	86.3525
1488.86	30.2061
1493.03	33.0059
1497.21	58.5127
1501.38	15.4951
1505.55	38.4746
1509.72	29.4072
1513.88	86.5996
1518.05	122.086
1522.21	111.272
1526.37	161.949
1530.53	162.26
1534.68	64.7539
1538.84	110.83
1542.99	110.549
1547.13	214.685
1551.28	235.254
1555.42	311.955
1559.57	87.2715
1563.71	0
