Measurement: Raman, 514 nm, depolarized, Raman Data Processed
Mineral: Beryl
Rruff sample: R060942
Ideal chemistry: Be_3_Al_2_Si_6_O_18_
Locality: Mingore mine, Swat Valley, Pakistan
Source: Lawrence W. Snee
Description: Green hexagonal prisms, variety emerald
Measured chemistry: (Be_2.94_Li_0.06_)_Σ=3_(Al_1.55_Mg_0.37_Fe^3+^_0.06_Cr^3+^_0.02_)_Σ=2_Si_6.00_O_18_·Na_0.42_; Be and Li not measured but estimated by stoichiometry
Pin_id: L01655
Orientation: Laser parallel to c* (0 0 1). Fiducial mark perpendicular to laser is parallel to [-1 -1 0]
Raman shift (cm-1)	intensity
130.439	0
135.356	140.047
140.271	539.02
145.184	346.098
150.094	370.832
155.002	295.758
159.908	36.4531
164.811	269.981
169.711	551
174.61	568.242
179.505	569.888
184.399	592.544
189.29	757.943
194.178	973.31
199.064	1252.14
203.948	1197.22
208.829	56.5
213.708	116.216
218.585	56.0264
223.459	25.2832
228.33	189.284
233.199	130.666
238.066	453.483
242.93	463.555
247.792	463.269
252.651	401.504
257.508	979.003
262.363	1096.84
267.215	2057.11
272.064	1212.54
276.912	860.236
281.756	876.713
286.598	1188.35
291.438	1187
296.276	961.234
301.111	389.751
305.943	187.38
310.773	428.079
315.601	843.869
320.426	1600.88
325.248	1907.99
330.068	1017.42
334.886	196.949
339.701	18.0566
344.514	23.3369
349.324	3.83106
354.132	29.6738
358.938	2.11719
363.741	70.6191
368.541	146.438
373.339	347.858
378.135	620.484
382.928	1408.43
387.718	3450.91
392.506	8065.89
397.292	15431.7
402.075	14319
406.856	8335.78
411.634	5593.8
416.41	3893.43
421.183	2744.66
425.954	2098.34
430.722	1943.69
435.488	2286.79
440.251	2240.56
445.012	1579.48
449.77	808.94
454.526	632.277
459.28	366.676
464.03	405.516
468.779	273.822
473.525	482.609
478.268	568.7
483.009	425.389
487.747	451.606
492.483	460.821
497.217	507.226
501.948	828.117
506.676	959.847
511.402	337.211
516.125	475.933
520.846	482.847
525.565	253.301
530.281	103.594
534.994	93.2324
539.705	14.7197
544.413	42.8135
549.119	349.044
553.822	950.359
558.523	2006.73
563.222	2438.3
567.917	2495.86
572.611	2205.53
577.302	2368.48
581.99	1716.49
586.676	1543.67
591.359	1509.06
596.04	1281.62
600.718	1003.97
605.394	774.234
610.067	577.002
614.737	492.658
619.406	206.343
624.071	52.3193
628.734	7.91309
633.395	75.8867
638.053	48.8516
642.708	175.135
647.361	170.857
652.012	277.897
656.66	392.001
661.305	929.111
665.948	1683.9
670.588	3319.59
675.226	7436.88
679.861	19238
684.494	42885.1
689.124	48112.2
693.752	22437.3
698.377	10109
702.999	5389.97
707.619	3426.01
712.237	2401.68
716.852	1707.97
721.464	1328.27
726.074	1077
730.681	912.908
735.286	856.318
739.888	803.692
744.488	951.921
749.085	840.69
753.68	979.733
758.272	726.819
762.861	621.523
767.448	534.054
772.033	541.27
776.614	353.081
781.194	424.285
785.77	276.446
790.345	203.273
794.916	240.758
799.485	98.9014
804.052	144.686
808.616	9.11328
813.177	30.0781
817.736	64.5938
822.292	64.4717
826.846	31.2031
831.397	3.12988
835.945	11.7236
840.491	143.013
845.035	59.4199
849.576	45.71
854.114	55.9961
858.65	59.2315
863.183	61.1777
867.713	9.82129
872.241	12.9316
876.767	6.32227
881.29	9.89453
885.81	104.846
890.328	179.568
894.843	258.089
899.356	549.463
903.866	604.759
908.373	680.357
912.878	694.188
917.38	528.301
921.88	686.358
926.377	455.374
930.872	378.367
935.364	242.264
939.853	133.65
944.34	145.871
948.824	121.34
953.306	142.019
957.785	26.708
962.261	6.53809
966.735	96.5391
971.207	6.40332
975.675	186.618
980.141	443.806
984.605	945.177
989.066	1352.77
993.524	2366.79
997.98	2951.37
1002.43	2731.46
1006.88	2216.24
1011.33	1645.74
1015.78	1329.78
1020.22	941.077
1024.66	813.548
1029.1	656.371
1033.53	642.863
1037.97	598.926
1042.4	705.529
1046.82	915.812
1051.25	1427.81
1055.67	2216.37
1060.09	3755.49
1064.51	5853.22
1068.92	7171.52
1073.33	6961.44
1077.74	5459.96
1082.15	4301.16
1086.55	3425.25
1090.95	2999.44
1095.35	2569.06
1099.75	2230.59
1104.14	1908.03
1108.53	1779.25
1112.92	1867.2
1117.31	2135.02
1121.69	2472.05
1126.07	2328.41
1130.45	1708.88
1134.82	1349.5
1139.19	1190.69
1143.57	925.052
1147.93	725.104
1152.3	593.179
1156.66	466.013
1161.02	432.952
1165.38	395.935
1169.73	544.401
1174.08	698.249
1178.43	1032.08
1182.78	1260.05
1187.12	1475.41
1191.46	1495.81
1195.8	1720.45
1200.14	1896.78
1204.47	2109.85
1208.8	2367.12
1213.13	2281.02
1217.46	2055.11
1221.78	1557.38
1226.1	1086.16
1230.42	642.336
1234.73	406.273
1239.04	317.516
1243.35	194.47
1247.66	101.552
1251.97	80.6162
1256.27	31.4922
1260.57	83.8828
1264.86	97.7769
1269.16	9.08057
1273.45	74.2695
1277.74	58.7881
1282.03	151.299
1286.31	19.957
1290.59	36.5185
1294.87	34.5776
1299.14	141.546
1303.42	15.7407
1307.69	27.3003
1311.95	81.7769
1316.22	121.412
1320.48	1.95312
1324.74	141.315
1329	124.023
1333.26	176.531
1337.51	158.675
1341.76	217.831
1346	284.804
1350.25	99.9522
1354.49	106.951
1358.73	105.302
1362.96	85.0977
1367.2	200.736
1371.43	83.5391
1375.66	177.442
1379.88	145.318
1384.11	492.767
1388.33	354.159
1392.54	195.639
1396.76	45.7559
1400.97	59.6914
1405.18	284.193
1409.39	76.833
1413.59	3.43897
1417.8	107.93
1421.99	19.6753
1426.19	119.91
1430.38	174.339
1434.58	142.776
1438.77	748.956
1442.95	125.933
1447.13	139.455
1451.32	171.559
1455.49	80.8135
1459.67	207.583
1463.84	159.761
1468.01	72.9873
1472.18	139.112
1476.35	85.9316
1480.51	67.9556
1484.67	153.515
1488.83	32.2295
1492.98	78.4019
1497.13	56.0986
1501.28	87.7114
1505.43	141.219
1509.57	188.051
1513.71	147.256
1517.85	225.787
1521.99	78.5322
1526.12	96.8306
1530.25	156.721
1534.38	102.164
1538.5	166.321
1542.62	5.97656
1546.74	87.3657
1550.86	151.16
1554.98	495.946
1559.09	28.0972
1563.2	41.9448
1567.31	112.655
1571.41	0
