Measurement: Raman, 514 nm, depolarized, Raman Data Processed
Mineral: Beryl
Rruff sample: R050347
Ideal chemistry: Be_3_Al_2_Si_6_O_18_
Locality: North Keystone, South Dakota, USA
Source: California Institute of Technology
Description: Colorless fragment
Measured chemistry: (Be_0.96_Li_0.04_)_3_Al_2.00_(Si_0.99_Al_0.01_)_6_O_18_ Î‡0.17Na
Pin_id: L00581
Orientation: Laser parallel to c* (0 0 1). Fiducial mark perpendicular to laser is parallel to b [0 1 0]
Raman shift (cm-1)	intensity
211.269	0
216.147	96.0039
221.022	85.0664
225.895	200.681
230.765	203.534
235.633	356.345
240.498	346.918
245.361	190.569
250.222	378.608
255.08	45.6836
259.936	187.047
264.789	123.304
269.64	108.145
274.488	55.7734
279.334	456.008
284.178	674.692
289.019	1331.67
293.857	1716.18
298.693	900.928
303.527	846.757
308.358	1017.65
313.187	1557.61
318.013	2945.59
322.837	4006.54
327.659	1765.44
332.478	512.313
337.294	109.18
342.108	102.728
346.92	180.167
351.729	64.1875
356.535	186.709
361.34	1.60156
366.141	283.222
370.94	222.401
375.737	554.438
380.531	1064.48
385.323	1962.36
390.113	4978.28
394.9	10736.1
399.684	12301.9
404.466	5758.68
409.245	2768.38
414.022	2730.05
418.797	3624.68
423.569	3436.41
428.338	1857.07
433.105	1319.74
437.87	1481.39
442.632	1276.04
447.391	959.665
452.149	742.275
456.903	264.867
461.655	317.567
466.405	830.618
471.152	104.358
475.897	202.305
480.639	129.752
485.378	189.034
490.116	66.4053
494.85	2.79688
499.582	121.968
504.312	37.9111
509.039	40.4629
513.764	14.4619
518.486	12.2451
523.206	339.964
527.923	327.641
532.638	267.283
537.35	236.917
542.059	544.29
546.766	222.256
551.471	271.455
556.173	652.675
560.873	981.368
565.57	1010.25
570.264	1359.31
574.957	1959.42
579.646	1767.7
584.333	1167.99
589.018	658.243
593.7	207.412
598.379	211.49
603.056	98.5693
607.73	37.5029
612.402	0.402344
617.072	243.173
621.739	348.616
626.403	181.955
631.065	158.372
635.724	152.939
640.381	62.1592
645.035	231.494
649.687	307.877
654.336	349.837
658.983	436.248
663.627	868.328
668.268	1566.16
672.907	3696.36
677.544	9981.72
682.178	26487.3
686.809	37077.7
691.438	16155.3
696.065	6601.71
700.688	3376.25
705.31	2207.13
709.929	1540.28
714.545	1200.35
719.158	993.808
723.77	768.662
728.378	671.385
732.984	579.607
737.588	723.658
742.189	482.118
746.787	678.383
751.383	557.27
755.976	725.965
760.567	899.677
765.155	1301
769.741	1200.3
774.324	554.493
778.904	466.255
783.482	297.665
788.058	250.122
792.631	29.5342
797.201	98.6436
801.769	166.42
806.334	92.0166
810.897	154.657
815.457	39.3623
820.014	67.5772
824.569	24.166
829.122	41.6699
833.671	116.519
838.219	80.6523
842.763	180.922
847.306	15.8672
851.845	114.228
856.382	60.9297
860.917	173.238
865.448	88.2481
869.978	146.022
874.505	8.47266
879.029	72.4356
883.55	201.225
888.069	229.76
892.586	108.144
897.1	260.359
901.611	365.416
906.12	544.393
910.626	518.326
915.129	578.148
919.63	551.85
924.129	188.438
928.625	221.568
933.118	229.461
937.609	64.4648
942.097	43.2266
946.582	56.6465
951.065	29.0742
955.546	70.9356
960.023	104.791
964.499	144.133
968.971	12.2598
973.441	120.397
977.909	241.846
982.374	255.721
986.836	619.66
991.295	1013.92
995.753	1866.65
1000.21	2748.88
1004.66	2830.23
1009.11	2261.09
1013.55	1819.31
1018	1209.71
1022.44	754.396
1026.88	645.326
1031.32	439.6
1035.75	353.232
1040.18	346.269
1044.61	556.26
1049.04	702.715
1053.46	1348.47
1057.88	2744.52
1062.3	4372.88
1066.71	5828.65
1071.13	5590.78
1075.54	4509.12
1079.94	3153.46
1084.35	2087.73
1088.75	1581.45
1093.15	1106.81
1097.55	767.258
1101.94	535.119
1106.34	587.494
1110.73	361.705
1115.11	371.457
1119.5	323.803
1123.88	1118.73
1128.26	2004.11
1132.63	1877.87
1137.01	1015.33
1141.38	661.576
1145.75	734.988
1150.12	577.164
1154.48	395.32
1158.84	61.0176
1163.2	123.188
1167.55	105.469
1171.91	80.4082
1176.26	314.463
1180.61	55.1641
1184.95	357.639
1189.29	469.381
1193.63	513.144
1197.97	277.467
1202.31	318.967
1206.64	467.537
1210.97	629.809
1215.29	631.322
1219.62	717.055
1223.94	910.519
1228.26	1499.82
1232.57	1986.32
1236.89	1869.95
1241.2	1571.72
1245.51	703.961
1249.81	351.541
1254.12	251.861
1258.42	161.094
1262.72	146.414
1267.01	28.8828
1271.3	187.478
1275.59	62.375
1279.88	150.197
1284.17	145.318
1288.45	97.0215
1292.73	67.2129
1297.01	126.416
1301.28	104.441
1305.55	43.9199
1309.82	104.539
1314.09	96.0664
1318.35	76.1836
1322.61	170.748
1326.87	89.0391
1331.13	192.785
1335.38	215.035
1339.63	213.877
1343.88	270.232
1348.12	354.902
1352.37	320.461
1356.61	275.416
1360.85	270.898
1365.08	187.004
1369.31	77.1094
1373.54	54.4121
1377.77	241.861
1381.99	315.654
1386.22	638.273
1390.43	381.451
1394.65	160.123
1398.87	179.748
1403.08	173.568
1407.29	338.18
1411.49	294.85
1415.69	42.0996
1419.89	119.004
1424.09	110.277
1428.29	75.6191
1432.48	200.322
1436.67	114.902
1440.86	242.023
1445.04	73.7305
1449.23	302.221
1453.4	224.857
1457.58	111.537
1461.76	216.066
1465.93	343.785
1470.1	55.0684
1474.26	278.982
1478.43	184.549
1482.59	315.094
1486.75	325.543
1490.9	126.197
1495.06	251.598
1499.21	216.182
1503.35	86.3906
1507.5	215.955
1511.64	279.363
1515.78	78.9297
1519.92	79.1758
1524.05	222.277
1528.18	162.127
1532.31	100.619
1536.44	169.557
1540.56	220.272
1544.69	250.123
1548.8	145.072
1552.92	88.2519
1557.03	132.059
1561.14	111.746
1565.25	86.1269
1569.36	151.336
