Measurement: Raman, 514 nm, depolarized, Raman Data Processed
Mineral: Beryl
Rruff sample: R060944
Ideal chemistry: Be_3_Al_2_Si_6_O_18_
Locality: Habachtal, Salzburg, Austria
Source: Lawrence W. Snee
Description: Green hexagonal prisms in a muscovite schist, variety emerald. Note that there are micro inclusions of actinolite. The Raman signal is a mixture of the two phases.
Measured chemistry: Be_3.00_(Al_1.59_Mg_0.33_Fe^3+^_0.04_Cr^3+^_0.04_)_Σ=2_Si_6.00_O_18_·Na_0.33_ ; bright inclusions are actinolite
Pin_id: L01950
Orientation: Laser parallel to c* (0 0 1). Fiducial mark perpendicular to laser is parallel to -b [0 -1 0]
Raman shift (cm-1)	intensity
130.439	0
135.356	13.2764
140.271	386.932
145.184	89.1221
150.094	556.738
155.002	4463.87
159.908	5343.7
164.811	1956.23
169.711	2571.43
174.61	7802.14
179.505	8441.17
184.399	2446.46
189.29	2281.19
194.178	1789.68
199.064	1264.33
203.948	1412.66
208.829	1756.48
213.708	4562.38
218.585	10994.4
223.459	13402
228.33	9030.95
233.199	5682.64
238.066	2070.12
242.93	1678.02
247.792	2114.11
252.651	1062.08
257.508	819.902
262.363	608.572
267.215	735.056
272.064	19.6602
276.912	120.827
281.756	93.0371
286.598	561.181
291.438	973.432
296.276	439.992
301.111	478.152
305.943	260.523
310.773	495.897
315.601	1095.21
320.426	1842.02
325.248	2103.34
330.068	731.13
334.886	357.878
339.701	861.668
344.514	1482.42
349.324	1650.62
354.132	1510.74
358.938	1538.6
363.741	2319.41
368.541	2556.16
373.339	2297.81
378.135	1739.22
382.928	2497.34
387.718	5325.13
392.506	9321.58
397.292	11664.7
402.075	8622.82
406.856	5759.34
411.634	4989.42
416.41	4004.84
421.183	2602.79
425.954	1633.18
430.722	1764.47
435.488	2519.61
440.251	1814.54
445.012	846.232
449.77	204.649
454.526	49.7041
459.28	91.9824
464.03	211.092
468.779	163.159
473.525	118.493
478.268	133.81
483.009	169.541
487.747	205.269
492.483	41.5127
497.217	230.19
501.948	394.692
506.676	617.097
511.402	1094.48
516.125	1638.49
520.846	1954.2
525.565	2322.64
530.281	1789.84
534.994	838.893
539.705	336.782
544.413	223.531
549.119	289.406
553.822	721.102
558.523	1623.7
563.222	1931.45
567.917	1895.52
572.611	1830.6
577.302	1486.67
581.99	1313.52
586.676	1121.14
591.359	983.605
596.04	632.231
600.718	598.366
605.394	269.65
610.067	378.972
614.737	456.719
619.406	300.668
624.071	327.327
628.734	411.965
633.395	490.702
638.053	972.738
642.708	1548.01
647.361	2339.06
652.012	3243.16
656.66	5054.03
661.305	9099.18
665.948	20059.2
670.588	40371.8
675.226	36080.2
679.861	26867.6
684.494	37614.3
689.124	35080.5
693.752	15754.7
698.377	7630.91
702.999	4505.1
707.619	2959.04
712.237	1991.45
716.852	1387
721.464	1206.6
726.074	992.481
730.681	886.464
735.286	984.577
739.888	1244.24
744.488	1348.45
749.085	1255.98
753.68	1265.62
758.272	1069.51
762.861	805.296
767.448	643.719
772.033	424.731
776.614	358.398
781.194	412.659
785.77	261.465
790.345	117.469
794.916	111.693
799.485	89.8691
804.052	173.397
808.616	101.792
813.177	174.968
817.736	146.941
822.292	33.0791
826.846	39.5088
831.397	21.2549
835.945	100.823
840.491	81.9932
845.035	77.8232
849.576	75.626
854.114	65.5762
858.65	65.4981
863.183	40.0723
867.713	20.8008
872.241	19.3047
876.767	63.4883
881.29	150.419
885.81	110.023
890.328	308.282
894.843	379.336
899.356	733.244
903.866	992.06
908.373	1155.76
912.878	1477.31
917.38	1832.73
921.88	2857.05
926.377	4420.7
930.872	4661.59
935.364	2746.86
939.853	1581.47
944.34	1442.79
948.824	1173.24
953.306	734.761
957.785	509.263
962.261	481.243
966.735	438.799
971.207	353.344
975.675	417.088
980.141	472.981
984.605	914.314
989.066	1307.94
993.524	2297.82
997.98	3056.61
1002.43	3165.51
1006.88	2999.92
1011.33	2881.22
1015.78	3467.71
1020.22	4353.87
1024.66	5413.66
1029.1	5099.72
1033.53	3535.43
1037.97	2830.3
1042.4	3310.45
1046.82	5866.26
1051.25	10351.8
1055.67	16145
1060.09	14205.8
1064.51	10656.2
1068.92	9550.44
1073.33	7695.36
1077.74	5538.08
1082.15	4001.69
1086.55	3033.07
1090.95	2626.53
1095.35	2080.95
1099.75	1696.23
1104.14	1463.26
1108.53	1295.26
1112.92	1154.18
1117.31	1466.05
1121.69	1615.08
1126.07	1596.09
1130.45	1143.8
1134.82	859.673
1139.19	606.078
1143.57	527.983
1147.93	246.528
1152.3	39.4688
1156.66	199.847
1161.02	54.6924
1165.38	121.217
1169.73	64.8555
1174.08	226.048
1178.43	434.51
1182.78	720.269
1187.12	731.062
1191.46	745.014
1195.8	849.428
1200.14	1097.41
1204.47	1173.35
1208.8	1363.45
1213.13	1754.29
1217.46	1678.97
1221.78	1332.72
1226.1	955.315
1230.42	674.18
1234.73	427.144
1239.04	318.595
1243.35	69.6182
1247.66	52.6562
1251.97	46.127
1256.27	60.9268
1260.57	102.225
1264.86	3.04394
1269.16	49.7559
1273.45	89.8643
1277.74	22.3086
1282.03	23.8428
1286.31	87.5195
1290.59	37.1963
1294.87	47.166
1299.14	27.8789
1303.42	152.893
1307.69	15.0459
1311.95	162.505
1316.22	204.487
1320.48	53.2393
1324.74	144.052
1329	160.142
1333.26	206.525
1337.51	218.774
1341.76	23.2383
1346	276.734
1350.25	218.53
1354.49	179.708
1358.73	358.191
1362.96	222.102
1367.2	94.2061
1371.43	147.748
1375.66	319.752
1379.88	234.392
1384.11	995.447
1388.33	587.325
1392.54	279.534
1396.76	93.6748
1400.97	150.31
1405.18	182.902
1409.39	18.8203
1413.59	130.784
1417.8	145.891
1421.99	47.1299
1426.19	83.5986
1430.38	41.1494
1434.58	441.498
1438.77	304.602
1442.95	76.5996
1447.13	117.558
1451.32	188.014
1455.49	334.774
1459.67	82.5762
1463.84	257.255
1468.01	182.711
1472.18	252.709
1476.35	243.769
1480.51	186.69
1484.67	104.702
1488.83	155.197
1492.98	295.129
1497.13	68.8359
1501.28	213.361
1505.43	3.34863
1509.57	129.147
1513.71	110.927
1517.85	132.642
1521.99	23.2705
1526.12	217.98
1530.25	267.033
1534.38	231.74
1538.5	193.504
1542.62	225.737
1546.74	190.793
1550.86	313.049
1554.98	329.83
1559.09	110.556
1563.2	361.088
1567.31	1.07812
1571.41	0
