Measurement: Raman, 514 nm, depolarized, Raman Data Processed
Mineral: Beryl
Rruff sample: R050121
Ideal chemistry: Be_3_Al_2_Si_6_O_18_
Locality: Cruziero mine, San Jose, Minas Gerais, Brazil
Source: Carlos and Paulo Vasconcelos
Description: Light blue fragment, variety aquamarine
Measured chemistry: (Be_0.96_Li_0.04_)_3_Al_2.00_Si_6.00_O_18_Î‡Na_0.09_Mg_0.03_
Pin_id: L00500
Orientation: Laser parallel to -c* (0 0 -1). Fiducial mark perpendicular to laser is parallel to a [1 0 0]
Raman shift (cm-1)	intensity
96.161	0
100.34	28.332
104.516	35.309
108.691	256.295
112.864	452.986
117.034	805.153
121.203	525.696
125.369	584.598
129.534	607.084
133.696	377.889
137.857	538.599
142.016	586.19
146.172	490.447
150.327	312.152
154.48	318.043
158.63	336.041
162.779	441.312
166.926	345.891
171.07	516.165
175.213	352.451
179.354	411.584
183.493	282.904
187.63	141.436
191.765	181.305
195.898	122.574
200.029	122.338
204.158	139.876
208.285	34.047
212.41	32.427
216.533	26.542
220.654	74.924
224.773	61.9
228.891	8.678
233.006	71.867
237.119	51.835
241.231	133.759
245.34	183.62
249.448	146.731
253.553	134.816
257.657	228.871
261.758	226.879
265.858	240.51
269.956	514.965
274.052	245.518
278.146	421.867
282.237	750.822
286.327	1114.39
290.416	1757.42
294.502	824.793
298.586	582.43
302.668	786.4
306.749	883.826
310.827	1399.12
314.903	2637.63
318.978	4210.13
323.051	4492.78
327.121	1445.32
331.19	414.549
335.257	163.176
339.322	22.078
343.385	141.012
347.446	9.246
351.505	249.232
355.563	155.271
359.618	157.094
363.672	262.928
367.723	324.863
371.773	344.988
375.821	332.309
379.866	841.848
383.91	1417.31
387.952	3500.39
391.992	8531.29
396.031	13130.7
400.067	8378.35
404.101	4200.8
408.134	2194.13
412.165	1630.33
416.193	2210.41
420.22	3349.36
424.245	2715.18
428.268	1269.97
432.289	1079.7
436.309	1038.35
440.326	1590.92
444.342	1429.03
448.355	884.893
452.367	356.318
456.377	285.906
460.385	31.877
464.391	23.209
468.395	78.803
472.398	323.473
476.398	142.48
480.397	143.693
484.394	225.117
488.389	250.471
492.382	45.609
496.373	98.412
500.362	116.615
504.349	53.699
508.335	87.355
512.319	12.527
516.3	218.041
520.28	62.393
524.259	242.568
528.235	272.566
532.209	64.34
536.182	104.885
540.152	87.742
544.121	26.133
548.088	90.57
552.053	156.805
556.017	284.725
559.978	537.391
563.938	770.842
567.895	766.072
571.851	958.078
575.805	1199.87
579.758	1599.43
583.708	1235.77
587.657	987.895
591.603	584.686
595.548	378.475
599.491	167.932
603.432	134.078
607.372	52.168
611.309	206.178
615.245	188.287
619.179	389.482
623.111	468.477
627.041	590.975
630.97	580.045
634.896	75.08
638.821	229.912
642.744	191.238
646.665	685.424
650.584	315.883
654.502	495.391
658.418	830.086
662.331	747.17
666.244	1456.91
670.154	1839.51
674.062	3938.39
677.969	9375.2
681.874	25144.9
685.777	32977.4
689.678	16321.8
693.577	7572.57
697.475	4038.23
701.371	2616.35
705.265	2398.43
709.157	1650.04
713.047	927.99
716.936	749.436
720.823	486.779
724.708	452.023
728.591	420.17
732.472	240.221
736.352	481.188
740.23	298.072
744.106	742.881
747.98	386.619
751.853	344.283
755.723	310.654
759.592	436.408
763.459	681.682
767.325	907.463
771.188	679.732
775.05	761.975
778.91	411.389
782.768	161.84
786.625	45.117
790.479	99.838
794.332	181.348
798.183	181.191
802.033	37.979
805.88	231.061
809.726	184.832
813.57	240.672
817.413	4.457
821.253	95.527
825.092	100.584
828.929	194.184
832.764	117.811
836.598	65.283
840.429	320.027
844.259	460.871
848.088	75.203
851.914	90.76
855.739	599.234
859.562	475.217
863.383	447.359
867.203	282.648
871.02	305.029
874.836	214.51
878.65	443.084
882.463	254.754
886.274	304.535
890.083	375.432
893.89	398.531
897.695	423.814
901.499	615.086
905.301	795.492
909.102	909.984
912.9	950.648
916.697	593.461
920.492	847.422
924.285	885.457
928.077	608.566
931.867	471.75
935.655	376.996
939.442	475.211
943.226	457.594
947.009	435.039
950.791	564.48
954.57	484.066
958.348	319.316
962.124	214.121
965.899	558.238
969.671	361.254
973.442	266.309
977.211	36.27
980.979	261.402
984.745	540.133
988.509	635.531
992.271	1012.23
996.032	1682.76
999.791	2904.24
1003.55	2332.62
1007.3	1780.89
1011.06	1463.13
1014.81	777.336
1018.56	425.613
1022.31	318.734
1026.06	749.184
1029.8	729.648
1033.55	520.258
1037.29	791.098
1041.03	1107
1044.77	730.191
1048.5	1112.94
1052.24	1129.26
1055.97	1906.38
1059.7	2520
1063.43	4146.28
1067.16	5311.09
1070.89	5544.06
1074.61	4395.23
1078.34	3412.26
1082.06	2039.11
1085.78	1644.77
1089.5	1458.24
1093.21	956.488
1096.93	837.508
1100.64	292.336
1104.35	409.031
1108.06	183.629
1111.77	100.598
1115.48	70.484
1119.18	106.336
1122.89	196.184
1126.59	319.309
1130.29	467.914
1133.99	73.91
1137.68	534.852
1141.38	31.926
1145.07	505.23
1148.76	243.199
1152.45	273.254
1156.14	30.125
1159.83	364.652
1163.51	174.676
1167.19	287.23
1170.88	295.867
1174.56	392.82
1178.23	326.652
1181.91	215.715
1185.59	284.242
1189.26	192.453
1192.93	198.992
1196.6	456.277
1200.27	383.145
1203.94	628.055
1207.6	328.188
1211.27	644.25
1214.93	713.855
1218.59	798.227
1222.25	529.531
1225.9	997.18
1229.56	1510.39
1233.21	1805.78
1236.86	2830.69
1240.51	3175.14
1244.16	2214.06
1247.81	1404.94
1251.45	1022.98
1255.1	888.641
1258.74	613.48
1262.38	554.645
1266.02	341.531
1269.66	317.395
1273.29	317.18
1276.93	36.469
1280.56	249.281
1284.19	272.211
1287.82	120.262
1291.45	262.266
1295.07	238.238
1298.7	481.438
1302.32	89.422
1305.94	14.75
1309.56	498.891
1313.18	2.602
1316.8	373.887
1320.41	325.871
1324.02	317.016
1327.63	515.742
1331.24	581.461
1334.85	381.949
1338.46	477.082
1342.06	605.957
1345.67	407.234
1349.27	494.789
1352.87	1009.52
1356.47	983.531
1360.07	884.168
1363.66	890.441
1367.25	843.879
1370.85	723.133
1374.44	679.266
1378.03	212.652
1381.61	354.141
1385.2	613.816
1388.78	299.184
1392.37	279.57
1395.95	442.746
1399.53	333.887
1403.1	80.688
1406.68	118.891
1410.26	31.836
1413.83	247.203
1417.4	95.574
1420.97	269.254
1424.54	226.148
