Measurement: Raman, 514 nm, depolarized, Raman Data Processed
Mineral: Bikitaite
Rruff sample: R050160
Ideal chemistry: LiAlSi_2_O_6_H_2_O
Locality: Foote mine, Kings Mountain, Cleveland County, North Carolina, USA
Source: Jim McGlasson
Description: Colorless prismatic crystals
Measured chemistry: Li_1.00_Si_2.00_O_6_Â·1.25H_2_O ; Li not measured but estimated by stoichiometry
Pin_id: M00247
Orientation: Laser parallel to -b* (0 -1 0). Fiducial mark perpendicular to laser is parallel to c [0 0 1]
Raman shift (cm-1)	intensity
61.962	0
66.157	226.267
70.349	211.407
74.54	12.664
78.729	30.65
82.916	826.221
87.101	1588.02
91.284	2428.27
95.465	3532.92
99.644	5907.52
103.82	8459.36
107.995	10596.1
112.168	13026.7
116.339	13527.7
120.508	10541.6
124.675	7720.06
128.84	5989.33
133.003	5460.33
137.164	5960.37
141.323	7791.72
145.48	8911.28
149.635	8752.43
153.788	8421.57
157.939	9108.4
162.088	9516.11
166.235	8751.9
170.38	7087.06
174.523	4940.11
178.664	2760.7
182.803	1561.57
186.94	1195.83
191.076	1417.73
195.209	2870.63
199.34	6160.54
203.47	8882.62
207.597	7450.22
211.722	4139.75
215.846	4463.09
219.967	6067.12
224.087	5256.72
228.204	3016.67
232.32	1401.68
236.434	890.817
240.545	1130.56
244.655	2233.74
248.763	3875.2
252.869	5015.49
256.973	4365
261.075	2353.24
265.175	438.746
269.273	244.268
273.369	5.393
277.463	33.273
281.556	9.299
285.646	92.909
289.734	1271.5
293.821	1791.65
297.905	1281.45
301.988	840.841
306.069	36.875
310.147	147.493
314.224	185.734
318.299	190.352
322.372	149.985
326.443	825.938
330.512	112.333
334.579	220.316
338.645	79.722
342.708	1177.69
346.769	2112.94
350.829	2416.29
354.887	2208.54
358.942	2334.27
362.996	3097.55
367.048	5186.84
371.098	8919.83
375.146	14717.5
379.192	23595.7
383.236	31603.5
387.279	33876.8
391.319	33072.6
395.358	33666.3
399.394	28668
403.429	18339.7
407.462	12322.7
411.493	9696.36
415.522	9178.8
419.549	9363.76
423.575	9031.05
427.598	7037.36
431.619	5433.59
435.639	5170.65
439.657	4914.73
443.673	4251.62
447.687	4085.05
451.699	4269.62
455.709	4905.48
459.717	4231.9
463.724	3141.61
467.728	3461.43
471.731	5171.62
475.732	8913
479.731	12740.5
483.728	16802.9
487.723	24860.9
491.716	36577.1
495.708	41097.4
499.697	34234.4
503.685	26276.1
507.671	19815.9
511.655	14035.6
515.637	9294.77
519.617	6517.48
523.596	4415.27
527.572	3054.36
531.547	2399.7
535.52	2198.24
539.491	2080.98
543.46	1819.86
547.427	1094.86
551.393	428.966
555.356	70.096
559.318	22.168
563.278	45.892
567.236	32.599
571.192	42.042
575.147	25.413
579.099	35.161
583.05	48.764
586.999	17.116
590.946	97.032
594.891	7.386
598.834	206.778
602.776	160.161
606.715	126.63
610.653	9.739
614.589	17.769
618.523	20.333
622.456	2.016
626.386	48.424
630.315	7.829
634.242	7.932
638.167	95.589
642.09	2.073
646.012	3.591
649.931	4.915
653.849	33.229
657.765	114.615
661.679	195.302
665.592	182.522
669.502	297.874
673.411	440.68
677.318	644.412
681.223	846.319
685.126	1028.26
689.028	1217.72
692.927	1462.77
696.825	1738.07
700.721	1883.07
704.616	2185.32
708.508	2054.4
712.399	1864
716.288	1549.77
720.175	1285.61
724.06	1140.12
727.944	1141.12
731.825	1392.66
735.705	1715.1
739.584	1507.51
743.46	1217.08
747.334	1563.89
751.207	1902.7
755.078	2867.51
758.947	4331.05
762.815	5733.57
766.68	5570.78
770.544	4332.05
774.406	3141.71
778.267	2365.2
782.125	1661.91
785.982	1254.52
789.837	949.62
793.69	732.189
797.542	590.48
801.391	427.456
805.239	264.685
809.085	283.614
812.93	224.284
816.772	153.964
820.613	59.086
824.452	84.001
828.29	154.616
832.125	154.294
835.959	63.777
839.791	75.831
843.621	96.516
847.45	69.815
851.277	54.739
855.102	4.668
858.925	109.531
862.746	24.414
866.566	41.992
870.384	33.314
874.2	2.417
878.015	16.867
881.828	22.163
885.639	19.483
889.448	19.757
893.256	17.131
897.061	24.552
900.865	47.443
904.668	29.278
908.468	19.961
912.267	11.47
916.064	22.006
919.86	29.016
923.653	52.759
927.445	115.45
931.236	63.487
935.024	75.98
938.811	74.915
942.596	344.438
946.379	533.578
950.161	1099.33
953.94	2431.66
957.719	6291.52
961.495	9627.54
965.27	6889.49
969.043	8391.95
972.814	6926.42
976.583	3429.11
980.351	1861.42
984.117	1692.92
987.882	3067.34
991.644	6413.49
995.405	6610.47
999.165	3207.06
1002.92	1683.81
1006.68	934.479
1010.43	770.838
1014.18	1293.72
1017.93	1162.63
1021.68	593.858
1025.43	288.799
1029.18	115.556
1032.92	77.793
1036.66	94.024
1040.4	0.367
1044.14	10.756
1047.88	10.243
1051.62	228.891
1055.35	213.458
1059.08	369.057
1062.81	246.35
1066.54	416.114
1070.27	734.838
1073.99	1121.98
1077.72	1679.22
1081.44	2479.09
1085.16	3375.68
1088.88	4963.19
1092.59	6515.56
1096.31	6530.18
1100.02	5222.68
1103.73	4044.26
1107.44	3566.43
1111.15	2642.05
1114.86	1676.97
1118.57	1282.24
1122.27	978.764
1125.97	974.661
1129.67	1197.2
1133.37	1453.37
1137.07	1332.8
1140.76	957.961
1144.45	582.88
1148.15	674.224
1151.84	678.657
1155.53	764.984
1159.21	1107.71
1162.9	1510.79
1166.58	1889.15
1170.26	1866.88
1173.94	1360.57
1177.62	1090.68
1181.3	748.474
1184.97	528.945
1188.65	308.297
1192.32	276.775
1195.99	203.506
1199.66	225.711
1203.33	87.039
1206.99	167.285
1210.65	6.532
1214.32	63.843
1217.98	0.31
1221.64	8.851
1225.29	19.607
1228.95	18.145
1232.6	23.644
1236.26	64.602
1239.91	82.126
1243.56	1.799
1247.2	15.244
1250.85	0.347
1254.49	86.613
1258.13	0.238
1261.78	53.782
1265.41	10.625
1269.05	9.351
1272.69	3.906
1276.32	47.126
1279.95	5.102
1283.59	3.65
1287.21	6.637
1290.84	9.058
1294.47	79.157
1298.09	37.062
1301.72	29.645
1305.34	22.877
1308.96	50.798
1312.58	133.365
1316.19	12.446
1319.81	67.406
1323.42	263.958
1327.03	13.748
1330.64	25.678
1334.25	95.9
1337.86	97.325
1341.46	114.533
1345.07	41.533
1348.67	153.319
1352.27	110.757
1355.87	100.325
1359.46	269.467
1363.06	271.375
1366.65	260.128
1370.25	214.15
1373.84	190.713
1377.43	172.299
1381.02	109.575
1384.6	169.496
1388.18	241.906
1391.77	114.683
1395.35	167.917
1398.93	128.901
1402.51	170.619
1406.08	140.663
1409.66	98.748
1413.23	96.967
1416.8	168.834
1420.37	202.377
1423.94	274.076
1427.51	274.608
1431.08	178.015
1434.64	308.519
1438.2	346.165
1441.76	423.449
1445.32	413.335
1448.88	418.361
1452.43	416.113
1455.99	398.418
1459.54	443.401
1463.09	508.202
1466.64	495.682
1470.19	220.664
1473.74	372.244
1477.28	358.44
1480.83	285.698
1484.37	168.339
1487.91	215.553
1491.45	238.732
1494.98	230.205
1498.52	100.169
1502.05	12.52
1505.59	14.66
1509.12	75.274
1512.65	142.669
1516.17	57.399
1519.7	87.188
1523.23	56.503
