Measurement: Raman, 514 nm, depolarized, Raman Data Processed
Mineral: Bikitaite
Rruff sample: R050160
Ideal chemistry: LiAlSi_2_O_6_H_2_O
Locality: Foote mine, Kings Mountain, Cleveland County, North Carolina, USA
Source: Jim McGlasson
Description: Colorless prismatic crystals
Measured chemistry: Li_1.00_Si_2.00_O_6_Â·1.25H_2_O ; Li not measured but estimated by stoichiometry
Pin_id: M00374
Orientation: Laser parallel to c* (0 0 1). Fiducial mark perpendicular to laser is parallel to a [1 0 0]
Raman shift (cm-1)	intensity
77.333	0
81.521	1713.32
85.706	1941.78
89.89	2142.32
94.071	4578
98.251	7013.98
102.428	8934.57
106.604	10597.7
110.777	10998.1
114.949	7884.74
119.119	4133.71
123.286	1071.69
127.452	221.551
131.615	559.623
135.777	1420.77
139.937	3545.68
144.094	4667.19
148.25	4912.24
152.403	4640.17
156.555	4615.19
160.705	3977.42
164.853	2761.29
168.998	1481.6
173.142	394.582
177.284	334.207
181.424	520.455
185.562	484.592
189.698	54.91
193.831	1443.48
197.963	4101.47
202.093	6265.22
206.221	5452.01
210.347	3909.18
214.472	4779.09
218.594	5447.93
222.714	3911.64
226.832	2351.25
230.948	1361.68
235.063	1486.89
239.175	2093.84
243.286	3678.67
247.394	5338.73
251.501	6553.02
255.605	7204.53
259.708	4806.4
263.808	1957.15
267.907	626.008
272.004	42.998
276.099	338.672
280.192	156.957
284.283	1072.79
288.372	2275.18
292.459	3066.83
296.544	2988.19
300.627	2580.43
304.709	1392.9
308.788	1048.6
312.865	717.498
316.941	59.678
321.015	20.932
325.086	27.65
329.156	88.389
333.224	667.398
337.29	1268.49
341.354	2230.88
345.416	2995.86
349.476	3214.74
353.534	3479.84
357.591	3224.28
361.645	3738.84
365.698	5282.75
369.748	8114.05
373.797	12928.4
377.844	19399
381.889	24137.8
385.932	24498.8
389.973	23574.1
394.012	23565.5
398.049	20379.1
402.084	13650.9
406.118	9669.32
410.15	7737.79
414.179	6588.44
418.207	6062.71
422.233	5197.1
426.257	4203.29
430.279	3144.95
434.299	3362.98
438.318	3567.6
442.334	4632.52
446.349	5836.14
450.361	5445.23
454.372	4205.53
458.381	3201.1
462.388	3961.65
466.394	5218.14
470.397	6874.55
474.398	9320.91
478.398	11097.6
482.396	15770
486.391	22867.5
490.385	25169.3
494.377	20152.8
498.368	14442.4
502.356	10604.1
506.342	8161.84
510.327	6020.81
514.31	4699.47
518.291	4068.82
522.27	3316.2
526.247	2556.42
530.222	2680.5
534.196	2612.41
538.167	3062.16
542.137	2716.73
546.105	1767.12
550.071	989.318
554.035	731.316
557.998	451.107
561.958	28.316
565.917	148.98
569.874	108.043
573.829	146.252
577.782	70.266
581.733	274.816
585.683	107.182
589.63	91.645
593.576	10.236
597.52	153.359
601.462	61.547
605.402	69.236
609.341	119.371
613.277	24.48
617.212	337.086
621.145	787.932
625.076	724.27
629.006	594.311
632.933	356.004
636.859	127.727
640.783	270.994
644.705	204.557
648.625	573.061
652.543	251.078
656.46	336.117
660.375	300.551
664.288	143.893
668.199	201.662
672.108	15.611
676.016	379.094
679.921	962.008
683.825	1410.74
687.727	1183.68
691.628	1317.24
695.526	1878.43
699.423	1799.23
703.318	2071.67
707.211	2311.72
711.102	1822.41
714.992	1126.72
718.879	490.236
722.765	687.805
726.649	295.67
730.532	399.721
734.412	14.553
738.291	143.203
742.168	150.117
746.043	218.229
749.916	190.848
753.788	51.617
757.658	66.631
761.526	187.314
765.392	192.473
769.257	106.924
773.119	258.76
776.98	531.104
780.839	519.156
784.697	421.922
788.552	350.367
792.406	217.238
796.258	271.006
800.108	53.508
803.957	125.955
807.804	253.062
811.649	190.385
815.492	250.385
819.333	160.592
823.173	144.791
827.011	260.996
830.847	408.406
834.681	49.254
838.514	454.938
842.345	867.557
846.174	624.096
850.001	433.529
853.827	667.803
857.651	1013.92
861.473	869.896
865.293	823.73
869.112	528.428
872.928	752.998
876.744	526.453
880.557	556.609
884.369	632.16
888.178	351.318
891.987	417.016
895.793	456.445
899.598	714.318
903.401	572.811
907.202	535.686
911.001	528.363
914.799	368.295
918.595	146.113
922.389	505.17
926.182	580.188
929.972	621.043
933.761	391.096
937.549	254.115
941.334	624.143
945.118	546.912
948.9	1321.26
952.681	2585.6
956.459	5126.16
960.236	6900.97
964.012	8974.76
967.785	9237.23
971.557	5669.89
975.327	3860.68
979.095	2069.92
982.862	1040.59
986.627	1723.86
990.39	2763.48
994.152	5865.97
997.912	13730
1001.67	14534.2
1005.43	6532.33
1009.18	3571.5
1012.93	3456.57
1016.68	3301.54
1020.43	2497.38
1024.18	1665.1
1027.93	1161.68
1031.67	778.848
1035.42	847.475
1039.16	435.57
1042.9	355.775
1046.63	378.32
1050.37	620.281
1054.11	483.668
1057.84	678.639
1061.57	341.352
1065.3	388.127
1069.03	785.979
1072.75	612.617
1076.47	551.031
1080.2	1035.4
1083.92	580.801
1087.64	761.963
1091.36	372.914
1095.07	7.871
1098.79	61.277
1102.5	194.188
1106.21	103.113
1109.92	173.365
1113.62	34.752
1117.33	155.008
1121.04	354.918
1124.74	65.049
1128.44	446.65
1132.14	257.607
1135.83	100.596
1139.53	526.787
1143.22	428.234
1146.92	386.486
1150.61	715.604
1154.3	1334.56
1157.98	1510.97
1161.67	1613.94
1165.35	1409.55
1169.04	1084.26
1172.72	725.766
1176.4	935.609
1180.07	576.422
1183.75	216.031
1187.42	336.191
1191.1	205.367
1194.77	21.535
1198.44	429.137
1202.1	158.422
1205.77	425.09
1209.43	87.559
1213.1	500.969
1216.76	408.379
1220.42	222.457
1224.07	27.824
1227.73	399.074
1231.38	378.668
1235.04	587.598
1238.69	632.348
1242.34	647.453
1245.99	162.039
1249.63	221.824
1253.28	202.582
1256.92	5.297
1260.56	392.059
1264.2	200.242
1267.84	289.312
1271.48	276.367
1275.11	490.941
1278.74	23.926
1282.38	230.598
1286.01	224.277
1289.63	137.445
1293.26	209.277
1296.89	241.461
1300.51	381.059
1304.13	260.141
1307.75	241.801
1311.37	689.051
1314.99	214.887
1318.6	711.324
1322.22	567.375
1325.83	617.32
1329.44	142.484
1333.05	212.977
1336.66	218.945
1340.26	144.641
1343.87	89.789
1347.47	335.957
1351.07	20.445
1354.67	291.43
1358.27	645.883
1361.86	251.121
1365.46	524.309
1369.05	627.824
1372.64	485.609
1376.23	542.809
1379.82	210.27
1383.41	463.469
1386.99	452.965
1390.57	427.387
1394.16	337.074
1397.74	482.281
1401.32	613.465
1404.89	379.469
1408.47	233.734
1412.04	353.066
1415.61	657.98
1419.18	660.25
1422.75	659.16
1426.32	719.367
1429.89	705.062
1433.45	1014.39
1437.01	1332.77
1440.58	1665.82
1444.13	1889.47
1447.69	2049.36
1451.25	1941.41
1454.81	2354.63
1458.36	2450.16
1461.91	2345.43
1465.46	1736.17
1469.01	1287.89
1472.56	1625.17
1476.1	1266.5
1479.64	1045.69
1483.19	832.371
1486.73	885.062
1490.27	705.816
1493.81	837.965
1497.34	664.961
1500.88	54.289
1504.41	24.453
1507.94	108.141
1511.47	88.121
1515	500.23
1518.53	321.395
1522.05	369.215
1525.57	0
