Measurement: Raman, 514 nm, depolarized, Raman Data Processed
Mineral: Bikitaite
Rruff sample: R050160
Ideal chemistry: LiAlSi_2_O_6_H_2_O
Locality: Foote mine, Kings Mountain, Cleveland County, North Carolina, USA
Source: Jim McGlasson
Description: Colorless prismatic crystals
Measured chemistry: Li_1.00_Si_2.00_O_6_Â·1.25H_2_O ; Li not measured but estimated by stoichiometry
Pin_id: M00456
Orientation: Laser parallel to a* (1 0 0). Fiducial mark perpendicular to laser is parallel to b [0 1 0]
Raman shift (cm-1)	intensity
87.101	0
91.284	489.012
95.465	2549.89
99.644	4890.37
103.82	5999.37
107.995	7348.73
112.168	9011.95
116.339	7047.52
120.508	3858.43
124.675	1100.44
128.84	29.084
133.003	714.598
137.164	2552.58
141.323	5101.1
145.48	6166.35
149.635	5788.65
153.788	4407.02
157.939	3725.63
162.088	2774.97
166.235	1755.56
170.38	823.248
174.523	326.551
178.664	226.994
182.803	321.158
186.94	235.883
191.076	120.527
195.209	1205.37
199.34	3512.32
203.47	5612.66
207.597	4586.72
211.722	2840.98
215.846	3466.43
219.967	4279.92
224.087	3066.99
228.204	2030.11
232.32	1192.91
236.434	1006.34
240.545	1354.38
244.655	2310.96
248.763	3551.29
252.869	4453.05
256.973	4775.64
261.075	3326.44
265.175	1506.84
269.273	713.697
273.369	380.92
277.463	58.6484
281.556	491.746
285.646	1723.97
289.734	2768.83
293.821	3022.78
297.905	1942.3
301.988	1529.51
306.069	1045.47
310.147	1181.84
314.224	1400.25
318.299	770.664
322.372	653.037
326.443	750.141
330.512	390.279
334.579	730.422
338.645	1070.18
342.708	2006.57
346.769	2503.42
350.829	2621.7
354.887	2281.66
358.942	1604.32
362.996	1629.14
367.048	2692.47
371.098	4653.62
375.146	7410.64
379.192	11644.7
383.236	14711
387.279	15149.5
391.319	15549.8
395.358	16066.6
399.394	13698.7
403.429	8522.64
407.462	5756.62
411.493	4013.94
415.522	3267.07
419.549	2859.35
423.575	2857.3
427.598	2083.64
431.619	1310.32
435.639	1393.99
439.657	1026.69
443.673	851.189
447.687	1050.24
451.699	627.602
455.709	1286.5
459.717	1681.67
463.724	3150.7
467.728	4140.98
471.731	5220.71
475.732	7300.42
479.731	7949.94
483.728	8591.5
487.723	10636.1
491.716	14078.2
495.708	17965
499.697	17742.5
503.685	13058.7
507.671	8124.74
511.655	4787.15
515.637	2962.63
519.617	2076.7
523.596	1603.26
527.572	1155.77
531.547	1114.11
535.52	1286.44
539.491	1962.23
543.46	1344.59
547.427	777.256
551.393	259.625
555.356	139.049
559.318	165.092
563.278	248.106
567.236	153.547
571.192	35.6543
575.147	237.381
579.099	129.955
583.05	213.551
586.999	123.279
590.946	224.252
594.891	49.9258
598.834	363.576
602.776	230.275
606.715	60.4609
610.653	30.6934
614.589	517.445
618.523	1183.86
622.456	2110.69
626.386	2451.04
630.315	1678.64
634.242	910.137
638.167	570.217
642.09	1270.93
646.012	2019.44
649.931	1926.98
653.849	1222.87
657.765	851.981
661.679	431.822
665.592	165.19
669.502	134.016
673.411	242.732
677.318	5.26172
681.223	185.914
685.126	493.404
689.028	267.254
692.927	229.148
696.825	569.221
700.721	970.699
704.616	1386.61
708.508	1688.02
712.399	888.863
716.288	272.748
720.175	223.74
724.06	413.578
727.944	217.486
731.825	514.18
735.705	160.32
739.584	7.93164
743.46	142.264
747.334	97.6504
751.207	87.0488
755.078	532.119
758.947	175.074
762.815	724.209
766.68	691.252
770.544	314.283
774.406	342.99
778.267	580.451
782.125	366.519
785.982	463.195
789.837	392.482
793.69	635.393
797.542	701.947
801.391	386.139
805.239	216.965
809.085	514.422
812.93	280.512
816.772	213.299
820.613	278.898
824.452	637.447
828.29	754.445
832.125	1050.59
835.959	617.111
839.791	1007.04
843.621	1691.8
847.45	1576.71
851.277	1552.37
855.102	1578.87
858.925	2875.68
862.746	2455.31
866.566	1893.44
870.384	1329.58
874.2	1396.79
878.015	1114.57
881.828	1254.19
885.639	1266.71
889.448	506.773
893.256	1127.06
897.061	1118.29
900.865	1180.8
904.668	1006.02
908.468	901.102
912.267	927.422
916.064	478.785
919.86	359.277
923.653	617.051
927.445	693.426
931.236	504.137
935.024	377.027
938.811	160.359
942.596	376.375
946.379	348.258
950.161	1548.46
953.94	3329.72
957.719	7298.38
961.495	8423.64
965.27	5127.73
969.043	4763.78
972.814	2540.13
976.583	1144.18
980.351	503.957
984.117	179.988
987.882	697.445
991.644	1097.73
995.405	1770.65
999.165	4400.27
1002.92	6955.15
1006.68	2883.39
1010.43	1631.8
1014.18	2029.26
1017.93	2792.64
1021.68	4076.94
1025.43	4700.27
1029.18	3078.71
1032.92	1478.58
1036.66	973.43
1040.4	551.992
1044.14	298.633
1047.88	182.988
1051.62	1044.69
1055.35	464.375
1059.08	517.191
1062.81	99.9648
1066.54	165.394
1070.27	57.0977
1073.99	445.938
1077.72	915.043
1081.44	1615.98
1085.16	1270.34
1088.88	1048.65
1092.59	478.379
1096.31	330.891
1100.02	407.195
1103.73	453.941
1107.44	1000.35
1111.15	428.953
1114.86	183.894
1118.57	316.242
1122.27	77.1953
1125.97	570.731
1129.67	713.863
1133.37	589.527
1137.07	104.762
1140.76	582.789
1144.45	347.676
1148.15	85.6836
1151.84	74.6172
1155.53	753.164
1159.21	815.199
1162.9	1140.72
1166.58	1169.75
1170.26	970.156
1173.94	297.883
1177.62	763.769
1181.3	633.762
1184.97	478.602
1188.65	286.019
1192.32	334.391
1195.99	57.3047
1199.66	73.7383
1203.33	344.965
1206.99	357.574
1210.65	133.207
1214.32	262.828
1217.98	488.574
1221.64	195.59
1225.29	246.91
1228.95	297.445
1232.6	488.777
1236.26	894.336
1239.91	1183.13
1243.56	816.043
1247.2	1028.57
1250.85	971.441
1254.49	527.125
1258.13	547.621
1261.78	737.336
1265.41	1042.05
1269.05	1419.73
1272.69	1471.72
1276.32	1241.73
1279.95	945.426
1283.59	992.617
1287.21	753.457
1290.84	806.777
1294.47	913.828
1298.09	1172.11
1301.72	975.438
1305.34	934.59
1308.96	1206.81
1312.58	1652.16
1316.19	1116.83
1319.81	1427.09
1323.42	1388.96
1327.03	869.777
1330.64	288.375
1334.25	316.199
1337.86	45.2344
1341.46	34.332
1345.07	568.043
1348.67	257.644
1352.27	82.1758
1355.87	457.754
1359.46	1009.04
1363.06	416.129
1366.65	386.328
1370.25	551.074
1373.84	653.625
1377.43	683.012
1381.02	252.379
1384.6	457.793
1388.18	466.555
1391.77	406.719
1395.35	318.746
1398.93	497.5
1402.51	54.6172
1406.08	61.4258
1409.66	36.2031
1413.23	26.1953
1416.8	544.867
1420.37	78.5625
