Measurement: Raman, 514 nm, depolarized, Raman Data Processed
Mineral: Bikitaite
Rruff sample: R050160
Ideal chemistry: LiAlSi_2_O_6_H_2_O
Locality: Foote mine, Kings Mountain, Cleveland County, North Carolina, USA
Source: Jim McGlasson
Description: Colorless prismatic crystals
Measured chemistry: Li_1.00_Si_2.00_O_6_Â·1.25H_2_O ; Li not measured but estimated by stoichiometry
Pin_id: M00294
Orientation: Laser parallel to (1 0 1). Fiducial mark perpendicular to laser is parallel to -b [0 -1 0]
Raman shift (cm-1)	intensity
87.308	0
91.012	848.344
94.714	3343.15
98.416	5675.35
102.116	8077.69
105.815	9216.38
109.512	10175.3
113.208	10754.5
116.903	9067.59
120.596	4776.33
124.288	1773.48
127.979	7.63477
131.668	545.211
135.356	2567.88
139.043	4573.33
142.728	6315.33
146.412	7700.03
150.094	6930.48
153.775	5482.08
157.455	4401.6
161.134	3452.4
164.811	2165.18
168.486	1204.72
172.161	383.17
175.834	273.602
179.505	491.68
183.176	399.15
186.845	210.902
190.512	570.211
194.178	2269.04
197.843	3806.68
201.507	5610.22
205.169	6973.91
208.829	4879.09
212.489	3611.41
216.147	3641.91
219.803	4598.57
223.459	4417.31
227.112	2525.07
230.765	1398.83
234.416	1381.94
238.066	1710.69
241.714	2585.72
245.361	3444.86
249.007	5145.73
252.651	5737.07
256.294	6223.61
259.936	5523.79
263.576	2747
267.215	1128.39
270.852	491.799
274.488	55.6992
278.123	278.279
281.756	713.545
285.388	1859.86
289.019	2875.44
292.648	3411.8
296.276	2594.89
299.902	1635.39
303.527	1426.27
307.151	1168.58
310.773	1058.51
314.394	1292.84
318.013	744.66
321.631	395.926
325.248	353.447
328.864	68.918
332.478	318.791
336.09	8.9043
339.701	938.176
343.311	1899.14
346.92	2519.33
350.527	2837.72
354.132	2670.33
357.737	2350.06
361.34	2100.14
364.941	3136.69
368.541	4752.68
372.14	7766.11
375.737	11008
379.333	15186.1
382.928	18540.2
386.521	19760.2
390.113	19346.1
393.703	19062.6
397.292	18609.8
400.88	14058.7
404.466	9378.17
408.051	6747.4
411.634	4958.43
415.216	4131.19
418.797	3723.58
422.376	3208.98
425.954	2545.36
429.53	1996.76
433.105	1588.9
436.679	1456.51
440.251	1588.21
443.822	1322.91
447.391	1206.72
450.96	1247.26
454.526	1466.98
458.091	2229.47
461.655	3686.45
465.218	5072.49
468.779	6548.54
472.338	7739.4
475.897	9428.4
479.454	10923
483.009	11855
486.563	14141
490.116	17585.1
493.667	20521.2
497.217	22559.4
500.765	20370.5
504.312	14106.7
507.858	9045.83
511.402	5859.95
514.945	3823.03
518.486	2998.05
522.026	2249.16
525.565	1895.77
529.102	1748.18
532.638	1961.08
536.172	2323.36
539.705	2587.65
543.236	1789.64
546.766	1049.07
550.295	504.82
553.822	463.334
557.348	374.731
560.873	216.022
564.396	0.447266
567.917	71.0723
571.438	73.8867
574.957	344.494
578.474	138.098
581.99	44.2129
585.504	4.64258
589.018	24.043
592.529	127.035
596.04	76.8008
599.549	109.445
603.056	41.9023
606.562	105.188
610.067	164.828
613.57	159.613
617.072	443.188
620.572	989.668
624.071	1924.31
627.569	1993.46
631.065	1216.14
634.56	403.318
638.053	412.994
641.545	614.168
645.035	1150.83
648.524	1159.02
652.012	1074.71
655.498	935.08
658.983	541.791
662.466	78.3106
665.948	119.277
669.428	17.8477
672.907	254.861
676.385	355.381
679.861	586.582
683.336	599.09
686.809	876.076
690.281	313.215
693.752	411.762
697.221	794.734
700.688	1446.99
704.155	1834.76
707.619	1820.89
711.083	1242.42
714.545	827.088
718.005	594.012
721.464	541.574
724.922	397.871
728.378	340.113
731.833	106.504
735.286	3.01562
738.738	265.328
742.189	87.1211
745.638	78.6172
749.085	311.469
752.531	121.219
755.976	65.1719
759.419	397.418
762.861	694.238
766.302	574.641
769.741	533.637
773.178	507.215
776.614	524.41
780.049	278.305
783.482	563.859
786.914	647.664
790.345	394.844
793.773	370.414
797.201	204.934
800.627	19.7891
804.052	44.2266
807.475	145.199
810.897	110.754
814.317	98.2305
817.736	160.348
821.153	278.91
824.569	482.617
827.984	124.922
831.397	226.191
834.808	353.125
838.219	118.848
841.627	432.379
845.035	836.836
848.441	851.211
851.845	828.613
855.248	1180.36
858.65	1821.5
862.05	1615.06
865.448	1029.08
868.846	1027.67
872.241	753.199
875.636	690.125
879.029	404.684
882.42	299.391
885.81	538.641
889.199	568.758
892.586	244.625
895.971	251.391
899.356	311.172
902.738	318.969
906.12	443.793
909.5	259.656
912.878	414.027
916.255	151.445
919.63	47.5508
923.004	111.191
926.377	149.695
929.748	110.07
933.118	305.082
936.486	267.922
939.853	326.562
943.218	499.266
946.582	983.516
949.945	1724.94
953.306	4363.46
956.665	7206.14
960.023	9747.91
963.38	7872.13
966.735	5290.62
970.089	4393.33
973.441	2457.2
976.792	1510.21
980.141	686.398
983.489	701.742
986.836	705.254
990.181	1035.94
993.524	1578.8
996.866	3097.83
1000.21	5603.04
1003.55	6045.46
1006.88	2935.16
1010.22	1922.27
1013.55	2369.76
1016.89	3055.94
1020.22	4571.41
1023.55	5267.08
1026.88	3805.95
1030.21	2194.02
1033.53	1009.27
1036.86	536.711
1040.18	285.961
1043.5	124.152
1046.82	7.88672
1050.14	177.125
1053.46	18.7539
1056.78	256.625
1060.09	128.465
1063.4	136.059
1066.71	126.375
1070.02	1.67188
1073.33	160.191
1076.64	550.383
1079.94	1040.69
1083.25	1373.48
1086.55	923.914
1089.85	790.535
1093.15	323.688
1096.45	519.75
1099.75	667.211
1103.04	927.656
1106.34	755.285
1109.63	576.086
1112.92	532.098
1116.21	662.344
1119.5	790.773
1122.78	893.383
1126.07	937.172
1129.35	794.137
1132.63	622.285
1135.92	334.609
1139.19	228.164
1142.47	224.977
1145.75	318.969
1149.02	245.137
1152.3	627.469
1155.57	848.969
1158.84	1269.63
1162.11	1360.46
1165.38	1349.43
1168.64	1040.56
1171.91	861.836
1175.17	576.273
1178.43	310.066
1181.69	698.621
1184.95	216.512
1188.21	263.816
1191.46	325.543
1194.72	0.824219
1197.97	190.934
1201.22	283.707
1204.47	170
1207.72	82.4375
1210.97	321.902
1214.21	326.379
1217.46	261.934
1220.7	271.66
1223.94	30.5312
1227.18	259.457
1230.42	356.106
1233.65	357.238
1236.89	289.523
1240.12	818.961
1243.35	463.32
1246.59	856.062
1249.81	702.961
1253.04	458.035
1256.27	658.305
1259.49	610.777
1262.72	843.469
1265.94	890.555
1269.16	1158.3
1272.38	1078.89
1275.59	1211.54
1278.81	1163.25
1282.03	1088.91
1285.24	1131.02
1288.45	920.461
1291.66	1060.66
1294.87	1252.91
1298.08	777.047
1301.28	1090.45
1304.48	945.109
1307.69	1346.24
1310.89	1439.04
1314.09	1440.71
1317.29	1312.45
1320.48	1499.52
1323.68	1044.23
1326.87	560.246
1330.06	486.082
1333.26	554.5
1336.44	297.152
1339.63	327.793
1342.82	106.648
1346	509.715
1349.19	572.977
1352.37	427.012
1355.55	79.1641
1358.73	416.43
1361.9	177.856
1365.08	163.473
1368.26	187.25
1371.43	221.242
1374.6	584.43
1377.77	533.109
1380.94	506.215
1384.11	382.664
1387.27	223.785
1390.43	503.668
1393.6	211.019
1396.76	176.496
1399.92	174.977
1403.08	183.223
1406.23	248.516
1409.39	119.457
1412.54	66.7734
1415.69	247.793
1418.85	108.172
1421.99	183.258
1425.14	272.691
1428.29	503.914
