Measurement: Raman, 514 nm, depolarized, Raman Data Processed
Mineral: Bikitaite
Rruff sample: R050160
Ideal chemistry: LiAlSi_2_O_6_H_2_O
Locality: Foote mine, Kings Mountain, Cleveland County, North Carolina, USA
Source: Jim McGlasson
Description: Colorless prismatic crystals
Measured chemistry: Li_1.00_Si_2.00_O_6_Â·1.25H_2_O ; Li not measured but estimated by stoichiometry
Pin_id: M00075
Orientation: Laser parallel to (0 1 1). Fiducial mark perpendicular to laser is parallel to a [1 0 0]
Raman shift (cm-1)	intensity
93.48	0
98.416	1858.1
103.349	6314.36
108.28	9716.38
113.208	9724.76
118.134	8514.69
123.058	4451.13
127.979	370.662
132.898	223.902
137.814	3444.39
142.728	7520.3
147.639	7682.82
152.549	7110.19
157.455	7467.83
162.359	7518.74
167.261	5277.62
172.161	2823.53
177.058	185.324
181.952	774.708
186.845	151.629
191.734	1255.33
196.622	4350.39
201.507	7756.08
206.389	7517.01
211.269	5353.25
216.147	6665.23
221.022	7518.52
225.895	4101.41
230.765	1171.92
235.633	473.062
240.498	1583.56
245.361	3404.82
250.222	4962.23
255.08	5093.23
259.936	3320.85
264.789	630.265
269.64	393.267
274.488	564.956
279.334	35.7666
284.178	1646.15
289.019	3529.87
293.857	3924.6
298.693	2919.5
303.527	2030.65
308.358	1537.29
313.187	1487.39
318.013	356.994
322.837	347.887
327.659	575.487
332.478	771.992
337.294	1632.08
342.108	2872.54
346.92	4128.36
351.729	4422.74
356.535	4603.06
361.34	5583.68
366.141	8581.77
370.94	14671.5
375.737	24709.2
380.531	34853
385.323	39933.8
390.113	38875.3
394.9	36208
399.684	27275.6
404.466	16202.3
409.245	11480.6
414.022	10331.6
418.797	10472.5
423.569	11225.6
428.338	9617.49
433.105	6718.12
437.87	5270.67
442.632	6221.16
447.391	8761.36
452.149	10978.8
456.903	8072.51
461.655	5088.11
466.405	5214.35
471.152	7099.55
475.897	11045
480.639	17720.6
485.378	28343.3
490.116	37681.1
494.85	33932.7
499.582	24942.8
504.312	20961
509.039	18424.7
513.764	14080.2
518.486	9326.2
523.206	6000.03
527.923	4446.1
532.638	3542.03
537.35	3235.45
542.059	2616.35
546.766	1416.11
551.471	643.717
556.173	253.678
560.873	205.125
565.57	52.002
570.264	216.332
574.957	174.609
579.646	65.1973
584.333	57.1074
589.018	64.4531
593.7	18.4961
598.379	171.062
603.056	83.709
607.73	60.1582
612.402	13.8633
617.072	106.17
621.739	2.71484
626.403	54.1973
631.065	79.2812
635.724	43.9434
640.381	79.4277
645.035	20.8672
649.687	22.8398
654.336	44.9746
658.983	4.24414
663.627	56.6484
668.268	339.66
672.907	505.76
677.544	685.805
682.178	1417.25
686.809	1460.04
691.438	1478.81
696.065	1823.31
700.688	2016.18
705.31	2315.79
709.929	2659.52
714.545	2244.06
719.158	1696.27
723.77	1631.63
728.378	1872.13
732.984	1784.92
737.588	805.92
742.189	742.732
746.787	649.182
751.383	961.066
755.976	1518.74
760.567	2229.08
765.155	2826.16
769.741	2313.15
774.324	1732.37
778.904	1315.94
783.482	1146.41
788.058	875.936
792.631	634.227
797.201	331.732
801.769	411.826
806.334	215.65
810.897	402.254
815.457	146.857
820.014	155.549
824.569	339.531
829.122	172.18
833.671	418.822
838.219	211.039
842.763	278.486
847.306	23.2637
851.845	18.4062
856.382	217.957
860.917	34.9219
865.448	95.4512
869.978	63.3086
874.505	39.2949
879.029	65.5
883.55	22.6406
888.069	58.2871
892.586	179.842
897.1	43.248
901.611	22.5957
906.12	84.9707
910.626	74.5644
915.129	160.844
919.63	22.9277
924.129	202.252
928.625	333.799
933.118	361.576
937.609	599.412
942.097	673.764
946.582	1594.64
951.065	3941.24
955.546	9950.22
960.023	16661.5
964.499	15238.1
968.971	10944.5
973.441	5052.97
977.909	2297.3
982.374	1332.17
986.836	1525.3
991.295	2499.95
995.753	3093.68
1000.21	1455.23
1004.66	807.606
1009.11	821.045
1013.55	1198.26
1018	978.852
1022.44	429.203
1026.88	298.58
1031.32	320.926
1035.75	355.16
1040.18	909.598
1044.61	1433.01
1049.04	3241.75
1053.46	3640.81
1057.88	2628.23
1062.3	1376.41
1066.71	747.227
1071.13	353.709
1075.54	365.736
1079.94	355.822
1084.35	477.447
1088.75	477.176
1093.15	535.418
1097.55	686.201
1101.94	931.248
1106.34	1049.69
1110.73	753.394
1115.11	856.689
1119.5	1241.22
1123.88	2142.69
1128.26	3117.05
1132.63	3843.65
1137.01	5224.79
1141.38	5688.78
1145.75	4924.91
1150.12	3102.71
1154.48	1950.05
1158.84	1478.44
1163.2	1142.27
1167.55	1356.89
1171.91	1096.1
1176.26	1113.66
1180.61	577.59
1184.95	274.867
1189.29	468.815
1193.63	295.844
1197.97	83.9297
1202.31	267.06
1206.64	202.66
1210.97	250.213
1215.29	156.428
1219.62	136.547
1223.94	10.4688
1228.26	213.576
1232.57	213.588
1236.89	116.461
1241.2	130.051
1245.51	50.7383
1249.81	215.789
1254.12	76.7734
1258.42	150.031
1262.72	107.582
1267.01	54.4336
1271.3	86.8438
1275.59	89.9297
1279.88	107.051
1284.17	195.195
1288.45	158.363
1292.73	3.77539
1297.01	186.664
1301.28	338.236
1305.55	156.863
1309.82	233.549
1314.09	212.81
1318.35	292.318
1322.61	315.941
1326.87	580.49
1331.13	392.32
1335.38	88.2324
1339.63	244.535
1343.88	523.312
1348.12	650.561
1352.37	327.85
1356.61	297.969
1360.85	316.908
1365.08	339.656
1369.31	232.769
1373.54	191.387
1377.77	199.846
1381.99	95.4785
1386.22	243.594
1390.43	274.242
1394.65	91.1543
1398.87	1.93359
1403.08	170.547
1407.29	74.541
1411.49	41.3867
1415.69	309.152
1419.89	85.125
1424.09	123.061
1428.29	101.67
1432.48	192.623
1436.67	207.449
1440.86	146.738
1445.04	375.019
1449.23	130.453
1453.4	227.391
1457.58	356.519
1461.76	304.699
1465.93	62.2148
1470.1	253.301
1474.26	102.957
1478.43	274.512
1482.59	412.203
1486.75	284.293
1490.9	271.242
1495.06	294.094
1499.21	40.5703
1503.35	57.5469
1507.5	5.80859
1511.64	349.785
1515.78	327.277
1519.92	168.731
1524.05	492.414
1528.18	515.871
1532.31	412.926
1536.44	281.766
1540.56	114.805
1544.69	126.781
1548.8	276.875
1552.92	235.289
1557.03	207.641
1561.14	15.082
1565.25	266.742
1569.36	0.214844
