Measurement: Raman, 514 nm, depolarized, Raman Data Processed
Mineral: Bikitaite
Rruff sample: R050160
Ideal chemistry: LiAlSi_2_O_6_H_2_O
Locality: Foote mine, Kings Mountain, Cleveland County, North Carolina, USA
Source: Jim McGlasson
Description: Colorless prismatic crystals
Measured chemistry: Li_1.00_Si_2.00_O_6_Â·1.25H_2_O ; Li not measured but estimated by stoichiometry
Pin_id: M00081
Orientation: Laser parallel to (-1 -1 0). Fiducial mark perpendicular to laser is parallel to -c [0 0 -1]
Raman shift (cm-1)	intensity
75.937	0
80.125	2619.73
84.311	5008.3
88.496	1059.66
92.678	200.21
96.858	1699.67
101.036	4013.73
105.212	6430.03
109.387	8618.03
113.559	8489.15
117.729	5770
121.897	1916.97
126.063	59.733
130.228	109.585
134.39	494.187
138.55	1555.8
142.709	2488.12
146.865	3026.37
151.019	2813.36
155.171	2621.95
159.322	2816.28
163.47	2596.66
167.617	1837.05
171.761	848.575
175.904	154.122
180.044	79.899
184.183	311.642
188.319	267.469
192.454	228.777
196.586	1018.86
200.717	3109.75
204.846	4119.28
208.972	4172.28
213.097	4867.87
217.22	6626.72
221.341	6105.69
225.46	3177.01
229.577	1161.61
233.692	231.59
237.805	337.326
241.916	315.951
246.025	1159.22
250.132	1888.34
254.237	2290.75
258.34	1789.97
262.442	244.112
266.541	99.635
270.639	173.39
274.734	198.075
278.828	254.773
282.919	733.77
287.009	2388.65
291.097	4025.83
295.183	4631.7
299.266	4434.74
303.348	2729.89
307.428	1138.07
311.507	769.327
315.583	566.777
319.657	816.312
323.729	1682.44
327.8	1273.5
331.868	653.964
335.935	443.148
339.999	1498.09
344.062	2546.41
348.123	3272.02
352.182	2869.33
356.239	2366.69
360.294	2361.59
364.347	3275.22
368.398	4994.12
372.448	7953.27
376.495	12765.7
380.54	18367.3
384.584	20695.9
388.626	21922.4
392.666	21806.3
396.704	20325.2
400.74	15277.3
404.774	10947.9
408.806	8267.9
412.836	7178.97
416.865	6119.54
420.891	4418.94
424.916	3181.41
428.939	2820.42
432.959	2560.23
436.978	2898.5
440.996	2954.65
445.011	2391.88
449.024	2061.14
453.036	1826.33
457.045	1726.81
461.053	1905.9
465.059	2963.17
469.063	4855.81
473.065	6958.64
477.065	8772.37
481.063	9853.99
485.06	12747
489.054	18846.4
493.047	27567.8
497.038	31660
501.027	26082.6
505.014	17428.5
508.999	10875.1
512.982	6828.25
516.964	4680.47
520.944	3453.22
524.921	2372.71
528.897	1845.06
532.871	1965.23
536.844	1938.18
540.814	1825.91
544.783	1355.39
548.749	642.594
552.714	334.515
556.677	184.26
560.638	181.664
564.597	65.383
568.555	15.502
572.511	75.17
576.464	32.402
580.416	118.923
584.366	59.299
588.315	42.607
592.261	88.833
596.206	49.631
600.148	71.206
604.089	43.628
608.028	7.234
611.965	47.327
615.901	31.424
619.834	16.275
623.766	87.505
627.696	362.319
631.624	14.585
635.551	14.281
639.475	58.764
643.398	50.405
647.318	65.31
651.237	21.703
655.155	153.145
659.07	81.37
662.984	25.11
666.895	205.874
670.805	108.482
674.713	330.726
678.62	515.814
682.524	778.021
686.427	1419.08
690.328	1691.61
694.227	2032.96
698.124	1704.05
702.02	1565.51
705.913	1024.4
709.805	1145.75
713.695	809.242
717.584	958.057
721.47	826.675
725.355	470.721
729.238	735.117
733.119	764.459
736.998	429.618
740.876	533.602
744.752	566.109
748.626	931.206
752.498	1440.12
756.368	2505.95
760.237	3223.42
764.104	3350.47
767.969	2450.83
771.832	1866.49
775.693	1736.97
779.553	1245.77
783.411	1311.09
787.267	1153.92
791.122	923.079
794.974	522.531
798.825	221.367
802.674	147.83
806.522	319.904
810.367	213.462
814.211	10.153
818.053	76.586
821.893	119.526
825.732	192.54
829.568	31.674
833.403	22.853
837.236	87.151
841.068	176.274
844.898	21.439
848.726	3.028
852.552	127.318
856.376	46.865
860.199	454.221
864.02	259.403
867.839	163.332
871.656	28.952
875.472	151.637
879.286	0.583
883.098	78.665
886.909	116.66
890.717	145.176
894.524	171.584
898.33	151.042
902.133	115.778
905.935	123.388
909.735	234.487
913.533	98.776
917.33	261.22
921.124	354.879
924.918	107.926
928.709	125.312
932.499	354.811
936.286	153.298
940.073	642.895
943.857	585.671
947.64	1017.69
951.421	2050.02
955.2	5201.4
958.978	11481.5
962.753	10124.6
966.527	4941.75
970.3	3631.49
974.071	2623.71
977.84	1644.51
981.607	510.016
985.372	657.232
989.136	518.359
992.898	572.771
996.659	285.857
1000.42	531.214
1004.17	129.809
1007.93	124.688
1011.68	497.749
1015.43	726.897
1019.18	504.594
1022.93	146.599
1026.68	188.985
1030.42	45.833
1034.17	50.7
1037.91	23.306
1041.65	217.399
1045.39	201.16
1049.12	11.24
1052.86	45.047
1056.59	176.774
1060.33	311.7
1064.06	602.879
1067.78	710.838
1071.51	572.122
1075.23	855.861
1078.96	1303.57
1082.68	2082.43
1086.4	3012.98
1090.12	2707.57
1093.83	2302.67
1097.55	1732.88
1101.26	1479.64
1104.97	1563.47
1108.68	1071.71
1112.39	778.425
1116.1	586.23
1119.8	754.11
1123.5	580.978
1127.2	456.435
1130.9	33.086
1134.6	202.78
1138.3	343.739
1141.99	180.974
1145.69	100.101
1149.38	346.726
1153.07	265.882
1156.76	368.711
1160.44	848.141
1164.13	1115.95
1167.81	1350.07
1171.49	1265.44
1175.17	925.522
1178.85	873.859
1182.52	498.434
1186.2	141.955
1189.87	149.598
1193.54	116.02
1197.21	205.649
1200.88	67.567
1204.55	237.405
1208.21	93.593
1211.88	34.493
1215.54	61.934
1219.2	35.847
1222.86	117.476
1226.51	101.56
1230.17	0.419
1233.82	21.955
1237.47	175.803
1241.12	13.273
1244.77	182.425
1248.42	216.516
1252.06	213.715
1255.71	66.357
1259.35	49.977
1262.99	18.664
1266.63	88.874
1270.26	43.735
1273.9	153.914
1277.53	59.525
1281.16	185.336
1284.8	27.575
1288.42	40.297
1292.05	70.908
1295.68	12.592
1299.3	39.816
1302.92	89.582
1306.55	35.035
1310.16	195.942
1313.78	113.286
1317.4	209.121
1321.01	7.559
1324.62	25.343
1328.24	211.867
1331.85	46.802
1335.45	42.864
1339.06	61.973
1342.66	278.679
1346.27	114.32
1349.87	343.371
1353.47	427.971
1357.07	420.204
1360.66	418.633
1364.26	146.58
1367.85	263.296
1371.44	197.437
1375.04	164.934
1378.62	305.478
1382.21	430.572
1385.8	504.042
1389.38	149.905
1392.96	298.485
1396.54	526.755
1400.12	388.176
1403.7	382.785
1407.28	204.421
1410.85	358.318
1414.42	563.282
1417.99	283.481
1421.56	624.68
1425.13	434.054
1428.7	337.256
1432.26	357.666
1435.83	596.939
1439.39	811.011
1442.95	698.163
1446.51	924.754
1450.06	911.54
1453.62	1160.46
1457.17	1083.57
1460.73	989.767
1464.28	733.193
1467.83	502.685
1471.37	638.988
1474.92	412.026
1478.46	350.948
1482.01	415.135
1485.55	600.599
1489.09	200.693
1492.63	386.197
1496.16	356.154
1499.7	100.367
1503.23	95.512
1506.76	342.895
1510.29	344.039
1513.82	307.045
1517.35	6.246
1520.88	79.233
