Measurement: Raman, 514 nm, depolarized, Raman Data Processed
Mineral: Bobdownsite
Rruff sample: R050109
Ideal chemistry: Ca_9_Mg(PO_4_)_6_(PO_3_F)
Locality: Big Fish River, Yukon Territory, Canada
Source: Rock Currier
Description: Colorless hexagonal tabular crystals, type sample
Measured chemistry: (Ca_8.76_Na_0.24_)_Σ=9_(Mg_0.72_Fe^3+^_0.13_Al_0.11_Fe^2+^_0.04_)_Σ=1_(P_1.00_O_4_)_6_(P_1.00_O_3_F_1.00_); Fe^2+^ and Fe^3+^ by charge balance
Pin_id: L00194
Orientation: Laser parallel to c* (0 0 1). Fiducial mark perpendicular to laser is parallel to a [1 0 0]
Raman shift (cm-1)	intensity
91.284	0
95.465	82.482
99.644	373.036
103.82	365.17
107.995	190.299
112.168	47.021
116.339	133.242
120.508	82.307
124.675	20.098
128.84	2.579
133.003	136.033
137.164	195.554
141.323	240.116
145.48	210.074
149.635	336.768
153.788	572.598
157.939	833.323
162.088	955.397
166.235	865.434
170.38	645.027
174.523	760.544
178.664	801.355
182.803	380.781
186.94	147.807
191.076	78.415
195.209	58.543
199.34	78.976
203.47	32.463
207.597	0.31
211.722	27.69
215.846	72.438
219.967	176.146
224.087	174.15
228.204	157.272
232.32	231.008
236.434	212.613
240.545	169.051
244.655	249.671
248.763	304.913
252.869	329.794
256.973	366.372
261.075	390.307
265.175	404.733
269.273	426.864
273.369	475.702
277.463	508.925
281.556	654.348
285.646	711.394
289.734	589.324
293.821	425.809
297.905	286.53
301.988	117.84
306.069	99.74
310.147	114.202
314.224	38.946
318.299	17.11
322.372	37.756
326.443	13.988
330.512	23.731
334.579	20.963
338.645	0.631
342.708	13.288
346.769	54.891
350.829	12.742
354.887	22.618
358.942	36.982
362.996	51.744
367.048	60.047
371.098	75.984
375.146	138.233
379.192	176.199
383.236	243.599
387.279	325.445
391.319	509.962
395.358	803.561
399.394	1115.21
403.429	1775.35
407.462	2555.74
411.493	2515.24
415.522	1892.57
419.549	1550.73
423.575	1450.64
427.598	1415.28
431.619	1586.64
435.639	1581.73
439.657	1573.53
443.673	1612.04
447.687	1559.31
451.699	1581.32
455.709	1642.12
459.717	1757.68
463.724	1638.83
467.728	1304.06
471.731	1135.84
475.732	996.816
479.731	995.707
483.728	1061.82
487.723	1051.93
491.716	795.976
495.708	557.803
499.697	322.717
503.685	217.61
507.671	131.759
511.655	139.593
515.637	146.944
519.617	123.951
523.596	166.356
527.572	152.945
531.547	148.063
535.52	259.294
539.491	398.026
543.46	877.644
547.427	1387.64
551.393	1202.68
555.356	1277.66
559.318	1815.02
563.278	2045.85
567.236	1421.61
571.192	824.896
575.147	533.756
579.099	294.715
583.05	382.541
586.999	528.75
590.946	775.785
594.891	777.967
598.834	951.898
602.776	1348.51
606.715	1554.06
610.653	1143.43
614.589	874.181
618.523	1053.8
622.456	1229.51
626.386	1210.12
630.315	1088.35
634.242	903.047
638.167	489.688
642.09	213.495
646.012	56.189
649.931	40.305
653.849	41.988
657.765	43.896
661.679	25.66
665.592	28.714
669.502	7.434
673.411	24.75
677.318	41.159
681.223	6.066
685.126	24.406
689.028	13.395
692.927	43.27
696.825	48.515
700.721	81.499
704.616	56.99
708.508	24.458
712.399	21.624
716.288	29.462
720.175	73.407
724.06	20.223
727.944	38.878
731.825	33.409
735.705	18.816
739.584	14.921
743.46	29.186
747.334	27.184
751.207	46.478
755.078	46.891
758.947	36.588
762.815	58.161
766.68	15.403
770.544	30.127
774.406	33.014
778.267	26.077
782.125	0.312
785.982	20.375
789.837	15.275
793.69	36.569
797.542	35.079
801.391	24.324
805.239	24.829
809.085	30.116
812.93	18.773
816.772	34.111
820.613	35.351
824.452	4.782
828.29	4.579
832.125	55.16
835.959	38.052
839.791	35.405
843.621	13.012
847.45	17.666
851.277	10.449
855.102	22.854
858.925	77.882
862.746	77.555
866.566	80.246
870.384	67.527
874.2	1.664
878.015	33.721
881.828	91.787
885.639	113.09
889.448	136.167
893.256	100.796
897.061	129.062
900.865	227.828
904.668	307.443
908.468	448.142
912.267	654.033
916.064	981.968
919.86	2067.47
923.653	4690.15
927.445	6903.43
931.236	5447.05
935.024	2096.78
938.811	1209.14
942.596	1092.59
946.379	1473.15
950.161	2189.66
953.94	4059.41
957.719	9139.25
961.495	23974
965.27	35537.5
969.043	38864.7
972.814	38681.3
976.583	30337.8
980.351	12584.5
984.117	4913.81
987.882	3138.87
991.644	2880.45
995.405	3178.69
999.165	3703.24
1002.92	3838.12
1006.68	3178.16
1010.43	2112.09
1014.18	1763.32
1017.93	1819.6
1021.68	1928.82
1025.43	2127.92
1029.18	2274.38
1032.92	2430.11
1036.66	2422.66
1040.4	2097.92
1044.14	1572.04
1047.88	1343.83
1051.62	1335.96
1055.35	1316.36
1059.08	1432.89
1062.81	1389.67
1066.54	1453.54
1070.27	1436.61
1073.99	1562.85
1077.72	1613.26
1081.44	1628.88
1085.16	1855.66
1088.88	2106.59
1092.59	2087.63
1096.31	1793.79
1100.02	1592.08
1103.73	1542.49
1107.44	1335.02
1111.15	989.765
1114.86	655.604
1118.57	396.568
1122.27	460.731
1125.97	434.256
1129.67	257.094
1133.37	172.619
1137.07	118.26
1140.76	169.676
1144.45	111.999
1148.15	167.074
1151.84	197.198
1155.53	190.971
1159.21	118.887
1162.9	118.815
1166.58	6.225
1170.26	2.414
1173.94	88.435
1177.62	38.115
1181.3	7.426
1184.97	0.21
1188.65	46.086
1192.32	5.186
1195.99	25.132
1199.66	7.237
1203.33	10.095
1206.99	36.601
1210.65	4.871
1214.32	47.554
1217.98	133.7
1221.64	86.111
1225.29	130.684
1228.95	45.464
1232.6	79.241
1236.26	35.003
1239.91	93.625
1243.56	11.32
1247.2	136.299
1250.85	139.875
1254.49	94.652
1258.13	56.113
1261.78	52.147
1265.41	18.442
1269.05	6.456
1272.69	47.585
1276.32	110.412
1279.95	115.927
1283.59	80.232
1287.21	67.37
1290.84	11.835
1294.47	17.771
1298.09	12.203
1301.72	15.38
1305.34	91.748
1308.96	6.904
1312.58	54.288
1316.19	87.36
1319.81	47.833
1323.42	40.012
1327.03	46.438
1330.64	42.312
1334.25	16.852
1337.86	4.872
1341.46	27.256
1345.07	103.111
1348.67	114.834
1352.27	94.334
1355.87	2.646
1359.46	108.747
1363.06	27.662
1366.65	77.205
1370.25	18.802
1373.84	40.105
1377.43	142.079
1381.02	170.043
1384.6	159.417
1388.18	167.624
1391.77	174.572
1395.35	62.303
1398.93	83.273
1402.51	26.756
1406.08	73.42
1409.66	111.687
1413.23	92.975
1416.8	189.717
1420.37	223.544
1423.94	126.83
1427.51	201.383
1431.08	81.26
1434.64	67.398
1438.2	70.932
1441.76	29.186
1445.32	63.857
1448.88	174.492
1452.43	155.436
1455.99	173.798
1459.54	170.695
1463.09	210.853
1466.64	161.139
1470.19	114.011
1473.74	92.637
1477.28	9.225
1480.83	106.492
1484.37	81.262
1487.91	13.667
1491.45	62.526
1494.98	118.208
1498.52	136.989
1502.05	118.151
1505.59	226.778
1509.12	156.203
1512.65	92.964
1516.17	74.817
1519.7	0
