Measurement: Raman, 514 nm, depolarized, Raman Data Processed
Mineral: Bobdownsite
Rruff sample: R050109
Ideal chemistry: Ca_9_Mg(PO_4_)_6_(PO_3_F)
Locality: Big Fish River, Yukon Territory, Canada
Source: Rock Currier
Description: Colorless hexagonal tabular crystals, type sample
Measured chemistry: (Ca_8.76_Na_0.24_)_Σ=9_(Mg_0.72_Fe^3+^_0.13_Al_0.11_Fe^2+^_0.04_)_Σ=1_(P_1.00_O_4_)_6_(P_1.00_O_3_F_1.00_); Fe^2+^ and Fe^3+^ by charge balance
Pin_id: L00351
Orientation: Laser parallel to a* (1 0 0). Fiducial mark perpendicular to laser is parallel to -c [0 0 -1]
Raman shift (cm-1)	intensity
49.365	0
53.566	17.363
57.765	149.758
61.962	160.615
66.157	217.954
70.349	97.496
74.54	37.739
78.729	4.343
82.916	20
87.101	52.511
91.284	64.918
95.465	262.125
99.644	667.964
103.82	840.216
107.995	712.776
112.168	653.603
116.339	695.666
120.508	659.947
124.675	775.044
128.84	1047.05
133.003	1698.17
137.164	2007.57
141.323	1862.15
145.48	1757.66
149.635	1675.86
153.788	1660.67
157.939	1749.47
162.088	1717.32
166.235	1344.22
170.38	1044.19
174.523	961.221
178.664	944.309
182.803	715.457
186.94	616.662
191.076	565.227
195.209	621.721
199.34	547.357
203.47	499.521
207.597	425.659
211.722	368.73
215.846	430.611
219.967	533.532
224.087	447.245
228.204	492.6
232.32	539.601
236.434	552.146
240.545	583.127
244.655	579.486
248.763	618.162
252.869	714.305
256.973	784.531
261.075	957.069
265.175	981.683
269.273	1044.37
273.369	936.115
277.463	1115.92
281.556	1572.79
285.646	1854.71
289.734	1717.68
293.821	1490.68
297.905	1251.72
301.988	998.775
306.069	701.856
310.147	429.962
314.224	269.095
318.299	157.26
322.372	86.457
326.443	23.688
330.512	36.948
334.579	33.767
338.645	46.506
342.708	15.292
346.769	22.06
350.829	34.162
354.887	21.038
358.942	7.565
362.996	10.229
367.048	29.377
371.098	21.366
375.146	124.316
379.192	171.324
383.236	287.791
387.279	494.355
391.319	830.359
395.358	1305.38
399.394	2086.46
403.429	3256.63
407.462	4622.9
411.493	4335.27
415.522	3297.77
419.549	2797.32
423.575	2564.9
427.598	2507.49
431.619	2672.1
435.639	2751.74
439.657	2509.4
443.673	2175.08
447.687	2016.81
451.699	1819.58
455.709	1673.38
459.717	1578.21
463.724	1418.05
467.728	1181.91
471.731	965.795
475.732	814.655
479.731	716.494
483.728	714.35
487.723	729.185
491.716	436.845
495.708	308.49
499.697	105.427
503.685	20.364
507.671	30.642
511.655	17.266
515.637	9.011
519.617	17.449
523.596	14.183
527.572	8.855
531.547	93.842
535.52	169.551
539.491	439.692
543.46	957.102
547.427	1708.86
551.393	2271.26
555.356	1916.72
559.318	1565.02
563.278	1729.79
567.236	1407.24
571.192	961.029
575.147	551.982
579.099	326.612
583.05	348.599
586.999	475.112
590.946	718.223
594.891	801.414
598.834	929.108
602.776	1238.78
606.715	1391.94
610.653	1301.71
614.589	1444.33
618.523	1846.17
622.456	2521.57
626.386	2964.13
630.315	3811.39
634.242	4462.17
638.167	2834.56
642.09	1145.41
646.012	480.344
649.931	250.291
653.849	185.26
657.765	130.896
661.679	116.667
665.592	34.249
669.502	36.843
673.411	35.755
677.318	39.167
681.223	37.096
685.126	10.119
689.028	54.498
692.927	22.053
696.825	42.017
700.721	66.418
704.616	62.768
708.508	28.947
712.399	18.874
716.288	13.545
720.175	23.223
724.06	36.028
727.944	30.891
731.825	28.508
735.705	52.907
739.584	48.115
743.46	9.111
747.334	8.876
751.207	26.424
755.078	26.757
758.947	21.855
762.815	6.671
766.68	17.769
770.544	16.514
774.406	28.578
778.267	25.433
782.125	7.049
785.982	31.447
789.837	10.293
793.69	27.216
797.542	2.377
801.391	29.227
805.239	6.622
809.085	29.11
812.93	8.973
816.772	32.794
820.613	20.908
824.452	0.004
828.29	35.564
832.125	3.882
835.959	0.115
839.791	42.257
843.621	32.703
847.45	8.827
851.277	28.621
855.102	23.241
858.925	58.451
862.746	89.525
866.566	48.545
870.384	54.696
874.2	1.824
878.015	57.166
881.828	76.765
885.639	159.211
889.448	155.188
893.256	208.454
897.061	251.413
900.865	380.512
904.668	530.011
908.468	639.384
912.267	954.618
916.064	1871.87
919.86	4148.47
923.653	8184.49
927.445	8485.39
931.236	4646.57
935.024	2095.32
938.811	1431.76
942.596	1471.24
946.379	1930.19
950.161	2876.26
953.94	5655.03
957.719	13455.2
961.495	35027.6
965.27	48690.9
969.043	53815.3
972.814	52728.9
976.583	36803.7
980.351	14724.5
984.117	6915.62
987.882	6241.83
991.644	6735.74
995.405	6008.52
999.165	4753.12
1002.92	3306.46
1006.68	2167
1010.43	1570.75
1014.18	1541.71
1017.93	1648.89
1021.68	1772.31
1025.43	2078.94
1029.18	2124.87
1032.92	2140.03
1036.66	2021.12
1040.4	1638.88
1044.14	1408.08
1047.88	1401.32
1051.62	1292.35
1055.35	1302.45
1059.08	1300.71
1062.81	1409.16
1066.54	1505.38
1070.27	1724.83
1073.99	2069.49
1077.72	2644.34
1081.44	3012.39
1085.16	4003.7
1088.88	5210.21
1092.59	5216.89
1096.31	4135.13
1100.02	3520.18
1103.73	3286.45
1107.44	3112.88
1111.15	2823.44
1114.86	2093.17
1118.57	1429.06
1122.27	1007.05
1125.97	726.312
1129.67	549.727
1133.37	471.534
1137.07	382.067
1140.76	256.956
1144.45	216.813
1148.15	156.963
1151.84	241.23
1155.53	189.58
1159.21	88.798
1162.9	112.703
1166.58	63.581
1170.26	9.378
1173.94	115.18
1177.62	122.658
1181.3	64.372
1184.97	41.385
1188.65	41.397
1192.32	38.352
1195.99	37.281
1199.66	8.953
1203.33	35.351
1206.99	12.181
1210.65	42.536
1214.32	63.931
1217.98	150.424
1221.64	98.304
1225.29	103.775
1228.95	27.94
1232.6	62.343
1236.26	36.608
1239.91	65.585
1243.56	84.009
1247.2	79.793
1250.85	79.246
1254.49	78.593
1258.13	92.542
1261.78	55.647
1265.41	90.454
1269.05	95.879
1272.69	59.178
1276.32	138.446
1279.95	166.285
1283.59	71.829
1287.21	65.764
1290.84	68.807
1294.47	61.533
1298.09	7.06
1301.72	25.098
1305.34	71.963
1308.96	59.481
1312.58	78.805
1316.19	133.821
1319.81	35.688
1323.42	28.599
1327.03	17.933
1330.64	10.29
1334.25	2.779
1337.86	34.784
1341.46	46.724
1345.07	118.321
1348.67	140.483
1352.27	64.32
1355.87	12.426
1359.46	57.27
1363.06	41.916
1366.65	71.298
1370.25	14.321
1373.84	19.562
1377.43	100.084
1381.02	158.135
1384.6	184.613
1388.18	186.227
1391.77	147.596
1395.35	128.684
1398.93	87.866
1402.51	57.174
1406.08	82.688
1409.66	123.9
1413.23	153.822
1416.8	206.384
1420.37	209.649
1423.94	204.775
1427.51	136.053
1431.08	115.896
1434.64	112.831
1438.2	67.337
1441.76	85.465
1445.32	155.165
1448.88	133.68
1452.43	153.57
1455.99	173.016
1459.54	194.938
1463.09	246.479
1466.64	187.947
1470.19	154.804
1473.74	92.151
1477.28	47.104
1480.83	31.408
1484.37	28.673
1487.91	59.555
1491.45	93.499
1494.98	123.258
1498.52	127.492
1502.05	218.248
1505.59	209.989
1509.12	148.965
1512.65	147.09
1516.17	34.445
1519.7	0
