Measurement: Raman, 514 nm, depolarized, Raman Data Processed
Mineral: Boleite
Rruff sample: R050022
Ideal chemistry: KAg^1+^_9_Pb^2+^_26_Cu^2+^_24_Cl_62_(OH)_48_
Locality: Amelia mine, Boleo, Baja California, Mexico
Source: Eugene Schlepp
Description: Dark blue colored interpenetrating cubes
Pin_id: L00323
Orientation: Laser parallel to c* (0 0 1). Fiducial mark perpendicular to laser is parallel to a [1 0 0]
Raman shift (cm-1)	intensity
75.937	0
80.125	48.836
84.311	451.037
88.496	1396.68
92.678	3764.28
96.858	8652.8
101.036	15260.8
105.212	24504.9
109.387	33524
113.559	32878.4
117.729	30624.9
121.897	35193.5
126.063	33116.7
130.228	26160.5
134.39	21691.3
138.55	21156.4
142.709	23334.9
146.865	25843.5
151.019	28903.3
155.171	30034.3
159.322	32262
163.47	34571.1
167.617	30160.2
171.761	21730.5
175.904	15582.1
180.044	12640.4
184.183	11530.8
188.319	10557.1
192.454	10410.6
196.586	10745.7
200.717	11037.1
204.846	11209.8
208.972	11457.9
213.097	11999.9
217.22	12025.8
221.341	11341.1
225.46	10956.2
229.577	9972.74
233.692	8360.03
237.805	7092.25
241.916	6295.86
246.025	5044.18
250.132	3671.07
254.237	2971.01
258.34	2585.01
262.442	1958.12
266.541	1268.21
270.639	812.235
274.734	372.054
278.828	44.708
282.919	179.445
287.009	177.495
291.097	35.815
295.183	156.612
299.266	926.647
303.348	2031.69
307.428	1759.36
311.507	697.201
315.583	30.889
319.657	243.025
323.729	418.704
327.8	669.529
331.868	641.872
335.935	525.834
339.999	307.349
344.062	154.19
348.123	12.786
352.182	365.029
356.239	1020.83
360.294	1891.13
364.347	2850.19
368.398	2791.87
372.448	1645.13
376.495	795.706
380.54	309.348
384.584	272.023
388.626	170.1
392.666	20.105
396.704	102.681
400.74	27.281
404.774	55.461
408.806	16.293
412.836	110.593
416.865	187.634
420.891	305.477
424.916	259.681
428.939	363.857
432.959	470.662
436.978	656.044
440.996	852.389
445.011	1043.71
449.024	1564.25
453.036	2805.63
457.045	4921.31
461.053	4838.25
465.059	3406.83
469.063	2634.41
473.065	2130.46
477.065	1984.02
481.063	1791.49
485.06	1883.96
489.054	1971.06
493.047	1888.01
497.038	1911.61
501.027	2014.25
505.014	1941.68
508.999	1796.24
512.982	1400.81
516.964	1242.39
520.944	1148.38
524.921	1094.79
528.897	867.665
532.871	776.061
536.844	796.01
540.814	728.613
544.783	722.269
548.749	577.719
552.714	557.436
556.677	500.352
560.638	429.687
564.597	337.191
568.555	284.54
572.511	269.344
576.464	216.802
580.416	162.45
584.366	84.084
588.315	29.632
592.261	81.038
596.206	83.395
600.148	121.262
604.089	6.553
608.028	39.62
611.965	61.977
615.901	60.493
619.834	34.132
623.766	34.082
627.696	23.864
631.624	33.03
635.551	39.454
639.475	16.342
643.398	52.228
647.318	59.631
651.237	167.825
655.155	167.829
659.07	168.524
662.984	177.555
666.895	279.547
670.805	413.174
674.713	384.379
678.62	448.185
682.524	578.614
686.427	729.714
690.328	1025.92
694.227	1214.76
698.124	1325.29
702.02	1487.45
705.913	1409.07
709.805	1183.8
713.695	989.5
717.584	965.533
721.47	966.105
725.355	1214.92
729.238	1546.71
733.119	1741.45
736.998	1672.5
740.876	1513.67
744.752	1484.96
748.626	1428.78
752.498	1345.93
756.368	1165.39
760.237	1019.52
764.104	997.648
767.969	964.023
771.832	890.47
775.693	736.051
779.553	645.535
783.411	590.663
787.267	598.208
791.122	648.153
794.974	656.68
798.825	525.046
802.674	570.101
806.522	546.79
810.367	649.355
814.211	654.602
818.053	684.152
821.893	564.206
825.732	632.34
829.568	592.573
833.403	604.925
837.236	524.218
841.068	407.791
844.898	293.493
848.726	261.456
852.552	269.442
856.376	271.574
860.199	177.852
864.02	119.279
867.839	52.854
871.656	44.576
875.472	110.433
879.286	144.465
883.098	56.618
886.909	5.893
890.717	21.722
894.524	1.243
898.33	92.033
902.133	7.687
905.935	35.454
909.735	0.867
913.533	12.62
917.33	120.773
921.124	298.938
924.918	248.188
928.709	155.558
932.499	62.019
936.286	27.165
940.073	37.427
943.857	16.941
947.64	27.233
951.421	0.566
955.2	56.674
958.978	48.973
962.753	52.97
966.527	33.712
970.3	94.429
974.071	31.062
977.84	12.917
981.607	12.594
985.372	23.225
989.136	116.185
992.898	77.451
996.659	124.96
1000.42	105.814
1004.17	88.676
1007.93	125.274
1011.68	124.774
1015.43	208.655
1019.18	216.299
1022.93	162.958
1026.68	147.758
1030.42	93.043
1034.17	132.978
1037.91	150.035
1041.65	168.744
1045.39	123.959
1049.12	53.742
1052.86	46.442
1056.59	38.953
1060.33	5.703
1064.06	91.729
1067.78	103.252
1071.51	70.89
1075.23	82.375
1078.96	45.891
1082.68	19.196
1086.4	29.426
1090.12	81.916
1093.83	86.708
1097.55	80.753
1101.26	79.106
1104.97	34.465
1108.68	16.569
1112.39	3.852
1116.1	21.478
1119.8	38.366
1123.5	49.03
1127.2	34.308
1130.9	0.535
1134.6	11.966
1138.3	7.827
1141.99	0.364
1145.69	86.21
1149.38	88.654
1153.07	67.977
1156.76	45.198
1160.44	18.312
1164.13	30.356
1167.81	21.117
1171.49	57.97
1175.17	134.469
1178.85	101.888
1182.52	58.106
1186.2	53.195
1189.87	20.047
1193.54	0.92
1197.21	22.786
1200.88	18.255
1204.55	38.51
1208.21	74.374
1211.88	53.385
1215.54	32.215
1219.2	40.989
1222.86	24.639
1226.51	32.094
1230.17	26.98
1233.82	74.916
1237.47	152.655
1241.12	115.66
1244.77	105.468
1248.42	29.193
1252.06	9.524
1255.71	27.525
1259.35	22.877
1262.99	22.847
1266.63	96.988
1270.26	92.92
1273.9	98.404
1277.53	50.056
1281.16	33.139
1284.8	35.733
1288.42	24.371
1292.05	87.918
1295.68	111.322
1299.3	96.059
1302.92	83.882
1306.55	82.48
1310.16	74.146
1313.78	11.48
1317.4	46.212
1321.01	26.445
1324.62	110.98
1328.24	68.643
1331.85	105.48
1335.45	154.631
1339.06	163.854
1342.66	115.626
1346.27	77.173
1349.87	59.715
1353.47	112.472
1357.07	49.716
1360.66	113.761
1364.26	165.681
1367.85	204.493
1371.44	188.375
1375.04	150.281
1378.62	147.479
1382.21	145.117
1385.8	134.458
1389.38	143.021
1392.96	90.332
1396.54	163.39
1400.12	217.982
1403.7	159.367
1407.28	194.237
1410.85	148.764
1414.42	165.236
1417.99	104.568
1421.56	70.056
1425.13	92.558
1428.7	96.911
1432.26	55.649
1435.83	107.428
1439.39	139.17
1442.95	158.881
1446.51	174.45
1450.06	144.096
1453.62	115.878
1457.17	41.78
1460.73	73.848
1464.28	56.208
1467.83	38.724
1471.37	71.392
1474.92	36.244
1478.46	138.29
1482.01	105.629
1485.55	145.78
1489.09	141.432
1492.63	151.527
1496.16	60.046
1499.7	72.05
1503.23	58.831
1506.76	17.369
1510.29	74.773
1513.82	87.83
1517.35	0.443
