Measurement: Raman, 514 nm, depolarized, Raman Data Processed
Mineral: Braunite
Rruff sample: R050385
Ideal chemistry: Mn^2+^Mn^3+^_6_SiO_12_
Locality: Jhabua District, Madhya Pradesh, India
Source: University of Arizona Mineral Museum
Description: Black prismatic crystals
Measured chemistry: (Fe^2+^_0.61_Mn^2+^_0.39_)_Σ=1_(Mn^3+^_5.94_Al_0.06_)_Σ=6_Si_1.00_O_12_
Pin_id: M00114
Orientation: Laser parallel to c* (0 0 1). Fiducial mark perpendicular to laser is parallel to -b [0 -1 0]
Raman shift (cm-1)	intensity
178.282	0
183.176	120.636
188.067	726.905
192.956	1524.5
197.843	2553.38
202.727	4698.05
207.609	2523.23
212.489	3272.28
217.366	3173.6
222.24	2600.25
227.112	1966.35
231.982	1383.34
236.849	1139.43
241.714	1026.02
246.577	927.416
251.437	567.506
256.294	425.389
261.149	235.087
266.002	204.635
270.852	39.6025
275.7	94.6807
280.545	60.416
285.388	6.26562
290.229	21.4531
295.067	74.4805
299.902	28.1953
304.735	202.43
309.566	51.2207
314.394	108.281
319.22	249.632
324.043	623.613
328.864	821.035
333.682	778.539
338.498	331.185
343.311	168.11
348.122	246.872
352.931	80.8164
357.737	82.6689
362.54	173.373
367.341	77.4961
372.14	190.921
376.936	174.999
381.73	138.139
386.521	75.0615
391.31	85.4277
396.096	109.451
400.88	98.5938
405.661	25.9053
410.44	224.527
415.216	282.416
419.99	170.181
424.761	177.365
429.53	86.0664
434.297	98.7705
439.061	85.8301
443.822	43.4102
448.581	81.3428
453.337	355.954
458.091	193.383
462.843	289.304
467.592	523.043
472.338	624.233
477.082	518.148
481.824	517.964
486.563	411.433
491.3	411.968
496.034	477.348
500.765	754.056
505.494	1218.27
510.221	1425.05
514.945	1139.28
519.666	827.692
524.385	505.911
529.102	270.467
533.816	368.594
538.527	340.267
543.236	222.227
547.943	299.583
552.647	337.471
557.348	385.036
562.047	636.092
566.744	835.24
571.438	934.316
576.129	1029.38
580.818	764.347
585.504	752.184
590.188	790.827
594.87	739.057
599.549	1126.22
604.225	1517.19
608.899	1991.4
613.57	2396.11
618.239	2436.16
622.905	2012.16
627.569	1721.03
632.23	1143.27
636.889	865.698
641.545	746.873
646.198	776.606
650.849	638.442
655.498	677.607
660.144	661.561
664.787	848.672
669.428	1223.98
674.067	1583.1
678.703	2028.03
683.336	2736.03
687.967	3146.45
692.595	2568.16
697.221	1949.29
701.844	1362.42
706.465	814.511
711.083	591.255
715.698	425.162
720.311	359.877
724.922	314.507
729.53	190.122
734.135	193.12
738.738	53.3272
743.338	0.584961
747.936	110.952
752.531	99.4639
757.124	48.8486
761.714	20.9746
766.302	44.8574
770.887	37.5049
775.469	54.8027
780.049	21.1914
784.626	91.4414
789.201	17.7158
793.773	59.4404
798.343	180.211
802.91	127.88
807.475	20.4434
812.037	18.4775
816.596	1.82812
821.153	38.5137
825.707	39.1738
830.259	127.078
834.808	10.5342
839.355	44.6973
843.899	35.7353
848.441	118.272
852.98	79.1807
857.516	176.148
862.05	141.098
866.581	117.7
871.11	195.484
875.636	36.2803
880.159	7.42188
884.68	209.912
889.199	216.753
893.714	192.412
898.228	441.023
902.738	228.769
907.246	290.618
911.752	216.469
916.255	370.056
920.755	411.365
925.253	459.509
929.748	362.409
934.241	676.829
938.731	670.998
943.218	876.829
947.703	985.908
952.186	1315.64
956.665	1344.57
961.142	1433.65
965.617	1190.84
970.089	796.677
974.558	832.616
979.025	609.011
983.489	502.641
987.951	578.937
992.41	580.681
996.866	537.052
1001.32	572.816
1005.77	537.483
1010.22	713.365
1014.67	496.238
1019.11	447.147
1023.55	346.844
1027.99	319.532
1032.42	488.21
1036.86	377.555
1041.29	517.885
1045.72	351.794
1050.14	420.182
1054.56	655.076
1058.98	493.047
1063.4	674.154
1067.82	530.084
1072.23	665.302
1076.64	411.247
1081.05	645.862
1085.45	506.456
1089.85	323.39
1094.25	439.819
1098.65	402.586
1103.04	416.619
1107.43	233.99
1111.82	333.657
1116.21	458.713
1120.59	682.231
1124.97	653.69
1129.35	266.688
1133.73	255.733
1138.1	317.222
1142.47	114.823
1146.84	49.7022
1151.21	283.111
1155.57	49.0547
1159.93	93.5644
1164.29	142.871
1168.64	31.7383
1172.99	159.825
1177.34	270.082
1181.69	103.503
1186.04	53.9404
1190.38	27.6309
1194.72	8.3291
1199.05	116.153
1203.39	62.1113
1207.72	53.1875
1212.05	71.5908
1216.37	164.138
1220.7	226.793
1225.02	203.555
1229.34	224.413
1233.65	254.361
1237.97	74.3984
1242.28	179.557
1246.59	50.8018
1250.89	137.887
1255.19	80.7891
1259.49	62.1162
1263.79	63.9863
1268.09	203.679
1272.38	157.699
1276.67	90.5654
1280.95	158.393
1285.24	288.095
1289.52	75.7481
1293.8	180.046
1298.08	263.306
1302.35	98.8057
1306.62	163.138
1310.89	289.404
1315.15	254.94
1319.42	231.496
1323.68	307.623
1327.94	256.17
1332.19	304.744
1336.44	394.254
1340.69	218.394
1344.94	250.375
1349.19	415.864
1353.43	376.81
1357.67	349.664
1361.9	193.481
1366.14	433.229
1370.37	214.025
1374.6	479.092
1378.83	395.269
1383.05	231.561
1387.27	177.97
1391.49	189.356
1395.7	294.824
1399.92	206.78
1404.13	335.588
1408.34	164.926
1412.54	146.387
1416.74	221.032
1420.94	248.65
1425.14	166.534
1429.34	113.067
1433.53	267.308
1437.72	6.66113
1441.9	109.272
1446.09	220.603
1450.27	67.2178
1454.45	92.8877
1458.63	144.851
1462.8	64.4111
1466.97	204.184
1471.14	33.5713
1475.31	88.8203
1479.47	213.861
1483.63	214.364
1487.79	50.8389
1491.94	74.4658
1496.09	271.398
1500.24	172.954
1504.39	29.3398
1508.54	217.744
1512.68	230.558
1516.82	164.037
1520.95	136.857
1525.09	65.2031
1529.22	115.825
1533.35	137.132
1537.47	172.831
1541.6	162.42
1545.72	113.155
1549.83	90.6787
1553.95	13.9893
1558.06	85.5264
1562.17	61.0137
1566.28	154.565
1570.38	0
