Measurement: Raman, 514 nm, depolarized, Raman Data Processed
Mineral: Braunite
Rruff sample: R050390
Ideal chemistry: Mn^2+^Mn^3+^_6_SiO_12_
Locality: Oehrenstock, Thuringia, Germany
Source: University of Arizona Mineral Museum
Description: Mass of black octahedra
Measured chemistry: (Mn^2+^_0.83_Ca_0.17_)_Î£=1_Mn^3+^_6.00_Si_1.00_O_12_
Pin_id: M00380
Orientation: Laser parallel to c* (0 0 1). Fiducial mark perpendicular to laser is parallel to a [1 0 0]
Raman shift (cm-1)	intensity
292.648	0
296.276	213.518
299.902	33.5664
303.527	243.736
307.151	198.103
310.773	120.939
314.394	92.3477
318.013	373.783
321.631	183.01
325.248	424.336
328.864	991.814
332.478	1295.45
336.09	1354.19
339.701	1563.26
343.311	1541.87
346.92	1349.17
350.527	1247.29
354.132	923.068
357.737	901.496
361.34	737.211
364.941	716.387
368.541	765.674
372.14	731.758
375.737	815.709
379.333	552.769
382.928	623.18
386.521	428.184
390.113	532.717
393.703	371.857
397.292	348.93
400.88	307.945
404.466	232.94
408.051	208.963
411.634	7.05273
415.216	139.215
418.797	106.562
422.376	40.3613
425.954	56.4688
429.53	110.746
433.105	75.5234
436.679	232.695
440.251	262.971
443.822	241.547
447.391	228.852
450.96	281.635
454.526	365.938
458.091	550.465
461.655	735.568
465.218	925.543
468.779	1168.24
472.338	1012.59
475.897	1394.58
479.454	1612.06
483.009	1713.65
486.563	1866.71
490.116	2087.51
493.667	2482.96
497.217	2048.73
500.765	2527.4
504.312	2455.83
507.858	3001.7
511.402	3166.41
514.945	3261.64
518.486	3524
522.026	3260.5
525.565	3181.77
529.102	3228.73
532.638	3062.44
536.172	2741.78
539.705	2281.76
543.236	2185.37
546.766	2391.53
550.295	2058.68
553.822	2459.09
557.348	2574.9
560.873	2554.24
564.396	2977.78
567.917	2590.96
571.438	2507.76
574.957	2218.96
578.474	2116.49
581.99	1782.48
585.504	1494.97
589.018	1410.98
592.529	1477.51
596.04	1404.53
599.549	1304.08
603.056	1422.17
606.562	1662.83
610.067	1889.7
613.57	2063.15
617.072	2546.02
620.572	2367.19
624.071	3353.27
627.569	3783.27
631.065	4240.22
634.56	4015.57
638.053	3859.12
641.545	3645.79
645.035	3939.4
648.524	3598.33
652.012	2067.41
655.498	2127.75
658.983	1938.75
662.466	1640.78
665.948	1731.28
669.428	1657.85
672.907	1607.3
676.385	1824.62
679.861	1982.89
683.336	1866.34
686.809	2223.91
690.281	3006.52
693.752	3099.25
697.221	3482.17
700.688	3902.16
704.155	4219.22
707.619	4287.34
711.083	4010.5
714.545	3583.59
718.005	2785.77
721.464	2687.87
724.922	1971.93
728.378	1411.94
731.833	1320.89
735.286	1075.32
738.738	476.598
742.189	341.42
745.638	153.971
749.085	230.152
752.531	228.648
755.976	8.98047
759.419	166.06
762.861	68.9512
766.302	10.1504
769.741	80.9883
773.178	154.932
776.614	98.1875
780.049	25.3301
783.482	156.238
786.914	22.6855
790.345	9.04492
793.773	265.988
797.201	29.416
800.627	147.272
804.052	85.6152
807.475	52.4805
810.897	48.9824
814.317	34.75
817.736	338.176
821.153	68.875
824.569	125.428
827.984	356.816
831.397	94.0703
834.808	313.756
838.219	383.164
841.627	31.0098
845.035	85.7188
848.441	245.303
851.845	265.768
855.248	366.109
858.65	344.34
862.05	251.463
865.448	201.481
868.846	131.4
872.241	401.227
875.636	343.965
879.029	187.617
882.42	14.1953
885.81	245.688
889.199	63.0781
892.586	232.383
895.971	295.387
899.356	106.633
902.738	310.527
906.12	340.562
909.5	205.848
912.878	297.941
916.255	344.84
919.63	591.504
923.004	634.156
926.377	550.512
929.748	602.32
933.118	728.723
936.486	797.195
939.853	993.539
943.218	825.508
946.582	1105.27
949.945	1410.38
953.306	1467.08
956.665	1571.94
960.023	2041.04
963.38	2246.53
966.735	2082.41
970.089	1818.71
973.441	1854.34
976.792	2115.22
980.141	1434.45
983.489	1670.01
986.836	1695.7
990.181	1627.06
993.524	1839.54
996.866	1278.32
1000.21	1539.43
1003.55	1493.89
1006.88	1206.68
1010.22	1490.8
1013.55	1066.32
1016.89	1285.42
1020.22	1173.86
1023.55	1828.45
1026.88	1445.51
1030.21	1148.02
1033.53	1239.93
1036.86	1326.26
1040.18	1334.18
1043.5	1417.59
1046.82	1350.84
1050.14	1408.01
1053.46	1722.21
1056.78	1735.22
1060.09	1715.36
1063.4	1782.23
1066.71	2181.06
1070.02	1752.08
1073.33	1576.93
1076.64	1793.34
1079.94	1681.98
1083.25	1865.11
1086.55	1658.14
1089.85	1765.04
1093.15	1782.64
1096.45	1635.77
1099.75	1632.13
1103.04	1505.48
1106.34	1631.61
1109.63	1569.11
1112.92	1169.56
1116.21	1406.37
1119.5	1437.98
1122.78	1417.6
1126.07	1280.71
1129.35	927.793
1132.63	1005.98
1135.92	995.086
1139.19	384.328
1142.47	478.082
1145.75	1308.79
1149.02	504.227
1152.3	515.148
1155.57	367.484
1158.84	506.812
1162.11	359.668
1165.38	111.008
1168.64	151.742
1171.91	317.316
1175.17	433.754
1178.43	113.57
1181.69	215.445
1184.95	234.398
1188.21	48.3164
1191.46	156.344
1194.72	171.406
1197.97	277.582
1201.22	101.668
1204.47	48.7656
1207.72	151.269
1210.97	154.168
1214.21	95.7344
1217.46	48.0703
1220.7	117.281
1223.94	65.1172
1227.18	1.63672
1230.42	18.7695
1233.65	63.8164
1236.89	217.188
1240.12	39.7695
1243.35	55.293
1246.59	173.902
1249.81	197.012
1253.04	227.246
1256.27	207.809
1259.49	228.988
1262.72	213.184
1265.94	59.1836
1269.16	56.5664
1272.38	16.3867
1275.59	113.961
1278.81	138.039
1282.03	82.3672
1285.24	165.215
1288.45	9.71875
1291.66	40.7734
1294.87	36.6328
1298.08	43.7578
1301.28	49.8398
1304.48	33.1602
1307.69	161.641
1310.89	157.641
1314.09	46.9336
1317.29	165.879
1320.48	331.25
1323.68	547.305
1326.87	508.211
1330.06	277.293
1333.26	319.746
1336.44	242.883
1339.63	247.301
1342.82	194.418
1346	265.644
1349.19	266.129
1352.37	228.387
1355.55	217.906
1358.73	408.719
1361.9	435.711
1365.08	469.539
1368.26	444.809
1371.43	732.938
1374.6	331.828
1377.77	197.332
1380.94	215.441
1384.11	303.898
1387.27	308.578
1390.43	427.668
1393.6	201.379
1396.76	307.508
1399.92	144.68
1403.08	172.273
1406.23	170.731
1409.39	313.051
1412.54	247.719
1415.69	189.789
1418.85	203.348
1421.99	102.684
1425.14	77.2188
1428.29	224.848
1431.43	65.832
1434.58	6.11328
1437.72	246.066
1440.86	289.496
1444	341.324
1447.13	342.66
1450.27	385.438
1453.4	393.824
1456.54	264.285
1459.67	284.402
1462.8	357.637
1465.93	404.586
1469.06	505.598
1472.18	288.281
1475.31	175.848
1478.43	399.066
1481.55	292.172
1484.67	216.246
1487.79	368.297
1490.9	156.965
1494.02	259.34
1497.13	341.438
1500.24	138.195
1503.35	342.789
1506.46	353.898
1509.57	311.773
1512.68	130.969
1515.78	402.348
1518.88	531.727
1521.99	219.066
1525.09	461.324
1528.18	526.523
1531.28	409.828
1534.38	194.34
1537.47	186.227
1540.56	97.6758
1543.66	199.613
1546.74	179.496
1549.83	188.398
1552.92	288.09
1556.01	143.777
1559.09	266.18
1562.17	239.707
1565.25	238.231
1568.33	58.8477
1571.41	0
