Measurement: Raman, 514 nm, depolarized, Raman Data Processed
Mineral: Braunite
Rruff sample: R050385
Ideal chemistry: Mn^2+^Mn^3+^_6_SiO_12_
Locality: Jhabua District, Madhya Pradesh, India
Source: University of Arizona Mineral Museum
Description: Black prismatic crystals
Measured chemistry: (Fe^2+^_0.61_Mn^2+^_0.39_)_Σ=1_(Mn^3+^_5.94_Al_0.06_)_Σ=6_Si_1.00_O_12_
Pin_id: L01451
Orientation: Laser parallel to a* (1 0 0). Fiducial mark perpendicular to laser is parallel to c [0 0 1]
Raman shift (cm-1)	intensity
178.282	0
183.176	226.629
188.067	960.836
192.956	2274.13
197.843	3778.06
202.727	7907.83
207.609	4801.4
212.489	6400.45
217.366	6571.84
222.24	6159.25
227.112	5042.59
231.982	3599.55
236.849	2420.1
241.714	2062.85
246.577	2000.7
251.437	1236.21
256.294	868.416
261.149	571.113
266.002	436.496
270.852	310.694
275.7	269.214
280.545	283.716
285.388	658.705
290.229	1224.88
295.067	913.797
299.902	196.78
304.735	561.68
309.566	358.31
314.394	109.066
319.22	559.694
324.043	1960.26
328.864	2698.53
333.682	2456.92
338.498	1572.06
343.311	675.784
348.122	480.795
352.931	557.432
357.737	375.431
362.54	557.773
367.341	507.807
372.14	620.394
376.936	454.201
381.73	224.323
386.521	220.128
391.31	117.947
396.096	129.791
400.88	48.2217
405.661	26.668
410.44	98.4785
415.216	141.119
419.99	122.713
424.761	241.822
429.53	244.581
434.297	271.528
439.061	261.873
443.822	317.045
448.581	655.891
453.337	997.543
458.091	1519.98
462.843	3063.47
467.592	3876.19
472.338	4376.93
477.082	4011.47
481.824	2896.79
486.563	2169.89
491.3	1879.57
496.034	2223.94
500.765	3141.97
505.494	4765.23
510.221	5594.56
514.945	4751.75
519.666	3161.86
524.385	2125.75
529.102	1163.38
533.816	989.725
538.527	432.797
543.236	302.904
547.943	434.504
552.647	488.785
557.348	869.65
562.047	1392.26
566.744	2179.38
571.438	2736.38
576.129	2733.62
580.818	2219.62
585.504	1841.54
590.188	1806.29
594.87	1784.25
599.549	2872.01
604.225	4365.19
608.899	5654.89
613.57	6776.48
618.239	7008.04
622.905	5927.81
627.569	4520.77
632.23	3250.62
636.889	2575.32
641.545	2363.07
646.198	2417.84
650.849	2179.03
655.498	2271.78
660.144	2148.48
664.787	2126.15
669.428	2221.65
674.067	2595.01
678.703	3457.23
683.336	4549.19
687.967	4707.55
692.595	4212.41
697.221	3151.45
701.844	2233.81
706.465	1689.24
711.083	1436.38
715.698	796.35
720.311	671.734
724.922	497.254
729.53	208.375
734.135	261.94
738.738	173.184
743.338	39.0215
747.936	197.361
752.531	39.7773
757.124	35.457
761.714	112.178
766.302	45.7441
770.887	341.66
775.469	505.496
780.049	68.3281
784.626	110.391
789.201	0.082031
793.773	137.832
798.343	66.9727
802.91	205.555
807.475	14.1562
812.037	31.9688
816.596	80.0391
821.153	113.535
825.707	17.1641
830.259	89.4062
834.808	98.5234
839.355	35.4473
843.899	14.5605
848.441	6.30859
852.98	35.791
857.516	288.103
862.05	127.269
866.581	393.691
871.11	341.41
875.636	262.447
880.159	239.805
884.68	609.5
889.199	257.147
893.714	445.611
898.228	805.752
902.738	592.721
907.246	572.289
911.752	682.059
916.255	557.35
920.755	834.889
925.253	1387.58
929.748	1090.08
934.241	1444.08
938.731	1727.82
943.218	2178.45
947.703	2544.62
952.186	2511.55
956.665	2635.2
961.142	2281.55
965.617	2019.47
970.089	1767.42
974.558	1519.26
979.025	1317.41
983.489	913.695
987.951	865.082
992.41	877.416
996.866	687.205
1001.32	747.035
1005.77	709.006
1010.22	877.021
1014.67	623.141
1019.11	575.457
1023.55	622.936
1027.99	610.637
1032.42	585.562
1036.86	625.215
1041.29	464.305
1045.72	550.041
1050.14	656.106
1054.56	610.043
1058.98	641.469
1063.4	683.465
1067.82	953.166
1072.23	666.863
1076.64	583.719
1081.05	644.08
1085.45	589.561
1089.85	622.66
1094.25	740.977
1098.65	643.68
1103.04	573.195
1107.43	383.525
1111.82	382.426
1116.21	492.815
1120.59	651.713
1124.97	786.797
1129.35	540.867
1133.73	116.475
1138.1	767.984
1142.47	180.685
1146.84	182.16
1151.21	258.197
1155.57	106.121
1159.93	89.2188
1164.29	266.002
1168.64	107.781
1172.99	25.8574
1177.34	280.955
1181.69	63.6719
1186.04	93.4043
1190.38	216.326
1194.72	90.1348
1199.05	100.106
1203.39	162.18
1207.72	190.31
1212.05	68.6641
1216.37	312.219
1220.7	198.938
1225.02	350.754
1229.34	226.838
1233.65	343.102
1237.97	213.481
1242.28	273.098
1246.59	339.998
1250.89	117.779
1255.19	170.037
1259.49	26.3887
1263.79	242.404
1268.09	153.44
1272.38	63.2461
1276.67	167.652
1280.95	243.31
1285.24	319.982
1289.52	192.154
1293.8	432.26
1298.08	217.922
1302.35	274.176
1306.62	188.035
1310.89	496.877
1315.15	333.252
1319.42	368.779
1323.68	486.84
1327.94	514.312
1332.19	650.393
1336.44	671.727
1340.69	723.512
1344.94	583.561
1349.19	721.936
1353.43	350.277
1357.67	545.791
1361.9	613.387
1366.14	701.967
1370.37	689.508
1374.6	800.207
1378.83	883.283
1383.05	836.365
1387.27	666.852
1391.49	861.537
1395.7	691.861
1399.92	590.104
1404.13	749.639
1408.34	582.336
1412.54	489.342
1416.74	558.545
1420.94	519.654
1425.14	419.391
1429.34	470.973
1433.53	412.695
1437.72	330.44
1441.9	329.469
1446.09	309.422
1450.27	598.223
1454.45	157.455
1458.63	220.572
1462.8	95.5684
1466.97	283.066
1471.14	214.191
1475.31	134.162
1479.47	4.85547
1483.63	188.781
1487.79	189.963
1491.94	56.668
1496.09	21.5664
1500.24	98.3926
1504.39	148.172
1508.54	276.559
1512.68	184.807
1516.82	260.338
1520.95	251.449
1525.09	471.654
1529.22	170.84
1533.35	317.147
1537.47	119.018
1541.6	125.496
1545.72	12.752
1549.83	40.1641
1553.95	194.123
1558.06	240.44
1562.17	289.779
1566.28	186.115
1570.38	0
