Measurement: Raman, 514 nm, depolarized, Raman Data Processed
Mineral: Braunite
Rruff sample: R050388
Ideal chemistry: Mn^2+^Mn^3+^_6_SiO_12_
Locality: Langban, Filipstad, Varmland, Sweden
Source: University of Arizona Mineral Museum
Description: Black crystals
Measured chemistry: (Mn^2+^_0.96_Mg_0.04_)_Î£=1_Mn^3+^_6.00_Si_1.00_O_12_
Pin_id: M00455
Orientation: Laser parallel to a* (1 0 0). Fiducial mark perpendicular to laser is parallel to c [0 0 1]
Raman shift (cm-1)	intensity
175.834	0
180.729	681.301
185.622	613.906
190.512	1019.72
195.4	2203.6
200.286	2856.14
205.169	2931.48
210.049	1107.45
214.928	3388.24
219.803	5094.94
224.677	4175.85
229.548	2463.34
234.416	2355.48
239.282	1898.51
244.146	833.055
249.007	1123.29
253.866	756.297
258.722	751.016
263.576	738.996
268.427	397.363
273.276	506.449
278.123	389.164
282.967	43.1836
287.809	99.9219
292.648	31.9727
297.485	46.5664
302.319	189.953
307.151	16.7109
311.98	124.519
316.807	87.668
321.631	114.894
326.454	142.676
331.273	548.098
336.09	1498.22
340.905	1996.06
345.717	1091.02
350.527	2482.27
355.334	1710.2
360.139	116.902
364.941	550.492
369.741	547.231
374.538	486.832
379.333	464.301
384.126	934.68
388.916	869.672
393.703	466.434
398.488	472.555
403.271	911.168
408.051	396.914
412.828	479.641
417.603	219.508
422.376	792.703
427.146	743.562
431.914	942.039
436.679	839.387
441.442	833.363
446.202	915.336
450.96	976.945
455.715	997.512
460.467	1174.04
465.218	930.461
469.965	1602.43
474.711	2016.42
479.454	2746.3
484.194	2811.03
488.932	2166.62
493.667	1762.66
498.4	1951.69
503.13	2017.23
507.858	2302.83
512.583	2708.54
517.306	3943.76
522.026	4143.45
526.744	3215.77
531.459	2336.54
536.172	2100.99
540.882	2147.26
545.59	2356.4
550.295	2072.2
554.998	1994.37
559.698	2097.98
564.396	2123.09
569.091	2426.58
573.784	2349.85
578.474	1688.78
583.162	1284.28
587.847	1050.91
592.529	721.898
597.209	979.82
601.887	869.148
606.562	1007.67
611.235	1525.15
615.905	2125.61
620.572	3311.03
625.237	4503.4
629.9	4115.75
634.56	2557.92
639.217	1620.17
643.872	1032.08
648.524	1083.91
653.174	684.754
657.821	577.023
662.466	551.457
667.108	487.625
671.748	590.648
676.385	673.207
681.02	427.312
685.652	558
690.281	979.137
694.908	1255.16
699.533	1316.16
704.155	866.09
708.774	311.203
713.391	449.184
718.005	15.8086
722.617	56.7344
727.226	40.0312
731.833	60.9961
736.437	191.539
741.039	321.176
745.638	127.203
750.234	79.6914
754.828	276.004
759.419	177.129
764.008	198.043
768.595	121.223
773.178	171.941
777.759	224.914
782.338	266.531
786.914	73.7734
791.488	274.434
796.059	151.887
800.627	111.59
805.193	7.20703
809.756	138.301
814.317	46.2812
818.875	364.234
823.431	44.7578
827.984	93.8789
832.534	75.0078
837.082	133.383
841.627	129.324
846.17	164.199
850.71	280.457
855.248	103.84
859.783	170.523
864.316	157.41
868.846	335.148
873.373	199.285
877.898	274.644
882.42	96.8438
886.94	211.992
891.457	156.644
895.971	333.184
900.483	498.633
904.993	751.938
909.5	647.312
914.004	724.496
918.505	623.859
923.004	673.965
927.501	914.344
931.995	760.953
936.486	676.859
940.975	1229.23
945.461	1395.04
949.945	1402.85
954.426	1811.86
958.904	1439.32
963.38	1227.51
967.853	1445.72
972.324	1397.42
976.792	1358.43
981.258	1256.18
985.72	1373.85
990.181	1466.46
994.639	1579.25
999.094	1668.97
1003.55	1468.62
1008	1517.36
1012.44	1844.31
1016.89	1717.41
1021.33	1753.56
1025.77	1546.21
1030.21	1728.32
1034.64	1901.94
1039.07	1954.78
1043.5	1531.96
1047.93	1863.08
1052.35	1696.13
1056.78	2103.7
1061.19	1791.68
1065.61	2313.3
1070.02	2082.72
1074.43	2256.93
1078.84	2031.7
1083.25	2054.61
1087.65	2403.93
1092.05	1990.56
1096.45	1999.19
1100.85	1628.35
1105.24	1538.18
1109.63	1267.86
1114.02	1247.57
1118.4	1165.29
1122.78	1263.24
1127.16	1064.98
1131.54	1075.77
1135.92	829.797
1140.29	910.484
1144.66	578.203
1149.02	787.613
1153.39	543.121
1157.75	401.481
1162.11	313.531
1166.46	503.797
1170.82	165.07
1175.17	354.305
1179.52	405.594
1183.86	187.734
1188.21	56.6484
1192.55	27.1055
1196.89	185.469
1201.22	143.359
1205.55	150.465
1209.88	61.1328
1214.21	71.8047
1218.54	77.9141
1222.86	126.504
1227.18	17.168
1231.5	78.2305
1235.81	84.6758
1240.12	168.188
1244.43	270.742
1248.74	17.0078
1253.04	154.883
1257.34	94.7891
1261.64	175.336
1265.94	173.606
1270.23	147.559
1274.52	259.965
1278.81	42.1484
1283.1	32.1836
1287.38	256.109
1291.66	246.164
1295.94	1.6875
1300.21	170.211
1304.48	22.6719
1308.75	271.32
1313.02	197.016
1317.29	542.566
1321.55	349.094
1325.81	479.781
1330.06	569.652
1334.32	391.004
1338.57	543.457
1342.82	298.965
1347.06	546.32
1351.31	701.527
1355.55	462.129
1359.79	283.371
1364.02	743.16
1368.26	373.801
1372.49	567.469
1376.71	685.258
1380.94	212.848
1385.16	683.16
1389.38	368.746
1393.6	454.981
1397.81	539.625
1402.02	481.84
1406.23	359.008
1410.44	621.625
1414.64	462.316
1418.85	647.934
1423.04	440.894
1427.24	364.613
1431.43	443.125
1435.62	344.66
1439.81	224.816
1444	359.523
1448.18	40.2109
1452.36	764.922
1456.54	295.621
1460.71	559.481
1464.89	91.4258
1469.06	227.676
1473.22	334.262
1477.39	318.695
1481.55	191.715
1485.71	419.789
1489.86	361.109
1494.02	538.805
1498.17	99.3594
1502.32	229.711
1506.46	489.238
1510.61	292.555
1514.75	178.438
1518.88	583.394
1523.02	322.375
1527.15	32.5078
1531.28	614.465
1535.41	64.8906
1539.53	378.508
1543.66	434.383
1547.78	404.172
1551.89	229.203
1556.01	364.5
1560.12	401.363
1564.23	441.457
1568.33	5.04688
1572.43	0
