Measurement: Raman, 514 nm, depolarized, Raman Data Processed
Mineral: Braunite
Rruff sample: R050388
Ideal chemistry: Mn^2+^Mn^3+^_6_SiO_12_
Locality: Langban, Filipstad, Varmland, Sweden
Source: University of Arizona Mineral Museum
Description: Black crystals
Measured chemistry: (Mn^2+^_0.96_Mg_0.04_)_Î£=1_Mn^3+^_6.00_Si_1.00_O_12_
Pin_id: M00354
Orientation: Laser parallel to -c* (0 0 -1). Fiducial mark perpendicular to laser is parallel to a [1 0 0]
Raman shift (cm-1)	intensity
157.455	0
162.359	212.383
167.261	315.102
172.161	493.668
177.058	731.582
181.952	1604.27
186.845	2648.22
191.734	4795.91
196.622	6577.87
201.507	10008.6
206.389	10587.5
211.269	11385.7
216.147	9335.35
221.022	6533.19
225.895	4501.67
230.765	3003.08
235.633	2159.54
240.498	2217.46
245.361	2910.01
250.222	1607.39
255.08	862.848
259.936	1116.93
264.789	373.707
269.64	141.766
274.488	7.21094
279.334	149.047
284.178	247.59
289.019	226.707
293.857	9.85938
298.693	22.2734
303.527	152.871
308.358	263.66
313.187	480.023
318.013	325.902
322.837	1433.74
327.659	2083.79
332.478	1758.3
337.294	1232.98
342.108	907.938
346.92	421.496
351.729	377.738
356.535	267.848
361.34	510.691
366.141	434.434
370.94	741.012
375.737	609.695
380.531	408.719
385.323	420.578
390.113	254.66
394.9	615.715
399.684	330.816
404.466	464.953
409.245	790.156
414.022	420.07
418.797	747.57
423.569	844.074
428.338	694.031
433.105	497.621
437.87	492.953
442.632	886.391
447.391	618.883
452.149	701.59
456.903	388.406
461.655	636.453
466.405	1115.21
471.152	1445.41
475.897	1590.31
480.639	1665.54
485.378	1687.71
490.116	1433.53
494.85	1499.89
499.582	1993.82
504.312	2759.33
509.039	3697.68
513.764	3366.95
518.486	2790.24
523.206	1935.5
527.923	2115.64
532.638	1725.91
537.35	1577.39
542.059	1659.75
546.766	2146.17
551.471	1958.56
556.173	1963.36
560.873	2182.58
565.57	2278.26
570.264	2534.04
574.957	2121.23
579.646	1114.03
584.333	663.512
589.018	472.121
593.7	397.918
598.379	783.539
603.056	1588.4
607.73	2196.91
612.402	3636.36
617.072	4328.56
621.739	3788.47
626.403	2553.47
631.065	1767.42
635.724	1299.53
640.381	647.633
645.035	387.398
649.687	80.3008
654.336	512.633
658.983	689.762
663.627	1243.35
668.268	1264.6
672.907	2750.62
677.544	3008.36
682.178	4755.24
686.809	6223.85
691.438	6347.34
696.065	4345.45
700.688	2730.3
705.31	1689.23
709.929	1073.47
714.545	525.098
719.158	462.953
723.77	186.602
728.378	218.871
732.984	243.906
737.588	91.4727
742.189	156.894
746.787	6.28906
751.383	247.555
755.976	22.0078
760.567	324.68
765.155	198.359
769.741	45.2852
774.324	141.738
778.904	182.738
783.482	142.328
788.058	114.055
792.631	14.125
797.201	40.7109
801.769	239.117
806.334	131.562
810.897	157.902
815.457	480.398
820.014	164.25
824.569	807.992
829.122	257.047
833.671	131.039
838.219	171.906
842.763	86.5352
847.306	54.9102
851.845	36.0234
856.382	238.637
860.917	278.199
865.448	77.8398
869.978	493.109
874.505	126.102
879.029	149.949
883.55	588.988
888.069	398.348
892.586	211.707
897.1	443.625
901.611	349.449
906.12	479.871
910.626	447.312
915.129	167.75
919.63	560.012
924.129	418.445
928.625	653.43
933.118	790.023
937.609	1012.25
942.097	1080.05
946.582	1707.5
951.065	2287.89
955.546	2930.94
960.023	1956.59
964.499	1194.91
968.971	913.871
973.441	675.508
977.909	490.625
982.374	699.555
986.836	560.445
991.295	314.184
995.753	408.848
1000.21	881.746
1004.66	681.492
1009.11	693.254
1013.55	492.289
1018	646.562
1022.44	502.543
1026.88	455.559
1031.32	580.488
1035.75	700.363
1040.18	448.894
1044.61	673.016
1049.04	897.684
1053.46	933.016
1057.88	676.934
1062.3	673.691
1066.71	873.359
1071.13	854.43
1075.54	891.746
1079.94	588.379
1084.35	790.879
1088.75	862.59
1093.15	770.199
1097.55	951.949
1101.94	912.078
1106.34	879.059
1110.73	815.766
1115.11	681.578
1119.5	875.117
1123.88	436.879
1128.26	314.398
1132.63	638.25
1137.01	612.84
1141.38	345.004
1145.75	131.867
1150.12	382.234
1154.48	403.68
1158.84	283.746
1163.2	204.785
1167.55	548.352
1171.91	449.25
1176.26	122.66
1180.61	804.469
1184.95	99.6797
1189.29	211.262
1193.63	96.2148
1197.97	40.5898
1202.31	29.0938
1206.64	206.484
1210.97	57.9414
1215.29	209.664
1219.62	45.5508
1223.94	363.43
1228.26	223.488
1232.57	432.676
1236.89	128.129
1241.2	168.117
1245.51	30.5195
1249.81	363.34
1254.12	177.613
1258.42	378.266
1262.72	379.305
1267.01	116.469
1271.3	568.285
1275.59	75.0664
1279.88	69.543
1284.17	399.582
1288.45	173.953
1292.73	43.8555
1297.01	219.75
1301.28	540.488
1305.55	335.281
1309.82	338.981
1314.09	215.555
1318.35	325.633
1322.61	361.926
1326.87	280.383
1331.13	231.211
1335.38	355.035
1339.63	627.34
1343.88	434.332
1348.12	425.008
1352.37	396.887
1356.61	290.273
1360.85	412.824
1365.08	489.121
1369.31	445.133
1373.54	764.887
1377.77	543.383
1381.99	279.195
1386.22	491.894
1390.43	204.711
1394.65	473.973
1398.87	600.316
1403.08	412.773
1407.29	379.75
1411.49	528.594
1415.69	321.219
1419.89	273.57
1424.09	389.75
1428.29	232.106
1432.48	262.797
1436.67	402.297
1440.86	200.66
1445.04	339.973
1449.23	40.6445
1453.4	208.004
1457.58	431.254
1461.76	32.4727
1465.93	201.844
1470.1	343.812
1474.26	264.656
1478.43	290.004
1482.59	515.144
1486.75	200.977
1490.9	150.731
1495.06	345.254
1499.21	23.0586
1503.35	74.5391
1507.5	188.84
1511.64	142.945
1515.78	156.332
1519.92	395.828
1524.05	610.562
1528.18	636.844
1532.31	33.7109
1536.44	496.91
1540.56	259.875
1544.69	447.582
1548.8	200.523
1552.92	365.184
1557.03	532.969
1561.14	304.844
1565.25	206.426
1569.36	14.6172
