Measurement: Raman, 514 nm, depolarized, Raman Data Processed
Mineral: Braunite
Rruff sample: R050390
Ideal chemistry: Mn^2+^Mn^3+^_6_SiO_12_
Locality: Oehrenstock, Thuringia, Germany
Source: University of Arizona Mineral Museum
Description: Mass of black octahedra
Measured chemistry: (Mn^2+^_0.83_Ca_0.17_)_Î£=1_Mn^3+^_6.00_Si_1.00_O_12_
Pin_id: M00051
Orientation: Laser parallel to -a* (-1 0 0). Fiducial mark perpendicular to laser is parallel to -c [0 0 -1]
Raman shift (cm-1)	intensity
293.857	0
297.485	367.144
301.111	808.754
304.735	535.051
308.358	596.613
311.98	263.176
315.601	37.2891
319.22	41.5977
322.837	394.984
326.454	974.453
330.068	1531.82
333.682	2942.3
337.294	3613.59
340.905	3478.55
344.514	3491.21
348.122	2965.9
351.729	2567.79
355.334	2578.44
358.938	2412.59
362.54	2068.39
366.141	1831.89
369.741	1662.51
373.339	1412.91
376.936	1278.91
380.531	1016.21
384.126	1005.62
387.718	1004.24
391.31	769.019
394.9	756.965
398.488	296.016
402.075	16.9062
405.661	140.254
409.245	326.617
412.828	722.258
416.41	324.805
419.99	119.586
423.569	302.269
427.146	294.367
430.722	193.16
434.297	596.426
437.87	455.824
441.442	292.156
445.012	471.031
448.581	469.074
452.149	940.676
455.715	1252.89
459.28	1430.67
462.843	2053.86
466.405	2417.33
469.965	2882.61
473.525	3539.36
477.082	3975.61
480.639	4617.73
484.194	5420.77
487.747	5776.55
491.3	5935.62
494.85	6304.01
498.4	5757.54
501.948	5791.9
505.494	6263.47
509.039	6263.26
512.583	6708.67
516.125	7317.74
519.666	7931.25
523.206	8167.21
526.744	8018.53
530.281	7101.76
533.816	6574.77
537.35	5672.57
540.882	5035.19
544.413	4885.32
547.943	4674.23
551.471	4739.29
554.998	4475.15
558.523	4541.89
562.047	4916.58
565.57	4668.77
569.091	5204.98
572.611	4970.49
576.129	5094.75
579.646	4501.15
583.162	3641.67
586.676	3533.66
590.188	3295.14
593.7	3044
597.209	2939.66
600.718	3042.75
604.225	3659.48
607.73	4720.75
611.235	4601.69
614.737	5585.84
618.239	7236.43
621.739	7939.43
625.237	9121.82
628.734	9898.22
632.23	9967.34
635.724	9279.66
639.217	8681.5
642.708	8431.23
646.198	7518.39
649.687	5737.65
653.174	4847.86
656.66	4375.82
660.144	4015.77
663.627	4006.07
667.108	3809.32
670.588	3917.55
674.067	3730.93
677.544	3730.62
681.02	3613.3
684.494	3517.17
687.967	3507.49
691.438	3340.02
694.908	3416.78
698.377	3328.12
701.844	3166.66
705.31	3173.56
708.774	2818.54
712.237	2751.35
715.698	2236.02
719.158	1801.06
722.617	1579.11
726.074	1229.02
729.53	898.527
732.984	692.844
736.437	723.734
739.888	644.258
743.338	375.41
746.787	274.168
750.234	246.519
753.68	116.453
757.124	219.953
760.567	319.023
764.008	152.644
767.448	25.3516
770.887	23.8398
774.324	80.4688
777.759	122.969
781.194	177.328
784.626	152.242
788.058	144.184
791.488	149.32
794.916	216.383
798.343	120.488
801.769	80.3984
805.193	39.3086
808.616	224.519
812.037	40.1602
815.457	64.332
818.875	147.234
822.292	157.121
825.707	163.152
829.122	43.4336
832.534	51.125
835.945	109.793
839.355	117.481
842.763	72.8672
846.17	297.391
849.576	430.133
852.98	286.055
856.382	290.914
859.783	364.414
863.183	355.555
866.581	460.762
869.978	226.348
873.373	316.188
876.767	145.602
880.159	472.43
883.55	519.254
886.94	343.523
890.328	416.66
893.714	658.633
897.1	843.727
900.483	813.16
903.866	839.133
907.246	905.863
910.626	938.414
914.004	1056.52
917.38	1088.9
920.755	1245.85
924.129	1282.31
927.501	1335.17
930.872	2007.56
934.241	1666.55
937.609	1893.46
940.975	2602.8
944.34	2372.27
947.703	2550.91
951.065	2375.22
954.426	2399.05
957.785	2867
961.142	2697
964.499	2575.02
967.853	3071.93
971.207	2603.19
974.558	2539.89
977.909	2626.81
981.258	2594.87
984.605	2424.58
987.951	2394.6
991.295	2448.31
994.639	2525.36
997.98	2502.92
1001.32	2318.94
1004.66	2492.78
1008	2294.63
1011.33	2414.25
1014.67	2370.32
1018	2225.8
1021.33	2202.76
1024.66	2287.2
1027.99	1854.13
1031.32	2137.54
1034.64	2123.43
1037.97	2174.87
1041.29	2343.5
1044.61	2348.02
1047.93	2502.48
1051.25	2726.69
1054.56	2870.03
1057.88	3129.15
1061.19	3050.35
1064.51	3297.29
1067.82	3375.2
1071.13	3209.44
1074.43	3072.18
1077.74	3061.72
1081.05	2997.68
1084.35	2980.8
1087.65	2865.89
1090.95	2756.32
1094.25	2534.58
1097.55	2446.91
1100.85	2438.66
1104.14	2691.28
1107.43	2279.78
1110.73	2402.56
1114.02	2206.08
1117.31	2193.75
1120.59	2050.84
1123.88	1936.29
1127.16	1919.99
1130.45	1742.37
1133.73	1635.69
1137.01	1367.5
1140.29	1293.29
1143.57	1130.81
1146.84	1146.42
1150.12	1117.34
1153.39	874.82
1156.66	756.93
1159.93	507.164
1163.2	430.613
1166.46	477.539
1169.73	475.891
1172.99	552.352
1176.26	552.008
1179.52	193.848
1182.78	348.863
1186.04	408.269
1189.29	251.906
1192.55	286.633
1195.8	196.863
1199.05	135.125
1202.31	161.398
1205.55	29.0586
1208.8	135.707
1212.05	140.731
1215.29	54.6602
1218.54	46.4922
1221.78	51.4414
1225.02	8.01172
1228.26	10.7422
1231.5	64.6953
1234.73	1.94141
1237.97	131.324
1241.2	43.9062
1244.43	77.6875
1247.66	131.266
1250.89	163.883
1254.12	246.152
1257.34	26.3164
1260.57	25.0586
1263.79	49.3984
1267.01	299.242
1270.23	96.2383
1273.45	265.805
1276.67	120.785
1279.88	239.402
1283.1	219.074
1286.31	132.352
1289.52	231.789
1292.73	210.875
1295.94	217.703
1299.14	312.109
1302.35	247.738
1305.55	422.09
1308.75	456.512
1311.95	188.809
1315.15	220.859
1318.35	49.6445
1321.55	254.047
1324.74	376.152
1327.94	319.008
1331.13	501.598
1334.32	503.898
1337.51	379.957
1340.69	466.004
1343.88	550.293
1347.06	547.328
1350.25	496.535
1353.43	500.977
1356.61	380.656
1359.79	408.012
1362.96	626.691
1366.14	765.988
1369.31	327.422
1372.49	249.031
1375.66	529.922
1378.83	334.363
1381.99	412.426
1385.16	584.586
1388.33	748.785
1391.49	611.066
1394.65	627.656
1397.81	684.285
1400.97	541.102
1404.13	766.129
1407.29	1070.87
1410.44	370.324
1413.59	541.871
1416.74	397.844
1419.89	533.953
1423.04	680.164
1426.19	587.144
1429.34	411.887
1432.48	629.406
1435.62	481.41
1438.77	482.938
1441.9	552.504
1445.04	535.711
1448.18	635.34
1451.32	399.426
1454.45	487.602
1457.58	315.484
1460.71	333.594
1463.84	186.5
1466.97	264.602
1470.1	231.957
1473.22	305.031
1476.35	448.644
1479.47	895.41
1482.59	391.106
1485.71	447.352
1488.83	317.008
1491.94	111.277
1495.06	213.723
1498.17	11.1602
1501.28	184.527
1504.39	402.906
1507.5	62.3828
1510.61	58.2734
1513.71	96.5508
1516.82	259.113
1519.92	450.027
1523.02	3.19531
1526.12	11.1953
1529.22	163.918
1532.31	315.234
1535.41	108.242
1538.5	1.96484
1541.6	36.5977
1544.69	148.258
1547.78	172.301
1550.86	303.199
1553.95	69.9766
1557.03	168.82
1560.12	1.10156
1563.2	22.5469
1566.28	0.140625
1569.36	111.078
