Measurement: Raman, 514 nm, depolarized, Raman Data Processed
Mineral: Brazilianite
Rruff sample: R050126
Ideal chemistry: NaAl_3_(PO_4_)_2_(OH)_4_
Locality: Linopolis, Minas Gerais, Brazil
Source: Carlos and Paulo Vasconcelos
Description: Pair of greenish yellow elongated crystals
Measured chemistry: Na_1.00_Al_3.00_(P_1.00_O_4_)_2_((OH)_3.80_F_0.20_)_Î£=4_
Pin_id: L00438
Orientation: Laser parallel to -a* (-1 0 0). Fiducial mark perpendicular to laser is parallel to b [0 1 0]
Raman shift (cm-1)	intensity
135.776	0
139.958	43.417
144.138	677.199
148.315	1920.83
152.49	1657.94
156.663	661.309
160.834	750.495
165.002	2902.66
169.169	5245.98
173.333	5958.66
177.495	4683.31
181.654	1570.26
185.812	681.175
189.967	522.018
194.12	555.154
198.271	833.028
202.419	546.675
206.565	143.79
210.71	65.553
214.851	640.019
218.991	1772.46
223.129	2385.51
227.264	1278.93
231.397	893.999
235.528	1019.3
239.656	1656.01
243.783	2921.57
247.907	3425.18
252.029	4040.7
256.149	6280.65
260.267	2433.93
264.382	755.015
268.496	670.92
272.607	882.519
276.716	1079.53
280.823	979.955
284.927	354.818
289.03	411.155
293.13	673.993
297.228	1110.36
301.324	1117
305.418	799.752
309.509	836.973
313.599	1457.77
317.686	2003.56
321.771	1669.94
325.854	1099.66
329.934	324.684
334.013	56.091
338.089	319.743
342.164	497.481
346.236	458.299
350.306	199.008
354.373	188.706
358.439	801.114
362.503	994.379
366.564	325.586
370.623	265.787
374.68	406.271
378.735	306.936
382.788	347.133
386.838	201.974
390.887	122.498
394.933	257.573
398.977	689.916
403.02	1254.59
407.059	1539.12
411.097	1763.88
415.133	1868.17
419.167	1622.98
423.198	956.323
427.227	869.199
431.254	1533.6
435.28	3219.53
439.303	5961.98
443.323	7739.96
447.342	5708.45
451.359	4130.48
455.373	4744.02
459.386	5967.08
463.396	7837.65
467.404	9958.69
471.41	9680.15
475.414	6362.01
479.416	4530.26
483.416	4897.89
487.413	5979.9
491.409	6883.28
495.402	7709.49
499.394	10030.5
503.383	12885.7
507.37	13887.2
511.355	13917
515.338	13977.3
519.319	13653.9
523.298	12350.9
527.275	11838.5
531.25	12609.2
535.222	14126.7
539.193	13357.7
543.161	11582.6
547.128	9710.28
551.092	9883.18
555.054	12974
559.014	18877.9
562.972	21962.1
566.928	20677.2
570.882	18713.2
574.834	14590
578.784	10577.6
582.732	8165.75
586.677	7184.49
590.621	7263.77
594.563	8503.56
598.502	12193.8
602.44	17684.5
606.375	16985.6
610.308	12537.2
614.24	11109.2
618.169	10861.6
622.096	8524.33
626.021	6487.51
629.945	5721.05
633.866	5974.97
637.785	6029.24
641.702	4775.87
645.617	3134.84
649.53	2494.14
653.441	2214.82
657.35	2256.31
661.256	2191.16
665.161	2143.54
669.064	1642.23
672.965	1036.65
676.864	583.356
680.76	288.317
684.655	142.517
688.548	10.084
692.438	175.312
696.327	280.594
700.214	286.356
704.098	227.802
707.981	14.831
711.861	1.537
715.74	292.271
719.617	477.343
723.491	733.562
727.364	952.279
731.234	777.7
735.103	610.265
738.969	603.668
742.834	520.777
746.697	638.143
750.557	723.76
754.416	676.994
758.272	713.957
762.127	880.799
765.979	1072.51
769.83	1178.09
773.679	1078.52
777.525	875.802
781.37	693.07
785.213	604.872
789.053	687.649
792.892	707.246
796.729	956.656
800.563	1158.87
804.396	1335.89
808.227	1355.71
812.056	1245.32
815.883	947.708
819.708	777.846
823.531	684.064
827.352	561.322
831.17	552.642
834.988	438.678
838.803	309.429
842.616	226.064
846.427	150.985
850.236	51.221
854.043	45.144
857.849	26.839
861.652	155.176
865.453	138.719
869.253	195.187
873.05	61.818
876.846	3.459
880.639	13.943
884.431	66.156
888.22	35.02
892.008	15.292
895.794	109.078
899.578	97.146
903.36	44.979
907.14	108.619
910.918	140.083
914.694	268.378
918.468	442.507
922.24	548.476
926.011	612.291
929.779	783.956
933.546	983.483
937.31	1375.88
941.073	1747.15
944.833	2205.35
948.592	2579.52
952.349	3080.7
956.104	3571.85
959.857	4463.96
963.608	6078.11
967.357	8722.29
971.105	12444.5
974.85	15426.9
978.594	16459.2
982.335	17751.5
986.075	21873.9
989.812	24892.1
993.548	22118.9
997.282	16420.5
1001.01	13838.4
1004.74	13872.8
1008.47	15845.3
1012.2	21437.5
1015.92	30667.9
1019.65	37526
1023.37	35064.9
1027.09	29413.3
1030.8	24611.9
1034.52	22404.3
1038.23	21402
1041.94	20143.3
1045.65	17757.2
1049.36	14950.3
1053.06	12596
1056.77	11302.6
1060.47	10349.3
1064.17	9756.22
1067.87	8963.33
1071.56	7930.63
1075.26	7118.13
1078.95	6390.15
1082.64	5708.11
1086.33	4891.61
1090.02	3992.86
1093.7	3068.57
1097.38	2539.2
1101.07	2326.67
1104.74	2448.92
1108.42	3280.59
1112.1	4962.06
1115.77	7591.18
1119.44	7671.73
1123.11	5978.44
1126.78	5002.09
1130.45	4030.47
1134.11	3569.38
1137.78	3500.3
1141.44	4045.18
1145.1	5404.9
1148.75	6286.24
1152.41	4380.7
1156.06	2699.97
1159.71	1937.93
1163.36	1534.69
1167.01	1361
1170.66	1226
1174.3	967.996
1177.94	689.964
1181.58	531.406
1185.22	370.118
1188.86	326.959
1192.49	229.68
1196.13	197.733
1199.76	228.529
1203.39	247.943
1207.02	136.801
1210.64	103.92
1214.27	17.82
1217.89	66.654
1221.51	14.686
1225.13	44.507
1228.74	44.426
1232.36	32.213
1235.97	14.922
1239.58	73.571
1243.19	107.113
1246.8	62
1250.41	60.353
1254.01	71.125
1257.61	31.117
1261.21	28.407
1264.81	23.513
1268.41	18.274
1272.01	44.083
1275.6	87.728
1279.19	75.134
1282.78	2.977
1286.37	27.147
1289.95	34.219
1293.54	36.124
1297.12	56.21
1300.7	56.972
1304.28	46.354
1307.86	16.484
1311.43	3.227
1315.01	45.602
1318.58	95.978
1322.15	160.135
1325.72	112.078
1329.28	144.824
1332.85	135.29
1336.41	97.476
1339.97	143.375
1343.53	64.031
1347.09	132.412
1350.64	139.554
1354.2	166.542
1357.75	181.202
1361.3	187.635
1364.85	187.854
1368.4	163.792
1371.94	154.594
1375.48	143.147
1379.03	140.415
1382.57	110.079
1386.11	125.285
1389.64	112.748
1393.18	184.358
1396.71	174.951
1400.24	130.418
1403.77	136.031
1407.3	119.182
1410.82	44.052
1414.35	43.052
1417.87	10.186
1421.39	33.122
1424.91	48.671
1428.43	75.809
1431.94	109.187
1435.45	134.922
1438.97	156.386
1442.48	129.095
1445.98	73.323
1449.49	83.852
1453	12.832
1456.5	69.764
1460	52.402
1463.5	64.365
1467	62.25
1470.49	117.376
1473.99	86.806
1477.48	89.449
1480.97	80.986
1484.46	73.01
1487.95	111.248
1491.44	74.36
1494.92	78.008
1498.4	36.445
1501.88	32.8
1505.36	2.862
1508.84	27.485
1512.32	77.162
1515.79	131.426
