Measurement: Raman, 514 nm, depolarized, Raman Data Processed
Mineral: Brazilianite
Rruff sample: R050126
Ideal chemistry: NaAl_3_(PO_4_)_2_(OH)_4_
Locality: Linopolis, Minas Gerais, Brazil
Source: Carlos and Paulo Vasconcelos
Description: Pair of greenish yellow elongated crystals
Measured chemistry: Na_1.00_Al_3.00_(P_1.00_O_4_)_2_((OH)_3.80_F_0.20_)_Î£=4_
Pin_id: L00537
Orientation: Laser parallel to b* (0 1 0). Fiducial mark perpendicular to laser is parallel to c [0 0 1]
Raman shift (cm-1)	intensity
134.381	0
138.564	6.698
142.745	253.151
146.923	599.254
151.099	595.589
155.272	290.114
159.444	184.321
163.613	404.459
167.78	1497.48
171.945	6495.93
176.108	10648.8
180.268	2378.8
184.426	518.229
188.582	125.297
192.736	76.476
196.887	56.239
201.036	195.047
205.184	279.904
209.328	405.986
213.471	615.961
217.611	833.427
221.75	1320.58
225.886	682.463
230.019	758.639
234.151	1078.03
238.281	286.526
242.408	442.113
246.533	1168.71
250.656	1498.9
254.776	3520.09
258.895	1642.4
263.011	105.132
267.125	41.743
271.237	185.434
275.346	480.334
279.454	1011.44
283.559	985.536
287.662	803.331
291.763	443.32
295.862	72.513
299.959	73.054
304.053	100.286
308.146	192.396
312.236	939.041
316.324	1710.53
320.409	1476.73
324.493	1456.72
328.574	1265.34
332.654	826.084
336.731	709.669
340.806	664.222
344.879	615.691
348.949	701.083
353.018	1389.39
357.084	3113.32
361.148	4942.19
365.21	3061.91
369.27	1194.5
373.328	545.125
377.384	24.807
381.437	145.736
385.488	59.967
389.538	85
393.585	81.839
397.63	35.555
401.672	268.874
405.713	863.435
409.752	1674.13
413.788	2394.97
417.822	2659.95
421.854	2249.87
425.884	2140.22
429.912	1955.74
433.938	1842.06
437.962	2788.62
441.983	4476.37
446.003	3725.31
450.02	2099.46
454.035	1893.83
458.048	2320.73
462.059	2761.23
466.068	3586.74
470.075	4205.04
474.08	3211.24
478.082	1526.63
482.083	747.218
486.081	653.023
490.077	937.06
494.072	1368.32
498.064	2080.84
502.054	3013.67
506.041	3897.78
510.027	4101.1
514.011	4392.55
517.993	4480.18
521.972	4843.05
525.95	5698.1
529.925	6874.27
533.898	7898.6
537.869	7957.85
541.839	7282.57
545.806	6580.03
549.771	6018.65
553.734	6363.56
557.694	8877.22
561.653	12382.4
565.61	13867.7
569.565	13033.1
573.517	9818.73
577.468	6533.47
581.416	4818.32
585.362	4158.29
589.307	4119.57
593.249	5115.12
597.189	7745.92
601.127	11342.6
605.064	10410.3
608.998	6448.67
612.93	5214.28
616.86	5185.14
620.787	4439.12
624.713	3048.94
628.637	2509.48
632.559	2802.22
636.479	3521.44
640.396	3289.78
644.312	2325.52
648.226	1688.92
652.137	1623.71
656.047	1796.29
659.954	1935.25
663.86	1865.11
667.763	1448.13
671.665	1027.55
675.564	745.895
679.462	452.161
683.357	244.344
687.25	61.438
691.142	20.437
695.031	5.292
698.918	28.994
702.804	155.701
706.687	169.061
710.568	64.837
714.447	104.87
718.325	255.646
722.2	303.179
726.073	315.107
729.944	255.338
733.814	282.631
737.681	206.04
741.546	129.589
745.409	87.801
749.27	449.837
753.13	173.265
756.987	149.522
760.842	131.589
764.695	5.537
768.547	47.08
772.396	79.503
776.243	137.727
780.089	116.709
783.932	5.427
787.773	41.171
791.613	38.84
795.45	2.52
799.285	106.755
803.119	21.37
806.95	80.915
810.78	47.975
814.607	41.442
818.433	103.442
822.256	159.163
826.078	184.698
829.898	306.068
833.715	434.274
837.531	465.32
841.345	417.21
845.157	240.83
848.966	145.45
852.774	46.274
856.58	85.84
860.384	201.531
864.186	147.425
867.986	10.143
871.784	65.048
875.581	52.421
879.375	18.011
883.167	83.229
886.957	50.277
890.746	73.78
894.532	68.997
898.317	41.39
902.099	56.207
905.88	140.561
909.659	108.043
913.435	115.554
917.21	112.732
920.983	225.754
924.754	384.491
928.523	513.193
932.29	640.24
936.056	728.552
939.819	974
943.58	1441.44
947.34	2251.65
951.097	2848.72
954.853	3158.92
958.606	3251.01
962.358	3715.18
966.108	5067.98
969.856	7833.44
973.602	10737.3
977.346	10872.8
981.088	9738.52
984.828	10084.3
988.567	11900.3
992.303	11376.4
996.038	8592.74
999.77	7199.22
1003.5	6787.01
1007.23	7423.26
1010.96	10050.9
1014.68	15759.1
1018.4	23655.7
1022.13	26710.5
1025.85	22437.3
1029.56	17380.9
1033.28	14086.2
1036.99	12194.4
1040.7	11500
1044.41	10447.2
1048.12	8387.67
1051.83	6380.16
1055.53	4807
1059.24	3999.09
1062.94	4159.55
1066.63	4851
1070.33	5758.25
1074.03	5971.84
1077.72	5288.16
1081.41	4566.14
1085.1	3933.09
1088.79	3544.16
1092.47	3137.31
1096.16	2817.59
1099.84	2592.13
1103.52	2441.91
1107.2	2486.28
1110.87	3124.43
1114.55	4735.97
1118.22	5634.63
1121.89	4052.03
1125.56	2758.93
1129.23	1742.74
1132.89	1150.88
1136.56	804.237
1140.22	636.215
1143.88	540.635
1147.53	693.001
1151.19	632.713
1154.84	585.231
1158.5	490.342
1162.15	323.958
1165.8	215.422
1169.44	184.208
1173.09	152.351
1176.73	190.946
1180.37	210.41
1184.01	135.281
1187.65	112.057
1191.28	17.339
1194.92	91.226
1198.55	24.178
1202.18	12.46
1205.81	76.875
1209.43	85.538
1213.06	129.545
1216.68	79.415
1220.3	10.882
1223.92	31.791
1227.54	42.266
1231.15	11.551
1234.77	61.852
1238.38	122.352
1241.99	107.494
1245.6	69.263
1249.21	71.615
1252.81	28.315
1256.41	58.967
1260.01	16.671
1263.61	9.061
1267.21	47.715
1270.81	154.159
1274.4	117.388
1277.99	87.468
1281.58	26.196
1285.17	38.739
1288.76	21.805
1292.34	27.759
1295.93	54.846
1299.51	112.717
1303.09	126.436
1306.66	154.965
1310.24	108.292
1313.82	142.356
1317.39	45.142
1320.96	52.752
1324.53	13.194
1328.09	23.449
1331.66	92.696
1335.22	192.575
1338.79	199.866
1342.35	190.857
1345.9	151.329
1349.46	64.958
1353.01	37.242
1356.57	42.526
1360.12	72.089
1363.67	127.827
1367.21	159.161
1370.76	186.469
1374.3	179.298
1377.85	220.854
1381.39	159.806
1384.93	58.107
1388.46	7.594
1392	5.52
1395.53	41.309
1399.06	96.982
1402.59	109.725
1406.12	153.828
1409.65	217.179
1413.17	268.944
1416.69	140.267
1420.22	116.402
1423.74	70.456
1427.25	46.7
1430.77	5.319
1434.28	57.369
1437.8	83.652
1441.31	157.519
1444.82	259.568
1448.32	264.126
1451.83	284.923
1455.33	245.232
1458.83	243.293
1462.34	133.784
1465.83	75.626
1469.33	2.725
1472.83	66.184
1476.32	108.573
1479.81	110.084
1483.3	180.425
1486.79	236.232
1490.28	252.085
1493.76	243.418
1497.24	157.135
1500.72	139.373
1504.2	148.274
1507.68	56.2
1511.16	24.872
1514.63	0.477
