Measurement: Raman, 514 nm, depolarized, Raman Data Processed
Mineral: Brazilianite
Rruff sample: R050504
Ideal chemistry: NaAl_3_(PO_4_)_2_(OH)_4_
Locality: CÃ³rrego Frio, Minas Gerais, Brazil
Source: Marcus Origlieri
Description: Yellowish green fragment
Measured chemistry: Na_1.00_Al_3.00_(P_1.00_O_4_)_2_(OH)_4_
Pin_id: L00677
Orientation: Laser parallel to -c* (0 0 -1). Fiducial mark perpendicular to laser is parallel to a [1 0 0]
Raman shift (cm-1)	intensity
72.477	0
77.423	1569.96
82.367	7909.73
87.308	14273.6
92.246	8861.92
97.182	6593.34
102.116	14979.3
107.047	11808.4
111.976	4061.31
116.903	2389.87
121.827	7.47461
126.749	247.861
131.668	237.809
136.585	195.502
141.5	1594.01
146.412	3384.52
151.321	2060.61
156.229	2227.97
161.134	5695.56
166.036	11593.2
170.936	14682.3
175.834	7593.76
180.729	2124.63
185.622	1192.11
190.512	1793.04
195.4	2675.12
200.286	2900.81
205.169	2991.08
210.049	2998.92
214.928	2789.34
219.803	3742.15
224.677	2693.43
229.548	3720.51
234.416	2916.47
239.282	2777.14
244.146	2892.32
249.007	1012.29
253.866	662.623
258.722	310.194
263.576	140.684
268.427	1041.88
273.276	3319.79
278.123	6762.85
282.967	3221.9
287.809	791.789
292.648	2.44629
297.485	171.108
302.319	593.54
307.151	2143.34
311.98	5941.39
316.807	7119.97
321.631	5579.14
326.454	3438.19
331.273	1647.02
336.09	733.022
340.905	385.083
345.717	1090.27
350.527	3561.2
355.334	7821.86
360.139	7294.23
364.941	2606.35
369.741	452.515
374.538	388.816
379.333	164.758
384.126	102.615
388.916	45.7529
393.703	860.358
398.488	2861.31
403.271	5115.66
408.051	6161.19
412.828	5732.09
417.603	3927.02
422.376	2760.98
427.146	1830.35
431.914	939.169
436.679	794.354
441.442	383.17
446.202	305.2
450.96	111.541
455.715	633.713
460.467	821.679
465.218	954.433
469.965	763.96
474.711	1963.25
479.454	4190.29
484.194	6679.5
488.932	9523.54
493.667	14089.7
498.4	19392.5
503.13	22389
507.858	23228
512.583	23244.6
517.306	20939.5
522.026	20850.3
526.744	25016.6
531.459	28074.7
536.172	25320
540.882	18934.7
545.59	16147.7
550.295	19997.5
554.998	28681
559.698	32842.7
564.396	29326.9
569.091	23119.7
573.784	15191
578.474	12100.7
583.162	13621.7
587.847	19606.8
592.529	32658.3
597.209	49403.1
601.887	43767.1
606.562	24662.1
611.235	16223.4
615.905	13380
620.572	9957.24
625.237	7807.09
629.9	7973.38
634.56	8032.82
639.217	5762.31
643.872	4254.78
648.524	3827.16
653.174	4183.41
657.821	4504.82
662.466	3696.21
667.108	2357.94
671.748	1195.78
676.385	675.333
681.02	346.415
685.652	62.9228
690.281	127.796
694.908	241.866
699.533	151.263
704.155	67.4937
708.774	12.0356
713.391	57.773
718.005	16.2798
722.617	60.544
727.226	21.7173
731.833	114.265
736.437	468.882
741.039	651.612
745.638	1028.45
750.234	1406.83
754.828	1769.78
759.419	2315.68
764.008	2758.67
768.595	2803.12
773.178	2450.01
777.759	2253.87
782.338	2235.3
786.914	2692.27
791.488	3210.8
796.059	3914.87
800.627	4213.12
805.193	3844.6
809.756	3346.24
814.317	2605.4
818.875	2106.09
823.431	1658.16
827.984	1274.81
832.534	949.395
837.082	691.622
841.627	648.974
846.17	382.28
850.71	220.568
855.248	119.259
859.783	104.063
864.316	65.0933
868.846	13.2427
873.373	40.2588
877.898	81.9746
882.42	103.797
886.94	184.038
891.457	50.8838
895.971	132.566
900.483	20.8672
904.993	57.9482
909.5	141.221
914.004	263.082
918.505	439.589
923.004	741.792
927.501	1155.74
931.995	1664.47
936.486	2645.05
940.975	4167.59
945.461	6070.2
949.945	7585.9
954.426	7713.71
958.904	8070.73
963.38	9818.45
967.853	13588.9
972.324	18597.3
976.792	22203.1
981.258	29628.1
985.72	44861.3
990.181	45167.7
994.639	27381.1
999.094	18967.5
1003.55	17915.7
1008	22519.1
1012.44	34521
1016.89	48434.8
1021.33	46267.9
1025.77	34758.5
1030.21	26287.2
1034.64	22209
1039.07	20463.8
1043.5	18663.7
1047.93	16231.1
1052.35	15278.4
1056.78	15911.8
1061.19	16745.2
1065.61	15636.5
1070.02	14434.2
1074.43	13748.7
1078.84	13002.6
1083.25	11415.8
1087.65	9333.61
1092.05	6945.04
1096.45	5339.29
1100.85	4458.32
1105.24	4188.68
1109.63	5105.77
1114.02	7555.55
1118.4	8081.55
1122.78	6077.32
1127.16	5046.97
1131.54	3963.07
1135.92	3405.65
1140.29	3159.89
1144.66	2909.16
1149.02	2599.38
1153.39	1778.4
1157.75	1237.28
1162.11	1148.89
1166.46	887.173
1170.82	715.954
1175.17	438.585
1179.52	293.992
1183.86	175.691
1188.21	129.644
1192.55	85.8198
1196.89	29.1821
1201.22	92.312
1205.55	38.8975
1209.88	57.1519
1214.21	12.022
1218.54	9.02979
1222.86	90.9536
1227.18	181.927
1231.5	129.62
1235.81	21.2759
1240.12	21.6509
1244.43	65.2549
1248.74	51.1157
1253.04	35.4023
1257.34	62.9517
1261.64	44.2129
1265.94	62.6191
1270.23	32.1416
1274.52	36.3794
1278.81	165.797
1283.1	118.29
1287.38	132.261
1291.66	177.486
1295.94	195.464
1300.21	250.068
1304.48	281.224
1308.75	382.166
1313.02	340.918
1317.29	334.981
1321.55	388.418
1325.81	332.235
1330.06	332.545
1334.32	298.802
1338.57	275.344
1342.82	334.603
1347.06	267.853
1351.31	412.301
1355.55	359.522
1359.79	234.397
1364.02	246.406
1368.26	277.812
1372.49	93.8638
1376.71	205.445
1380.94	223.602
1385.16	132.768
1389.38	197.258
1393.6	153.286
1397.81	19.771
1402.02	68.2451
1406.23	72.7939
1410.44	66.6235
1414.64	218.733
1418.85	152.567
1423.04	171.125
1427.24	11.6118
1431.43	71.251
1435.62	174.227
1439.81	278.791
1444	402.725
1448.18	326.843
1452.36	362.962
1456.54	213.79
1460.71	310.203
1464.89	227.39
1469.06	99.5503
1473.22	168.629
1477.39	148.082
1481.55	208.668
1485.71	181.861
1489.86	76.1143
1494.02	97.7891
1498.17	97.5171
1502.32	62.1558
1506.46	10.6797
1510.61	114.007
1514.75	32.4717
1518.88	125.885
1523.02	42.2222
1527.15	59.4512
1531.28	156.583
1535.41	152.411
1539.53	6.75879
1543.66	6.61768
1547.78	55.1025
1551.89	83.6411
1556.01	57.7793
1560.12	64.8472
1564.23	81.5708
1568.33	34.9941
