Measurement: Raman, 514 nm, depolarized, Raman Data Processed
Mineral: Brazilianite
Rruff sample: R050504
Ideal chemistry: NaAl_3_(PO_4_)_2_(OH)_4_
Locality: CÃ³rrego Frio, Minas Gerais, Brazil
Source: Marcus Origlieri
Description: Yellowish green fragment
Measured chemistry: Na_1.00_Al_3.00_(P_1.00_O_4_)_2_(OH)_4_
Pin_id: L00567
Orientation: Laser parallel to (1 0 1). Fiducial mark perpendicular to laser is parallel to b [0 1 0]
Raman shift (cm-1)	intensity
83.602	0
88.542	908.365
93.48	930.156
98.416	1521.3
103.349	3176.12
108.28	3173.76
113.208	1379.53
118.134	827.537
123.058	20.6826
127.979	134.024
132.898	65.4678
137.814	613.554
142.728	1254.89
147.639	1371.89
152.549	1202.79
157.455	2127.93
162.359	5744.2
167.261	9970.91
172.161	11317
177.058	5757.08
181.952	1590.57
186.845	1009.83
191.734	1073.33
196.622	1495.15
201.507	1973.34
206.389	1966.93
211.269	2460.07
216.147	2532.11
221.022	2609.79
225.895	2579.06
230.765	2340.88
235.633	1793.75
240.498	1252.94
245.361	1666.69
250.222	1527.28
255.08	1246.22
259.936	570.383
264.789	754.872
269.64	1931.45
274.488	3056.26
279.334	3085.47
284.178	1240.77
289.019	1056.84
293.857	1179.65
298.693	1120.01
303.527	707.878
308.358	1323.26
313.187	1974.09
318.013	1531.28
322.837	548.882
327.659	60.9316
332.478	115.612
337.294	217.393
342.108	127.522
346.92	317.283
351.729	1400.57
356.535	1894.56
361.34	1238.52
366.141	712.924
370.94	662.025
375.737	340.829
380.531	102.709
385.323	352.488
390.113	272.489
394.9	205.988
399.684	751.619
404.466	1654.05
409.245	2017.49
414.022	2056.33
418.797	1537.4
423.569	1125.81
428.338	1203.75
433.105	1828.04
437.87	2143.24
442.632	1896.22
447.391	1371.08
452.149	1535.84
456.903	1877.4
461.655	2009.88
466.405	1966.03
471.152	1875.08
475.897	2814.85
480.639	4177.04
485.378	5328.9
490.116	7083.24
494.85	9713.77
499.582	12185.8
504.312	13198.4
509.039	13359.1
513.764	12874.5
518.486	12100.9
523.206	12397.1
527.923	13882.4
532.638	14442.9
537.35	12507.4
542.059	10221.7
546.766	10524.2
551.471	14658.7
556.173	19898.2
560.873	21399.1
565.57	18789.8
570.264	13917.4
574.957	9067.79
579.646	6944.16
584.333	6978.72
589.018	9896.9
593.7	16265.5
598.379	21195.7
603.056	18033.6
607.73	11892.8
612.402	9604.08
617.072	7887.49
621.739	5894.6
626.403	5419.04
631.065	5889.68
635.724	5852.89
640.381	3916.44
645.035	2640.27
649.687	2120.37
654.336	2038.7
658.983	2012.21
663.627	1420.92
668.268	752.395
672.907	274.248
677.544	211.875
682.178	21.5459
686.809	129.808
691.438	267.879
696.065	139.5
700.688	188.241
705.31	107.974
709.929	144.287
714.545	178.465
719.158	95.1094
723.77	188.774
728.378	221.148
732.984	153.567
737.588	108.129
742.189	296.228
746.787	510.154
751.383	484.028
755.976	715.624
760.567	1200.18
765.155	1227.8
769.741	1205.26
774.324	1195.04
778.904	849.944
783.482	962.149
788.058	1218.64
792.631	1520.41
797.201	2023.46
801.769	1844.77
806.334	1737.33
810.897	1555.12
815.457	1281.12
820.014	884.334
824.569	699.318
829.122	693.84
833.671	293.196
838.219	338.237
842.763	232.93
847.306	144.507
851.845	79.6856
856.382	84.418
860.917	86.9814
865.448	46.0283
869.978	113.402
874.505	7.60352
879.029	24.9902
883.55	170.989
888.069	26.5137
892.586	182.138
897.1	89.1553
901.611	98.0908
906.12	88.5889
910.626	98.7217
915.129	222.56
919.63	284.136
924.129	430.474
928.625	789.605
933.118	1148.55
937.609	1617.32
942.097	2329.03
946.582	3294.71
951.065	3589.53
955.546	4039.42
960.023	4487.45
964.499	6074.12
968.971	8996.7
973.441	11408.5
977.909	12882.1
982.374	16827.8
986.836	21601.5
991.295	18732.9
995.753	12613.2
1000.21	10896.5
1004.66	12567.2
1009.11	19174.6
1013.55	31003.4
1018	39168.1
1022.44	35579.8
1026.88	26643.5
1031.32	20888.7
1035.75	18370.6
1040.18	16693.7
1044.61	14584.7
1049.04	12339.4
1053.46	11042.7
1057.88	11125
1062.3	11102.4
1066.71	9740.31
1071.13	7747.61
1075.54	5963.86
1079.94	4558.57
1084.35	3350.33
1088.75	2344.2
1093.15	1368.38
1097.55	947.584
1101.94	769.617
1106.34	694.785
1110.73	825.627
1115.11	1111.2
1119.5	1358.92
1123.88	1445.27
1128.26	1416.23
1132.63	1496.8
1137.01	1618.86
1141.38	2165.27
1145.75	3032.68
1150.12	2375.35
1154.48	1670.13
1158.84	1233.83
1163.2	1070.01
1167.55	1186.47
1171.91	872.338
1176.26	622.098
1180.61	145.107
1184.95	191.375
1189.29	240.867
1193.63	33.9961
1197.97	8.05078
1202.31	75.0332
1206.64	47.9707
1210.97	215.824
1215.29	26.0391
1219.62	6.26758
1223.94	0.857422
1228.26	29.0898
1232.57	5.61523
1236.89	52.791
1241.2	196.049
1245.51	36.5488
1249.81	68.3906
1254.12	34.0898
1258.42	74.3223
1262.72	125.279
1267.01	9.58008
1271.3	32.5996
1275.59	335.232
1279.88	169.775
1284.17	133.012
1288.45	144.391
1292.73	261.879
1297.01	351.691
1301.28	366.934
1305.55	384.565
1309.82	274.385
1314.09	208.225
1318.35	306.879
1322.61	290.685
1326.87	207.127
1331.13	310.477
1335.38	301.088
1339.63	99.0644
1343.88	45.832
1348.12	197.332
1352.37	167.277
1356.61	79.0234
1360.85	215.838
1365.08	123.869
1369.31	126.707
1373.54	193.984
1377.77	272.144
1381.99	229.225
1386.22	225.769
1390.43	257.103
1394.65	56.8105
1398.87	260.848
1403.08	135.326
1407.29	104.1
1411.49	41.3965
1415.69	93.7324
1419.89	10.0547
1424.09	12.6094
1428.29	212.309
1432.48	164.228
1436.67	45.5645
1440.86	337.75
1445.04	494.815
1449.23	258.478
1453.4	326.758
1457.58	514.394
1461.76	258.949
1465.93	292.469
1470.1	460.723
1474.26	50.5215
1478.43	340.025
1482.59	314.467
1486.75	265.127
1490.9	149.441
1495.06	6.52734
1499.21	150.965
1503.35	58.3047
1507.5	96.7051
1511.64	71.0117
1515.78	101.859
1519.92	62.6094
1524.05	124.641
1528.18	149.578
1532.31	156.926
1536.44	115.836
1540.56	180.443
1544.69	145.059
1548.8	528.301
1552.92	371.492
1557.03	180.83
1561.14	214.99
1565.25	166.113
1569.36	0.669922
