Measurement: Raman, 514 nm, depolarized, Raman Data Processed
Mineral: Brazilianite
Rruff sample: R050126
Ideal chemistry: NaAl_3_(PO_4_)_2_(OH)_4_
Locality: Linopolis, Minas Gerais, Brazil
Source: Carlos and Paulo Vasconcelos
Description: Pair of greenish yellow elongated crystals
Measured chemistry: Na_1.00_Al_3.00_(P_1.00_O_4_)_2_((OH)_3.80_F_0.20_)_Î£=4_
Pin_id: L00391
Orientation: Laser parallel to c* (0 0 1). Fiducial mark perpendicular to laser is parallel to a [1 0 0]
Raman shift (cm-1)	intensity
134.381	0
138.564	24.3
142.745	456.251
146.923	1297.38
151.099	1577.71
155.272	719.92
159.444	766.942
163.613	2378.87
167.78	6040.53
171.945	10401.3
176.108	13856.9
180.268	4617.83
184.426	1314.31
188.582	717.733
192.736	542.374
196.887	815.091
201.036	1672.72
205.184	1860.24
209.328	2315.34
213.471	2548.08
217.611	2352.41
221.75	2959.29
225.886	2317.98
230.019	2604.57
234.151	3373
238.281	1880.8
242.408	1636.41
246.533	2072.61
250.656	1058.2
254.776	870.827
258.895	13.426
263.011	496.909
267.125	306.089
271.237	68.066
275.346	788.154
279.454	3005.59
283.559	2939.35
287.662	880.688
291.763	201.464
295.862	298.764
299.959	463.724
304.053	374.733
308.146	605.136
312.236	1224.7
316.324	2666.76
320.409	3389.87
324.493	3137.74
328.574	2283.26
332.654	930.302
336.731	166.328
340.806	155.591
344.879	121.46
348.949	57.215
353.018	857.378
357.084	2726.4
361.148	4794.88
365.21	3132.1
369.27	1067.38
373.328	506.61
377.384	302.979
381.437	433.58
385.488	477.611
389.538	393.06
393.585	428.758
397.63	866.614
401.672	1676.5
405.713	2979.91
409.752	4138.23
413.788	4213.61
417.822	3651.02
421.854	2833.94
425.884	2279.9
429.912	1705.71
433.938	1018.13
437.962	733.833
441.983	834.354
446.003	575.698
450.02	281.896
454.035	698.939
458.048	1326.81
462.059	1367.49
466.068	1460.99
470.075	1212.28
474.08	1409.31
478.082	1812.05
482.083	2764.5
486.081	3826.64
490.077	5337.46
494.072	7194.96
498.064	9603.13
502.054	12435.2
506.041	14609
510.027	15789
514.011	16579.9
517.993	15671.4
521.972	14243.6
525.95	14496.4
529.925	16190
533.898	17117
537.869	16763.2
541.839	14521.3
545.806	12436.7
549.771	11394.8
553.734	12617.5
557.694	17247.1
561.653	22310.8
565.61	21862
569.565	19447
573.517	15083.8
577.468	10837.5
581.416	8703.61
585.362	8387.44
589.307	9393.03
593.249	12429.7
597.189	20056.7
601.127	31734.1
605.064	32741.7
608.998	20799.6
612.93	13657.8
616.86	11196.1
620.787	9084.71
624.713	6303.48
628.637	4822.41
632.559	4735.5
636.479	5390.73
640.396	4848.07
644.312	3385.52
648.226	2248.05
652.137	1965.65
656.047	2125.3
659.954	2250.04
663.86	2106.01
667.763	1359.2
671.665	948.39
675.564	652.551
679.462	352.667
683.357	195.723
687.25	133.303
691.142	129.695
695.031	60.52
698.918	175.836
702.804	211.921
706.687	208.523
710.568	83.519
714.447	30.241
718.325	24.579
722.2	23.901
726.073	95.935
729.944	41.972
733.814	142.463
737.681	360.547
741.546	299.044
745.409	443.085
749.27	498.058
753.13	826.684
756.987	1135.89
760.842	1335.66
764.695	1465.99
768.547	1578.89
772.396	1643.33
776.243	1593.33
780.089	1431.86
783.932	1249.94
787.773	1202.55
791.613	1543.69
795.45	1800.36
799.285	2140.56
803.119	2180.29
806.95	2127.54
810.78	1955.33
814.607	1832.64
818.433	1553.48
822.256	1406.84
826.078	977.733
829.898	818.151
833.715	697.097
837.531	685.577
841.345	546.172
845.157	408.78
848.966	240.247
852.774	157.133
856.58	51.569
860.384	41.732
864.186	40.06
867.986	1.985
871.784	109.766
875.581	107.285
879.375	71.543
883.167	26.773
886.957	33.348
890.746	21.379
894.532	129.542
898.317	32.235
902.099	101.776
905.88	188.573
909.659	246.174
913.435	256.587
917.21	399.831
920.983	570.907
924.754	844.828
928.523	1108.61
932.29	1529.26
936.056	1756.81
939.819	2362.28
943.58	3418.66
947.34	4767.99
951.097	5882.28
954.853	6314.67
958.606	5928.15
962.358	6097.7
966.108	7014.32
969.856	8981.02
973.602	12077.9
977.346	14294.8
981.088	16441.7
984.828	20938.8
988.567	27536
992.303	28023.4
996.038	20831.1
999.77	15808.6
1003.5	14206.2
1007.23	14710.8
1010.96	18462.7
1014.68	26644.5
1018.4	37468.4
1022.13	39505.5
1025.85	32458.8
1029.56	24467.9
1033.28	19897.9
1036.99	17110.3
1040.7	16068
1044.41	15087
1048.12	13508.3
1051.83	12351.9
1055.53	11735.9
1059.24	12110.1
1062.94	12015
1066.63	11269.7
1070.33	9984.7
1074.03	9049.95
1077.72	8116.08
1081.41	7122.53
1085.1	5930.29
1088.79	4898.01
1092.47	3983.61
1096.16	3293.06
1099.84	2788.93
1103.52	2391.11
1107.2	2124.28
1110.87	2101.41
1114.55	2616.13
1118.22	3315.08
1121.89	3130.43
1125.56	2995.81
1129.23	2989.74
1132.89	2428.03
1136.56	2085.69
1140.22	1813.22
1143.88	1747.85
1147.53	1799.24
1151.19	1687.8
1154.84	1460.14
1158.5	1382.69
1162.15	1195.15
1165.8	1063.32
1169.44	900.339
1173.09	750.372
1176.73	646.677
1180.37	540.417
1184.01	410.732
1187.65	289.901
1191.28	220.5
1194.92	107.208
1198.55	122.979
1202.18	46.942
1205.81	102.986
1209.43	113.67
1213.06	157.181
1216.68	124.685
1220.3	88.246
1223.92	30.22
1227.54	36.643
1231.15	36.825
1234.77	35.218
1238.38	6.109
1241.99	45.061
1245.6	26.265
1249.21	19.444
1252.81	102.354
1256.41	74.728
1260.01	123.467
1263.61	79.837
1267.21	0.409
1270.81	52.854
1274.4	75.622
1277.99	59.982
1281.58	60.309
1285.17	10.656
1288.76	88.118
1292.34	15.765
1295.93	22.674
1299.51	24.186
1303.09	116.727
1306.66	117.793
1310.24	184.557
1313.82	155.029
1317.39	73.232
1320.96	83.171
1324.53	57.863
1328.09	19.304
1331.66	48.471
1335.22	135.997
1338.79	225.677
1342.35	260.051
1345.9	151.181
1349.46	152.081
1353.01	191.426
1356.57	55.871
1360.12	130.087
1363.67	310.129
1367.21	193.789
1370.76	200.575
1374.3	184.519
1377.85	253.179
1381.39	254.968
1384.93	219.493
1388.46	115.966
1392	64.626
1395.53	75.896
1399.06	116.118
1402.59	119.714
1406.12	113.935
1409.65	181.232
1413.17	183.261
1416.69	144.276
1420.22	161.492
1423.74	66.436
1427.25	63.924
1430.77	29.655
1434.28	32.757
1437.8	15.51
1441.31	57.236
1444.82	142.644
1448.32	188.375
1451.83	210.588
1455.33	208.73
1458.83	188.927
1462.34	126.947
1465.83	77.171
1469.33	43.645
1472.83	22.121
1476.32	16.86
1479.81	80.04
1483.3	117.881
1486.79	111.133
1490.28	238.15
1493.76	228.943
1497.24	129.03
1500.72	144.632
1504.2	137.791
1507.68	115.614
1511.16	49.092
1514.63	0.856
