Measurement: Raman, 514 nm, depolarized, Raman Data Processed
Mineral: Brazilianite
Rruff sample: R050319
Ideal chemistry: NaAl_3_(PO_4_)_2_(OH)_4_
Locality: Minas Gerais, Brazil
Source: American Museum of Natural History
Description: Pale green fragment
Measured chemistry: Na_1.00_Al_3.00_(PO_4_)_2_(OH)_4_
Pin_id: M00275
Orientation: Laser parallel to b* (0 1 0). Fiducial mark perpendicular to laser is parallel to c [0 0 1]
Raman shift (cm-1)	intensity
81.131	0
86.072	2371.72
91.012	2207.68
95.948	1599.67
100.883	3759.2
105.815	5614.46
110.744	1800.08
115.671	4100.09
120.596	941.422
125.519	119.133
130.439	177.958
135.356	181.853
140.271	321.077
145.184	950.743
150.094	847.638
155.002	591.408
159.908	1294.57
164.811	4941.03
169.711	12151.7
174.61	13187.4
179.505	3075.23
184.399	834.971
189.29	482.134
194.178	585.352
199.064	958.358
203.948	1034.11
208.829	1267.06
213.708	1472.77
218.585	2112.42
223.459	1562.02
228.33	1551.59
233.199	1346.15
238.066	1135.99
242.93	2459.35
247.792	3541.54
252.651	6195.58
257.508	2291.14
262.363	435.705
267.215	757.91
272.064	1319.79
276.912	1795.12
281.756	1606.19
286.598	1153.27
291.438	207.56
296.276	107.842
301.111	119.017
305.943	826.039
310.773	2397.77
315.601	2988.06
320.426	2491.91
325.248	2100.38
330.068	1482.57
334.886	1081.49
339.701	972.995
344.514	1533.3
349.324	2994.01
354.132	5835.3
358.938	7197.01
363.741	3367.53
368.541	988.852
373.339	122.019
378.135	279.502
382.928	440.815
387.718	357.017
392.506	283.328
397.292	220.34
402.075	1281.84
406.856	2784.39
411.634	4250.37
416.41	3892.65
421.183	3234.89
425.954	3232.28
430.722	3751.98
435.488	5687.86
440.251	6608.24
445.012	4214.91
449.77	3138.88
454.526	3715.86
459.28	4972.88
464.03	6726.92
468.779	5872.99
473.525	2733.09
478.268	1180.21
483.009	822.378
487.747	1444.59
492.483	2735.81
497.217	4682.02
501.948	6080.25
506.676	6740.53
511.402	7327.84
516.125	7849.93
520.846	8861.03
525.565	11091
530.281	13098.8
534.994	13277.8
539.705	11341.4
544.413	10053.9
549.119	11069.5
553.822	15803.4
558.523	21819
563.222	23611.4
567.917	20198.1
572.611	12822.2
577.302	8062.34
581.99	6559.42
586.676	7329.31
591.359	11258.9
596.04	16923
600.718	17545.8
605.394	11583.2
610.067	8923.04
614.737	7913.37
619.406	5777.36
624.071	4438.42
628.734	4653.22
633.395	5552.06
638.053	4799.7
642.708	3318.61
647.361	2556.26
652.012	2501.83
656.66	2796.83
661.305	2726.67
665.948	2077.01
670.588	1058.02
675.226	491.187
679.861	245.924
684.494	93.2363
689.124	2.44531
693.752	202.802
698.377	266.379
702.999	186.586
707.619	155.852
712.237	226.551
716.852	434.68
721.464	646.988
726.074	608.359
730.681	475.974
735.286	403.839
739.888	434.649
744.488	276.774
749.085	316.144
753.68	228.237
758.272	181.092
762.861	201.34
767.448	373.623
772.033	360.016
776.614	329.451
781.194	200.864
785.77	326.193
790.345	188.355
794.916	121.975
799.485	234.103
804.052	64.0693
808.616	189.492
813.177	145.269
817.736	160.475
822.292	114.862
826.846	99.9023
831.397	236.736
835.945	82.1367
840.491	23.4893
845.035	47.6484
849.576	6.70215
854.114	216.599
858.65	92.2227
863.183	41.3164
867.713	42.8018
872.241	35.6328
876.767	0.224609
881.29	77.624
885.81	0.114258
890.328	33.165
894.843	58.3262
899.356	57.6279
903.866	141.889
908.373	7.26856
912.878	281.888
917.38	350.103
921.88	520.487
926.377	588.659
930.872	913.537
935.364	1261.02
939.853	2070.8
944.34	2975.4
948.824	4009.46
953.306	4774.78
957.785	5359.95
962.261	7336.02
966.735	11839.9
971.207	17182.2
975.675	18700.6
980.141	17185.5
984.605	19485.2
989.066	20927.1
993.524	15147.2
997.98	10887.5
1002.43	10732.1
1006.88	14034.1
1011.33	22601.8
1015.78	36658
1020.22	43585.5
1024.66	36813.2
1029.1	28183.1
1033.53	22786.3
1037.97	20164.1
1042.4	17075.5
1046.82	13263.8
1051.25	9512.97
1055.67	7129.82
1060.09	6470.17
1064.51	7375.68
1068.92	8831.62
1073.33	8960.74
1077.74	8059.99
1082.15	7047.84
1086.55	6137.93
1090.95	4904.81
1095.35	3982.32
1099.75	3442.39
1104.14	3197.35
1108.53	4501.62
1112.92	7657.31
1117.31	9500.84
1121.69	6215.37
1126.07	3478.3
1130.45	1959.12
1134.82	1150.71
1139.19	787.863
1143.57	896.363
1147.93	661.269
1152.3	682.793
1156.66	565.028
1161.02	448.09
1165.38	325.521
1169.73	268.239
1174.08	147.228
1178.43	197.586
1182.78	133.819
1187.12	26.0537
1191.46	84.4482
1195.8	14.3057
1200.14	74.9824
1204.47	15.6816
1208.8	36.665
1213.13	70.2959
1217.46	21.6309
1221.78	100.695
1226.1	0.366211
1230.42	68.6123
1234.73	120.278
1239.04	192.481
1243.35	46.2627
1247.66	28.7676
1251.97	154.384
1256.27	59.5576
1260.57	79.7061
1264.86	22.1777
1269.16	32.8037
1273.45	55.0449
1277.74	136.832
1282.03	100.451
1286.31	170.57
1290.59	108.949
1294.87	206.143
1299.14	179.244
1303.42	322.523
1307.69	108.636
1311.95	131.05
1316.22	300.461
1320.48	173.764
1324.74	352.434
1329	405.215
1333.26	300.207
1337.51	349.449
1341.76	267.06
1346	309.937
1350.25	160.802
1354.49	168.439
1358.73	234.031
1362.96	242.022
1367.2	125.558
1371.43	210.791
1375.66	164.387
1379.88	145.892
1384.11	186.257
1388.33	182.927
1392.54	256.675
1396.76	74.8144
1400.97	203.188
1405.18	38.3935
1409.39	194.596
1413.59	122.386
1417.8	75.4463
1421.99	203.698
1426.19	109.718
1430.38	160.568
1434.58	40.6377
1438.77	251.863
1442.95	290.457
1447.13	21.7539
1451.32	256.466
1455.49	303.799
1459.67	41.2441
1463.84	176.445
1468.01	328.842
1472.18	298.353
1476.35	188.545
1480.51	24.6641
1484.67	159.093
1488.83	242.875
1492.98	85.1592
1497.13	135.264
1501.28	61.6084
1505.43	92.1103
1509.57	265.272
1513.71	145.668
1517.85	160.125
1521.99	43.4424
1526.12	136.411
1530.25	126.912
1534.38	57.1348
1538.5	273.752
1542.62	154.169
1546.74	72.3008
1550.86	139.839
1554.98	30.3975
1559.09	133.988
1563.2	8.83691
1567.31	53.1904
