Measurement: Raman, 514 nm, depolarized, Raman Data Processed
Mineral: Brazilianite
Rruff sample: R050126
Ideal chemistry: NaAl_3_(PO_4_)_2_(OH)_4_
Locality: Linopolis, Minas Gerais, Brazil
Source: Carlos and Paulo Vasconcelos
Description: Pair of greenish yellow elongated crystals
Measured chemistry: Na_1.00_Al_3.00_(P_1.00_O_4_)_2_((OH)_3.80_F_0.20_)_Î£=4_
Pin_id: L00364
Orientation: Laser parallel to (1 0 1). Fiducial mark perpendicular to laser is parallel to b [0 1 0]
Raman shift (cm-1)	intensity
134.381	0
138.564	33.51
142.745	492.448
146.923	1427.93
151.099	1437.12
155.272	731.862
159.444	829.811
163.613	2269.22
167.78	6053.71
171.945	12035.8
176.108	18030.1
180.268	5835.74
184.426	1478.23
188.582	773.458
192.736	480.932
196.887	597.835
201.036	1138.01
205.184	1639.59
209.328	2357.49
213.471	2431.09
217.611	2282.76
221.75	3029.39
225.886	2207.61
230.019	2428.94
234.151	3589.62
238.281	2141.28
242.408	1476.64
246.533	1882.81
250.656	1416.71
254.776	1334.71
258.895	371.74
263.011	62.748
267.125	225.823
271.237	485.023
275.346	1355.02
279.454	4485.81
283.559	4645.79
287.662	1308.2
291.763	528.497
295.862	1185.69
299.959	1613.49
304.053	942.969
308.146	710.65
312.236	1273.37
316.324	2414.28
320.409	2304.83
324.493	1389.65
328.574	920.502
332.654	20.16
336.731	552.758
340.806	567.964
344.879	225.787
348.949	269.003
353.018	356.649
357.084	1769.37
361.148	3279.24
365.21	2182.45
369.27	786.549
373.328	761.997
377.384	1117.84
381.437	1004.26
385.488	333.45
389.538	40.513
393.585	179.299
397.63	328.697
401.672	691.332
405.713	1690.64
409.752	2889.92
413.788	3270.03
417.822	2860.92
421.854	2285.63
425.884	2159.26
429.912	1828.37
433.938	1368.81
437.962	1453.84
441.983	2162.43
446.003	1816.6
450.02	1229.34
454.035	1221.64
458.048	1844.5
462.059	1992.9
466.068	1837.92
470.075	1276.52
474.08	1583.65
478.082	2543.26
482.083	4029.32
486.081	5163.83
490.077	6778.77
494.072	8794.11
498.064	11322.4
502.054	13871.2
506.041	15839.7
510.027	16703.8
514.011	17675.7
517.993	16653.7
521.972	14892.2
525.95	14851.1
529.925	16630.5
533.898	17832.2
537.869	17337.9
541.839	15061.2
545.806	13116.6
549.771	12301
553.734	13610.5
557.694	18752.9
561.653	25141.5
565.61	25342.7
569.565	23128.2
573.517	18108.5
577.468	12478.5
581.416	9748.45
585.362	8856.68
589.307	8648.92
593.249	10687.6
597.189	16726.6
601.127	27805.9
605.064	31315.4
608.998	20285.3
612.93	14035.3
616.86	12395.5
620.787	10585.9
624.713	7576.41
628.637	5857.09
632.559	6007.91
636.479	7088.84
640.396	6759.89
644.312	4871.03
648.226	2964.25
652.137	2494.55
656.047	2669.27
659.954	2826.95
663.86	2494.73
667.763	1576.34
671.665	1105.23
675.564	946.117
679.462	765
683.357	317.864
687.25	39.304
691.142	63.469
695.031	70.305
698.918	168.198
702.804	187.807
706.687	354.607
710.568	243.331
714.447	115.878
718.325	237.125
722.2	181.226
726.073	152.15
729.944	97.763
733.814	209.616
737.681	478.16
741.546	344.01
745.409	215.035
749.27	334.42
753.13	794.261
756.987	1192.85
760.842	1459.63
764.695	1386.58
768.547	1396.2
772.396	1517.48
776.243	1663.43
780.089	1561.04
783.932	1150.32
787.773	972.247
791.613	1426.84
795.45	1945.08
799.285	2421.99
803.119	2296.55
806.95	2105.77
810.78	1751.65
814.607	1763.19
818.433	1688.36
822.256	1421.15
826.078	950.575
829.898	582.622
833.715	609.298
837.531	794.607
841.345	856.78
845.157	603.946
848.966	272.234
852.774	48.4
856.58	181.578
860.384	347.741
864.186	396.007
867.986	139.375
871.784	202.877
875.581	310.852
879.375	3.381
883.167	247.554
886.957	166.841
890.746	35.507
894.532	223.899
898.317	188.231
902.099	93.229
905.88	291.402
909.659	279.434
913.435	162.237
917.21	135.96
920.983	179.671
924.754	704.334
928.523	1170
932.29	1503.71
936.056	1634.43
939.819	1917.2
943.58	2837.99
947.34	4178.94
951.097	5306.08
954.853	5913.33
958.606	5640.75
962.358	5718.3
966.108	6725.98
969.856	9123.88
973.602	12492
977.346	14730.2
981.088	16198.7
984.828	20017.4
988.567	26016.3
992.303	26775.5
996.038	20714.9
999.77	16762.4
1003.5	15972.1
1007.23	17081.7
1010.96	21910.6
1014.68	32015.8
1018.4	45074.1
1022.13	47905.5
1025.85	40247.2
1029.56	30914.4
1033.28	25048.4
1036.99	21378
1040.7	20128.3
1044.41	19173.7
1048.12	17129.9
1051.83	15588.5
1055.53	14485.6
1059.24	14654.3
1062.94	14699.8
1066.63	13582.1
1070.33	11841.3
1074.03	10022.1
1077.72	8289.78
1081.41	6589.97
1085.1	4994.39
1088.79	3700.16
1092.47	2923.69
1096.16	2285.66
1099.84	2117.78
1103.52	1881.76
1107.2	1563.37
1110.87	1319.63
1114.55	1433.41
1118.22	1937.76
1121.89	2109.24
1125.56	2500.83
1129.23	2504.77
1132.89	2159.96
1136.56	1933.79
1140.22	1696.03
1143.88	1800.18
1147.53	2516.86
1151.19	2552.86
1154.84	2277.84
1158.5	2089.79
1162.15	1929.95
1165.8	1417.64
1169.44	1243.81
1173.09	1048.56
1176.73	977.213
1180.37	973.421
1184.01	856.95
1187.65	724.935
1191.28	442.523
1194.92	29.04
1198.55	87.943
1202.18	28.438
1205.81	130.819
1209.43	340.501
1213.06	604.529
1216.68	544.985
1220.3	268.229
1223.92	22.908
1227.54	88.702
1231.15	93.462
1234.77	42.425
1238.38	315.352
1241.99	439.329
1245.6	400.722
1249.21	447.237
1252.81	95.746
1256.41	137.415
1260.01	169.824
1263.61	100.027
1267.21	170.042
1270.81	468.192
1274.4	640.596
1277.99	533.276
1281.58	322.502
1285.17	85.999
1288.76	164.112
1292.34	48.238
1295.93	89.292
1299.51	215.915
1303.09	628.074
1306.66	669.943
1310.24	718.004
1313.82	496.687
1317.39	272.929
1320.96	7.819
1324.53	53.813
1328.09	8.084
1331.66	197.556
1335.22	510.642
1338.79	757.02
1342.35	829.081
1345.9	796.876
1349.46	463.211
1353.01	232.342
1356.57	102.941
1360.12	125.212
1363.67	221.525
1367.21	526.246
1370.76	600.622
1374.3	506.789
1377.85	912.107
1381.39	719.057
1384.93	578.572
1388.46	284.257
1392	160.654
1395.53	13.426
1399.06	190.13
1402.59	410.166
1406.12	484.086
1409.65	853.469
1413.17	931.867
1416.69	735.336
1420.22	687.608
1423.74	403.706
1427.25	161.976
1430.77	62.021
1434.28	47.832
1437.8	187.483
1441.31	480.055
1444.82	786.572
1448.32	939.737
1451.83	1109.67
1455.33	925.159
1458.83	809.46
1462.34	565.549
1465.83	370.865
1469.33	175.938
1472.83	176.001
1476.32	137.664
1479.81	327.131
1483.3	528.605
1486.79	763.029
1490.28	908.576
1493.76	1079.69
1497.24	899.38
1500.72	670.683
1504.2	620.663
1507.68	451.575
1511.16	184.819
1514.63	1.956
