Measurement: Raman, 514 nm, depolarized, Raman Data Processed
Mineral: Brazilianite
Rruff sample: R050504
Ideal chemistry: NaAl_3_(PO_4_)_2_(OH)_4_
Locality: CÃ³rrego Frio, Minas Gerais, Brazil
Source: Marcus Origlieri
Description: Yellowish green fragment
Measured chemistry: Na_1.00_Al_3.00_(P_1.00_O_4_)_2_(OH)_4_
Pin_id: L00583
Orientation: Laser parallel to b* (0 1 0). Fiducial mark perpendicular to laser is parallel to c [0 0 1]
Raman shift (cm-1)	intensity
72.477	0
77.423	878.203
82.367	4168.43
87.308	6630.2
92.246	4748.11
97.182	4064.63
102.116	8187.25
107.047	5839.02
111.976	1597.15
116.903	891.972
121.827	86.3296
126.749	186.767
131.668	77.0054
136.585	41.1885
141.5	606.597
146.412	1721.56
151.321	1566.31
156.229	707.498
161.134	2394.24
166.036	7722.6
170.936	19333.7
175.834	11187.3
180.729	2399.87
185.622	941.656
190.512	749.096
195.4	946.687
200.286	1279.44
205.169	1603.31
210.049	1999.18
214.928	2252.08
219.803	2513.84
224.677	1798.06
229.548	2040.17
234.416	1265.56
239.282	1665.89
244.146	3514.72
249.007	5182.86
253.866	5906.32
258.722	1309.52
263.576	289.4
268.427	888.807
273.276	1502.29
278.123	1952.52
282.967	1769.03
287.809	858.918
292.648	35.6128
297.485	236.933
302.319	122.189
307.151	1485.82
311.98	3522.13
316.807	3380.15
321.631	2995.9
326.454	2283.45
331.273	1748.11
336.09	1483.89
340.905	1309.56
345.717	2271.19
350.527	4685.76
355.334	8273.28
360.139	7778.76
364.941	3226.23
369.741	966.94
374.538	126.268
379.333	303.77
384.126	317.945
388.916	344.606
393.703	111.61
398.488	763.883
403.271	2194.55
408.051	4084.72
412.828	5361.92
417.603	4321.81
422.376	3786.47
427.146	3716.64
431.914	4784.42
436.679	7440.8
441.442	7236.21
446.202	3853.14
450.96	3407.87
455.715	4263.89
460.467	6064.2
465.218	7506.79
469.965	5387.66
474.711	2156.82
479.454	838.288
484.194	956.061
488.932	1802.13
493.667	3561.49
498.4	5878.12
503.13	7391.02
507.858	7813.19
512.583	8429.62
517.306	9463.51
522.026	10924.9
526.744	13987.1
531.459	16345.1
536.172	15688.8
540.882	12972.3
545.59	11875.9
550.295	14451.6
554.998	21638.1
559.698	27591.1
564.396	28144.8
569.091	21607.8
573.784	13151.2
578.474	8710.69
583.162	7996.02
587.847	9824.22
592.529	15270.4
597.209	21897.2
601.887	19391.7
606.562	12306.9
611.235	10150.5
615.905	8707.65
620.572	6112.24
625.237	5017.23
629.9	5749.57
634.56	6647.22
639.217	4947.12
643.872	3319.02
648.524	2784.64
653.174	2928.96
657.821	3164.5
662.466	2916.96
667.108	1714.96
671.748	920.573
676.385	314.618
681.02	25.8955
685.652	62.6753
690.281	224.161
694.908	273.27
699.533	214.598
704.155	171.157
708.774	131.027
713.391	467.238
718.005	926.888
722.617	1049.83
727.226	999.102
731.833	725.881
736.437	674.02
741.039	697.878
745.638	666.98
750.234	592.676
754.828	518.26
759.419	538.711
764.008	557.013
768.595	549.148
773.178	492.103
777.759	423.866
782.338	280.402
786.914	225.675
791.488	206.63
796.059	129.171
800.627	183.152
805.193	82.4434
809.756	80.6953
814.317	95.0562
818.875	81.8179
823.431	79.8877
827.984	5.14209
832.534	1.14062
837.082	172.959
841.627	175.635
846.17	91.2129
850.71	43.7529
855.248	73.7627
859.783	109.892
864.316	37.0972
868.846	22.1997
873.373	19.9282
877.898	1.63623
882.42	31.1543
886.94	113.351
891.457	193.999
895.971	132.139
900.483	360.809
904.993	450.052
909.5	424.908
914.004	538.419
918.505	697.487
923.004	931.446
927.501	1094.97
931.995	1412.79
936.486	2067.93
940.975	3156.29
945.461	4469.98
949.945	5615.29
954.426	6191.33
958.904	7200.56
963.38	10312.6
967.853	16621.6
972.324	22609.4
976.792	21864
981.258	20982.2
985.72	24516.3
990.181	23991.6
994.639	15940.9
999.094	12434.4
1003.55	13530.7
1008	18804.4
1012.44	31977.6
1016.89	48546.6
1021.33	50670.6
1025.77	40208.5
1030.21	31136.4
1034.64	26178.1
1039.07	22990.8
1043.5	18778.5
1047.93	13943.1
1052.35	10130.8
1056.78	7868.93
1061.19	7783.58
1065.61	9295.93
1070.02	11120.1
1074.43	10851.6
1078.84	9432.92
1083.25	8699.5
1087.65	7366.9
1092.05	5998.88
1096.45	4791.19
1100.85	4413.01
1105.24	4749.61
1109.63	6748.74
1114.02	11125.8
1118.4	11257.6
1122.78	6691.81
1127.16	4039.63
1131.54	2351.77
1135.92	1656.55
1140.29	1151.05
1144.66	1169.11
1149.02	949.738
1153.39	743.041
1157.75	767.872
1162.11	654.219
1166.46	413.989
1170.82	417.421
1175.17	142.701
1179.52	196.562
1183.86	45.6973
1188.21	55.0352
1192.55	12.4995
1196.89	21.0288
1201.22	15.3062
1205.55	89.6006
1209.88	49.1797
1214.21	44.8569
1218.54	52.373
1222.86	39.8989
1227.18	163.397
1231.5	97.7109
1235.81	33.9038
1240.12	35.7822
1244.43	93.6938
1248.74	45.9839
1253.04	38.0908
1257.34	113.568
1261.64	122.008
1265.94	159.598
1270.23	179.73
1274.52	294.075
1278.81	352.15
1283.1	345.25
1287.38	311.634
1291.66	429.013
1295.94	426.435
1300.21	454.374
1304.48	481.627
1308.75	555.803
1313.02	508.613
1317.29	609.348
1321.55	502.842
1325.81	553.153
1330.06	485.988
1334.32	493.594
1338.57	352.025
1342.82	359.498
1347.06	306.354
1351.31	340.016
1355.55	275.787
1359.79	236.425
1364.02	267.882
1368.26	136.211
1372.49	132.78
1376.71	161.754
1380.94	66.7383
1385.16	112.215
1389.38	104.213
1393.6	16.7124
1397.81	60.6406
1402.02	36.0464
1406.23	74.1148
1410.44	114.072
1414.64	25.8115
1418.85	92.0977
1423.04	64.0142
1427.24	91.584
1431.43	65.9902
1435.62	276.107
1439.81	271.172
1444	216.299
1448.18	329.995
1452.36	325.929
1456.54	412.938
1460.71	325.82
1464.89	421.798
1469.06	343.022
1473.22	311.69
1477.39	406.994
1481.55	363.212
1485.71	407.084
1489.86	344.128
1494.02	301.844
1498.17	346.327
1502.32	276.989
1506.46	315.929
1510.61	260.543
1514.75	185.597
1518.88	168.932
1523.02	233.223
1527.15	203.753
1531.28	63.3213
1535.41	147.6
1539.53	127.127
1543.66	120.131
1547.78	95.228
1551.89	4.2915
1556.01	207.971
1560.12	165.197
1564.23	55.1352
1568.33	1.41406
