Measurement: Raman, 514 nm, depolarized, Raman Data Processed
Mineral: Brazilianite
Rruff sample: R050319
Ideal chemistry: NaAl_3_(PO_4_)_2_(OH)_4_
Locality: Minas Gerais, Brazil
Source: American Museum of Natural History
Description: Pale green fragment
Measured chemistry: Na_1.00_Al_3.00_(PO_4_)_2_(OH)_4_
Pin_id: M00315
Orientation: Laser parallel to c* (0 0 1). Fiducial mark perpendicular to laser is parallel to a [1 0 0]
Raman shift (cm-1)	intensity
81.131	0
86.072	2002.3
91.012	2774.34
95.948	2087.11
100.883	3912.25
105.815	7224.3
110.744	3704.86
115.671	3449.67
120.596	524.779
125.519	80.8779
130.439	183.583
135.356	17.1094
140.271	1014.51
145.184	2668.12
150.094	2563.39
155.002	1797.17
159.908	2915.03
164.811	5716.35
169.711	5265.93
174.61	4596.27
179.505	1825.7
184.399	1114.65
189.29	1275.56
194.178	1423.81
199.064	1389.44
203.948	930.476
208.829	1201.1
213.708	2468.76
218.585	3882.57
223.459	2836.38
228.33	2288.87
233.199	2485.26
238.066	2978.73
242.93	3936.09
247.792	3974.27
252.651	6859.73
257.508	2926.56
262.363	1416.98
267.215	1559.02
272.064	2293.66
276.912	2436.14
281.756	1175.32
286.598	1317.87
291.438	1780.34
296.276	2153.4
301.111	1231.81
305.943	1567.64
310.773	3187.87
315.601	3929.49
320.426	2037.52
325.248	695.034
330.068	35.9033
334.886	481.974
339.701	356.331
344.514	499.165
349.324	111.824
354.132	1410.38
358.938	2161.45
363.741	1013.87
368.541	463.305
373.339	288.793
378.135	162.318
382.928	291.618
387.718	213.163
392.506	266.026
397.292	1042.04
402.075	1925.07
406.856	2733.44
411.634	2787.86
416.41	2021.93
421.183	1117.78
425.954	1148.57
430.722	2961.59
435.488	6952.05
440.251	9867.61
445.012	6215.31
449.77	4721.15
454.526	5871.15
459.28	7629.35
464.03	9159.76
468.779	8497.41
473.525	5438.28
478.268	5167.33
483.009	6366.99
487.747	7712.17
492.483	9096.59
497.217	12105.7
501.948	14625.5
506.676	15545.9
511.402	15636
516.125	14433.9
520.846	13462.4
525.565	14648.7
530.281	17195.4
534.994	16957.5
539.705	14266.8
544.413	12059.9
549.119	13381.5
553.822	18537.1
558.523	24156.2
563.222	23878.4
567.917	20744.7
572.611	14369.6
577.302	10104.1
581.99	8836.88
586.676	8912.96
591.359	11799.5
596.04	17597.6
600.718	20709.3
605.394	14556.7
610.067	10568.7
614.737	9949.56
619.406	7634.94
624.071	5970.89
628.734	5725.96
633.395	6411.38
638.053	5229.7
642.708	3331.77
647.361	2934.46
652.012	3411.7
656.66	3990.43
661.305	3957.61
665.948	2917.48
670.588	1659.4
675.226	826.041
679.861	360.894
684.494	102.091
689.124	205.894
693.752	360.924
698.377	130.809
702.999	169.738
707.619	75.3008
712.237	222.003
716.852	380.861
721.464	670.13
726.074	661.543
730.681	438.01
735.286	448.001
739.888	578.707
744.488	732.141
749.085	684.115
753.68	1013.88
758.272	1093.11
762.861	1395.02
767.448	1446.96
772.033	1355.7
776.614	1382.78
781.194	1473.86
785.77	1489.3
790.345	1864.59
794.916	2001.7
799.485	2381.63
804.052	2344.35
808.616	2158.85
813.177	1878.1
817.736	1364.09
822.292	1170.91
826.846	880.607
831.397	500.712
835.945	378.676
840.491	248.086
845.035	170.535
849.576	88.9102
854.114	59.375
858.65	94.6172
863.183	49.6523
867.713	84.9375
872.241	13.2793
876.767	130.695
881.29	117.295
885.81	128.547
890.328	125.033
894.843	107.908
899.356	80.4961
903.866	44.9043
908.373	43.6289
912.878	204.51
917.38	311.256
921.88	385.525
926.377	508.842
930.872	765.75
935.364	1174.36
939.853	1692.69
944.34	2330.83
948.824	3009.83
953.306	3915.64
957.785	5017.32
962.261	7605.81
966.735	11777.8
971.207	17431.2
975.675	20373.6
980.141	22472.4
984.605	28995.2
989.066	32124.5
993.524	22530.9
997.98	15787.7
1002.43	14219.7
1006.88	16176.8
1011.33	22893.4
1015.78	34207.6
1020.22	39083.7
1024.66	33296
1029.1	26950.7
1033.53	23388.3
1037.97	21901.1
1042.4	19957.2
1046.82	16995.6
1051.25	13492.7
1055.67	11606.1
1060.09	10621.3
1064.51	9799.76
1068.92	9372.78
1073.33	9311.51
1077.74	8669.24
1082.15	7801.73
1086.55	6004.17
1090.95	4652.89
1095.35	3549.48
1099.75	3156.98
1104.14	3607.75
1108.53	5493.75
1112.92	9950.31
1117.31	13660.1
1121.69	10602.1
1126.07	8194.62
1130.45	6652.24
1134.82	5177.4
1139.19	5173.22
1143.57	7147.1
1147.93	9602.84
1152.3	6401.18
1156.66	3344.36
1161.02	2140.73
1165.38	1606.14
1169.73	1227.79
1174.08	760.096
1178.43	581.963
1182.78	360.217
1187.12	99.8125
1191.46	167.728
1195.8	76.0762
1200.14	122.219
1204.47	45.3359
1208.8	29.8945
1213.13	105.596
1217.46	67.2324
1221.78	115.248
1226.1	116.07
1230.42	40.6309
1234.73	132.76
1239.04	39.582
1243.35	119.537
1247.66	68.6016
1251.97	218.656
1256.27	21.7578
1260.57	69.6348
1264.86	50.6953
1269.16	95.6191
1273.45	266.449
1277.74	202.695
1282.03	78.0996
1286.31	310.875
1290.59	384.572
1294.87	81.6582
1299.14	354.273
1303.42	311.512
1307.69	305.369
1311.95	318.834
1316.22	242.08
1320.48	205.748
1324.74	319.981
1329	468.371
1333.26	310.881
1337.51	339.029
1341.76	345.391
1346	401.31
1350.25	303.213
1354.49	459.252
1358.73	190.006
1362.96	332.647
1367.2	166.891
1371.43	399.539
1375.66	301.49
1379.88	331.268
1384.11	406.168
1388.33	264.125
1392.54	268.055
1396.76	144.961
1400.97	307.504
1405.18	236.762
1409.39	7.0918
1413.59	156.156
1417.8	296.883
1421.99	159.305
1426.19	302.389
1430.38	188.947
1434.58	280.338
1438.77	181.717
1442.95	323.178
1447.13	335.791
1451.32	145.424
1455.49	220.459
1459.67	263.582
1463.84	9.69531
1468.01	234.756
1472.18	285.682
1476.35	106.33
1480.51	133.516
1484.67	45.4766
1488.83	290.795
1492.98	110.711
1497.13	148.432
1501.28	292.353
1505.43	306.182
1509.57	28.5
1513.71	76.0723
1517.85	122.186
1521.99	62.4219
1526.12	76.1231
1530.25	36.6133
1534.38	298.478
1538.5	311.922
1542.62	54.8418
1546.74	172.438
1550.86	182.764
1554.98	347.176
1559.09	56.9316
1563.2	142.025
1567.31	130.393
