Measurement: Raman, 514 nm, depolarized, Raman Data Processed
Mineral: Brazilianite
Rruff sample: R050504
Ideal chemistry: NaAl_3_(PO_4_)_2_(OH)_4_
Locality: CÃ³rrego Frio, Minas Gerais, Brazil
Source: Marcus Origlieri
Description: Yellowish green fragment
Measured chemistry: Na_1.00_Al_3.00_(P_1.00_O_4_)_2_(OH)_4_
Pin_id: L00856
Orientation: Laser parallel to -a* (-1 0 0). Fiducial mark perpendicular to laser is parallel to b [0 1 0]
Raman shift (cm-1)	intensity
82.367	0
87.308	2154.64
92.246	882.306
97.182	1130.27
102.116	3963.64
107.047	3584.74
111.976	2402.46
116.903	1342.11
121.827	110.3
126.749	7.45117
131.668	191.102
136.585	329.983
141.5	1476.26
146.412	2333.61
151.321	1555.37
156.229	1729.56
161.134	3825.37
166.036	6207.21
170.936	6840.4
175.834	3346.83
180.729	1429.1
185.622	1094.96
190.512	1390.03
195.4	1422.36
200.286	925.968
205.169	526.875
210.049	1371.16
214.928	2510.71
219.803	2594.36
224.677	1856.88
229.548	1722.63
234.416	2265.42
239.282	2990.67
244.146	3957.84
249.007	4907.14
253.866	3731.81
258.722	1325.55
263.576	821.839
268.427	1182.38
273.276	1426.94
278.123	1019.19
282.967	608.33
287.809	984.315
292.648	1628.98
297.485	1404.01
302.319	1029.26
307.151	1352.76
311.98	2090.56
316.807	1716.64
321.631	1030.04
326.454	246.799
331.273	284.143
336.09	339.649
340.905	432.522
345.717	192.777
350.527	386.396
355.334	1059.79
360.139	645.967
364.941	52.334
369.741	240.453
374.538	72.3574
379.333	69.1318
384.126	126.584
388.916	44.4648
393.703	443.948
398.488	924.144
403.271	1373.11
408.051	1666.26
412.828	1344.16
417.603	696.08
422.376	593.352
427.146	1573.49
431.914	4111.75
436.679	6791.8
441.442	5924.64
446.202	3591.28
450.96	4045.73
455.715	5822.01
460.467	7790.13
465.218	8117.11
469.965	5786.73
474.711	4062.19
479.454	4391.3
484.194	5400.42
488.932	6577.65
493.667	8731.67
498.4	11492.8
503.13	12784.1
507.858	13182.5
512.583	12922.4
517.306	11128.5
522.026	10894.9
526.744	12568.8
531.459	13228
536.172	11572.3
540.882	9395.74
545.59	8978.92
550.295	12384.3
554.998	18567.2
559.698	21258.6
564.396	19980.2
569.091	15013.3
573.784	9879.1
578.474	7341.18
583.162	6540.11
587.847	6986.89
592.529	10529.6
597.209	16359.3
601.887	16052.5
606.562	11326
611.235	10150.5
615.905	9267.86
620.572	6777.87
625.237	5835.72
629.9	6092.4
634.56	5681.52
639.217	3926.27
643.872	2533.57
648.524	2132.36
653.174	2204.6
657.821	2185.24
662.466	1807.25
667.108	1043.8
671.748	474.076
676.385	134.652
681.02	216.435
685.652	163.715
690.281	165.926
694.908	257.121
699.533	325.602
704.155	117.701
708.774	3.31055
713.391	303.883
718.005	591.213
722.617	541.404
727.226	501.893
731.833	640.834
736.437	387.5
741.039	470.93
745.638	572.025
750.234	475.723
754.828	737.084
759.419	888.777
764.008	1202.25
768.595	1296.14
773.178	1010.5
777.759	871.682
782.338	903.184
786.914	813.926
791.488	967.896
796.059	1351.09
800.627	1737.48
805.193	1533.07
809.756	1454.84
814.317	1129.78
818.875	954.889
823.431	662.455
827.984	612.809
832.534	474.94
837.082	393.162
841.627	141.234
846.17	139.949
850.71	192.383
855.248	189.705
859.783	169.725
864.316	5.74414
868.846	36.9629
873.373	72.4981
877.898	4.77148
882.42	21.3398
886.94	146.426
891.457	132.572
895.971	167.404
900.483	30.5293
904.993	114.34
909.5	3.60352
914.004	177.377
918.505	182.791
923.004	352.912
927.501	311.787
931.995	688.457
936.486	1015.94
940.975	1596.25
945.461	2063.74
949.945	2516.29
954.426	3305.95
958.904	4526.84
963.38	6834.77
967.853	10792
972.324	14737.6
976.792	14882.5
981.258	17520.1
985.72	23270.1
990.181	21004.2
994.639	14359.5
999.094	11171.7
1003.55	11728.9
1008	15906.7
1012.44	24684.6
1016.89	34228.5
1021.33	33393
1025.77	26332.7
1030.21	21308
1034.64	19339.2
1039.07	18297.1
1043.5	16261.8
1047.93	13083.4
1052.35	10759.1
1056.78	9522.45
1061.19	8679.97
1065.61	7844.1
1070.02	6984.33
1074.43	5998.73
1078.84	5500.14
1083.25	4273.2
1087.65	3219.82
1092.05	2199.61
1096.45	1562.32
1100.85	1632.66
1105.24	2180.31
1109.63	3813.43
1114.02	6457.68
1118.4	6170.01
1122.78	5138.41
1127.16	4102.59
1131.54	3098.07
1135.92	3011.08
1140.29	3521.77
1144.66	5482.03
1149.02	5388.3
1153.39	3024.73
1157.75	1735.39
1162.11	1328.98
1166.46	1174.34
1170.82	842.305
1175.17	554.695
1179.52	322.471
1183.86	157.545
1188.21	47.623
1192.55	22.0723
1196.89	168.643
1201.22	102.555
1205.55	140.465
1209.88	42.0117
1214.21	75.5273
1218.54	13.6211
1222.86	142.461
1227.18	77.9043
1231.5	43.5938
1235.81	9.30469
1240.12	16.3965
1244.43	55.8125
1248.74	138.205
1253.04	133.557
1257.34	175.93
1261.64	215.791
1265.94	10.6172
1270.23	195.861
1274.52	191.367
1278.81	221.978
1283.1	343.59
1287.38	114.221
1291.66	335.824
1295.94	391.975
1300.21	277.826
1304.48	232.225
1308.75	203.168
1313.02	444.775
1317.29	571.99
1321.55	336.971
1325.81	589.414
1330.06	296.697
1334.32	272.731
1338.57	329.973
1342.82	65.1113
1347.06	156.815
1351.31	277.922
1355.55	216.9
1359.79	163.225
1364.02	180.67
1368.26	262.893
1372.49	343.147
1376.71	218.656
1380.94	124.549
1385.16	161.107
1389.38	237.182
1393.6	167.09
1397.81	101.691
1402.02	80.1016
1406.23	33.457
1410.44	150.783
1414.64	109.709
1418.85	221.912
1423.04	326.143
1427.24	242.69
1431.43	225.449
1435.62	338.769
1439.81	458.877
1444	378.287
1448.18	504.445
1452.36	611.979
1456.54	560.178
1460.71	525.777
1464.89	478.223
1469.06	277.356
1473.22	227.457
1477.39	425.924
1481.55	429.984
1485.71	340.344
1489.86	98.3555
1494.02	158.914
1498.17	77.8418
1502.32	349.029
1506.46	14.3047
1510.61	324.312
1514.75	89.6699
1518.88	181.971
1523.02	288.662
1527.15	98.8027
1531.28	49.7266
1535.41	224.68
1539.53	227.969
1543.66	81.5684
1547.78	246.121
1551.89	216.139
1556.01	298.672
1560.12	264.914
1564.23	196.5
1568.33	311.244
