Measurement: Raman, 514 nm, depolarized, Raman Data Processed
Mineral: Brazilianite
Rruff sample: R050319
Ideal chemistry: NaAl_3_(PO_4_)_2_(OH)_4_
Locality: Minas Gerais, Brazil
Source: American Museum of Natural History
Description: Pale green fragment
Measured chemistry: Na_1.00_Al_3.00_(PO_4_)_2_(OH)_4_
Pin_id: M00183
Orientation: Laser parallel to a* (1 0 0). Fiducial mark perpendicular to laser is parallel to -b [0 -1 0]
Raman shift (cm-1)	intensity
86.072	0
91.012	81.9258
95.948	621.468
100.883	2374.13
105.815	3054.6
110.744	1995.98
115.671	1267.23
120.596	209.92
125.519	207.109
130.439	75.6514
135.356	341.121
140.271	2004.5
145.184	2566.98
150.094	1843.77
155.002	1664.36
159.908	3464.1
164.811	7066.9
169.711	8810.42
174.61	6833.86
179.505	2468.83
184.399	1310.6
189.29	1420.01
194.178	1602.21
199.064	1168.31
203.948	1189.37
208.829	1039.19
213.708	1929.43
218.585	2545.16
223.459	1956.36
228.33	1749.92
233.199	1954.01
238.066	2499.65
242.93	3425.19
247.792	4242.26
252.651	4268.75
257.508	2147.94
262.363	808.231
267.215	958.454
272.064	1351.38
276.912	1596.17
281.756	1088.49
286.598	1104.4
291.438	1508.88
296.276	1615.87
301.111	1134.17
305.943	1156.73
310.773	1506.6
315.601	1670.73
320.426	1115.13
325.248	234.294
330.068	41.8779
334.886	240.071
339.701	204.723
344.514	112.219
349.324	369.967
354.132	935.577
358.938	785.139
363.741	345.94
368.541	343.248
373.339	376.268
378.135	145.008
382.928	191.658
387.718	165.938
392.506	135.691
397.292	285.637
402.075	934.441
406.856	1322.63
411.634	1232.94
416.41	881.453
421.183	673.133
425.954	1238.06
430.722	3025.59
435.488	5116.22
440.251	5910.64
445.012	3942.88
449.77	3496.95
454.526	4824.84
459.28	6828.58
464.03	7845.18
468.779	6434.66
473.525	4429.89
478.268	4357.12
483.009	5203.43
487.747	6016.38
492.483	7861.93
497.217	10584.3
501.948	12044.8
506.676	12652.3
511.402	12527.2
516.125	11737.1
520.846	11156.1
525.565	11982.8
530.281	13073.8
534.994	11951.6
539.705	10482.1
544.413	9558.98
549.119	12496.9
553.822	17563.9
558.523	21530.5
563.222	21112.6
567.917	17367.1
572.611	12022
577.302	8780.38
581.99	7251.7
586.676	7332.95
591.359	10138
596.04	14766.9
600.718	16010.6
605.394	12540.6
610.067	11276
614.737	10503.8
619.406	7827.19
624.071	6207.71
628.734	6163.2
633.395	6219.71
638.053	4639.67
642.708	3121.01
647.361	2031.66
652.012	1883.59
656.66	1864.76
661.305	1525.13
665.948	949.756
670.588	515.273
675.226	263.631
679.861	64.9199
684.494	195.869
689.124	255.785
693.752	196.256
698.377	164.623
702.999	172.029
707.619	12.916
712.237	289.969
716.852	619.68
721.464	782.641
726.074	736.133
730.681	455.465
735.286	522.264
739.888	519.934
744.488	556.936
749.085	759.742
753.68	764.326
758.272	928.689
762.861	1251.46
767.448	967.936
772.033	874.389
776.614	750.369
781.194	764.729
785.77	817.412
790.345	1035.74
794.916	1023.14
799.485	1475.08
804.052	1375.85
808.616	1204.66
813.177	1108.5
817.736	842.154
822.292	862.539
826.846	543.979
831.397	282.078
835.945	386.019
840.491	237.897
845.035	64.0625
849.576	103.457
854.114	9.73047
858.65	102.994
863.183	58.6895
867.713	74.0234
872.241	41.4512
876.767	167.047
881.29	27.3359
885.81	276.762
890.328	56.4121
894.843	59.4707
899.356	84.2168
903.866	72.1074
908.373	59.5938
912.878	107.106
917.38	427.404
921.88	341.326
926.377	654.91
930.872	755.186
935.364	1074.18
939.853	1476.94
944.34	1837.52
948.824	2337.09
953.306	3070.85
957.785	4152.05
962.261	6160.83
966.735	9833.46
971.207	13339.7
975.675	14403.2
980.141	16087.8
984.605	20545.9
989.066	20346.5
993.524	14669.9
997.98	11233
1002.43	11516.3
1006.88	15098.2
1011.33	23259.4
1015.78	34532.4
1020.22	37131
1024.66	31150.2
1029.1	24980.5
1033.53	21843
1037.97	20359.5
1042.4	18139
1046.82	14924.1
1051.25	11868.9
1055.67	10351.3
1060.09	9661.64
1064.51	8414.35
1068.92	7513.12
1073.33	6692.15
1077.74	5304.97
1082.15	4311.36
1086.55	3148.1
1090.95	2151.67
1095.35	1359.58
1099.75	1415.61
1104.14	1617.54
1108.53	2196.06
1112.92	3873.79
1117.31	5145.3
1121.69	4595.6
1126.07	3861.57
1130.45	2870.63
1134.82	2602.87
1139.19	3192.88
1143.57	4513.93
1147.93	4944.91
1152.3	3367
1156.66	1857.98
1161.02	1312.48
1165.38	1176.95
1169.73	936.965
1174.08	672.422
1178.43	341.326
1182.78	76.0957
1187.12	68.7832
1191.46	93.7812
1195.8	10.0801
1200.14	11.4961
1204.47	8.46484
1208.8	83.5566
1213.13	12.2344
1217.46	94.4688
1221.78	30.998
1226.1	116.773
1230.42	97.5508
1234.73	30.7109
1239.04	61.3633
1243.35	48.5371
1247.66	6.29688
1251.97	146.223
1256.27	71.4356
1260.57	167.934
1264.86	27.9004
1269.16	181.824
1273.45	417.539
1277.74	21.9941
1282.03	309.223
1286.31	301.676
1290.59	343.568
1294.87	158.602
1299.14	374.469
1303.42	351.299
1307.69	85.8711
1311.95	151.234
1316.22	559.33
1320.48	412.935
1324.74	243.611
1329	290.652
1333.26	315.668
1337.51	279.457
1341.76	254.371
1346	336.836
1350.25	182.285
1354.49	252.213
1358.73	281.881
1362.96	380.402
1367.2	45.8281
1371.43	349.619
1375.66	405.719
1379.88	237.115
1384.11	292.766
1388.33	14.0586
1392.54	228.744
1396.76	67.5547
1400.97	9.53711
1405.18	21.8652
1409.39	124.269
1413.59	6.36328
1417.8	155.857
1421.99	155.803
1426.19	27.6895
1430.38	353.584
1434.58	191.203
1438.77	331.012
1442.95	360.168
1447.13	653.523
1451.32	398.178
1455.49	507.635
1459.67	475.856
1463.84	472.572
1468.01	340.871
1472.18	225.769
1476.35	433.697
1480.51	460.606
1484.67	331.772
1488.83	86.5371
1492.98	0.335938
1497.13	176.99
1501.28	452.086
1505.43	216.688
1509.57	290.162
1513.71	262.434
1517.85	244.76
1521.99	23.834
1526.12	222.406
1530.25	152.383
1534.38	118.106
1538.5	110.656
1542.62	352.844
1546.74	166.18
1550.86	330.977
1554.98	221.184
1559.09	133.359
1563.2	187.027
1567.31	67.9414
