Measurement: Raman, 514 nm, depolarized, Raman Data Processed
Mineral: Brazilianite
Rruff sample: R050319
Ideal chemistry: NaAl_3_(PO_4_)_2_(OH)_4_
Locality: Minas Gerais, Brazil
Source: American Museum of Natural History
Description: Pale green fragment
Measured chemistry: Na_1.00_Al_3.00_(PO_4_)_2_(OH)_4_
Pin_id: M00246
Orientation: Laser parallel to (1 0 1). Fiducial mark perpendicular to laser is parallel to b [0 1 0]
Raman shift (cm-1)	intensity
82.367	0
87.308	2163.31
92.246	969.073
97.182	1038.54
102.116	3272.36
107.047	3722.47
111.976	2047.83
116.903	1588.27
121.827	311.327
126.749	76.6455
131.668	106.645
136.585	83.6807
141.5	791.973
146.412	1540.12
151.321	1031.1
156.229	1604.76
161.134	3925.56
166.036	8570.21
170.936	14761.5
175.834	7643.25
180.729	1828.76
185.622	1108.81
190.512	1038.29
195.4	1422.44
200.286	2025.27
205.169	2331.8
210.049	2767.44
214.928	2413.2
219.803	2854.02
224.677	2685.85
229.548	3400.73
234.416	2471.68
239.282	1861.57
244.146	1884.4
249.007	1315.94
253.866	1103.04
258.722	381.255
263.576	413.96
268.427	1117.07
273.276	2585.06
278.123	4130.9
282.967	1696.09
287.809	752.389
292.648	1151.58
297.485	1278.37
302.319	881.676
307.151	1139.52
311.98	1818.93
316.807	2207.88
321.631	1457.41
326.454	449.548
331.273	243.678
336.09	437.228
340.905	375.603
345.717	8.51953
350.527	801.93
355.334	2191.73
360.139	2095.35
364.941	696.16
369.741	623.9
374.538	670.573
379.333	393.141
384.126	128.533
388.916	167.934
393.703	324.83
398.488	1107.04
403.271	1816.31
408.051	2349.83
412.828	2309.91
417.603	1710.75
422.376	1224.81
427.146	1194.29
431.914	753.84
436.679	979.293
441.442	1157.03
446.202	851.019
450.96	958.252
455.715	1197.85
460.467	897.613
465.218	642.406
469.965	817.115
474.711	2052.09
479.454	4440.7
484.194	4423.49
488.932	6297.23
493.667	8614.58
498.4	11827.1
503.13	13640.8
507.858	13755.5
512.583	13917.3
517.306	12781.2
522.026	12252.1
526.744	13503.3
531.459	14347.9
536.172	13147.2
540.882	10053.1
545.59	9301.06
550.295	11937.7
554.998	17305.9
559.698	20045.4
564.396	18806.6
569.091	14765.7
573.784	9776.74
578.474	7091.11
583.162	6779.02
587.847	8655.67
592.529	14096
597.209	23332.7
601.887	23542
606.562	15010.3
611.235	10863.4
615.905	8980.74
620.572	6456.19
625.237	5485.91
629.9	5660.01
634.56	5496.48
639.217	4193
643.872	2940.56
648.524	2450.11
653.174	2446.6
657.821	2147
662.466	1660.28
667.108	1115.42
671.748	545.672
676.385	289.986
681.02	118.027
685.652	78.7559
690.281	16.1113
694.908	157.447
699.533	144.779
704.155	185.973
708.774	166.676
713.391	9.44531
718.005	34.6582
722.617	7.16797
727.226	97.209
731.833	31.6562
736.437	30.6367
741.039	79.3809
745.638	361.221
750.234	560.994
754.828	883.279
759.419	1202.53
764.008	1645.49
768.595	1527.08
773.178	1473.74
777.759	1207.99
782.338	1069.32
786.914	1434.72
791.488	1812.19
796.059	2158.73
800.627	2161.34
805.193	1897.04
809.756	1673.81
814.317	1569.66
818.875	1186.6
823.431	1017.64
827.984	811.941
832.534	637.299
837.082	445.25
841.627	373.662
846.17	356.031
850.71	404.832
855.248	198.248
859.783	583.875
864.316	445.338
868.846	160.887
873.373	115.621
877.898	149.516
882.42	30.7871
886.94	272.588
891.457	68.459
895.971	59.9004
900.483	114.809
904.993	15.5605
909.5	14.7188
914.004	6.81055
918.505	180.742
923.004	240.551
927.501	465.272
931.995	778.941
936.486	1375.63
940.975	1929.35
945.461	3061.28
949.945	3801.45
954.426	4083.87
958.904	4030.69
963.38	4674.06
967.853	6766.29
972.324	9509.67
976.792	11143.3
981.258	14774.9
985.72	21077.7
990.181	21943.5
994.639	14365.8
999.094	11045.8
1003.55	11728.5
1008	14848.8
1012.44	24162.5
1016.89	35402.1
1021.33	35842.9
1025.77	27385.4
1030.21	20606.1
1034.64	17273.8
1039.07	15697
1043.5	14174.9
1047.93	12209.4
1052.35	11260.5
1056.78	11301.2
1061.19	11736.9
1065.61	10278.6
1070.02	8285.27
1074.43	6362.37
1078.84	5185.48
1083.25	4032.42
1087.65	2831.69
1092.05	1613.08
1096.45	1036.19
1100.85	589.748
1105.24	592.924
1109.63	877.637
1114.02	1148.17
1118.4	1455.54
1122.78	1713.99
1127.16	1492.96
1131.54	1560.29
1135.92	1336
1140.29	1489.12
1144.66	1578.77
1149.02	1792.11
1153.39	1262.43
1157.75	934.795
1162.11	1222.86
1166.46	1441.24
1170.82	1067.94
1175.17	851.723
1179.52	424.434
1183.86	64.0117
1188.21	13.2207
1192.55	6.68945
1196.89	40.7012
1201.22	14.7695
1205.55	32.1816
1209.88	34.8535
1214.21	164.33
1218.54	82.8984
1222.86	170.08
1227.18	11.8223
1231.5	187.576
1235.81	33.5879
1240.12	90.0078
1244.43	1.07031
1248.74	236.719
1253.04	187.305
1257.34	274.125
1261.64	180.566
1265.94	85.8223
1270.23	501.352
1274.52	304.363
1278.81	381.522
1283.1	254.166
1287.38	483.535
1291.66	245.059
1295.94	412.328
1300.21	374.359
1304.48	372.123
1308.75	566.684
1313.02	529.982
1317.29	703.725
1321.55	590.377
1325.81	335.107
1330.06	405.328
1334.32	248.975
1338.57	262.074
1342.82	190.984
1347.06	95.832
1351.31	193.209
1355.55	133.65
1359.79	96.4668
1364.02	38.6309
1368.26	33.6348
1372.49	101.674
1376.71	318.092
1380.94	2.41016
1385.16	184.635
1389.38	126.129
1393.6	51.3145
1397.81	165.322
1402.02	261.106
1406.23	190.719
1410.44	130.199
1414.64	149.533
1418.85	300.205
1423.04	238.195
1427.24	45.1133
1431.43	375.869
1435.62	481.518
1439.81	916.721
1444	959.211
1448.18	1248.08
1452.36	1493.69
1456.54	1299.72
1460.71	1239.06
1464.89	1020.35
1469.06	719.641
1473.22	611.736
1477.39	514.828
1481.55	650.889
1485.71	568.857
1489.86	224.65
1494.02	370.918
1498.17	101.67
1502.32	260.322
1506.46	101.705
1510.61	202.352
1514.75	225.43
1518.88	265.602
1523.02	335.797
1527.15	363.381
1531.28	308.256
1535.41	384.242
1539.53	253.76
1543.66	259.102
1547.78	218.459
1551.89	512.904
1556.01	107.135
1560.12	86.2109
1564.23	148.109
1568.33	122.625
