Measurement: Raman, 514 nm, depolarized, Raman Data Processed
Mineral: Brookite
Rruff sample: R050591
Ideal chemistry: Ti^4+^O_2_
Locality: Taftan, near Dalbandi, Baluchistan, Pakistan
Source: Wayne Thompson
Description: Yellowish-brown to reddish-brown thin tabular crystal
Measured chemistry: Ti_1.00_O_2_
Pin_id: M00274
Orientation: Laser parallel to b* (0 1 0). Fiducial mark perpendicular to laser is parallel to c [0 0 1]
Raman shift (cm-1)	intensity
51.431	0
56.387	70.164
61.341	38.6308
66.292	22.5973
71.241	36.246
76.187	231.406
81.131	594.568
86.072	782.862
91.012	1084.68
95.948	1309.41
100.883	1710.33
105.815	2223.39
110.744	3196.76
115.671	6137.19
120.596	10565.5
125.519	13083
130.439	12170.7
135.356	15399.1
140.271	30263.4
145.184	54582.6
150.094	59092.8
155.002	34608
159.908	16059.1
164.811	7947.29
169.711	4495.61
174.61	1799.52
179.505	810.327
184.399	562.246
189.29	518.286
194.178	210.432
199.064	197.837
203.948	1406.91
208.829	2700.96
213.708	1376.69
218.585	164.592
223.459	126.421
228.33	260.717
233.199	2052.86
238.066	7362.19
242.93	9772.84
247.792	4405.06
252.651	1597.75
257.508	731.851
262.363	660.281
267.215	1185.96
272.064	2384.82
276.912	4432.46
281.756	5749.72
286.598	4452.71
291.438	2971.16
296.276	2495.33
301.111	3038.26
305.943	4812.08
310.773	7511.77
315.601	8791.28
320.426	8025.49
325.248	6237.35
330.068	3340.85
334.886	1470.98
339.701	520.725
344.514	78.001
349.324	19.6301
354.132	440.484
358.938	1366.63
363.741	1778.76
368.541	922.703
373.339	341.115
378.135	71.8731
382.928	111.444
387.718	270.809
392.506	488.967
397.292	879.904
402.075	1387.61
406.856	1600.06
411.634	1250.26
416.41	556.186
421.183	77.1785
425.954	307.991
430.722	357.933
435.488	102.131
440.251	447.178
445.012	1118.22
449.77	1271.01
454.526	1059.59
459.28	832.006
464.03	544.262
468.779	275.315
473.525	275.119
478.268	727.665
483.009	1590.97
487.747	2260.03
492.483	2758.55
497.217	3104.14
501.948	2396.62
506.676	1484.61
511.402	1166.52
516.125	1358.24
520.846	1915.71
525.565	3143.57
530.281	4777.54
534.994	6731.25
539.705	8095.71
544.413	8233.9
549.119	7008.84
553.822	5453.5
558.523	4074.9
563.222	3161.56
567.917	2577.58
572.611	2358.44
577.302	2292.2
581.99	2249.59
586.676	2096.67
591.359	2109.64
596.04	2254.68
600.718	2697.41
605.394	3403.4
610.067	4155.53
614.737	5337.36
619.406	6489.34
624.071	8303.09
628.734	9286.24
633.395	9885.43
638.053	9550.74
642.708	7928.73
647.361	6440.64
652.012	4702.35
656.66	3473.85
661.305	2639.48
665.948	1968.04
670.588	1481.72
675.226	1086.09
679.861	814.142
684.494	610.858
689.124	441.214
693.752	387.188
698.377	197.75
702.999	128.95
707.619	90.8672
712.237	7.95142
716.852	7.65356
721.464	29.2956
726.074	68.0977
730.681	27.1272
735.286	79.2949
739.888	43.2141
744.488	48.3088
749.085	5.18481
753.68	30.5513
758.272	59.9961
762.861	78.3435
767.448	156.723
772.033	74.2412
776.614	130.553
781.194	83.1384
785.77	121.075
790.345	100.513
794.916	141.797
799.485	140.399
804.052	99.8652
808.616	149.78
813.177	116.469
817.736	122.728
822.292	125.434
826.846	138.835
831.397	127.49
835.945	101.422
840.491	92.0465
845.035	81.6842
849.576	112.024
854.114	63.6569
858.65	44.1998
863.183	9.60962
867.713	42.9369
872.241	15.0447
876.767	16.6638
881.29	9.05469
885.81	19.8395
890.328	19.3506
894.843	29.7255
899.356	34.3265
903.866	0.67627
908.373	48.3944
912.878	53.624
917.38	107.899
921.88	85.6338
926.377	154.798
930.872	152.213
935.364	138.708
939.853	179.268
944.34	156.143
948.824	166.073
953.306	171.638
957.785	172.647
962.261	184.892
966.735	238.453
971.207	175.171
975.675	209.695
980.141	195.408
984.605	226.657
989.066	238.218
993.524	221.099
997.98	184.155
1002.43	445.855
1006.88	233.755
1011.33	240.756
1015.78	212.654
1020.22	184.128
1024.66	169.295
1029.1	145.554
1033.53	160.37
1037.97	129.827
1042.4	119.399
1046.82	126.87
1051.25	110.608
1055.67	94.3035
1060.09	90.0864
1064.51	85.2949
1068.92	102.21
1073.33	90.939
1077.74	120.947
1082.15	76.7792
1086.55	77.613
1090.95	65.9707
1095.35	66.7345
1099.75	53.8005
1104.14	24.1726
1108.53	75.3591
1112.92	54.1889
1117.31	76.5915
1121.69	71.5666
1126.07	79.8534
1130.45	30.782
1134.82	16.4796
1139.19	40.4672
1143.57	20.8875
1147.93	17.2919
1152.3	38.608
1156.66	37.0311
1161.02	29.7779
1165.38	28.4708
1169.73	29.2345
1174.08	10.2912
1178.43	15.1175
1182.78	16.9337
1187.12	5.50256
1191.46	20.9003
1195.8	23.2833
1200.14	8.9408
1204.47	9.63184
1208.8	25.4257
1213.13	4.88489
1217.46	0.587036
1221.78	33.8118
1226.1	3.88898
1230.42	12.3279
1234.73	10.5481
1239.04	15.7051
1243.35	22.2182
1247.66	11.5323
1251.97	4.28009
1256.27	21.929
1260.57	10.813
1264.86	25.6954
1269.16	3.19739
1273.45	13.2289
1277.74	25.0458
1282.03	11.8806
1286.31	7.19721
1290.59	20.1729
1294.87	29.8213
1299.14	7.4137
1303.42	47.1215
1307.69	28.4755
1311.95	25.0488
1316.22	27.946
1320.48	23.4204
1324.74	29.398
1329	19.0213
1333.26	28.0783
1337.51	27.3254
1341.76	46.2562
1346	30.1002
1350.25	29.414
1354.49	37.1266
1358.73	18.9786
1362.96	41.593
1367.2	43.7483
1371.43	42.6597
1375.66	14.5575
1379.88	31.0847
1384.11	30.7929
1388.33	27.2346
1392.54	11.4479
1396.76	6.1593
1400.97	22.1472
1405.18	13.5018
1409.39	12.7393
1413.59	0.160645
1417.8	8.97199
1421.99	22.8748
1426.19	18.4638
1430.38	8.17584
1434.58	5.87439
1438.77	27.2319
1442.95	7.65167
1447.13	22.9017
1451.32	21.8607
1455.49	15.6067
1459.67	0.313416
1463.84	20.9788
1468.01	16.5084
1472.18	32.0751
1476.35	17.6203
1480.51	23.1781
1484.67	42.7942
1488.83	33.2336
1492.98	33.4755
1497.13	21.2675
1501.28	46.0809
1505.43	51.7335
1509.57	20.829
1513.71	41.4522
1517.85	39.9476
1521.99	35.5094
1526.12	59.9499
1530.25	33.9451
1534.38	18.3607
1538.5	25.1276
1542.62	37.1537
1546.74	32.5312
1550.86	53.5663
1554.98	29.7381
1559.09	41.9443
1563.2	18.9989
1567.31	7.61353
