Measurement: Raman, 514 nm, depolarized, Raman Data Processed
Mineral: Brookite
Rruff sample: R050363
Ideal chemistry: Ti^4+^O_2_
Locality: Magnet Cove, Arkansas, USA
Source: University of Arizona Mineral Museum
Description: Black fragment of a prismatic crystal associated with quartz
Measured chemistry: (Ti_0.94_Nb^5+^_0.03_Fe^3+^_0.03_)_Î£=1_O_2_
Pin_id: L00226
Orientation: Laser parallel to -a* (-1 0 0). Fiducial mark perpendicular to laser is parallel to b [0 1 0]
Raman shift (cm-1)	intensity
51.431	0
56.387	134.418
61.341	63.2806
66.292	52.3303
71.241	660.117
76.187	1009.96
81.131	1364.13
86.072	2036.59
91.012	2979.96
95.948	3745.34
100.883	4812.48
105.815	6325.51
110.744	8943.07
115.671	11081.5
120.596	16578
125.519	20724.7
130.439	20826.4
135.356	22802.5
140.271	29775.8
145.184	44270.3
150.094	58035
155.002	49738.9
159.908	28401.1
164.811	15657.4
169.711	9453.85
174.61	6193.77
179.505	4448.15
184.399	4019.58
189.29	4724.52
194.178	4403.19
199.064	2984.14
203.948	2995.59
208.829	3164.2
213.708	1852.17
218.585	715.565
223.459	290.566
228.33	396.228
233.199	1164.67
238.066	3615.91
242.93	9918.65
247.792	11505.6
252.651	6567.67
257.508	3865.52
262.363	2938.04
267.215	2362.03
272.064	2255.35
276.912	2370.87
281.756	2166.6
286.598	2016.45
291.438	2123.39
296.276	3218.87
301.111	5071.58
305.943	7733.36
310.773	10795.8
315.601	12034
320.426	10315.6
325.248	7077.37
330.068	4261.02
334.886	2509.79
339.701	1226.62
344.514	626.543
349.324	227.148
354.132	104.648
358.938	40.0635
363.741	107.794
368.541	127.369
373.339	45.0493
378.135	62.1807
382.928	387.681
387.718	626.454
392.506	1075.18
397.292	1798.62
402.075	2406.93
406.856	2838.33
411.634	2636.78
416.41	1945.27
421.183	1119.74
425.954	383.185
430.722	93.4839
435.488	241.253
440.251	311.331
445.012	232.39
449.77	98.8955
454.526	40.1343
459.28	33.4668
464.03	89.2681
468.779	145.731
473.525	472.976
478.268	705.025
483.009	1215.89
487.747	2018.56
492.483	2660.04
497.217	2718.82
501.948	2349.48
506.676	1436.82
511.402	861.454
516.125	519.131
520.846	503.325
525.565	580.195
530.281	737.846
534.994	1086.26
539.705	1241.44
544.413	1219.37
549.119	1044.05
553.822	834.482
558.523	562.657
563.222	383.574
567.917	296.229
572.611	336.046
577.302	509.736
581.99	477.947
586.676	799.817
591.359	1034.33
596.04	1613.64
600.718	2363.56
605.394	3022.81
610.067	4067.07
614.737	5390.43
619.406	6584.05
624.071	8100.17
628.734	9487.48
633.395	10503.9
638.053	10602.6
642.708	10249.7
647.361	9055.09
652.012	7627.88
656.66	6379
661.305	5055.35
665.948	3790.75
670.588	3088.13
675.226	2357.49
679.861	1872.83
684.494	1501.09
689.124	1122.25
693.752	902.298
698.377	730.202
702.999	623.937
707.619	411.477
712.237	436.863
716.852	282.652
721.464	158.356
726.074	179.158
730.681	76.6006
735.286	86.3057
739.888	46.8921
744.488	52.3687
749.085	30.2764
753.68	95.707
758.272	48.5454
762.861	102.521
767.448	49.4785
772.033	118.69
776.614	124.581
781.194	115.264
785.77	159.949
790.345	79.6841
794.916	158.642
799.485	209.039
804.052	184.519
808.616	245.79
813.177	385.835
817.736	315.029
822.292	391.122
826.846	382.269
831.397	428.825
835.945	380.957
840.491	303.561
845.035	387.802
849.576	270.258
854.114	284.57
858.65	325.562
863.183	270.204
867.713	141.857
872.241	86.7847
876.767	93.7817
881.29	8.71631
885.81	41.9468
890.328	20.3145
894.843	70.302
899.356	10.0195
903.866	46.7353
908.373	14.6262
912.878	4.94995
917.38	47.2793
921.88	50.874
926.377	98.1284
930.872	82.3623
935.364	105.496
939.853	148.512
944.34	76.5703
948.824	165.4
953.306	160.15
957.785	185.831
962.261	196.541
966.735	142.355
971.207	219.205
975.675	231.514
980.141	308.488
984.605	448.122
989.066	421.782
993.524	371.547
997.98	316.388
1002.43	411.336
1006.88	346.496
1011.33	366.896
1015.78	394.455
1020.22	411.371
1024.66	317.033
1029.1	294.196
1033.53	344.91
1037.97	293.871
1042.4	272.714
1046.82	373.819
1051.25	314.209
1055.67	297.376
1060.09	252.443
1064.51	284.717
1068.92	243.012
1073.33	265.651
1077.74	322.396
1082.15	429.306
1086.55	535.645
1090.95	207.547
1095.35	155.818
1099.75	182.934
1104.14	133.371
1108.53	173.373
1112.92	173.489
1117.31	304
1121.69	591.446
1126.07	429.09
1130.45	193.099
1134.82	138.977
1139.19	157.962
1143.57	82.1062
1147.93	178.403
1152.3	90.6023
1156.66	31.1868
1161.02	89.1648
1165.38	84.501
1169.73	4.98096
1174.08	32.3613
1178.43	38.9751
1182.78	91.4194
1187.12	16.5059
1191.46	46.2742
1195.8	45.0161
1200.14	77.6042
1204.47	84.1533
1208.8	30.5486
1213.13	7.05396
1217.46	79.4885
1221.78	37.897
1226.1	53.4207
1230.42	67.2844
1234.73	39.6296
1239.04	68.4949
1243.35	24.5129
1247.66	67.8581
1251.97	20.8599
1256.27	79.1321
1260.57	32.6721
1264.86	49.4302
1269.16	77.311
1273.45	64.9163
1277.74	22.7908
1282.03	74.1343
1286.31	33.71
1290.59	128.856
1294.87	5.39087
1299.14	87.5837
1303.42	93.374
1307.69	121.176
1311.95	64.2766
1316.22	102.103
1320.48	43.0984
1324.74	99.0122
1329	53.6746
1333.26	131.904
1337.51	81.6489
1341.76	70.4141
1346	71.7351
1350.25	98.9749
1354.49	52.866
1358.73	71.145
1362.96	83.0532
1367.2	68.1609
1371.43	106.526
1375.66	31.9866
1379.88	19.5957
1384.11	31.9768
1388.33	81.0576
1392.54	36.4329
1396.76	11.009
1400.97	48.5115
1405.18	12.1457
1409.39	39.1504
1413.59	50.0637
1417.8	66.8989
1421.99	73.3523
1426.19	75.9351
1430.38	40.4085
1434.58	85.6067
1438.77	83.615
1442.95	26.7952
1447.13	97.0713
1451.32	18.2893
1455.49	52.6033
1459.67	44.9019
1463.84	45.2297
1468.01	72.936
1472.18	111.758
1476.35	89.9617
1480.51	78.0195
1484.67	49.2856
1488.83	48.8332
1492.98	27.2463
1497.13	54.168
1501.28	49.2429
1505.43	72.0149
1509.57	28.5935
1513.71	32.9883
1517.85	89.9404
1521.99	46.7441
1526.12	50.4761
1530.25	43.1321
1534.38	28.0708
1538.5	14.0471
1542.62	85.3933
1546.74	102.734
1550.86	138.053
1554.98	210.742
1559.09	102.81
1563.2	76.7283
1567.31	120.969
