Measurement: Raman, 514 nm, depolarized, Raman Data Processed
Mineral: Brookite
Rruff sample: R050591
Ideal chemistry: Ti^4+^O_2_
Locality: Taftan, near Dalbandi, Baluchistan, Pakistan
Source: Wayne Thompson
Description: Yellowish-brown to reddish-brown thin tabular crystal
Measured chemistry: Ti_1.00_O_2_
Pin_id: M00065
Orientation: Laser parallel to c* (0 0 1). Fiducial mark perpendicular to laser is parallel to a [1 0 0]
Raman shift (cm-1)	intensity
51.431	0
56.387	45.0246
61.341	63.1995
66.292	0.368256
71.241	6.6405
76.187	19.788
81.131	78.6179
86.072	219.309
91.012	385.829
95.948	521.998
100.883	731.462
105.815	1090.37
110.744	1475.36
115.671	2542.09
120.596	4564.1
125.519	8564.46
130.439	16773.1
135.356	7990.63
140.271	10027.9
145.184	18353.2
150.094	33717.5
155.002	52855.2
159.908	40032.2
164.811	19264.5
169.711	8464.28
174.61	4381.42
179.505	1797.31
184.399	831.191
189.29	666.1
194.178	1396.08
199.064	1852.65
203.948	130.191
208.829	16.8025
213.708	578.294
218.585	884.076
223.459	171.639
228.33	176.412
233.199	488.456
238.066	2867.47
242.93	7739.58
247.792	18739.6
252.651	12492.5
257.508	3694.37
262.363	1354.14
267.215	723.843
272.064	649.471
276.912	1049.98
281.756	1991.32
286.598	3191.53
291.438	2973.98
296.276	1634.48
301.111	958.722
305.943	881.135
310.773	1300.54
315.601	2320.94
320.426	3596.32
325.248	4716.63
330.068	5344.87
334.886	3657.05
339.701	1402.18
344.514	261.258
349.324	147.724
354.132	319.108
358.938	1725.57
363.741	4578.22
368.541	7876.04
373.339	4939.17
378.135	1656.14
382.928	615.339
387.718	690.699
392.506	1242.22
397.292	1539.92
402.075	1533.79
406.856	2056.84
411.634	2841.09
416.41	2720.52
421.183	1391.15
425.954	316.978
430.722	184.007
435.488	278.728
440.251	31.8403
445.012	379.75
449.77	1320.69
454.526	2266.07
459.28	3488.95
464.03	4184.17
468.779	3440.67
473.525	1844.47
478.268	1087.57
483.009	593.966
487.747	741.61
492.483	695.796
497.217	379.373
501.948	260.855
506.676	271.582
511.402	312.659
516.125	541.716
520.846	1190.45
525.565	2097.52
530.281	3680.93
534.994	5817.65
539.705	8254.65
544.413	10225.9
549.119	10331.3
553.822	8554.01
558.523	6357.81
563.222	4694.76
567.917	3760.82
572.611	3179.57
577.302	3322.12
581.99	3814.12
586.676	3850.08
591.359	3040.9
596.04	1961.22
600.718	1462.26
605.394	1336.67
610.067	1372.77
614.737	1626.96
619.406	2101.26
624.071	2859.25
628.734	3698.51
633.395	4547.13
638.053	5211.54
642.708	5160.78
647.361	4486.78
652.012	3559.62
656.66	2745.2
661.305	1985.23
665.948	1394.81
670.588	1013.78
675.226	781.567
679.861	569.971
684.494	434.882
689.124	277.789
693.752	208.167
698.377	98.5732
702.999	104.28
707.619	12.2207
712.237	10.9878
716.852	22.9351
721.464	11.4661
726.074	39.1389
730.681	65.1458
735.286	91.7053
739.888	45.7405
744.488	5.33911
749.085	4.7041
753.68	29.8596
758.272	44.6357
762.861	68.4622
767.448	83.5305
772.033	62.0796
776.614	56.9963
781.194	62.2866
785.77	0.74707
790.345	22.8862
794.916	2.01428
799.485	34.3768
804.052	0.844116
808.616	26.0698
813.177	16.1685
817.736	3.94971
822.292	64.8603
826.846	34.8379
831.397	55.0211
835.945	99.4275
840.491	73.177
845.035	44.8552
849.576	70.7019
854.114	101.424
858.65	102.077
863.183	111.148
867.713	73.2125
872.241	42.7661
876.767	44.8727
881.29	23.6414
885.81	35.6392
890.328	69.5598
894.843	62.3806
899.356	36.6868
903.866	75.8263
908.373	132.677
912.878	144.931
917.38	139.486
921.88	158.939
926.377	161.889
930.872	165.053
935.364	149.462
939.853	154.77
944.34	165.251
948.824	109.004
953.306	135.041
957.785	123.421
962.261	128.46
966.735	128.793
971.207	153.735
975.675	126.431
980.141	141.361
984.605	148.52
989.066	135.587
993.524	142.145
997.98	160.677
1002.43	132.511
1006.88	155.33
1011.33	110.673
1015.78	153.872
1020.22	134.749
1024.66	116.657
1029.1	121.652
1033.53	88.5028
1037.97	107.227
1042.4	121.21
1046.82	88.1485
1051.25	83.3858
1055.67	86.6523
1060.09	94.984
1064.51	73.8486
1068.92	88.698
1073.33	60.4772
1077.74	93.1996
1082.15	60.4812
1086.55	62.4804
1090.95	51.4184
1095.35	28.416
1099.75	41.2445
1104.14	42.2755
1108.53	52.6978
1112.92	30.3815
1117.31	57.1598
1121.69	126.521
1126.07	99.6234
1130.45	24.5015
1134.82	7.92615
1139.19	14.3688
1143.57	19.4954
1147.93	9.04718
1152.3	11.7893
1156.66	12.5989
1161.02	28.8398
1165.38	13.0237
1169.73	7.12848
1174.08	7.29712
1178.43	4.52533
1182.78	7.54981
1187.12	5.50207
1191.46	13.3049
1195.8	8.17078
1200.14	0.025818
1204.47	8.6759
1208.8	0.36554
1213.13	20.9915
1217.46	5.48377
1221.78	27.0552
1226.1	17.357
1230.42	0.677246
1234.73	40.0895
1239.04	24.8087
1243.35	19.3705
1247.66	17.7944
1251.97	33.4205
1256.27	2.04388
1260.57	7.65851
1264.86	31.3108
1269.16	26.307
1273.45	36.0023
1277.74	0.697205
1282.03	12.57
1286.31	19.3968
1290.59	19.7134
1294.87	25.6699
1299.14	5.66235
1303.42	22.4321
1307.69	32.1395
1311.95	25.6261
1316.22	56.1707
1320.48	30.8149
1324.74	25.9054
1329	33.6105
1333.26	21.4932
1337.51	28.4112
1341.76	24.3648
1346	29.5778
1350.25	6.40692
1354.49	17.2388
1358.73	20.0977
1362.96	12.4481
1367.2	3.73108
1371.43	6.11407
1375.66	17.9753
1379.88	25.686
1384.11	2.61163
1388.33	5.96954
1392.54	19.5417
1396.76	17.106
1400.97	15.6316
1405.18	9.8902
1409.39	12.7833
1413.59	13.9316
1417.8	7.05264
1421.99	10.0552
1426.19	2.92438
1430.38	8.66751
1434.58	16.287
1438.77	3.0109
1442.95	8.5256
1447.13	0.63562
1451.32	31.1604
1455.49	14.9067
1459.67	4.4823
1463.84	7.98297
1468.01	10.4976
1472.18	25.7811
1476.35	21.144
1480.51	10.984
1484.67	4.75189
1488.83	30.2492
1492.98	21.1841
1497.13	19.3435
1501.28	35.8389
1505.43	38.6693
1509.57	27.1071
1513.71	19.7379
1517.85	54.1631
1521.99	25.7504
1526.12	12.2441
1530.25	14.4644
1534.38	23.5655
1538.5	18.162
1542.62	17.4024
1546.74	34.8845
1550.86	41.66
1554.98	45.9546
1559.09	11.2421
1563.2	21.3847
1567.31	20.9793
