Measurement: Raman, 514 nm, depolarized, Raman Data Processed
Mineral: Brookite
Rruff sample: R050363
Ideal chemistry: Ti^4+^O_2_
Locality: Magnet Cove, Arkansas, USA
Source: University of Arizona Mineral Museum
Description: Black fragment of a prismatic crystal associated with quartz
Measured chemistry: (Ti_0.94_Nb^5+^_0.03_Fe^3+^_0.03_)_Î£=1_O_2_
Pin_id: L01899
Orientation: Laser parallel to b* (0 1 0). Fiducial mark perpendicular to laser is parallel to c [0 0 1]
Raman shift (cm-1)	intensity
51.431	0
56.387	154.537
61.341	59.3527
66.292	45.5836
71.241	639.35
76.187	1223.6
81.131	2020.45
86.072	2782.09
91.012	3850.45
95.948	4589.94
100.883	5277.06
105.815	6862.96
110.744	8622.11
115.671	10541.9
120.596	14028.2
125.519	15977.3
130.439	18585.9
135.356	23107.8
140.271	35752.2
145.184	52416.3
150.094	57193.5
155.002	40215
159.908	24191.8
164.811	14666.1
169.711	8916.52
174.61	4041.96
179.505	2333.39
184.399	1539.81
189.29	1345.25
194.178	1098.71
199.064	1529.24
203.948	3002.33
208.829	3924.51
213.708	2015.06
218.585	156.146
223.459	545.818
228.33	286.363
233.199	882.44
238.066	3680.75
242.93	6058.27
247.792	3410.58
252.651	1877.54
257.508	1247.05
262.363	1732.02
267.215	3128.34
272.064	5352.9
276.912	7476.97
281.756	7064.52
286.598	4987.92
291.438	3486.39
296.276	3509.89
301.111	4521.52
305.943	6797.2
310.773	9582.92
315.601	11696.5
320.426	11923.9
325.248	9358.01
330.068	5050.77
334.886	2404.18
339.701	967.207
344.514	527.87
349.324	1476.75
354.132	4449.08
358.938	8220.89
363.741	7484.01
368.541	3693.18
373.339	1574.58
378.135	1041.59
382.928	1259.12
387.718	1502.67
392.506	1516.07
397.292	1589.64
402.075	1804
406.856	1502.23
411.634	890.309
416.41	96.209
421.183	556.539
425.954	472.628
430.722	229.432
435.488	455.178
440.251	1542.74
445.012	2755.58
449.77	3544.54
454.526	3971.53
459.28	3403.44
464.03	2867.17
468.779	2076.54
473.525	886.505
478.268	944.038
483.009	738.124
487.747	866.715
492.483	1123.77
497.217	1102.22
501.948	566.033
506.676	315.159
511.402	375.905
516.125	729.9
520.846	1472.45
525.565	2741.14
530.281	4409.93
534.994	5726.77
539.705	6540.61
544.413	6642.43
549.119	5989.15
553.822	4844.78
558.523	4496.7
563.222	3890.06
567.917	3624.84
572.611	4004.68
577.302	4555.86
581.99	4487.9
586.676	3754.16
591.359	3392.34
596.04	3250.55
600.718	3477.35
605.394	3876.56
610.067	4304.04
614.737	5310.23
619.406	6188.3
624.071	7257.82
628.734	7849.15
633.395	8372.31
638.053	8193.61
642.708	7281.05
647.361	6068.52
652.012	4682.96
656.66	3495.27
661.305	2521.36
665.948	1936.15
670.588	1245.6
675.226	1029.66
679.861	648.253
684.494	337.303
689.124	188.749
693.752	76.5317
698.377	0.558105
702.999	113.954
707.619	173.108
712.237	20.5332
716.852	57.1558
721.464	102.627
726.074	30.0713
730.681	32.2778
735.286	10.9155
739.888	45.2891
744.488	137.181
749.085	154.728
753.68	165.669
758.272	136.373
762.861	158.208
767.448	247.841
772.033	366.949
776.614	358.453
781.194	418.522
785.77	482.478
790.345	507.207
794.916	489.942
799.485	569.107
804.052	651.038
808.616	675.76
813.177	702.961
817.736	700.783
822.292	678.071
826.846	749.15
831.397	726.878
835.945	627.592
840.491	654.061
845.035	654.637
849.576	481.444
854.114	439.907
858.65	417.609
863.183	253.79
867.713	165.308
872.241	175.37
876.767	79.509
881.29	116.14
885.81	52.5354
890.328	2.021
894.843	26.4336
899.356	39.2922
903.866	20.3311
908.373	43.5598
912.878	59.779
917.38	72.3848
921.88	150.546
926.377	133.125
930.872	115.462
935.364	192.873
939.853	117.462
944.34	134.041
948.824	221.375
953.306	204.298
957.785	207.186
962.261	248.576
966.735	209.083
971.207	230.131
975.675	209.331
980.141	269.791
984.605	356.502
989.066	279.168
993.524	337.204
997.98	350.285
1002.43	363.464
1006.88	376.139
1011.33	349.655
1015.78	304.272
1020.22	276.451
1024.66	291.609
1029.1	328.731
1033.53	282.044
1037.97	245.781
1042.4	283.526
1046.82	281.285
1051.25	237.492
1055.67	233.968
1060.09	235.206
1064.51	256.135
1068.92	273.217
1073.33	237.414
1077.74	216.897
1082.15	232.969
1086.55	204.167
1090.95	184.262
1095.35	138.898
1099.75	157.298
1104.14	197.261
1108.53	144.217
1112.92	87.7263
1117.31	152.385
1121.69	370.527
1126.07	249.813
1130.45	127.355
1134.82	35.7288
1139.19	78.9497
1143.57	95.6072
1147.93	59.5967
1152.3	55.7378
1156.66	1.04321
1161.02	61.7441
1165.38	53.6936
1169.73	48.4124
1174.08	7.34155
1178.43	15.1035
1182.78	23.803
1187.12	33.429
1191.46	43.0364
1195.8	7.20459
1200.14	25.7305
1204.47	36.6977
1208.8	12.0928
1213.13	33.4898
1217.46	77.6099
1221.78	19.72
1226.1	7.64258
1230.42	59.145
1234.73	22.3079
1239.04	52.9043
1243.35	33.0896
1247.66	8.78516
1251.97	26.5078
1256.27	73.1455
1260.57	14.6834
1264.86	94.1414
1269.16	6.73144
1273.45	5.36426
1277.74	12.2583
1282.03	82.4224
1286.31	23.4827
1290.59	55.4734
1294.87	55.7717
1299.14	76.8447
1303.42	43.3293
1307.69	72.6982
1311.95	48.2639
1316.22	18.2061
1320.48	62.7065
1324.74	62.5073
1329	44.5081
1333.26	45.5095
1337.51	6.0332
1341.76	78.4739
1346	40.8369
1350.25	61.8027
1354.49	82.5276
1358.73	20.5413
1362.96	117.578
1367.2	69.6238
1371.43	45.3037
1375.66	29.2834
1379.88	51.7114
1384.11	59.8892
1388.33	23.6408
1392.54	25.2841
1396.76	92.6659
1400.97	60.1864
1405.18	41.4083
1409.39	28.309
1413.59	0.730347
1417.8	9.75745
1421.99	50.5355
1426.19	29.8026
1430.38	26.329
1434.58	19.387
1438.77	36.6248
1442.95	2.35132
1447.13	2.39343
1451.32	59.55
1455.49	54.3275
1459.67	31.4334
1463.84	18.0962
1468.01	64.4672
1472.18	31.033
1476.35	28.4242
1480.51	80.2343
1484.67	88.3224
1488.83	55.3221
1492.98	27.2429
1497.13	37.137
1501.28	45.9436
1505.43	94.6549
1509.57	24.5588
1513.71	78.5078
1517.85	111.492
1521.99	261.15
1526.12	40.2495
1530.25	189.25
1534.38	63.3928
1538.5	77.219
1542.62	67.0688
1546.74	79.6001
1550.86	206.455
1554.98	314.359
1559.09	99.1965
1563.2	115.754
1567.31	86.5723
