Measurement: Raman, 514 nm, depolarized, Raman Data Processed
Mineral: Brookite
Rruff sample: R050363
Ideal chemistry: Ti^4+^O_2_
Locality: Magnet Cove, Arkansas, USA
Source: University of Arizona Mineral Museum
Description: Black fragment of a prismatic crystal associated with quartz
Measured chemistry: (Ti_0.94_Nb^5+^_0.03_Fe^3+^_0.03_)_Î£=1_O_2_
Pin_id: L01274
Orientation: Laser parallel to c* (0 0 1). Fiducial mark perpendicular to laser is parallel to a [1 0 0]
Raman shift (cm-1)	intensity
51.431	0
56.387	111.417
61.341	67.0376
66.292	27.9059
71.241	224.671
76.187	840.071
81.131	1229.92
86.072	1884.23
91.012	2724.07
95.948	3208.45
100.883	3968.2
105.815	5421.62
110.744	7461.86
115.671	9701.88
120.596	15794.9
125.519	19748.3
130.439	17830.5
135.356	19340.2
140.271	26219.4
145.184	39748.4
150.094	55150.4
155.002	47678.6
159.908	29137.7
164.811	16742.9
169.711	9692.61
174.61	5090.3
179.505	3157.41
184.399	2460.47
189.29	3458.5
194.178	3286.5
199.064	1735.86
203.948	1844.52
208.829	2200.39
213.708	1227.4
218.585	138.428
223.459	380.75
228.33	96.6289
233.199	1242.05
238.066	5379.24
242.93	15047.6
247.792	12860
252.651	5837.07
257.508	2902.88
262.363	1746.32
267.215	1410.29
272.064	1654.7
276.912	2168.5
281.756	2198.93
286.598	1843.62
291.438	1668.81
296.276	2430.66
301.111	3774.15
305.943	6171.89
310.773	9345.84
315.601	11610.9
320.426	10942
325.248	8176.1
330.068	4494.05
334.886	2078.87
339.701	772.859
344.514	91.0918
349.324	613.946
354.132	2195.29
358.938	5669.19
363.741	6941.89
368.541	3369.71
373.339	1119.3
378.135	577.304
382.928	480.477
387.718	628.779
392.506	510.177
397.292	468.643
402.075	703.149
406.856	892.668
411.634	730.175
416.41	388.656
421.183	70.8628
425.954	365.021
430.722	434.483
435.488	200.746
440.251	184.379
445.012	1028.1
449.77	1971.76
454.526	2897.11
459.28	3280.49
464.03	2899.92
468.779	2352.18
473.525	1822.2
478.268	1408.96
483.009	1465.41
487.747	1720.55
492.483	2175.34
497.217	2107.76
501.948	1650.76
506.676	1586.35
511.402	993.898
516.125	852.909
520.846	1150.01
525.565	1919.79
530.281	2747.98
534.994	3845.55
539.705	4631.46
544.413	5005.68
549.119	4731.19
553.822	4037.93
558.523	3336.65
563.222	2924.78
567.917	3581.26
572.611	2864.96
577.302	3246.45
581.99	3309.82
586.676	3104.55
591.359	2649.09
596.04	2214.11
600.718	1935.17
605.394	2103.1
610.067	2340.89
614.737	2819.23
619.406	3377.22
624.071	4145.31
628.734	4873.09
633.395	5458.88
638.053	5900.6
642.708	5812.14
647.361	5068.44
652.012	4194.45
656.66	3211.1
661.305	2431.31
665.948	1760.95
670.588	1250.78
675.226	851.85
679.861	619.856
684.494	384.214
689.124	105.883
693.752	156.811
698.377	34.9023
702.999	10.9985
707.619	40.6572
712.237	78.4795
716.852	132.696
721.464	27.0918
726.074	17.8105
730.681	10.9331
735.286	10.71
739.888	26.2329
744.488	151.053
749.085	226.809
753.68	181.898
758.272	136.19
762.861	267.437
767.448	389.768
772.033	305.982
776.614	457.455
781.194	466.177
785.77	445.4
790.345	556.38
794.916	509.708
799.485	614.529
804.052	716.668
808.616	770.269
813.177	693.251
817.736	858.17
822.292	834.828
826.846	813.261
831.397	874.419
835.945	783.527
840.491	773.782
845.035	703.35
849.576	652.054
854.114	480.518
858.65	475.671
863.183	445.168
867.713	313.873
872.241	283.205
876.767	108.604
881.29	76.0149
885.81	63.2329
890.328	51.794
894.843	34.8557
899.356	3.73731
903.866	43.9072
908.373	24.2073
912.878	25.9189
917.38	36.99
921.88	55.6921
926.377	32.2866
930.872	118.07
935.364	84.6931
939.853	31.0935
944.34	97.5315
948.824	84.04
953.306	67.6648
957.785	134.689
962.261	63.5002
966.735	129.335
971.207	152.273
975.675	103.57
980.141	111.475
984.605	178.907
989.066	191.042
993.524	273.842
997.98	160.189
1002.43	196.19
1006.88	262.724
1011.33	226.078
1015.78	200.171
1020.22	156.042
1024.66	203.772
1029.1	162.808
1033.53	206.227
1037.97	152.334
1042.4	163.028
1046.82	161.143
1051.25	188.592
1055.67	166.593
1060.09	142.588
1064.51	204.667
1068.92	201.443
1073.33	137.981
1077.74	167.942
1082.15	168.997
1086.55	104.179
1090.95	117.391
1095.35	122.379
1099.75	178.05
1104.14	100.144
1108.53	163.011
1112.92	119.557
1117.31	134.227
1121.69	82.757
1126.07	102.414
1130.45	97.3452
1134.82	105.005
1139.19	72.9739
1143.57	56.7633
1147.93	109.147
1152.3	38.5839
1156.66	69.7116
1161.02	36.6088
1165.38	55.6739
1169.73	20.3466
1174.08	24.4779
1178.43	31.7637
1182.78	12.5155
1187.12	36.1191
1191.46	19.3584
1195.8	39.5902
1200.14	24.7505
1204.47	18.3084
1208.8	13.3993
1213.13	17.6793
1217.46	28.0601
1221.78	1.15967
1226.1	27.6929
1230.42	6.03027
1234.73	6.54175
1239.04	8.67493
1243.35	2.93909
1247.66	20.9148
1251.97	83.801
1256.27	44.3646
1260.57	82.5963
1264.86	51.8535
1269.16	62.236
1273.45	59.6633
1277.74	42.4304
1282.03	72.0966
1286.31	17.4008
1290.59	58.6975
1294.87	22.6792
1299.14	75.1278
1303.42	25.3927
1307.69	21.0422
1311.95	28.1442
1316.22	42.7808
1320.48	17.6005
1324.74	25.5662
1329	90.375
1333.26	55.0322
1337.51	41.4222
1341.76	13.5236
1346	40.4729
1350.25	52.0049
1354.49	42.5552
1358.73	5.08911
1362.96	21.2832
1367.2	36.209
1371.43	5.5426
1375.66	37.3285
1379.88	37.4907
1384.11	6.36023
1388.33	63.2523
1392.54	2.05042
1396.76	49.1766
1400.97	29.4158
1405.18	25.5397
1409.39	8.41077
1413.59	32.0409
1417.8	40.6333
1421.99	16.4002
1426.19	43.886
1430.38	23.1298
1434.58	27.207
1438.77	6.10339
1442.95	35.0953
1447.13	14.2765
1451.32	2.40063
1455.49	2.09912
1459.67	12.6526
1463.84	16.1854
1468.01	41.0992
1472.18	33.9788
1476.35	4.49524
1480.51	61.7146
1484.67	15.8594
1488.83	42.7566
1492.98	1.93677
1497.13	50.2846
1501.28	27.2044
1505.43	20.8721
1509.57	48.4951
1513.71	32.765
1517.85	71.4348
1521.99	62.5687
1526.12	51.5089
1530.25	62.2074
1534.38	26.2658
1538.5	66.9266
1542.62	13.5321
1546.74	41.8899
1550.86	162.589
1554.98	276.752
1559.09	0.630859
1563.2	104.621
1567.31	0.915527
