Measurement: Raman, 514 nm, depolarized, Raman Data Processed
Mineral: Brookite
Rruff sample: R050591
Ideal chemistry: Ti^4+^O_2_
Locality: Taftan, near Dalbandi, Baluchistan, Pakistan
Source: Wayne Thompson
Description: Yellowish-brown to reddish-brown thin tabular crystal
Measured chemistry: Ti_1.00_O_2_
Pin_id: L01445
Orientation: Laser parallel to a* (1 0 0). Fiducial mark perpendicular to laser is parallel to b [0 1 0]
Raman shift (cm-1)	intensity
51.431	0
56.387	23.1785
61.341	56.8226
66.292	29.2029
71.241	65.7253
76.187	162.265
81.131	307.262
86.072	471.035
91.012	655.629
95.948	775.129
100.883	1090.4
105.815	1507.72
110.744	2136.1
115.671	4441.57
120.596	8268.43
125.519	12677.6
130.439	18072.9
135.356	13500.4
140.271	18681.5
145.184	32966.4
150.094	46836.8
155.002	58411.7
159.908	37086.9
164.811	14488.4
169.711	6493.29
174.61	3411.52
179.505	2058.9
184.399	1734.53
189.29	1649.09
194.178	2440.23
199.064	2209.06
203.948	867.555
208.829	747.878
213.708	1093.96
218.585	850.68
223.459	184.61
228.33	185.681
233.199	875.312
238.066	4614.1
242.93	8149.18
247.792	15195.4
252.651	9812.58
257.508	3422.57
262.363	1862.38
267.215	1248.97
272.064	938.3
276.912	852.354
281.756	947.131
286.598	974.097
291.438	955.16
296.276	1300.43
301.111	2230.87
305.943	3896.44
310.773	6582.54
315.601	9704.89
320.426	11292.8
325.248	9268.13
330.068	5252.76
334.886	2652.83
339.701	1203.98
344.514	562.341
349.324	191.325
354.132	46.9954
358.938	162.358
363.741	376.408
368.541	378.981
373.339	62.0447
378.135	127.272
382.928	35.7412
387.718	298.081
392.506	705.458
397.292	1555.39
402.075	2869.86
406.856	4668.87
411.634	5977.42
416.41	5280.5
421.183	3198.12
425.954	1551.27
430.722	622.96
435.488	91.2
440.251	91.2249
445.012	153.117
449.77	74.6704
454.526	94.8186
459.28	138.835
464.03	138.409
468.779	42.4758
473.525	100.202
478.268	6.09839
483.009	293.395
487.747	820.997
492.483	1783.81
497.217	2981.15
501.948	3706.12
506.676	3170.68
511.402	1896.85
516.125	1123.08
520.846	892.536
525.565	1071.46
530.281	1628.79
534.994	2425.74
539.705	3133.32
544.413	3653.52
549.119	3083.33
553.822	2374.82
558.523	1524.08
563.222	880.095
567.917	566.802
572.611	439.213
577.302	405.328
581.99	473.906
586.676	463.184
591.359	628.364
596.04	839.82
600.718	1217.56
605.394	1779.03
610.067	2720.61
614.737	3776.97
619.406	5435.55
624.071	7474.94
628.734	9882.04
633.395	12077.8
638.053	12972.3
642.708	12375.5
647.361	10908.2
652.012	8582.68
656.66	6457.27
661.305	4980.19
665.948	3715.99
670.588	2929.79
675.226	2225.96
679.861	1838.17
684.494	1507.4
689.124	1231.91
693.752	1000.53
698.377	781.776
702.999	719.729
707.619	610.56
712.237	541.044
716.852	465.525
721.464	342.889
726.074	350.171
730.681	287.158
735.286	212.601
739.888	210.351
744.488	197.161
749.085	242.161
753.68	130.654
758.272	183.671
762.861	93.1977
767.448	117.872
772.033	138.607
776.614	54.3579
781.194	1.2832
785.77	5.21533
790.345	75.8574
794.916	15.6221
799.485	23.825
804.052	0.184814
808.616	5.93774
813.177	22.4091
817.736	44.1204
822.292	8.41943
826.846	12.3742
831.397	56.9365
835.945	5.12891
840.491	29.3829
845.035	38.8701
849.576	24.0449
854.114	15.2689
858.65	55.5885
863.183	31.9355
867.713	6.37134
872.241	26.9504
876.767	0.62085
881.29	8.68079
885.81	32.197
890.328	12.9854
894.843	44.1849
899.356	70.7513
903.866	58.8218
908.373	47.1704
912.878	71.9585
917.38	124.989
921.88	88.894
926.377	145.599
930.872	181.479
935.364	149.446
939.853	149.352
944.34	162.919
948.824	150.964
953.306	177.677
957.785	148.514
962.261	180.583
966.735	171.288
971.207	143.799
975.675	159.332
980.141	162.764
984.605	148.946
989.066	160.001
993.524	168.236
997.98	144.792
1002.43	111.649
1006.88	161.144
1011.33	124.474
1015.78	110.161
1020.22	126.114
1024.66	106.359
1029.1	92.1968
1033.53	128.118
1037.97	117.123
1042.4	151.66
1046.82	116.443
1051.25	104.87
1055.67	85.2842
1060.09	83.2429
1064.51	97.3347
1068.92	95.4989
1073.33	65.3257
1077.74	69.3912
1082.15	102.686
1086.55	109.693
1090.95	84.6099
1095.35	43.4557
1099.75	136.342
1104.14	49.8897
1108.53	93.1923
1112.92	74.3618
1117.31	67.1121
1121.69	119.035
1126.07	95.0713
1130.45	48.7583
1134.82	28.9708
1139.19	35.6249
1143.57	43.2555
1147.93	31.8834
1152.3	21.4788
1156.66	70.7163
1161.02	20.2103
1165.38	36.905
1169.73	10.3498
1174.08	9.85608
1178.43	3.42542
1182.78	12.032
1187.12	7.46436
1191.46	21.9364
1195.8	15.4524
1200.14	35.9452
1204.47	12.8412
1208.8	10.7028
1213.13	30.0298
1217.46	4.35938
1221.78	19.6672
1226.1	18.4013
1230.42	62.6862
1234.73	37.8531
1239.04	36.9032
1243.35	37.958
1247.66	33.9982
1251.97	12.3013
1256.27	28.5277
1260.57	4.39661
1264.86	28.5395
1269.16	42.6904
1273.45	25.5992
1277.74	49.6912
1282.03	16.6039
1286.31	60.3563
1290.59	58.8601
1294.87	9.64624
1299.14	60.0155
1303.42	45.5924
1307.69	52.2617
1311.95	62.0093
1316.22	26.6658
1320.48	38.5857
1324.74	14.3275
1329	33.0979
1333.26	58.7584
1337.51	50.6688
1341.76	44.272
1346	59.002
1350.25	69.6914
1354.49	16.2253
1358.73	52.0875
1362.96	34.0974
1367.2	28.9043
1371.43	37.8412
1375.66	22.454
1379.88	33.9139
1384.11	20.4148
1388.33	30.8187
1392.54	43.041
1396.76	23.5542
1400.97	0.981934
1405.18	21.5105
1409.39	13.1943
1413.59	26.4602
1417.8	11.7007
1421.99	30.4145
1426.19	27.3785
1430.38	36.4721
1434.58	64.6265
1438.77	55.6501
1442.95	23.5548
1447.13	43.4153
1451.32	70.2004
1455.49	55.8882
1459.67	20.6974
1463.84	22.4849
1468.01	26.2644
1472.18	16.0223
1476.35	45.6054
1480.51	13.2399
1484.67	8.80469
1488.83	48.0704
1492.98	12.7037
1497.13	24.0143
1501.28	46.6606
1505.43	35.2981
1509.57	62.9208
1513.71	50.8907
1517.85	78.4077
1521.99	82.6246
1526.12	50.9249
1530.25	32.5184
1534.38	42.1188
1538.5	24.4261
1542.62	23.7771
1546.74	48.8268
1550.86	18.7758
1554.98	71.4745
1559.09	19.925
1563.2	13.1022
1567.31	24.0358
