Measurement: Raman, 514 nm, depolarized, Raman Data Processed
Mineral: Brucite
Rruff sample: R050455
Ideal chemistry: Mg(OH)_2_
Locality: Texas, Lancaster County, Pennsylvania, USA
Source: University of Arizona Mineral Museum
Description: Group of green tabular crystals
Measured chemistry: (Mg_0.99_Mn_0.01_)(OH)_2_
Pin_id: M00121
Orientation: Laser parallel to a* (1 0 0). Fiducial mark perpendicular to laser is parallel to c [0 0 1]
Raman shift (cm-1)	intensity
107.047	0
111.976	16.5977
116.903	464.25
121.827	227.022
126.749	254.07
131.668	234.086
136.585	487.791
141.5	309.527
146.412	369.307
151.321	648.227
156.229	579.123
161.134	355.414
166.036	724.402
170.936	644.242
175.834	653.363
180.729	570.527
185.622	827.121
190.512	565.094
195.4	639.949
200.286	707.9
205.169	613.033
210.049	321.443
214.928	371.578
219.803	451.609
224.677	665.389
229.548	605.92
234.416	558.926
239.282	711.004
244.146	920.031
249.007	989.34
253.866	1648.44
258.722	2639.73
263.576	4141.72
268.427	6952.43
273.276	9055.26
278.123	7711.77
282.967	4125.91
287.809	2016.38
292.648	815.945
297.485	584.566
302.319	418.199
307.151	3.1543
311.98	213.234
316.807	142.387
321.631	64.1543
326.454	47.5957
331.273	41.5449
336.09	120.996
340.905	3.14844
345.717	41.0957
350.527	84.7422
355.334	150.113
360.139	7.36523
364.941	93.1328
369.741	262.131
374.538	121.713
379.333	216.898
384.126	88.9746
388.916	175.066
393.703	114.897
398.488	398.74
403.271	697.381
408.051	877.9
412.828	948.631
417.603	1653.26
422.376	2542.29
427.146	5060.22
431.914	11460
436.679	21782.8
441.442	23246.5
446.202	12275.8
450.96	5033.04
455.715	2600.61
460.467	1400.14
465.218	1179.17
469.965	733.391
474.711	554.562
479.454	310.857
484.194	190.986
488.932	299.06
493.667	313.385
498.4	343.809
503.13	136.826
507.858	189.453
512.583	242.279
517.306	152.025
522.026	31.252
526.744	145.041
531.459	112.318
536.172	146.129
540.882	192.672
545.59	431.279
550.295	82.1328
554.998	44.8184
559.698	42.627
564.396	27.5703
569.091	33.9902
573.784	97.4551
578.474	183.797
583.162	19.9395
587.847	120.025
592.529	57.6133
597.209	270.316
601.887	15.0039
606.562	117.688
611.235	218.348
615.905	165.207
620.572	178.289
625.237	140.519
629.9	152.434
634.56	111.445
639.217	281.769
643.872	531.578
648.524	620.816
653.174	267.602
657.821	500.129
662.466	661.461
667.108	698.934
671.748	637.738
676.385	883.43
681.02	938.25
685.652	930.133
690.281	1355.43
694.908	1468.44
699.533	1696.3
704.155	1840.35
708.774	2405.27
713.391	2490.64
718.005	2567.34
722.617	2795.4
727.226	2592.43
731.833	2814.93
736.437	2712.93
741.039	2643.24
745.638	2589.34
750.234	2474.52
754.828	2143.59
759.419	1805.78
764.008	1848.58
768.595	1814.03
773.178	1733.09
777.759	1789.8
782.338	2093.45
786.914	1827.17
791.488	1687.05
796.059	1775.32
800.627	1770.27
805.193	1887.89
809.756	1741.45
814.317	1804.39
818.875	1822.12
823.431	1752.86
827.984	1536.03
832.534	1505.18
837.082	1454.98
841.627	1452.59
846.17	1318.34
850.71	1139.29
855.248	1053.95
859.783	923.215
864.316	785.363
868.846	840.441
873.373	706.758
877.898	683.637
882.42	613.09
886.94	537.082
891.457	695.535
895.971	363.422
900.483	431.582
904.993	189.422
909.5	210.906
914.004	445.336
918.505	17.3672
923.004	167.606
927.501	397.762
931.995	56.7852
936.486	178.574
940.975	142.727
945.461	155.094
949.945	330.781
954.426	39.9766
958.904	41.7422
963.38	27.332
967.853	184.332
972.324	7.77344
976.792	186.828
981.258	68.1562
985.72	374.664
990.181	401.199
994.639	202.863
999.094	202.945
1003.55	39.2188
1008	67.4688
1012.44	248.074
1016.89	346.731
1021.33	150.422
1025.77	497.172
1030.21	243.519
1034.64	120.289
1039.07	116.871
1043.5	277.562
1047.93	17.6367
1052.35	243.719
1056.78	103.391
1061.19	243.516
1065.61	155.402
1070.02	190.352
1074.43	110.504
1078.84	241.062
1083.25	47.1367
1087.65	150.898
1092.05	321.641
1096.45	260.242
1100.85	337.32
1105.24	181.629
1109.63	256.512
1114.02	90.7227
1118.4	153.523
1122.78	450.254
1127.16	25.8984
1131.54	196.156
1135.92	50.6133
1140.29	344.066
1144.66	235.379
1149.02	484.863
1153.39	402.309
1157.75	282.723
1162.11	178.019
1166.46	203.352
1170.82	157.356
1175.17	598.106
1179.52	402.82
1183.86	218.809
1188.21	302.644
1192.55	14.0859
1196.89	322.059
1201.22	478.438
1205.55	175.742
1209.88	348.074
1214.21	127.965
1218.54	245.32
1222.86	73.293
1227.18	1.82422
1231.5	247.465
1235.81	429.07
1240.12	7.57812
1244.43	24.1523
1248.74	186.852
1253.04	455.336
1257.34	518.934
1261.64	216.887
1265.94	248.793
1270.23	358.027
1274.52	226.305
1278.81	395.66
1283.1	462.144
1287.38	389.555
1291.66	172.473
1295.94	476.055
1300.21	271.195
1304.48	251.285
1308.75	376.637
1313.02	161.07
1317.29	224.438
1321.55	412.348
1325.81	175.981
1330.06	344.992
1334.32	65.8359
1338.57	168.141
1342.82	204.246
1347.06	264.434
1351.31	511.926
1355.55	288.309
1359.79	349.941
1364.02	133.219
1368.26	289.465
1372.49	142.359
1376.71	244.469
1380.94	18.4023
1385.16	272.621
1389.38	97.0391
1393.6	409.633
1397.81	235.414
1402.02	92.6133
1406.23	266.828
1410.44	320.289
1414.64	29.9805
1418.85	248
1423.04	128.223
1427.24	181.82
1431.43	109.234
1435.62	33.8828
1439.81	429.07
1444	238.391
1448.18	566.496
1452.36	92.293
1456.54	335.484
1460.71	163.484
1464.89	384.008
1469.06	154.5
1473.22	272.672
1477.39	319.82
1481.55	440.91
1485.71	354.344
1489.86	225.996
1494.02	348.215
1498.17	510.828
1502.32	202.332
1506.46	650.031
1510.61	501.644
1514.75	307.695
1518.88	697.523
1523.02	106.191
1527.15	700.789
1531.28	410.519
1535.41	412.438
1539.53	414.832
1543.66	317.481
1547.78	260.648
1551.89	651.254
1556.01	310.812
1560.12	416.082
1564.23	378.035
1568.33	434.902
