Measurement: Raman, 514 nm, depolarized, Raman Data Processed
Mineral: Brucite
Rruff sample: R050455
Ideal chemistry: Mg(OH)_2_
Locality: Texas, Lancaster County, Pennsylvania, USA
Source: University of Arizona Mineral Museum
Description: Group of green tabular crystals
Measured chemistry: (Mg_0.99_Mn_0.01_)(OH)_2_
Pin_id: M00147
Orientation: Laser parallel to c* (0 0 1). Fiducial mark perpendicular to laser is parallel to a [1 0 0]
Raman shift (cm-1)	intensity
158.681	0
163.585	2.08594
168.486	115.293
173.385	198.584
178.282	131.627
183.176	62.6875
188.067	88.3164
192.956	72.8809
197.843	135.699
202.727	58.1719
207.609	149.93
212.489	58.8281
217.366	71.5312
222.24	214.492
227.112	272.006
231.982	304.078
236.849	216.385
241.714	453.879
246.577	299.609
251.437	229.631
256.294	458.004
261.149	724.398
266.002	1043.86
270.852	2036.26
275.7	3068.25
280.545	2623.96
285.388	1201.22
290.229	510.957
295.067	435.154
299.902	304.691
304.735	353.775
309.566	33.4102
314.394	88.9883
319.22	279.016
324.043	171.342
328.864	162.213
333.682	149.111
338.498	104.977
343.311	75.2559
348.122	54.877
352.931	67.834
357.737	189.135
362.54	211.703
367.341	283.756
372.14	45.0098
376.936	47.498
381.73	32.123
386.521	64.9375
391.31	45.9316
396.096	74.0918
400.88	221.467
405.661	224.826
410.44	272.586
415.216	124.434
419.99	672.705
424.761	861.736
429.53	1694.95
434.297	4149.34
439.061	7927.9
443.822	7634.55
448.581	3959.47
453.337	1205.72
458.091	789.016
462.843	526.119
467.592	458.793
472.338	413.644
477.082	366.852
481.824	120.916
486.563	109.301
491.3	87.834
496.034	261.967
500.765	166.357
505.494	211.322
510.221	96.4043
514.945	134.17
519.666	222.703
524.385	66.3535
529.102	57.9219
533.816	164.365
538.527	198.178
543.236	180.106
547.943	426.049
552.647	95.0703
557.348	150.211
562.047	194.35
566.744	78.5606
571.438	258.873
576.129	121.297
580.818	115.824
585.504	161.328
590.188	63.1934
594.87	164.119
599.549	120.471
604.225	240.898
608.899	206.406
613.57	325.045
618.239	10.2812
622.905	28.3867
627.569	88.3262
632.23	133.418
636.889	51.5195
641.545	159.647
646.198	113.113
650.849	403.744
655.498	163.727
660.144	259.887
664.787	364.373
669.428	218.092
674.067	402.941
678.703	134.877
683.336	89.875
687.967	98.1387
692.595	388.256
697.221	416.449
701.844	379.328
706.465	618.631
711.083	571.984
715.698	610.514
720.311	673.977
724.922	631.562
729.53	848.197
734.135	623.559
738.738	740.24
743.338	556.356
747.936	647.436
752.531	367.748
757.124	530.656
761.714	392.992
766.302	165.867
770.887	516
775.469	405.119
780.049	386.559
784.626	307.492
789.201	279.002
793.773	234.25
798.343	295.576
802.91	482.488
807.475	540.662
812.037	280.106
816.596	561.584
821.153	192.789
825.707	414.018
830.259	153.539
834.808	444.883
839.355	264.203
843.899	431.367
848.441	110.535
852.98	233.057
857.516	126.617
862.05	470.713
866.581	240.773
871.11	307.438
875.636	171.644
880.159	279.387
884.68	234.531
889.199	138.394
893.714	56.7773
898.228	96.3711
902.738	58.4336
907.246	223.309
911.752	199.176
916.255	4.12109
920.755	555.613
925.253	26.3516
929.748	32.6602
934.241	85.3516
938.731	9.78125
943.218	270.602
947.703	154.777
952.186	226.867
956.665	291.555
961.142	175.883
965.617	87.0547
970.089	285.938
974.558	353.707
979.025	241.922
983.489	470.922
987.951	54.668
992.41	714.133
996.866	48.0391
1001.32	94.1172
1005.77	459.992
1010.22	108.519
1014.67	269.734
1019.11	254.934
1023.55	511.359
1027.99	443.652
1032.42	367.234
1036.86	358.59
1041.29	361.438
1045.72	593.625
1050.14	107.043
1054.56	177.793
1058.98	206.098
1063.4	227.926
1067.82	272.047
1072.23	461.219
1076.64	142.035
1081.05	63.3906
1085.45	119.004
1089.85	154.156
1094.25	232.848
1098.65	240.688
1103.04	144.906
1107.43	254.086
1111.82	46.1367
1116.21	41.2578
1120.59	164.938
1124.97	152.836
1129.35	355.094
1133.73	118.914
1138.1	60.418
1142.47	598.926
1146.84	523.102
1151.21	297.312
1155.57	171.367
1159.93	318.949
1164.29	294.008
1168.64	162.68
1172.99	107.188
1177.34	191.434
1181.69	27.6211
1186.04	267.469
1190.38	192.012
1194.72	241.019
1199.05	449.582
1203.39	172.121
1207.72	336.246
1212.05	81.1328
1216.37	92.9062
1220.7	496.09
1225.02	352.934
1229.34	140.488
1233.65	48.8672
1237.97	342.828
1242.28	244.82
1246.59	33.9062
1250.89	208.469
1255.19	98.7539
1259.49	293.07
1263.79	119.731
1268.09	16.7539
1272.38	428.223
1276.67	202.207
1280.95	247.238
1285.24	143.527
1289.52	229.82
1293.8	391.348
1298.08	213.383
1302.35	118.012
1306.62	81.0703
1310.89	413.773
1315.15	214.426
1319.42	190.644
1323.68	126.172
1327.94	48.7266
1332.19	213.121
1336.44	244.297
1340.69	170.508
1344.94	284.531
1349.19	144.887
1353.43	208.246
1357.67	291.676
1361.9	44.6602
1366.14	48.9531
1370.37	263.231
1374.6	184.172
1378.83	123.512
1383.05	138.727
1387.27	175.25
1391.49	153.621
1395.7	32.5117
1399.92	7.82031
1404.13	228.617
1408.34	210.469
1412.54	61.5273
1416.74	263.762
1420.94	198.828
1425.14	210.082
1429.34	29.3008
1433.53	454.16
1437.72	42.2148
1441.9	110.836
1446.09	441.316
1450.27	230.656
1454.45	270.715
1458.63	284.961
1462.8	247.996
1466.97	328.633
1471.14	542.769
1475.31	347.695
1479.47	268.812
1483.63	298.934
1487.79	467.117
1491.94	462.473
1496.09	495.269
1500.24	5.50391
1504.39	156.055
1508.54	221.664
1512.68	233.402
1516.82	459.516
1520.95	206.141
1525.09	342.703
1529.22	415.102
1533.35	512.484
1537.47	349.129
1541.6	245.742
1545.72	12.0586
1549.83	367.871
1553.95	43.0117
1558.06	210.082
1562.17	425.289
1566.28	248.402
1570.38	0
