Measurement: Raman, 514 nm, depolarized, Raman Data Processed
Mineral: Bustamite
Rruff sample: R040014
Ideal chemistry: CaMn^2+^Si_2_O_6_
Locality: Broken Hill, New South Wales, Australia
Source: University of Arizona Mineral Museum
Description: Orange fragment
Measured chemistry: (Ca_0.90_Mn_0.10_)_Σ=1_(Mn^2+^_0.78_Fe^2+^_0.19_Fe^3+^_0.02_Mg_0.01_)_Σ=1_(Si_1.98_Fe^3+^_0.02_)_Σ=2_O_6_
Pin_id: L00268
Orientation: Laser parallel to -a* (-1 0 0). Fiducial mark perpendicular to laser is parallel to b [0 1 0]
Raman shift (cm-1)	intensity
99.453	0
103.636	280.575
107.817	460.618
111.996	555.811
116.172	119.604
120.347	161.573
124.519	1005.2
128.69	2045.25
132.858	3115.61
137.025	3784.53
141.189	2985.4
145.352	2186.24
149.512	2191.2
153.67	2685.06
157.827	2295.18
161.981	1269.72
166.133	496.017
170.283	291.01
174.431	372.327
178.577	273.904
182.721	57.706
186.863	21.13
191.003	2.66
195.141	40.032
199.277	88.121
203.411	69.928
207.543	85.404
211.673	77.271
215.801	25.925
219.927	100.628
224.051	415.31
228.173	743.837
232.292	1179.13
236.41	1443.12
240.526	1873.06
244.64	2203.59
248.752	2086.27
252.861	1673
256.969	1106.73
261.075	835.459
265.179	607.177
269.281	503.753
273.38	564.416
277.478	788.485
281.574	882.478
285.668	876.505
289.76	878.695
293.85	933.124
297.937	1163.11
302.023	1700.76
306.107	2767.14
310.189	4665.44
314.269	7091.65
318.347	7161.4
322.423	4513.21
326.497	2647.58
330.569	2086.19
334.639	1902.62
338.707	1573.31
342.773	1204.87
346.837	748.113
350.899	547.142
354.96	371.766
359.018	209.939
363.074	137.651
367.128	78.56
371.181	22.515
375.231	83.333
379.28	101.075
383.326	299.429
387.37	563.689
391.413	1033.79
395.454	1436.02
399.492	1954.89
403.529	2916.64
407.564	3165.16
411.596	2076.64
415.627	1060.08
419.656	515.454
423.683	310.781
427.708	112.065
431.731	56.295
435.752	64.438
439.772	170.477
443.789	68.467
447.804	43.447
451.817	104.346
455.829	272.173
459.838	375.511
463.846	318.702
467.852	138.37
471.855	27.975
475.857	3.461
479.857	75.31
483.855	79.678
487.851	11.554
491.845	24.38
495.837	5.032
499.828	15.511
503.816	111.802
507.802	323.025
511.787	617.161
515.77	687.235
519.75	714.211
523.729	263.144
527.706	159.728
531.681	73.13
535.654	17.967
539.625	20.814
543.595	43.995
547.562	22.766
551.527	28.338
555.491	57.744
559.453	75.014
563.412	223.152
567.37	500.714
571.326	925.036
575.28	1428.78
579.233	1334.52
583.183	901.58
587.131	541.926
591.078	337.652
595.022	325.469
598.965	268.317
602.906	410.78
606.845	366.288
610.782	519.631
614.718	549.01
618.651	802.939
622.582	1063.66
626.512	1551.41
630.44	2482.92
634.366	4350.55
638.29	8326.78
642.212	16070.9
646.132	20198.4
650.05	13214.9
653.967	7094.38
657.882	3802.67
661.794	2263.31
665.705	1403.05
669.614	917.888
673.522	704.848
677.427	464.498
681.331	463.98
685.232	478.015
689.132	578.682
693.03	629.972
696.926	469.743
700.82	299.072
704.713	256.015
708.603	290.044
712.492	477.807
716.379	666.618
720.264	648.447
724.147	342.117
728.028	248.348
731.908	176.985
735.785	212.187
739.661	65.229
743.535	54.098
747.407	44.763
751.278	2.757
755.146	34.503
759.013	32.376
762.878	44.928
766.741	46.756
770.602	32.25
774.461	1.038
778.319	6.566
782.174	18.33
786.028	5.609
789.88	47.385
793.73	44.055
797.579	0.447
801.425	51.105
805.27	38.967
809.113	23.969
812.954	27.86
816.794	0.401
820.631	111.216
824.467	62.725
828.301	90.136
832.133	69.463
835.963	84.713
839.792	131.89
843.618	143.001
847.443	143.061
851.266	49.087
855.088	159.148
858.907	181.169
862.725	258.182
866.541	241.161
870.355	144.129
874.167	177.075
877.978	335.033
881.787	401.025
885.594	498.033
889.399	663.896
893.202	822.016
897.004	697.019
900.803	602.434
904.601	507.307
908.398	504.493
912.192	474.978
915.985	411.26
919.776	337.845
923.565	511.796
927.352	632.815
931.138	713.265
934.922	746.165
938.704	732.751
942.484	845.392
946.262	851.913
950.039	1075.31
953.814	1568.9
957.587	2298.98
961.359	3941.36
965.128	7623.73
968.896	17097.6
972.662	32643.3
976.427	28748.4
980.189	15164.3
983.95	8260.45
987.709	5656.66
991.467	4760.27
995.222	4479.2
998.976	4515.85
1002.73	4557.22
1006.48	3913.67
1010.23	3246.4
1013.97	2589.27
1017.72	2648.09
1021.46	2752.46
1025.2	3060.19
1028.94	3365.02
1032.68	4229.59
1036.42	6787.62
1040.15	7987.01
1043.89	5459.01
1047.62	2946.88
1051.35	1811.9
1055.07	1195.84
1058.8	895.608
1062.52	658.683
1066.25	506.124
1069.97	551.522
1073.69	552.438
1077.4	586.235
1081.12	759.161
1084.83	1599.72
1088.55	1195.14
1092.26	518.98
1095.96	339.674
1099.67	417.618
1103.38	283.211
1107.08	160.782
1110.78	227.309
1114.48	167.919
1118.18	60.069
1121.88	212.267
1125.57	283.162
1129.27	183.998
1132.96	37.11
1136.65	56.375
1140.34	37.587
1144.02	53.55
1147.71	130.339
1151.39	111.135
1155.07	138.604
1158.75	82.002
1162.43	16.49
1166.11	56.098
1169.78	22.315
1173.45	82.261
1177.12	7.492
1180.79	32.615
1184.46	58.796
1188.13	57.897
1191.79	48.065
1195.45	49.515
1199.11	67.535
1202.77	62.751
1206.43	8.52
1210.09	59.532
1213.74	140.912
1217.39	90.411
1221.05	1.542
1224.69	47.936
1228.34	146.485
1231.99	121.813
1235.63	185.833
1239.27	227.402
1242.91	226.505
1246.55	255.075
1250.19	226.404
1253.83	152.191
1257.46	105.095
1261.09	202.659
1264.72	181.059
1268.35	319.878
1271.98	398.049
1275.61	291.672
1279.23	201.078
1282.85	158.343
1286.47	162.042
1290.09	161.676
1293.71	246.986
1297.33	226.14
1300.94	278.879
1304.55	352.861
1308.16	335.262
1311.77	277.746
1315.38	274.682
1318.99	324.009
1322.59	155.237
1326.19	150.331
1329.79	79.188
1333.39	89.135
1336.99	211.012
1340.59	180.269
1344.18	183.873
1347.77	183.146
1351.37	144.17
1354.95	20.064
1358.54	45.04
1362.13	0.1
1365.71	218.109
1369.3	158.567
1372.88	43.055
1376.46	63.86
1380.04	55.088
1383.61	184.086
1387.19	215.598
1390.76	0.674
1394.33	86.869
1397.9	156.062
1401.47	136.587
1405.04	260.657
1408.6	118.318
1412.16	280.841
1415.72	247.951
1419.29	144.061
1422.84	154.053
1426.4	160.515
1429.96	70.935
1433.51	191.901
1437.06	304.411
1440.61	302.931
1444.16	550.991
1447.71	651.7
1451.25	698.665
1454.8	670.444
1458.34	546.833
1461.88	594.758
1465.42	468.429
1468.96	329.723
1472.49	317.64
1476.03	349.06
1479.56	270.066
1483.09	362.558
1486.62	285.056
1490.15	369.452
1493.67	383.642
1497.2	307.694
1500.72	233.088
1504.24	159.762
1507.76	177.848
1511.28	41.256
1514.8	99.628
1518.31	2.678
1521.83	51.497
