Measurement: Raman, 514 nm, depolarized, Raman Data Processed
Mineral: Bustamite
Rruff sample: R040014
Ideal chemistry: CaMn^2+^Si_2_O_6_
Locality: Broken Hill, New South Wales, Australia
Source: University of Arizona Mineral Museum
Description: Orange fragment
Measured chemistry: (Ca_0.90_Mn_0.10_)_Σ=1_(Mn^2+^_0.78_Fe^2+^_0.19_Fe^3+^_0.02_Mg_0.01_)_Σ=1_(Si_1.98_Fe^3+^_0.02_)_Σ=2_O_6_
Pin_id: L00281
Orientation: Laser parallel to (0 1 1). Fiducial mark perpendicular to laser is parallel to a [1 0 0]
Raman shift (cm-1)	intensity
49.365	0
53.566	71.693
57.765	265.651
61.962	457.003
66.157	404.673
70.349	347.869
74.54	237.22
78.729	120.197
82.916	11.394
87.101	15.705
91.284	17.221
95.465	109.942
99.644	283.784
103.82	476.464
107.995	586.191
112.168	1478
116.339	734.962
120.508	957.089
124.675	1913.26
128.84	2035.59
133.003	1821.33
137.164	2035.78
141.323	1786.56
145.48	1468.39
149.635	1399.25
153.788	1530.73
157.939	1167.94
162.088	714.29
166.235	476.691
170.38	403.233
174.523	396.899
178.664	291.562
182.803	138.213
186.94	63.854
191.076	20.489
195.209	42.119
199.34	39.747
203.47	25.334
207.597	18.157
211.722	41.754
215.846	9.711
219.967	8.87
224.087	56.42
228.204	124.626
232.32	188.605
236.434	312.702
240.545	423.904
244.655	461.5
248.763	414.172
252.869	299.912
256.973	231.694
261.075	148.572
265.175	125.163
269.273	141.906
273.369	159.585
277.463	215.343
281.556	334.881
285.646	466.866
289.734	558.888
293.821	634.496
297.905	734.328
301.988	1047.93
306.069	1714.13
310.147	2685.08
314.224	3784.65
318.299	3613.24
322.372	2371.83
326.443	1613.44
330.512	1420.05
334.579	1464.68
338.645	1295.31
342.708	955.944
346.769	639.44
350.829	434.092
354.887	299.065
358.942	209.347
362.996	96.204
367.048	109.546
371.098	67.736
375.146	92.461
379.192	118.253
383.236	212.925
387.279	336.195
391.319	557.752
395.358	931.762
399.394	1681.23
403.429	2929.65
407.462	3205.96
411.493	2215.28
415.522	1152.66
419.549	616.144
423.575	304.664
427.598	156.178
431.619	81.34
435.639	47.145
439.657	14.668
443.673	12.21
447.687	2.76
451.699	5.711
455.709	35.785
459.717	102.286
463.724	139.793
467.728	118.355
471.731	62.935
475.732	128.56
479.731	399.23
483.728	651.904
487.723	451.572
491.716	199.241
495.708	65.903
499.697	62.552
503.685	108.195
507.671	238.841
511.655	426.504
515.637	464.17
519.617	345.838
523.596	130.51
527.572	48.193
531.547	3.112
535.52	5.362
539.491	4.621
543.46	16.936
547.427	6.678
551.393	7.746
555.356	31.754
559.318	62.217
563.278	107.657
567.236	212.075
571.192	448.47
575.147	667.842
579.099	690.188
583.05	478.507
586.999	333.181
590.946	266.259
594.891	282.981
598.834	280.48
602.776	314.333
606.715	390.099
610.653	473.486
614.589	647.112
618.523	812.182
622.456	1071.05
626.386	1554.53
630.315	2555
634.242	4617.61
638.167	8687.34
642.09	16181.2
646.012	21479.3
649.931	15137.5
653.849	8240.11
657.765	4499.85
661.679	2602.61
665.592	1646.81
669.502	1098.27
673.411	859.644
677.318	606.964
681.223	544.231
685.126	511.446
689.028	618.03
692.927	532.43
696.825	357.596
700.721	212.667
704.616	135.293
708.508	161.91
712.399	138.78
716.288	185.485
720.175	168.167
724.06	145.896
727.944	89.58
731.825	84.222
735.705	77.822
739.584	13.381
743.46	24.897
747.334	13.627
751.207	17.746
755.078	7.992
758.947	2.141
762.815	22.823
766.68	16.132
770.544	14.03
774.406	3.88
778.267	10.633
782.125	8.73
785.982	29.179
789.837	22.774
793.69	4.525
797.542	11.795
801.391	6.964
805.239	12.236
809.085	2.945
812.93	5.417
816.772	31.278
820.613	26.794
824.452	0.837
828.29	29.871
832.125	24.9
835.959	35.925
839.791	6.948
843.621	7.975
847.45	21.034
851.277	68.15
855.102	43.315
858.925	81.508
862.746	84.733
866.566	102.989
870.384	181.26
874.2	317.55
878.015	433.861
881.828	686.212
885.639	933.602
889.448	1156.03
893.256	1216.43
897.061	1016.9
900.865	784.022
904.668	613.61
908.468	478.762
912.267	439.379
916.064	445.689
919.86	471.243
923.653	527.457
927.445	591.223
931.236	682.474
935.024	772.222
938.811	851.538
942.596	870.427
946.379	1003.35
950.161	1151.62
953.94	1630.14
957.719	2476.55
961.495	4168.07
965.27	7942.27
969.043	16952.2
972.814	31997.9
976.583	30764.7
980.351	16451.5
984.117	8638.45
987.882	5351.44
991.644	3991.49
995.405	3302.6
999.165	3140.78
1002.92	2938.01
1006.68	2368.31
1010.43	1860.67
1014.18	1563.09
1017.93	1571.57
1021.68	1911.46
1025.43	2382.39
1029.18	2553.72
1032.92	2414.11
1036.66	3122.03
1040.4	3833.91
1044.14	2882.16
1047.88	1681.11
1051.62	998.523
1055.35	658.65
1059.08	503.871
1062.81	417.928
1066.54	357.971
1070.27	337.401
1073.99	279.671
1077.72	348.633
1081.44	378.478
1085.16	398.782
1088.88	363.339
1092.59	283.76
1096.31	215.933
1100.02	193.111
1103.73	124.809
1107.44	108.886
1111.15	122.116
1114.86	118.593
1118.57	98.331
1122.27	89.573
1125.97	92.369
1129.67	74.878
1133.37	56.121
1137.07	63.376
1140.76	51.64
1144.45	19.915
1148.15	38.192
1151.84	46.473
1155.53	76.755
1159.21	59.038
1162.9	28.319
1166.58	6.597
1170.26	10.866
1173.94	25.117
1177.62	5.335
1181.3	1.439
1184.97	15.322
1188.65	10.708
1192.32	16.249
1195.99	33.68
1199.66	8.805
1203.33	25.9
1206.99	28.606
1210.65	3.453
1214.32	34.111
1217.98	13.662
1221.64	9.163
1225.29	9.301
1228.95	0.182
1232.6	21.112
1236.26	19.387
1239.91	7.578
1243.56	35.648
1247.2	9.682
1250.85	29.641
1254.49	1.509
1258.13	15.729
1261.78	4.527
1265.41	12.391
1269.05	55.627
1272.69	46.574
1276.32	42.409
1279.95	69.902
1283.59	52.401
1287.21	37.798
1290.84	84.12
1294.47	60.382
1298.09	91.572
1301.72	82.707
1305.34	63.787
1308.96	81.794
1312.58	104.879
1316.19	79.296
1319.81	58.822
1323.42	26.938
1327.03	77.942
1330.64	74.642
1334.25	12.004
1337.86	19.166
1341.46	77.494
1345.07	40.012
1348.67	24.961
1352.27	6.248
1355.87	10.706
1359.46	17.305
1363.06	46.506
1366.65	54.89
1370.25	51.726
1373.84	20.188
1377.43	45.209
1381.02	26.801
1384.6	22.481
1388.18	42.136
1391.77	9.357
1395.35	16.631
1398.93	25.105
1402.51	43.841
1406.08	19.787
1409.66	58.618
1413.23	60.345
1416.8	42.961
1420.37	38.466
1423.94	0.89
1427.51	10.211
1431.08	16.778
1434.64	8.864
1438.2	12.742
1441.76	36.7
1445.32	74.042
1448.88	87.827
1452.43	41.115
1455.99	64.539
1459.54	51.99
1463.09	64.648
1466.64	48.675
1470.19	80.668
1473.74	79.097
1477.28	2.03
1480.83	62.196
1484.37	67.472
1487.91	28.8
1491.45	66.188
1494.98	44.574
1498.52	52.284
1502.05	22.429
1505.59	26.898
1509.12	1.157
1512.65	13.573
1516.17	23.452
1519.7	55.831
1523.23	0
