Measurement: Raman, 514 nm, depolarized, Raman Data Processed
Mineral: Bustamite
Rruff sample: R040014
Ideal chemistry: CaMn^2+^Si_2_O_6_
Locality: Broken Hill, New South Wales, Australia
Source: University of Arizona Mineral Museum
Description: Orange fragment
Measured chemistry: (Ca_0.90_Mn_0.10_)_Σ=1_(Mn^2+^_0.78_Fe^2+^_0.19_Fe^3+^_0.02_Mg_0.01_)_Σ=1_(Si_1.98_Fe^3+^_0.02_)_Σ=2_O_6_
Pin_id: M00115
Orientation: Laser parallel to (-1 -1 0). Fiducial mark perpendicular to laser is parallel to c [0 0 1]
Raman shift (cm-1)	intensity
117.729	0
121.897	630.971
126.063	1784.46
130.228	964.488
134.39	573.028
138.55	467.489
142.709	237.94
146.865	131.363
151.019	322.435
155.171	436.276
159.322	212.695
163.47	136.619
167.617	195.274
171.761	327.281
175.904	266.88
180.044	120.733
184.183	29.007
188.319	75.141
192.454	131.453
196.586	109.754
200.717	32.722
204.846	57.025
208.972	70.219
213.097	72.316
217.22	41.73
221.341	24.844
225.46	113.969
229.577	243.431
233.692	378.442
237.805	479.878
241.916	639.113
246.025	566.988
250.132	422.503
254.237	282.421
258.34	178.222
262.442	135.048
266.541	148.848
270.639	247.591
274.734	396.201
278.828	508.701
282.919	544.598
287.009	517.026
291.097	472.401
295.183	505.402
299.266	526.873
303.348	773.694
307.428	1226.76
311.507	2002.27
315.583	2684.89
319.657	2353.24
323.729	1569.47
327.8	1266.21
331.868	1203.02
335.935	1219.11
339.999	1030.05
344.062	770.009
348.123	464.058
352.182	332.536
356.239	270.252
360.294	212.553
364.347	204.07
368.398	135.481
372.448	192.704
376.495	211.351
380.54	268.315
384.584	399.148
388.626	698.312
392.666	1148.83
396.704	2261.67
400.74	4245.16
404.774	6314.38
408.806	5972.48
412.836	3697.51
416.865	1980.05
420.891	1032.29
424.916	626.958
428.939	366.663
432.959	262.019
436.978	236.711
440.996	258.446
445.011	235.122
449.024	181.571
453.036	193.777
457.045	201.716
461.053	263.411
465.059	184.87
469.063	109.128
473.065	120.205
477.065	233.112
481.063	471.902
485.06	496.59
489.054	240.175
493.047	99.754
497.038	16.297
501.027	4.768
505.014	39.17
508.999	109.562
512.982	154
516.964	150.595
520.944	58.988
524.921	0.26
528.897	2.394
532.871	34.234
536.844	52.272
540.814	53.847
544.783	7.706
548.749	12.77
552.714	25.658
556.677	13.981
560.638	130.202
564.597	146.341
568.555	274.405
572.511	478.393
576.464	590.308
580.416	486.164
584.366	334.968
588.315	240.813
592.261	199.284
596.206	230.84
600.148	235.729
604.089	294.294
608.028	406.454
611.965	490.503
615.901	614.63
619.834	917.247
623.766	1200.88
627.696	1930.32
631.624	3226.03
635.551	6098.85
639.475	11824.6
643.398	19811
647.318	19319.2
651.237	11336.4
655.155	6263.03
659.07	3580.13
662.984	2231.78
666.895	1421.47
670.805	1041.16
674.713	850.249
678.62	754.29
682.524	826.748
686.427	1004.02
690.328	1092.41
694.227	844.986
698.124	508.395
702.02	277.462
705.913	170.197
709.805	208.994
713.695	275.34
717.584	322.25
721.47	243.597
725.355	170.881
729.238	161.102
733.119	99.261
736.998	108.362
740.876	56.403
744.752	1.386
748.626	32.292
752.498	23.13
756.368	2.883
760.237	28.438
764.104	13.928
767.969	10.544
771.832	29.737
775.693	5.063
779.553	3.042
783.411	2.96
787.267	11.054
791.122	4.263
794.974	18.595
798.825	23.962
802.674	36.552
806.522	23.226
810.367	17.023
814.211	35.255
818.053	22.476
821.893	40.677
825.732	23.835
829.568	23.947
833.403	8.024
837.236	8.125
841.068	63.259
844.898	36.457
848.726	74.72
852.552	20.056
856.376	64.448
860.199	87.868
864.02	160.321
867.839	255.796
871.656	356.292
875.472	563.809
879.286	805.36
883.098	1186.96
886.909	1610.62
890.717	1769.33
894.524	1449.06
898.33	1133.16
902.133	801.688
905.935	618.571
909.735	552.282
913.533	511.757
917.33	481.941
921.124	569.3
924.918	618.408
928.709	658.599
932.499	746.76
936.286	741.061
940.073	877.785
943.857	894.424
947.64	1106.22
951.421	1356.5
955.2	1945.31
958.978	3194.92
962.753	5653.8
966.527	11184.6
970.3	23826.9
974.071	34780
977.84	24371.6
981.607	12333.9
985.372	6710.62
989.136	4363.91
992.898	3291.32
996.659	2811.74
1000.42	2645.29
1004.17	2467.9
1007.93	1969.59
1011.68	1483.34
1015.43	1185.15
1019.18	1058.04
1022.93	1100.68
1026.68	1210.16
1030.42	1368.6
1034.17	2078.73
1037.91	3090.97
1041.65	2908.41
1045.39	1721.09
1049.12	1069.54
1052.86	678.117
1056.59	459.418
1060.33	370.143
1064.06	329.332
1067.78	253.91
1071.51	311.886
1075.23	290.688
1078.96	302.863
1082.68	262.011
1086.4	235.307
1090.12	189.994
1093.83	176.692
1097.55	157.906
1101.26	138.998
1104.97	132.547
1108.68	112.293
1112.39	129.416
1116.1	85.841
1119.8	104.908
1123.5	139.87
1127.2	110.798
1130.9	107.88
1134.6	115.72
1138.3	67.503
1141.99	72.362
1145.69	68.143
1149.38	47.178
1153.07	83.018
1156.76	96.834
1160.44	66.922
1164.13	24.663
1167.81	33.074
1171.49	13.154
1175.17	43.519
1178.85	44.834
1182.52	16.071
1186.2	1.688
1189.87	1.687
1193.54	36.629
1197.21	2.574
1200.88	7.126
1204.55	16.443
1208.21	38.444
1211.88	49.152
1215.54	36.182
1219.2	2.816
1222.86	2.128
1226.51	39.451
1230.17	8.263
1233.82	7.269
1237.47	59.737
1241.12	12.533
1244.77	13.559
1248.42	13.473
1252.06	19.28
1255.71	73.615
1259.35	25.314
1262.99	10.01
1266.63	15.562
1270.26	52.058
1273.9	49.459
1277.53	78.765
1281.16	99.955
1284.8	62.098
1288.42	55.157
1292.05	68.08
1295.68	47.906
1299.3	50.748
1302.92	65.385
1306.55	59.931
1310.16	89.348
1313.78	105.672
1317.4	88.773
1321.01	62.551
1324.62	42.11
1328.24	0.85
1331.85	69.368
1335.45	7.065
1339.06	51.473
1342.66	109.99
1346.27	20.696
1349.87	81.896
1353.47	89.015
1357.07	39.431
1360.66	18.934
1364.26	41.51
1367.85	33.696
1371.44	57.909
1375.04	65.401
1378.62	49.02
1382.21	77.772
1385.8	43.507
1389.38	75.614
1392.96	46.639
1396.54	37.821
1400.12	73.644
1403.7	49.964
1407.28	32.266
1410.85	23.808
1414.42	48.359
1417.99	77.468
1421.56	105.824
1425.13	92.979
1428.7	53.388
1432.26	35.479
1435.83	39.19
1439.39	9.188
1442.95	103.57
1446.51	84.943
1450.06	96.441
1453.62	96.553
1457.17	109.139
1460.73	117.126
1464.28	136.542
1467.83	126.81
1471.37	109.037
1474.92	99.382
1478.46	55.554
1482.01	103.031
1485.55	8.766
1489.09	96.042
1492.63	18.887
1496.16	40.35
1499.7	77.82
1503.23	78.617
1506.76	125.297
1510.29	80.38
1513.82	32.517
1517.35	54.808
1520.88	3.351
1524.4	0
