Measurement: Raman, 514 nm, depolarized, Raman Data Processed
Mineral: Bustamite
Rruff sample: R040014
Ideal chemistry: CaMn^2+^Si_2_O_6_
Locality: Broken Hill, New South Wales, Australia
Source: University of Arizona Mineral Museum
Description: Orange fragment
Measured chemistry: (Ca_0.90_Mn_0.10_)_Σ=1_(Mn^2+^_0.78_Fe^2+^_0.19_Fe^3+^_0.02_Mg_0.01_)_Σ=1_(Si_1.98_Fe^3+^_0.02_)_Σ=2_O_6_
Pin_id: M00370
Orientation: Laser parallel to b* (0 1 0). Fiducial mark perpendicular to laser is parallel to c [0 0 1]
Raman shift (cm-1)	intensity
94.071	0
98.251	225.983
102.428	932.229
106.604	1376.4
110.777	1418.76
114.949	966.892
119.119	630.687
123.286	657.85
127.452	867.787
131.615	1181.13
135.777	1583.94
139.937	1501.21
144.094	1097.76
148.25	943.727
152.403	1188.61
156.555	1175.49
160.705	881.735
164.853	524.211
168.998	502.328
173.142	371.552
177.284	302.868
181.424	119.525
185.562	9.221
189.698	36.344
193.831	5.08
197.963	4.033
202.093	82.586
206.221	66.819
210.347	67.17
214.472	36.666
218.594	73.705
222.714	152.926
226.832	418.661
230.948	763.886
235.063	1040.84
239.175	1290.69
243.286	1361.52
247.394	1187.39
251.501	838.271
255.605	508.154
259.708	319.854
263.808	324.597
267.907	227.039
272.004	457.656
276.099	698.269
280.192	984.099
284.283	978.775
288.372	1174.03
292.459	1092.54
296.544	1185.59
300.627	1528.93
304.709	2352.39
308.788	3718.11
312.865	5338.31
316.941	5635.34
321.015	4291.48
325.086	2742.55
329.156	1791.61
333.224	1464.66
337.29	1135.68
341.354	794.203
345.416	537.648
349.476	266.295
353.534	201.303
357.591	126.378
361.645	49.951
365.698	71.841
369.748	84.079
373.797	115.963
377.844	155.761
381.889	321.963
385.932	671.307
389.973	1056.66
394.012	1434.57
398.049	1489.35
402.084	1531.98
406.118	1700.53
410.15	1167.04
414.179	640.5
418.207	329.921
422.233	151.301
426.257	19.227
430.279	12.24
434.299	9.644
438.318	88.382
442.334	103.999
446.349	12.504
450.361	43.107
454.372	19.994
458.381	16.83
462.388	74.526
466.394	13.897
470.397	30.542
474.398	101.861
478.398	305.123
482.396	707.383
486.391	590.621
490.385	294.797
494.377	140.894
498.368	225.966
502.356	378.979
506.342	699.935
510.327	1098.85
514.31	1378.81
518.291	1097.78
522.27	702.999
526.247	292.083
530.222	132.92
534.196	80.652
538.167	9.056
542.137	31.473
546.105	22.736
550.071	63.885
554.035	56.938
557.998	69.897
561.958	196.763
565.917	375.535
569.874	808.215
573.829	1027.8
577.782	1102.54
581.733	781.007
585.683	553.947
589.63	395.793
593.576	401.497
597.52	411.883
601.462	490.634
605.402	443.55
609.341	584.739
613.277	712.995
617.212	1060.57
621.145	1256.24
625.076	2051.8
629.006	3059.39
632.933	5509.94
636.859	10205.3
640.783	19578.9
644.705	26572.2
648.625	21002.6
652.543	11964.8
656.46	6408.15
660.375	3672.34
664.288	2229.46
668.199	1471.04
672.108	970.217
676.016	738.27
679.921	649.075
683.825	619.954
687.727	808.749
691.628	868.51
695.526	691.37
699.423	358.021
703.318	341.557
707.211	278.516
711.102	415.461
714.992	670.316
718.879	671.122
722.765	463.808
726.649	267.376
730.532	278.83
734.412	302.168
738.291	134.389
742.168	110.497
746.043	18.537
749.916	3.453
753.788	9.821
757.658	21.691
761.526	17.017
765.392	47.038
769.257	5.033
773.119	19.06
776.98	50.662
780.839	67.786
784.697	47.505
788.552	34.538
792.406	16.408
796.258	42.958
800.108	0.474
803.957	64.805
807.804	38.968
811.649	7.048
815.492	9.047
819.333	92.737
823.173	5.379
827.011	25.881
830.847	12.697
834.681	63.646
838.514	54.929
842.345	0.843
846.174	96.333
850.001	46.469
853.827	42.59
857.651	124.701
861.473	185.781
865.293	179.834
869.112	242.547
872.928	348.887
876.744	521.921
880.557	706.961
884.369	934.013
888.178	1211.82
891.987	1368.82
895.793	1179.72
899.598	977.278
903.401	837.099
907.202	695.77
911.001	606.455
914.799	620.142
918.595	571.659
922.389	810.116
926.182	910.4
929.972	1148.69
933.761	1242.2
937.549	1342.69
941.334	1345.93
945.118	1351.27
948.9	1544.36
952.681	2083.53
956.459	2777.14
960.236	4815.78
964.012	8608.53
967.785	18230.3
971.557	36384.5
975.327	39354.2
979.095	23736.6
982.862	12910.4
986.627	8084.74
990.39	6449.34
994.152	6173.92
997.912	6278.83
1001.67	5744.33
1005.43	4429.4
1009.18	3314.55
1012.93	2609.82
1016.68	2436.09
1020.43	2511.57
1024.18	3008.55
1027.93	3178.44
1031.67	3356.05
1035.42	4542.51
1039.16	5821.56
1042.9	4577.87
1046.63	2707.24
1050.37	1663.92
1054.11	1025.21
1057.84	796.305
1061.57	582.352
1065.3	463.037
1069.03	444.805
1072.75	503.191
1076.47	332.652
1080.2	349.301
1083.92	245.735
1087.64	266.357
1091.36	235.882
1095.07	278.982
1098.79	249.168
1102.5	177.737
1106.21	169.757
1109.92	242.009
1113.62	158.324
1117.33	113.531
1121.04	81.905
1124.74	286.35
1128.44	135.319
1132.14	79.566
1135.83	46.272
1139.53	15.556
1143.22	2.143
1146.92	149.637
1150.61	149.327
1154.3	130.598
1157.98	87.059
1161.67	135.242
1165.35	12.026
1169.04	35.326
1172.72	68.015
1176.4	14.674
1180.07	50.889
1183.75	12.766
1187.42	101.973
1191.1	33.951
1194.77	28.532
1198.44	4.956
1202.1	105.632
1205.77	112.561
1209.43	3.429
1213.1	153.112
1216.76	123.201
1220.42	65.47
1224.07	88.183
1227.73	108.648
1231.38	103.083
1235.04	54.33
1238.69	209.054
1242.34	224.607
1245.99	79.371
1249.63	134.06
1253.28	98.561
1256.92	142.718
1260.56	18.367
1264.2	67.809
1267.84	216.265
1271.48	239.835
1275.11	173.115
1278.74	149.221
1282.38	31.887
1286.01	24.537
1289.63	3.386
1293.26	38.529
1296.89	99.439
1300.51	160.663
1304.13	191.666
1307.75	162.402
1311.37	151.924
1314.99	130.697
1318.6	97.217
1322.22	33.933
1325.83	26.313
1329.44	28.421
1333.05	77.938
1336.66	166.123
1340.26	91.155
1343.87	238.415
1347.47	114.852
1351.07	49.908
1354.67	56.103
1358.27	102.915
1361.86	39.707
1365.46	66.277
1369.05	202.74
1372.64	168.955
1376.23	165.638
1379.82	212.117
1383.41	111.874
1386.99	208.965
1390.57	98.829
1394.16	97.435
1397.74	139.596
1401.32	104.312
1404.89	190.927
1408.47	194.773
1412.04	250.196
1415.61	222.36
1419.18	154.235
1422.75	146.357
1426.32	159.968
1429.89	96.674
1433.45	65.202
1437.01	237.14
1440.58	129.003
1444.13	172.19
1447.69	353.779
1451.25	338.578
1454.81	408.265
1458.36	330.009
1461.91	351.532
1465.46	329.034
1469.01	188.469
1472.56	229.19
1476.1	187.979
1479.64	317.443
1483.19	198.232
1486.73	188.652
1490.27	269.557
1493.81	370.394
1497.34	311.679
1500.88	254.609
1504.41	248.877
1507.94	183.816
1511.47	71.673
1515	4.835
1518.53	6.64
1522.05	0.703
