Measurement: Raman, 514 nm, depolarized, Raman Data Processed
Mineral: Bustamite
Rruff sample: R040014
Ideal chemistry: CaMn^2+^Si_2_O_6_
Locality: Broken Hill, New South Wales, Australia
Source: University of Arizona Mineral Museum
Description: Orange fragment
Measured chemistry: (Ca_0.90_Mn_0.10_)_Σ=1_(Mn^2+^_0.78_Fe^2+^_0.19_Fe^3+^_0.02_Mg_0.01_)_Σ=1_(Si_1.98_Fe^3+^_0.02_)_Σ=2_O_6_
Pin_id: L00174
Orientation: Laser parallel to (-1 0 -1). Fiducial mark perpendicular to laser is parallel to -b [0 -1 0]
Raman shift (cm-1)	intensity
95.268	0
99.453	125.298
103.636	400.821
107.817	591.427
111.996	573.074
116.172	616.371
120.347	1268.92
124.519	2736.79
128.69	2689.21
132.858	2816.27
137.025	2965.55
141.189	2300.07
145.352	1711.26
149.512	1643.79
153.67	1821.48
157.827	1404.43
161.981	866.399
166.133	501.716
170.283	570.588
174.431	520.95
178.577	358.776
182.721	171.147
186.863	66.304
191.003	86.221
195.141	88.801
199.277	26.069
203.411	65.544
207.543	116.155
211.673	85.533
215.801	99.414
219.927	26.188
224.051	70.105
228.173	253.458
232.292	431.019
236.41	609.052
240.526	820.726
244.64	923.965
248.752	887.707
252.861	690.599
256.969	439.561
261.075	310.872
265.179	254.453
269.281	252.068
273.38	315.449
277.478	407.147
281.574	644.877
285.668	812.53
289.76	827.092
293.85	907.243
297.937	1074.89
302.023	1554.24
306.107	2594.59
310.189	4296.16
314.269	5692.29
318.347	4991.4
322.423	3163.11
326.497	2003.62
330.569	1625.22
334.639	1544.22
338.707	1250.11
342.773	923.189
346.837	587.856
350.899	395.953
354.96	215.888
359.018	195.846
363.074	163.532
367.128	99.284
371.181	7.529
375.231	88.753
379.28	166.348
383.326	334.79
387.37	597.954
391.413	1070.16
395.454	1760.51
399.492	3215.61
403.529	5374.67
407.564	5901.54
411.596	3881.39
415.627	2105.22
419.656	1142.02
423.683	536.786
427.708	344.92
431.731	221.181
435.752	145.756
439.772	199.234
443.789	101.608
447.804	74.923
451.817	68.155
455.829	184.321
459.838	174.401
463.846	145.441
467.852	62.433
471.855	53.369
475.857	66.214
479.857	294.034
483.855	551.816
487.851	297.563
491.845	146.255
495.837	4.908
499.828	62.51
503.816	247.067
507.802	486.557
511.787	724.981
515.77	724.359
519.75	502.669
523.729	232.89
527.706	82.884
531.681	40.325
535.654	18.834
539.625	40.346
543.595	60.055
547.562	6.187
551.527	10.277
555.491	25.464
559.453	105.431
563.412	186.272
567.37	393.994
571.326	747.706
575.28	1035.2
579.233	959.904
583.183	580.687
587.131	365.519
591.078	323.447
595.022	278.128
598.965	301.705
602.906	326.489
606.845	399.159
610.782	590.287
614.718	619.697
618.651	879.283
622.582	1112.7
626.512	1711.88
630.44	2810.86
634.366	5040.34
638.29	9743.7
642.212	18169.8
646.132	21467.4
650.05	13673
653.967	7312.09
657.882	3980.09
661.794	2430.07
665.705	1597.88
669.614	1073.28
673.522	876.814
677.427	685.802
681.331	701.523
685.232	789.777
689.132	894.298
693.03	784.744
696.926	505.515
700.82	328.678
704.713	255.353
708.603	236.338
712.492	205.456
716.379	227.835
720.264	214.789
724.147	92.684
728.028	125.436
731.908	73.05
735.785	161.521
739.661	77.847
743.535	76.023
747.407	71.047
751.278	16.915
755.146	25.628
759.013	32.167
762.878	3.49
766.741	49.606
770.602	5.471
774.461	12.742
778.319	2.738
782.174	43.01
786.028	39.982
789.88	45.783
793.73	52.355
797.579	28.227
801.425	10.013
805.27	32.861
809.113	1.057
812.954	31.192
816.794	22.378
820.631	42.848
824.467	3.167
828.301	30.329
832.133	40.386
835.963	22.365
839.792	26.272
843.618	14.117
847.443	7.932
851.266	4.811
855.088	32.793
858.907	41.923
862.725	104.136
866.541	148.381
870.355	303.616
874.167	346.818
877.978	531.888
881.787	822.042
885.594	1031.99
889.399	1322
893.202	1317.49
897.004	983.933
900.803	848.15
904.601	621.268
908.398	552.695
912.192	476.757
915.985	510.237
919.776	447.167
923.565	683.165
927.352	717.507
931.138	867.323
934.922	867.06
938.704	936.65
942.484	1043.53
946.262	1080.97
950.039	1307.41
953.814	1770.27
957.587	2749
961.359	4851.38
965.128	9094
968.896	20081
972.662	35458.2
976.427	28972.5
980.189	14967.8
983.95	8045.51
987.709	5113.27
991.467	3997.08
995.222	3781.01
998.976	3908.01
1002.73	3896.49
1006.48	3148.47
1010.23	2550.78
1013.97	2180.17
1017.72	2245.27
1021.46	2632.39
1025.2	3245.12
1028.94	3259.67
1032.68	3364.54
1036.42	4744.4
1040.15	5377.01
1043.89	3752.29
1047.62	2056.88
1051.35	1248.18
1055.07	824.418
1058.8	656.757
1062.52	562.563
1066.25	411.317
1069.97	442.079
1073.69	434.395
1077.4	458.766
1081.12	439.921
1084.83	333.785
1088.55	340.596
1092.26	260.801
1095.96	191.418
1099.67	236.688
1103.38	243.667
1107.08	120.751
1110.78	53.646
1114.48	152.774
1118.18	15.979
1121.88	390.076
1125.57	158.252
1129.27	59.688
1132.96	50.179
1136.65	42.922
1140.34	76.273
1144.02	39.753
1147.71	121.909
1151.39	54.828
1155.07	69.682
1158.75	26.472
1162.43	14.846
1166.11	0.071
1169.78	98.086
1173.45	32.133
1177.12	52.247
1180.79	2.937
1184.46	3.729
1188.13	51.823
1191.79	27.43
1195.45	25.755
1199.11	11.851
1202.77	78.922
1206.43	134.852
1210.09	66.361
1213.74	46.09
1217.39	47.217
1221.05	12.238
1224.69	53.063
1228.34	22.601
1231.99	116.651
1235.63	42.581
1239.27	91.103
1242.91	73.09
1246.55	140.019
1250.19	107.583
1253.83	10.087
1257.46	100.484
1261.09	108.608
1264.72	68.22
1268.35	179.698
1271.98	278.031
1275.61	151.576
1279.23	34.458
1282.85	44.704
1286.47	54.394
1290.09	48.09
1293.71	173.242
1297.33	162.797
1300.94	102.357
1304.55	205.163
1308.16	188.002
1311.77	139.674
1315.38	35.744
1318.99	90.314
1322.59	118.701
1326.19	62.225
1329.79	14.613
1333.39	133.679
1336.99	86.48
1340.59	119.424
1344.18	54.393
1347.77	106.601
1351.37	109.947
1354.95	82.559
1358.54	133.154
1362.13	132.522
1365.71	191.429
1369.3	143.565
1372.88	77.28
1376.46	129.931
1380.04	5.845
1383.61	142.169
1387.19	170.082
1390.76	107.075
1394.33	112.889
1397.9	146.697
1401.47	200.263
1405.04	295.738
1408.6	194.952
1412.16	258.618
1415.72	170.568
1419.29	97.028
1422.84	77.582
1426.4	4.22
1429.96	23.343
1433.51	121.897
1437.06	0.273
1440.61	108.329
1444.16	200.168
1447.71	211.587
1451.25	208.199
1454.8	158.448
1458.34	95.185
1461.88	54.341
1465.42	3.939
1468.96	0
