Measurement: Raman, 514 nm, depolarized, Raman Data Processed
Mineral: Calcite
Rruff sample: R050307
Ideal chemistry: CaCO_3_
Locality: Zaire
Source: Eugene Schlepp
Description: Group of pink prismatic crystals
Measured chemistry: Ca_1.00_CO_3_
Pin_id: L01775
Orientation: Laser parallel to -a* (-1 0 0). Fiducial mark perpendicular to laser is parallel to -c [0 0 -1]
Raman shift (cm-1)	intensity
116.903	0
121.827	4.05713
126.749	97.5601
131.668	78.1985
136.585	241.761
141.5	606.718
146.412	1405.35
151.321	2688.2
156.229	1778.14
161.134	550.517
166.036	265.567
170.936	52.2825
175.834	115.348
180.729	50.8098
185.622	62.4731
190.512	64.8252
195.4	52.2036
200.286	49.9072
205.169	52.8398
210.049	75.0176
214.928	76.415
219.803	89.0625
224.677	136.922
229.548	56.4912
234.416	161.002
239.282	147.161
244.146	185.886
249.007	326.702
253.866	503.962
258.722	831.917
263.576	1342.81
268.427	2543.18
273.276	4620.43
278.123	6440.12
282.967	4533.38
287.809	1902.61
292.648	855.596
297.485	460.885
302.319	290.836
307.151	183.957
311.98	151.157
316.807	89.5164
321.631	152.148
326.454	15.1411
331.273	46.5996
336.09	7.96729
340.905	122.874
345.717	25.9773
350.527	89.7991
355.334	91.7173
360.139	8.90991
364.941	57.0608
369.741	14.7344
374.538	35.8401
379.333	15.3967
384.126	2.34009
388.916	27.832
393.703	18.0444
398.488	53.7554
403.271	26.4231
408.051	54.1831
412.828	58.9487
417.603	36.9785
422.376	82.9568
427.146	63.6003
431.914	39.0168
436.679	59.6025
441.442	79.335
446.202	29.2246
450.96	19.7993
455.715	55.3047
460.467	53.7251
465.218	38.4673
469.965	97.9204
474.711	135.203
479.454	48.127
484.194	139.209
488.932	58.2329
493.667	50.1367
498.4	28.0635
503.13	10.5889
507.858	8.48877
512.583	76.4097
517.306	25.0864
522.026	101.788
526.744	67.8389
531.459	127.556
536.172	168.589
540.882	118.813
545.59	40.9688
550.295	25.2915
554.998	41.3652
559.698	17.3438
564.396	23.4316
569.091	23.9624
573.784	76.8115
578.474	9.13867
583.162	1.32129
587.847	145.961
592.529	48.562
597.209	134.33
601.887	71.0205
606.562	57.2842
611.235	55.1992
615.905	76.5142
620.572	87.2837
625.237	142.433
629.9	86.2959
634.56	58.3589
639.217	39.8794
643.872	125.623
648.524	162.31
653.174	8.19678
657.821	124.422
662.466	88.4644
667.108	31.8481
671.748	179.78
676.385	95.4844
681.02	147.189
685.652	92.106
690.281	81.6191
694.908	73.2573
699.533	222.593
704.155	919.854
708.774	2622.31
713.391	1089.94
718.005	258.141
722.617	124.095
727.226	115.492
731.833	25.3833
736.437	5.86865
741.039	127.324
745.638	129.894
750.234	68.6382
754.828	73.8144
759.419	72.8359
764.008	107.717
768.595	119.368
773.178	57.8423
777.759	112.731
782.338	186.196
786.914	107.642
791.488	106.186
796.059	60.4351
800.627	2.94873
805.193	38.9605
809.756	31.9531
814.317	92.2754
818.875	128.204
823.431	85.9307
827.984	40.6362
832.534	59.2139
837.082	58.8935
841.627	129.53
846.17	120.136
850.71	172.663
855.248	64.686
859.783	101.701
864.316	37.4185
868.846	17.2749
873.373	149.337
877.898	75.8398
882.42	144.495
886.94	118.508
891.457	105.68
895.971	8.52539
900.483	110.545
904.993	74.4458
909.5	95.4868
914.004	39.6763
918.505	68.4146
923.004	61.0015
927.501	84.5273
931.995	1.0835
936.486	107.943
940.975	68.7183
945.461	45.2681
949.945	162.821
954.426	78.7744
958.904	20.3828
963.38	48.0591
967.853	54.2759
972.324	86.0606
976.792	23.5181
981.258	33.8369
985.72	135.12
990.181	59.3589
994.639	36.625
999.094	145.719
1003.55	181.793
1008	29.0596
1012.44	111.946
1016.89	207.108
1021.33	130.833
1025.77	156.428
1030.21	121.731
1034.64	58.6177
1039.07	22.7436
1043.5	268.835
1047.93	141.017
1052.35	78.4399
1056.78	166.347
1061.19	368.75
1065.61	532.978
1070.02	573.816
1074.43	1415.37
1078.84	11166.5
1083.25	50186.7
1087.65	16856.2
1092.05	1516.09
1096.45	596.577
1100.85	329.355
1105.24	247.843
1109.63	165.454
1114.02	151.826
1118.4	121.895
1122.78	102.931
1127.16	152.448
1131.54	89.7783
1135.92	63.208
1140.29	58.0737
1144.66	140.269
1149.02	156.519
1153.39	89.667
1157.75	59.145
1162.11	113.054
1166.46	152.092
1170.82	69.9619
1175.17	94.7007
1179.52	27.1377
1183.86	52.3242
1188.21	66.019
1192.55	29.4009
1196.89	4.56006
1201.22	106.02
1205.55	82.687
1209.88	73.1587
1214.21	61.3125
1218.54	99.7583
1222.86	26.2935
1227.18	112.278
1231.5	78.4292
1235.81	118.352
1240.12	8.41357
1244.43	61.855
1248.74	232.528
1253.04	29.2056
1257.34	35.9546
1261.64	111.526
1265.94	146.908
1270.23	134.616
1274.52	53.0576
1278.81	139.977
1283.1	115.976
1287.38	85.1318
1291.66	87.4219
1295.94	129.183
1300.21	164.898
1304.48	56.2471
1308.75	73.1719
1313.02	13.7559
1317.29	160.2
1321.55	137.289
1325.81	123.293
1330.06	132.891
1334.32	107.535
1338.57	111.827
1342.82	77.6973
1347.06	38.7344
1351.31	193.123
1355.55	151.186
1359.79	125.797
1364.02	76.7227
1368.26	113.243
1372.49	84.583
1376.71	29.1074
1380.94	70.2881
1385.16	59.9072
1389.38	56.96
1393.6	110.2
1397.81	11.0537
1402.02	79.3877
1406.23	24.209
1410.44	44.9004
1414.64	1.50195
1418.85	261.268
1423.04	117.673
1427.24	279.726
1431.43	763.615
1435.62	684.598
1439.81	200.444
1444	160.247
1448.18	111.468
1452.36	156.681
1456.54	68.459
1460.71	73.6982
1464.89	35.8574
1469.06	55.1397
1473.22	6.28906
1477.39	68.6982
1481.55	65.0742
1485.71	65.5312
1489.86	58.3818
1494.02	53.3027
1498.17	82.8555
1502.32	106.19
1506.46	146.075
1510.61	216.061
1514.75	123.505
1518.88	125.415
1523.02	35.9277
1527.15	186.155
1531.28	147.465
1535.41	80.2031
1539.53	201.326
1543.66	101.727
1547.78	35.8359
1551.89	17.4668
1556.01	107.985
1560.12	12.8408
1564.23	115.098
1568.33	185.918
