Measurement: Raman, 514 nm, depolarized, Raman Data Processed
Mineral: Calcite
Rruff sample: R050009
Ideal chemistry: CaCO_3_
Locality: Amparo mine, Rodeo, Durango, Mexico
Source: Eugene Schlepp
Description: Colorless cleavage rhomb
Measured chemistry: Ca_1.00_CO_3_; trace amounts of Mn
Pin_id: L00060
Orientation: Laser parallel to c* (0 0 1). Fiducial mark perpendicular to laser is parallel to a [1 0 0]
Raman shift (cm-1)	intensity
74.618	0
79.593	49.5225
84.564	19.5668
89.532	65.1399
94.498	21.0569
99.461	65.1532
104.421	63.7064
109.378	45.6007
114.332	95.522
119.283	68.6196
124.232	46.4263
129.178	60.9706
134.12	73.2534
139.061	95.1558
143.998	124.488
148.932	242.089
153.864	533.903
158.792	538.553
163.718	208.241
168.641	121.836
173.562	115.522
178.479	89.2788
183.394	91.0442
188.305	54.8227
193.214	114.693
198.12	94.7722
203.024	13.3572
207.924	48.4036
212.822	80.0276
217.717	74.2839
222.609	73.5684
227.498	51.616
232.385	97.6309
237.269	85.2185
242.149	142.188
247.027	115.614
251.903	146.09
256.775	133.892
261.645	180.806
266.512	242.823
271.376	272.453
276.237	545.431
281.096	1033.51
285.952	870.368
290.805	345.144
295.655	292.266
300.502	155.282
305.347	45.0403
310.189	28.1209
315.028	100.367
319.864	32.6545
324.698	23.376
329.528	53.9368
334.356	59.1748
339.182	35.0581
344.004	104.675
348.824	72.0449
353.641	1.52368
358.455	12.0471
363.266	66.5442
368.075	66.8035
372.881	19.7561
377.684	2.11719
382.484	77.1003
387.282	73.3088
392.077	117.687
396.869	56.9695
401.658	22.9082
406.445	40.7861
411.229	59.741
416.01	86.4775
420.788	51.4827
425.564	34.314
430.337	65.0596
435.107	31.7839
439.875	53.3774
444.639	48.9426
449.401	39.4429
454.161	8.10938
458.917	38.029
463.671	37.0613
468.422	41.312
473.17	11.8816
477.916	85.1135
482.659	41.0962
487.399	20.4314
492.137	44.5832
496.872	39.0779
501.604	20.6484
506.333	34.4302
511.06	99.9736
515.784	106.371
520.505	42.397
525.223	17.1399
529.939	20.0244
534.652	39.2053
539.363	56.0735
544.07	74.0178
548.775	68.4548
553.478	78.7146
558.177	9.01953
562.874	30.9385
567.568	26.552
572.26	18.2361
576.949	78.7969
581.635	16.5049
586.319	8.32251
590.999	4.31787
595.677	115.885
600.353	100.316
605.026	53.9722
609.696	77.2659
614.363	134.615
619.028	69.8406
623.69	117.619
628.349	89.3831
633.006	75.3206
637.66	93.0925
642.311	56.4937
646.96	87.3386
651.606	32.7778
656.25	3.03565
660.89	75.084
665.528	70.1079
670.164	66.2932
674.797	12.678
679.427	52.4468
684.054	131.083
688.679	11.0771
693.301	88.5566
697.921	95.8198
702.537	160.933
707.152	407.038
711.763	2014.32
716.372	782.637
720.978	168.543
725.582	69.208
730.183	42
734.781	110.933
739.377	54.9971
743.97	128.197
748.561	98.4878
753.149	64.2266
757.734	87.6714
762.316	80.1299
766.896	96.6733
771.474	109.033
776.048	104.686
780.62	8.18506
785.19	35.8442
789.757	124.872
794.321	109.901
798.883	57.1421
803.442	19.8213
807.998	88.3379
812.552	30.644
817.103	56.4414
821.652	32.1304
826.198	81.0996
830.741	210.226
835.282	46.3198
839.82	87.9609
844.355	71.9981
848.888	119.368
853.419	13.5503
857.946	101.754
862.472	79.354
866.994	50.3643
871.514	1.94336
876.032	84.1348
880.546	76.832
885.059	8.29883
889.568	41.7266
894.075	130.189
898.58	60.5137
903.082	54.1875
907.581	100.195
912.078	68.23
916.572	86.6362
921.063	72.792
925.552	109.661
930.039	21.6655
934.523	58.3555
939.004	169.697
943.483	16.1543
947.959	74.4522
952.432	101.475
956.903	201.411
961.372	119.023
965.838	168.527
970.301	140.758
974.762	54.9522
979.22	69.8003
983.676	10.5132
988.129	148.914
992.58	57.6743
997.028	87.854
1001.47	149.291
1005.92	47.9976
1010.36	65.6172
1014.79	105.296
1019.23	54.2417
1023.66	146.24
1028.09	101.695
1032.52	38.3574
1036.94	100.97
1041.37	169.672
1045.79	155.576
1050.2	96.1728
1054.62	63.6304
1059.03	139.153
1063.44	103.689
1067.85	356.709
1072.26	281.472
1076.66	549.356
1081.06	2089.25
1085.45	30124.5
1089.85	7798.47
1094.24	861.299
1098.63	374.057
1103.02	207.479
1107.4	172.652
1111.79	218.525
1116.17	42.5503
1120.54	168.23
1124.92	103.818
1129.29	109.015
1133.66	115.892
1138.03	162.832
1142.39	100.073
1146.75	57.1328
1151.11	137.147
1155.47	67.207
1159.83	125.707
1164.18	276.265
1168.53	81.4219
1172.87	57.2852
1177.22	228.63
1181.56	2.33106
1185.9	263.662
1190.24	77.9629
1194.57	131.785
1198.9	267.88
1203.23	17.1636
1207.56	19.4536
1211.89	78.4175
1216.21	160.098
1220.53	164.876
1224.85	249.676
1229.16	76.8638
1233.47	157.154
1237.78	116.806
1242.09	68.9702
1246.4	156.002
1250.7	117.241
1255	30.4644
1259.3	182.179
1263.59	187.366
1267.88	15.3506
1272.17	159.825
1276.46	197.428
1280.75	99.5029
1285.03	191.915
1289.31	83.3223
1293.59	27.5684
1297.87	182.33
1302.14	44.2012
1306.41	267.416
1310.68	227.859
1314.94	56.1709
1319.21	77.6182
1323.47	118.378
1327.72	45.25
1331.98	104.032
1336.23	81.0635
1340.49	19.1748
1344.73	193.186
1348.98	79.8457
1353.22	274.188
1357.47	105.84
1361.7	150.161
1365.94	154.134
1370.17	110.161
1374.41	84.5547
1378.64	22.4756
1382.86	194.923
1387.09	127.839
1391.31	54.9238
1395.53	167.332
1399.75	99.6475
1403.96	152.144
1408.17	109.906
1412.38	0.15625
1416.59	137.517
1420.8	178.05
1425	65.2715
1429.2	261.669
1433.4	398.74
1437.59	590.034
1441.78	220.932
1445.97	44.9004
1450.16	256.599
1454.35	241.588
1458.53	135.891
1462.71	83.7285
1466.89	190.543
1471.07	208.865
1475.24	280.01
1479.41	18.6318
1483.58	148.826
1487.75	248.619
1491.91	203.154
1496.07	77.8125
1500.23	166.519
1504.39	17.3281
1508.55	259.354
1512.7	203.589
1516.85	88.3408
1520.99	174.265
1525.14	173.529
1529.28	332.731
1533.42	247.331
1537.56	58.1943
1541.7	285.957
1545.83	194.449
1549.96	215.484
1554.09	118.955
1558.22	285.326
1562.34	195.613
1566.46	254.121
1570.58	306.806
1574.7	196.246
