Measurement: Raman, 514 nm, depolarized, Raman Data Processed
Mineral: Calcite
Rruff sample: R050127
Ideal chemistry: CaCO_3_
Locality: Rodeo, Durango, Mexico
Source: Dave Bunk Minerals
Description: Group of colorless crystals
Measured chemistry: Ca_1.00_CO_3_
Pin_id: M00125
Orientation: Laser parallel to -c* (0 0 -1). Fiducial mark perpendicular to laser is parallel to -a [-1 0 0]
Raman shift (cm-1)	intensity
94.071	0
98.251	70.249
102.428	26.735
106.604	1.546
110.777	126.328
114.949	74.46
119.119	162.514
123.286	66.677
127.452	17.697
131.615	9.063
135.777	71.314
139.937	101.123
144.094	119.814
148.25	153.685
152.403	320.636
156.555	755.862
160.705	567.005
164.853	256.152
168.998	124.146
173.142	29.417
177.284	117.64
181.424	91.821
185.562	10.397
189.698	15.146
193.831	65.912
197.963	18.533
202.093	4.897
206.221	31.663
210.347	3.279
214.472	1.441
218.594	1.211
222.714	26.273
226.832	30.822
230.948	17.029
235.063	0.842
239.175	67.365
243.286	51.021
247.394	2.697
251.501	30.516
255.605	45.169
259.708	133.292
263.808	91.194
267.907	160.789
272.004	260.347
276.099	380.871
280.192	796.841
284.283	1394.88
288.372	1044.72
292.459	435.782
296.544	255.724
300.627	164.419
304.709	144.914
308.788	92.156
312.865	66.183
316.941	112.106
321.015	91.61
325.086	22.714
329.156	77.267
333.224	94.567
337.29	118.288
341.354	58.698
345.416	38.861
349.476	82.565
353.534	98.616
357.591	50.918
361.645	25.712
365.698	68.466
369.748	104.192
373.797	40.684
377.844	72
381.889	89.352
385.932	64.769
389.973	6.454
394.012	37.568
398.049	81.671
402.084	40.202
406.118	7.412
410.15	20.685
414.179	78.427
418.207	57.507
422.233	190.031
426.257	3.017
430.279	57.64
434.299	53.362
438.318	31.846
442.334	29.292
446.349	81.756
450.361	103.866
454.372	54.746
458.381	63.428
462.388	88.981
466.394	83.088
470.397	48.287
474.398	23.391
478.398	82.307
482.396	117.927
486.391	77.77
490.385	40.309
494.377	37.104
498.368	67.771
502.356	78.443
506.342	56.034
510.327	15.687
514.31	54.423
518.291	63.879
522.27	72.307
526.247	39.198
530.222	34.892
534.196	60.446
538.167	64.167
542.137	37.559
546.105	55.027
550.071	56.535
554.035	54.847
557.998	18.26
561.958	127.3
565.917	20.358
569.874	67.461
573.829	86.081
577.782	8.74
581.733	10.637
585.683	46.72
589.63	23.16
593.576	38.243
597.52	52.242
601.462	10.238
605.402	40.671
609.341	93.871
613.277	25.902
617.212	18.313
621.145	5.564
625.076	80.438
629.006	84.475
632.933	0.261
636.859	24.537
640.783	16.381
644.705	82.244
648.625	58.068
652.543	23.857
656.46	13.763
660.375	15.745
664.288	32.266
668.199	64.133
672.108	17.841
676.016	7.606
679.921	0.467
683.825	57.3
687.727	96.78
691.628	79.377
695.526	3.117
699.423	10.667
703.318	90.29
707.211	214.619
711.102	544.492
714.992	2894.93
718.879	539.542
722.765	229.971
726.649	119.427
730.532	48.82
734.412	83.773
738.291	78.022
742.168	79.408
746.043	82.81
749.916	72.114
753.788	41.392
757.658	14.323
761.526	82.243
765.392	56.201
769.257	94.9
773.119	48.205
776.98	11.471
780.839	78.428
784.697	109.527
788.552	93.422
792.406	36.743
796.258	41.218
800.108	15.567
803.957	99.177
807.804	79.283
811.649	47.919
815.492	21.189
819.333	29.265
823.173	63.205
827.011	20.727
830.847	43.711
834.681	31.95
838.514	23.757
842.345	57.53
846.174	67.774
850.001	57.957
853.827	91.157
857.651	5.644
861.473	59.626
865.293	36.884
869.112	18.117
872.928	95.316
876.744	63.497
880.557	67.66
884.369	1.186
888.178	70.954
891.987	61.108
895.793	76.239
899.598	45.368
903.401	21.153
907.202	54.266
911.001	61.287
914.799	101.328
918.595	81.443
922.389	75.58
926.182	3.672
929.972	42.331
933.761	37.432
937.549	101.142
941.334	172.223
945.118	5
948.9	41.232
952.681	16.156
956.459	48.082
960.236	115.041
964.012	131.902
967.785	84.937
971.557	21.732
975.327	38.337
979.095	54.439
982.862	56.328
986.627	144.112
990.39	90.182
994.152	33.101
997.912	3.69
1001.67	71.523
1005.43	178.449
1009.18	185.618
1012.93	162.752
1016.68	154.854
1020.43	73.12
1024.18	73.094
1027.93	113.161
1031.67	146.23
1035.42	160.882
1039.16	194.19
1042.9	142.577
1046.63	106.074
1050.37	80.063
1054.11	122.49
1057.84	229.645
1061.57	142.793
1065.3	278.398
1069.03	576.647
1072.75	302.242
1076.47	398.058
1080.2	856.183
1083.92	2879.31
1087.64	38132.5
1091.36	12282.7
1095.07	1291.85
1098.79	537.415
1102.5	303.826
1106.21	281.185
1109.92	251.57
1113.62	258.846
1117.33	133.273
1121.04	146.548
1124.74	74.708
1128.44	110.312
1132.14	78.127
1135.83	182.823
1139.53	145.167
1143.22	149.264
1146.92	139.633
1150.61	103.777
1154.3	18.085
1157.98	0.714
1161.67	131.685
1165.35	102.042
1169.04	154.191
1172.72	121.534
1176.4	103.368
1180.07	14.75
1183.75	9.885
1187.42	16.786
1191.1	42.355
1194.77	95.227
1198.44	162.128
1202.1	73.193
1205.77	74.652
1209.43	21.183
1213.1	34.427
1216.76	15.573
1220.42	102.683
1224.07	150.229
1227.73	154.461
1231.38	164.701
1235.04	151.766
1238.69	110.269
1242.34	15.561
1245.99	58.641
1249.63	96.604
1253.28	134.294
1256.92	219.037
1260.56	215.63
1264.2	133.871
1267.84	82.445
1271.48	22.01
1275.11	42.399
1278.74	24.735
1282.38	70.035
1286.01	97.189
1289.63	163.241
1293.26	174.569
1296.89	127.404
1300.51	156.149
1304.13	17.412
1307.75	46.087
1311.37	81.208
1314.99	80.992
1318.6	183.97
1322.22	154.763
1325.83	163.926
1329.44	122.768
1333.05	62.99
1336.66	13.801
1340.26	36.725
1343.87	38.747
1347.47	49.385
1351.07	59.275
1354.67	131.913
1358.27	184.196
1361.86	195.335
1365.46	183.829
1369.05	153.365
1372.64	25.743
1376.23	96.905
1379.82	11.364
1383.41	77.417
1386.99	158.261
1390.57	160.371
1394.16	216.869
1397.74	222.818
1401.32	247.099
1404.89	109.235
1408.47	52.405
1412.04	44.917
1415.61	131.963
1419.18	85.812
1422.75	137.313
1426.32	259.093
1429.89	302.553
1433.45	347.669
1437.01	715.203
1440.58	745.734
1444.13	232.9
1447.69	139.967
1451.25	61.761
1454.81	69.873
1458.36	65.796
1461.91	173.357
1465.46	178.618
1469.01	239.596
1472.56	311.63
1476.1	297.204
1479.64	273.727
1483.19	137.271
1486.73	101.814
1490.27	49.171
1493.81	40.329
1497.34	77.402
1500.88	40.453
1504.41	81.472
1507.94	173.96
1511.47	206.01
1515	235.565
1518.53	195.783
1522.05	223.358
