Measurement: Raman, 514 nm, ccw, Raman Data Processed
Mineral: Calcite
Rruff sample: R050009
Ideal chemistry: CaCO_3_
Locality: Amparo mine, Rodeo, Durango, Mexico
Source: Eugene Schlepp
Description: Colorless cleavage rhomb
Measured chemistry: Ca_1.00_CO_3_; trace amounts of Mn
Pin_id: L00060
Orientation: Laser parallel to c* (0 0 1). Fiducial mark perpendicular to laser is parallel to a [1 0 0]
Raman shift (cm-1)	intensity
74.618	0
79.593	0.390442
84.564	66.5346
89.532	24.1684
94.498	48.353
99.461	24.9454
104.421	40.0211
109.378	1.52917
114.332	126.303
119.283	79.2541
124.232	26.2918
129.178	60.389
134.12	31.2531
139.061	63.0667
143.998	55.8171
148.932	219.102
153.864	551.755
158.792	456.338
163.718	129.891
168.641	91.3923
173.562	55.9089
178.479	64.4183
183.394	89.9156
188.305	54.4286
193.214	65.9131
198.12	50.502
203.024	87.0112
207.924	46.0686
212.822	11.3407
217.717	50.0518
222.609	56.5457
227.498	29.5956
232.385	17.4355
237.269	56.0842
242.149	66.6764
247.027	74.7347
251.903	82.74
256.775	95.8949
261.645	120.236
266.512	172.831
271.376	312.179
276.237	582.648
281.096	1203.16
285.952	920.733
290.805	382.975
295.655	202.422
300.502	103.475
305.347	152.6
310.189	45.6003
315.028	54.7529
319.864	56.9657
324.698	39.9373
329.528	30.2559
334.356	52.8901
339.182	36.672
344.004	28.3109
348.824	60.8083
353.641	18.5017
358.455	36.9816
363.266	46.0138
368.075	43.2719
372.881	56.3967
377.684	59.9503
382.484	4.1217
387.282	12.3516
392.077	29.605
396.869	70.5621
401.658	68.9828
406.445	1.84705
411.229	33.9703
416.01	36.5824
420.788	24.0729
425.564	65.5527
430.337	54.8871
435.107	25.3668
439.875	44.8125
444.639	53.0847
449.401	84.2898
454.161	39.1923
458.917	55.9485
463.671	11.8688
468.422	14.78
473.17	40.6494
477.916	2.82434
482.659	43.37
487.399	60.9932
492.137	23.6836
496.872	9.76892
501.604	101.258
506.333	53.4061
511.06	17.4291
515.784	9.50525
520.505	65.8032
525.223	6.51379
529.939	26.9808
534.652	55.7542
539.363	63.3685
544.07	17.0856
548.775	32.8529
553.478	38.3157
558.177	92.3763
562.874	34.9811
567.568	73.626
572.26	100.962
576.949	59.4082
581.635	59.6722
586.319	25.3109
590.999	82.6258
595.677	79.3157
600.353	42.0587
605.026	68.0525
609.696	18.0532
614.363	27.6226
619.028	10.566
623.69	53.4408
628.349	31.1079
633.006	56.5038
637.66	3.40039
642.311	59.031
646.96	58.4055
651.606	57.5701
656.25	47.477
660.89	35.7046
665.528	15.2539
670.164	46.4158
674.797	5.14795
679.427	24.7944
684.054	41.8818
688.679	105.124
693.301	94.488
697.921	74.6748
702.537	135.778
707.152	338.652
711.763	2270.59
716.372	898.219
720.978	89.8369
725.582	59.4707
730.183	47.4075
734.781	23.3965
739.377	41.3855
743.97	69.1377
748.561	49.3096
753.149	67.6047
757.734	16.5291
762.316	83.1338
766.896	61.5618
771.474	82.9973
776.048	94.4937
780.62	29.7244
785.19	35.8733
789.757	82.7654
794.321	86.7432
798.883	15.3682
803.442	23.2349
807.998	47.1555
812.552	34.3694
817.103	56.3047
821.652	61.3235
826.198	17.5344
830.741	26.1763
835.282	63.9895
839.82	11.9937
844.355	92.9092
848.888	41.02
853.419	54.9631
857.946	93.2656
862.472	127.461
866.994	135.701
871.514	1.7085
876.032	64.1975
880.546	103.57
885.059	3.12695
889.568	39.0942
894.075	75.4946
898.58	58.8413
903.082	10.4529
907.581	39.9863
912.078	84.2083
916.572	56.3557
921.063	46.2688
925.552	59.7085
930.039	14.5044
934.523	14.2712
939.004	60.5076
943.483	78.8831
947.959	35.1252
952.432	50.3191
956.903	53.8301
961.372	108.23
965.838	40.562
970.301	61.6094
974.762	29.0911
979.22	115.255
983.676	63.5474
988.129	70.3313
992.58	84.4531
997.028	89.1585
1001.47	60.5496
1005.92	28.7082
1010.36	128.294
1014.79	61.4522
1019.23	16.7454
1023.66	120.696
1028.09	150.307
1032.52	43.456
1036.94	67.4917
1041.37	65.1106
1045.79	126.67
1050.2	56.7256
1054.62	140.679
1059.03	137.964
1063.44	177.76
1067.85	395.634
1072.26	325.197
1076.66	519.371
1081.06	2005.22
1085.45	27252.9
1089.85	6988.84
1094.24	734.756
1098.63	294.385
1103.02	225.01
1107.4	58.3159
1111.79	142.872
1116.17	1.81103
1120.54	92.0718
1124.92	87.4331
1129.29	1.17481
1133.66	84.0918
1138.03	51.521
1142.39	135.827
1146.75	111.594
1151.11	52.4839
1155.47	108.393
1159.83	49.2285
1164.18	30.6704
1168.53	149.196
1172.87	64.2549
1177.22	128.431
1181.56	188.546
1185.9	62.1504
1190.24	147.495
1194.57	129.449
1198.9	75.4106
1203.23	191.858
1207.56	6.19971
1211.89	79.9302
1216.21	152.575
1220.53	12.1763
1224.85	191.713
1229.16	19.9185
1233.47	71.5366
1237.78	24.1665
1242.09	1.11572
1246.4	130.264
1250.7	94.2227
1255	136.59
1259.3	115.376
1263.59	131.196
1267.88	102.624
1272.17	76.8633
1276.46	149.745
1280.75	187.936
1285.03	24.5068
1289.31	66.9014
1293.59	16.2261
1297.87	172.517
1302.14	138.843
1306.41	164.411
1310.68	105.707
1314.94	36.6987
1319.21	201.572
1323.47	78.9048
1327.72	76.4736
1331.98	135.995
1336.23	48.6699
1340.49	16.6982
1344.73	78.2017
1348.98	24.7754
1353.22	31.7129
1357.47	98.4541
1361.7	5.87402
1365.94	140.747
1370.17	120.457
1374.41	146.425
1378.64	117.626
1382.86	42.6182
1387.09	49.8018
1391.31	106.986
1395.53	54.5356
1399.75	95.9228
1403.96	111.549
1408.17	121.719
1412.38	134.638
1416.59	122.403
1420.8	51.5322
1425	94.4482
1429.2	185.988
1433.4	351.095
1437.59	455.803
1441.78	144.283
1445.97	133.876
1450.16	150.967
1454.35	99.1045
1458.53	31.2891
1462.71	100.102
1466.89	116.211
1471.07	149.85
1475.24	28.1943
1479.41	64.3994
1483.58	161.291
1487.75	158.367
1491.91	9.75391
1496.07	142.731
1500.23	86.6582
1504.39	154.22
1508.55	123.642
1512.7	126.327
1516.85	124.266
1520.99	228.31
1525.14	123.591
1529.28	197.213
1533.42	270.63
1537.56	225.119
1541.7	134.247
1545.83	249.778
1549.96	216.158
1554.09	146.82
1558.22	278.429
1562.34	193.129
1566.46	212.875
1570.58	180.362
1574.7	97.25
