Measurement: Raman, 514 nm, ccw, Raman Data Processed
Mineral: Calcite
Rruff sample: R050009
Ideal chemistry: CaCO_3_
Locality: Amparo mine, Rodeo, Durango, Mexico
Source: Eugene Schlepp
Description: Colorless cleavage rhomb
Measured chemistry: Ca_1.00_CO_3_; trace amounts of Mn
Pin_id: M00141
Orientation: Laser parallel to a* (1 0 0). Fiducial mark perpendicular to laser is parallel to -c [0 0 -1]
Raman shift (cm-1)	intensity
70.886	0
75.862	246.425
80.836	127.477
85.806	37.7493
90.774	29.4627
95.739	20.1117
100.701	18.6455
105.66	51.3771
110.617	85.2812
115.57	320.433
120.521	189.395
125.469	45.567
130.414	0.095215
135.356	13.0808
140.295	56.2806
145.232	36.7615
150.165	216.233
155.096	390.538
160.024	213.913
164.949	105.123
169.872	30.3859
174.791	14.6877
179.708	6.99707
184.622	41.3516
189.533	61.715
194.441	15.8639
199.347	39.655
204.249	20.5977
209.149	37.2333
214.046	45.5275
218.94	27.8057
223.832	48.3699
228.72	46.8583
233.606	6.7522
238.489	30.4703
243.369	71.1145
248.247	55.7249
253.121	58.7786
257.993	73.3593
262.862	114.521
267.728	172.368
272.592	206.928
277.452	482.331
282.31	742.707
287.165	488.727
292.017	155.078
296.867	57.5807
301.714	109.793
306.558	49.3044
311.399	79.5084
316.237	33.8115
321.073	30.769
325.906	34.3749
330.736	40.3059
335.563	8.74988
340.387	22.0966
345.209	38.1047
350.028	65.8065
354.844	59.6418
359.658	53.603
364.469	61.4791
369.277	30.78
374.082	54.5609
378.884	14.4229
383.684	55.1698
388.481	54.7181
393.275	26.4056
398.066	28.0547
402.855	4.42822
407.641	9.01599
412.424	24.4755
417.205	62.8355
421.983	56.255
426.758	33.5352
431.53	67.875
436.299	1.05139
441.066	39.2831
445.83	1.43701
450.591	55.5912
455.35	16.5938
460.106	16.6672
464.859	19.5093
469.609	35.5147
474.357	22.7744
479.102	99.723
483.844	85.2266
488.584	35.8972
493.321	29.5627
498.055	18.1655
502.786	62.8586
507.515	8.61157
512.241	51.0116
516.964	3.37756
521.685	78.4298
526.402	32.1033
531.118	17.1222
535.83	23.4009
540.54	25.2693
545.247	43.0339
549.951	97.7864
554.653	64.7931
559.352	55.9226
564.048	32.9211
568.742	86.9419
573.432	93.2777
578.121	43.0823
582.806	14.5914
587.489	79.4371
592.169	56.1951
596.847	18.9699
601.521	35.8524
606.193	12.8215
610.863	32.1093
615.53	24.9243
620.194	44.4395
624.855	72.8623
629.514	25.2913
634.17	33.1261
638.823	30.4988
643.474	118.184
648.122	103.075
652.767	48.3009
657.41	37.3574
662.05	22.4553
666.688	68.2727
671.322	39.6449
675.954	3.7179
680.584	80.5349
685.211	13.7052
689.835	37.5614
694.456	70.4319
699.075	94.1051
703.691	98.4907
708.305	273.014
712.916	1415.57
717.524	279.868
722.13	72.9102
726.733	60.0045
731.333	17.2553
735.931	23.132
740.526	32.9243
745.118	5.13623
749.708	35.5413
754.295	81.2998
758.88	5.83582
763.462	31.8423
768.041	18.5312
772.618	14.9204
777.192	35.9565
781.763	62.5496
786.332	70.3723
790.898	21.3508
795.462	34.1624
800.023	66.7441
804.581	27.1729
809.137	27.418
813.69	118.033
818.24	9.30713
822.788	63.2126
827.334	50.2632
831.876	43.9441
836.416	83.4661
840.954	49.0574
845.489	63.6365
850.021	62.4907
854.551	110.535
859.078	47.654
863.602	60.49
868.124	92.2429
872.644	78.7393
877.16	59.9038
881.675	105.537
886.186	27.8191
890.695	69.9727
895.202	55.5327
899.705	30.8044
904.207	23.6043
908.705	95.4954
913.201	34.9924
917.695	8.32129
922.186	20.5481
926.674	12.5732
931.16	58.3943
935.643	31.2314
940.124	30.8254
944.602	26.9121
949.077	5.81299
953.55	67.1436
958.021	73.1221
962.489	54.9678
966.954	89.554
971.417	69.3474
975.877	38.9775
980.334	28.7307
984.789	26.9089
989.242	76.5974
993.692	64.1426
998.139	36.2085
1002.58	31.3159
1007.03	58.6382
1011.47	62.335
1015.9	17.1409
1020.34	60.7363
1024.77	182.42
1029.2	29.6077
1033.63	49.9836
1038.05	108.883
1042.47	46.4429
1046.89	89.4553
1051.31	52.8501
1055.72	115.394
1060.14	70.9883
1064.55	204.842
1068.95	248.012
1073.36	269.097
1077.76	585.949
1082.16	3641.99
1086.55	34958.6
1090.95	2393.28
1095.34	509.966
1099.73	240.795
1104.12	158.885
1108.5	68.2063
1112.88	65.5642
1117.26	31.6304
1121.64	48.2905
1126.01	76.667
1130.38	104.519
1134.75	84.0886
1139.12	2.85205
1143.48	7.36841
1147.84	87.5706
1152.2	88.7331
1156.56	82.2439
1160.91	68.0147
1165.27	115.877
1169.61	53.1162
1173.96	58.269
1178.31	111.283
1182.65	169.43
1186.98	95.2913
1191.32	27.3193
1195.66	37.5354
1199.99	88.0342
1204.32	116.178
1208.64	106.672
1212.97	127.893
1217.29	42.4187
1221.61	85.8545
1225.93	39.9605
1230.24	68.103
1234.55	90.1406
1238.86	2.09009
1243.17	63.48
1247.47	166.296
1251.78	55.4675
1256.07	142.902
1260.37	100.353
1264.67	133.457
1268.96	184.759
1273.25	147.315
1277.54	86.7817
1281.82	111.872
1286.1	62.5664
1290.38	29.002
1294.66	55.9331
1298.93	28.3814
1303.21	108.09
1307.48	72.7402
1311.74	97.9756
1316.01	79.2129
1320.27	123.449
1324.53	57.5669
1328.79	87.8188
1333.05	46.8486
1337.3	135.426
1341.55	51.7651
1345.8	87.2398
1350.04	90.3047
1354.29	30.9004
1358.53	8.80322
1362.76	57.2148
1367	129.98
1371.23	123.657
1375.46	15.0366
1379.69	18.833
1383.92	129.132
1388.14	11.1074
1392.36	83.2437
1396.58	85.6909
1400.8	80.8848
1405.01	115.838
1409.22	82.6953
1413.43	114.085
1417.64	47.6728
1421.85	54.6709
1426.05	129.107
1430.25	128.517
1434.44	345.736
1438.64	173.023
1442.83	171.925
1447.02	80.3989
1451.21	108.262
1455.39	58.8701
1459.58	115.987
1463.76	90.8037
1467.94	107.65
1472.11	39.2324
1476.28	151.117
1480.45	36.4248
1484.62	63.687
1488.79	15.3237
1492.95	74.8462
1497.11	15.061
1501.27	107.375
1505.43	59.5801
1509.58	117.923
1513.73	19.7905
1517.88	99.8579
1522.03	116.772
1526.18	152.78
1530.32	89.8745
1534.46	173.098
1538.6	79.9307
1542.73	112.124
1546.86	32.9429
1550.99	118.591
1555.12	42.7407
1559.25	131.093
1563.37	1.41894
1567.49	98.9683
1571.61	48.3784
1575.73	120.252
