Measurement: Raman, 514 nm, depolarized, Raman Data Processed
Mineral: Calcite
Rruff sample: R050307
Ideal chemistry: CaCO_3_
Locality: Zaire
Source: Eugene Schlepp
Description: Group of pink prismatic crystals
Measured chemistry: Ca_1.00_CO_3_
Pin_id: L01569
Orientation: Laser parallel to -c* (0 0 -1). Fiducial mark perpendicular to laser is parallel to a [1 0 0]
Raman shift (cm-1)	intensity
116.903	0
121.827	76.6943
126.749	22.8735
131.668	93.6587
136.585	137.294
141.5	294.333
146.412	463.377
151.321	771.183
156.229	789.886
161.134	313.715
166.036	288.231
170.936	108.171
175.834	141.448
180.729	58.1235
185.622	80.7759
190.512	138.177
195.4	163.716
200.286	98.6035
205.169	228.036
210.049	114.813
214.928	147.217
219.803	190.643
224.677	141.192
229.548	110.151
234.416	52.8857
239.282	189.739
244.146	115.861
249.007	147.81
253.866	119.298
258.722	373.098
263.576	461.582
268.427	828.127
273.276	1328.7
278.123	1887.69
282.967	1663.35
287.809	872.96
292.648	396.456
297.485	220.982
302.319	65.7061
307.151	136.491
311.98	104.772
316.807	163.504
321.631	85.4619
326.454	136.607
331.273	136.916
336.09	40.3701
340.905	160.609
345.717	110.316
350.527	66.1348
355.334	145.216
360.139	88.29
364.941	161.01
369.741	150.179
374.538	106.447
379.333	27.8057
384.126	127.251
388.916	125.731
393.703	121.073
398.488	124.683
403.271	35.8018
408.051	106.603
412.828	24.4424
417.603	48.415
422.376	229.461
427.146	108.429
431.914	58.4062
436.679	100.399
441.442	88.5068
446.202	22.6484
450.96	52.4541
455.715	21.6045
460.467	107.455
465.218	173.048
469.965	155.321
474.711	32.4395
479.454	94.584
484.194	171.347
488.932	136.29
493.667	25.5059
498.4	158.668
503.13	26.7773
507.858	29.9766
512.583	61.3203
517.306	272.535
522.026	163.496
526.744	171.475
531.459	18.4775
536.172	187.782
540.882	49.0772
545.59	73.3398
550.295	55.3428
554.998	158.583
559.698	160.515
564.396	127.06
569.091	94.6924
573.784	21.0156
578.474	179.828
583.162	189.045
587.847	218.389
592.529	156.907
597.209	93.1582
601.887	0.839844
606.562	8.11914
611.235	118.055
615.905	171.778
620.572	224.943
625.237	182.174
629.9	147.266
634.56	26.9688
639.217	211.955
643.872	32.2627
648.524	138.03
653.174	8.98047
657.821	23.0166
662.466	184.011
667.108	14.6885
671.748	42.918
676.385	214.947
681.02	103.461
685.652	116.597
690.281	160.237
694.908	185.653
699.533	256.298
704.155	1071.3
708.774	2325.87
713.391	1875.2
718.005	440.945
722.617	147.746
727.226	219.224
731.833	90.0166
736.437	133.451
741.039	153.565
745.638	84.7285
750.234	74.1504
754.828	80.4219
759.419	79.5381
764.008	134.315
768.595	184.327
773.178	162.036
777.759	218.238
782.338	79.1523
786.914	153.666
791.488	270.032
796.059	10.4727
800.627	113.349
805.193	138.112
809.756	21.1738
814.317	147.755
818.875	172.453
823.431	199.949
827.984	67.0039
832.534	89.7627
837.082	17.0645
841.627	331.894
846.17	29.4551
850.71	150.44
855.248	54.3369
859.783	164.98
864.316	185.277
868.846	57.0576
873.373	83.4014
877.898	43.7568
882.42	229.092
886.94	185.129
891.457	96.0088
895.971	126.953
900.483	14.7344
904.993	70.1826
909.5	169.694
914.004	30.0459
918.505	138.401
923.004	106.502
927.501	103.481
931.995	92.9961
936.486	15.0078
940.975	165.886
945.461	47.0176
949.945	140.576
954.426	33.7695
958.904	281.606
963.38	120.725
967.853	159.981
972.324	53.377
976.792	69.7168
981.258	9.5293
985.72	57.0312
990.181	97.541
994.639	229.736
999.094	210.027
1003.55	354.207
1008	148.336
1012.44	174.172
1016.89	176.174
1021.33	153.029
1025.77	237.522
1030.21	186.533
1034.64	163.834
1039.07	155.152
1043.5	140.928
1047.93	123.949
1052.35	253.744
1056.78	234.803
1061.19	218.191
1065.61	619.268
1070.02	441.244
1074.43	1204.33
1078.84	8419.11
1083.25	32759.8
1087.65	20893.3
1092.05	1470.42
1096.45	549.852
1100.85	393.344
1105.24	134.305
1109.63	307.562
1114.02	226.9
1118.4	72.5723
1122.78	245.918
1127.16	180.533
1131.54	76.0019
1135.92	152.971
1140.29	87.4434
1144.66	81.8633
1149.02	294.815
1153.39	176.846
1157.75	263.232
1162.11	139.6
1166.46	268.135
1170.82	50.7305
1175.17	80.0176
1179.52	82.8066
1183.86	14.0391
1188.21	297.935
1192.55	406.566
1196.89	110.998
1201.22	69.8555
1205.55	117.4
1209.88	155.285
1214.21	125.9
1218.54	293.459
1222.86	219.441
1227.18	177.512
1231.5	206.533
1235.81	8.66797
1240.12	114.01
1244.43	129.828
1248.74	195.176
1253.04	218.894
1257.34	145.752
1261.64	97.6231
1265.94	159.402
1270.23	94.5918
1274.52	251.65
1278.81	246.727
1283.1	169.586
1287.38	22.502
1291.66	145.336
1295.94	168.527
1300.21	137.902
1304.48	114.389
1308.75	232.545
1313.02	166.953
1317.29	214.742
1321.55	351.404
1325.81	222.961
1330.06	141.164
1334.32	129.422
1338.57	334.391
1342.82	179.969
1347.06	222.602
1351.31	408.941
1355.55	171.1
1359.79	197.008
1364.02	189.353
1368.26	165.965
1372.49	193.963
1376.71	245.065
1380.94	207
1385.16	120.272
1389.38	57.8457
1393.6	206.213
1397.81	190.16
1402.02	103.133
1406.23	325.688
1410.44	243.801
1414.64	22.668
1418.85	140.654
1423.04	295.481
1427.24	129.533
1431.43	753.551
1435.62	838.125
1439.81	296.965
1444	258.824
1448.18	218.94
1452.36	218.713
1456.54	28.3105
1460.71	16.7578
1464.89	244.559
1469.06	183.182
1473.22	153.459
1477.39	106.309
1481.55	200.797
1485.71	137.258
1489.86	275.371
1494.02	212.09
1498.17	108.266
1502.32	101.393
1506.46	333.539
1510.61	328.486
1514.75	363.119
1518.88	78.3984
1523.02	139.025
1527.15	44.5762
1531.28	309.478
1535.41	220.652
1539.53	15.7188
1543.66	315.769
1547.78	18.7676
1551.89	101.906
1556.01	160.625
1560.12	156.193
1564.23	215.279
1568.33	445.082
