Measurement: Raman, 514 nm, depolarized, Raman Data Processed
Mineral: Calcite
Rruff sample: R050127
Ideal chemistry: CaCO_3_
Locality: Rodeo, Durango, Mexico
Source: Dave Bunk Minerals
Description: Group of colorless crystals
Measured chemistry: Ca_1.00_CO_3_
Pin_id: M00388
Orientation: Laser parallel to a* (1 0 0). Fiducial mark perpendicular to laser is parallel to -c [0 0 -1]
Raman shift (cm-1)	intensity
109.512	0
114.44	41.6826
119.365	36.9661
124.288	35.7095
129.209	87.7495
134.127	307.404
139.043	746.228
143.956	1329.36
148.867	2025.26
153.775	3113.6
158.681	1853.86
163.585	506.486
168.486	256.396
173.385	49.9793
178.282	71.2522
183.176	56.0876
188.067	36.9658
192.956	58.0591
197.843	72.5815
202.727	58.3362
207.609	80.3396
212.489	2.57642
217.366	82.0317
222.24	71.0764
227.112	119.912
231.982	14.8755
236.849	140.314
241.714	129.71
246.577	205.808
251.437	279.666
256.294	547.92
261.149	795.695
266.002	1421.78
270.852	2818.68
275.7	5127.94
280.545	6436.8
285.388	4038.7
290.229	1672.7
295.067	795.617
299.902	470.634
304.735	258.319
309.566	212.922
314.394	96.416
319.22	91.0088
324.043	102.514
328.864	75.9377
333.682	28.9224
338.498	48.1997
343.311	6.2124
348.122	94.3914
352.931	17.9734
357.737	96.0518
362.54	28.9534
367.341	37.0286
372.14	115.077
376.936	35.7927
381.73	47.2139
386.521	73.1792
391.31	61.1113
396.096	9.01172
400.88	144.906
405.661	60.5825
410.44	31.2085
415.216	90.6938
419.99	65.563
424.761	2.83154
429.53	67.5869
434.297	38.2466
439.061	0.863281
443.822	77.4692
448.581	51.9863
453.337	20.3511
458.091	33.7588
462.843	23.1201
467.592	20.4873
472.338	9.58984
477.082	7.59277
481.824	31.7383
486.563	80.7832
491.3	117.778
496.034	77.7026
500.765	23.5703
505.494	131.08
510.221	24.96
514.945	96.6587
519.666	92.6035
524.385	119.265
529.102	79.606
533.816	94.5698
538.527	93.3247
543.236	151.819
547.943	91.2446
552.647	67.5088
557.348	70.4819
562.047	129.581
566.744	11.9868
571.438	85.3003
576.129	61.3066
580.818	10.7349
585.504	177.7
590.188	21.8667
594.87	26.8135
599.549	75.8486
604.225	89.1182
608.899	10.7602
613.57	146.154
618.239	40.5327
622.905	126.956
627.569	120.321
632.23	103.491
636.889	185.263
641.545	117.512
646.198	3.8418
650.849	180.341
655.498	127.488
660.144	84.5142
664.787	98.6269
669.428	113.632
674.067	96.5449
678.703	56.5278
683.336	153.647
687.967	32.6914
692.595	88.5083
697.221	75.3232
701.844	254.996
706.465	1017.96
711.083	2362.57
715.698	957.21
720.311	231.691
724.922	7.83203
729.53	161.859
734.135	32.0972
738.738	155.731
743.338	39.0273
747.936	57.5469
752.531	84.917
757.124	60.0562
761.714	69.9853
766.302	65.895
770.887	68.7349
775.469	87.7983
780.049	84.5361
784.626	100.834
789.201	61.4399
793.773	63.9893
798.343	95.3599
802.91	128.685
807.475	23.6284
812.037	54.3706
816.596	9.79932
821.153	40.8198
825.707	77.7769
830.259	23.1934
834.808	65.5571
839.355	29.0561
843.899	52.8892
848.441	72.4927
852.98	163.029
857.516	47.52
862.05	56.1289
866.581	78.8687
871.11	2.94434
875.636	126.095
880.159	19.1831
884.68	24.6172
889.199	13.8765
893.714	91.8335
898.228	37.855
902.738	71.8447
907.246	48.1953
911.752	101.024
916.255	36.8486
920.755	21.5132
925.253	27.9326
929.748	61.6348
934.241	44.3052
938.731	92.9233
943.218	100.498
947.703	27.7246
952.186	71.5444
956.665	116.101
961.142	84.6733
965.617	17.8491
970.089	56.3862
974.558	151.896
979.025	174.292
983.489	12.2319
987.951	163.74
992.41	157.344
996.866	128.987
1001.32	136.661
1005.77	109.957
1010.22	75.6685
1014.67	111.398
1019.11	74.7568
1023.55	101.594
1027.99	135.131
1032.42	46.1201
1036.86	85.1548
1041.29	138.96
1045.72	124.784
1050.14	67.0156
1054.56	163.528
1058.98	55.7871
1063.4	348.115
1067.82	560.473
1072.23	559.862
1076.64	1467.28
1081.05	13585.8
1085.45	53581.7
1089.85	13560.2
1094.25	1217.84
1098.65	472.504
1103.04	288.328
1107.43	204.288
1111.82	164.448
1116.21	135.316
1120.59	164.252
1124.97	174.019
1129.35	3.29981
1133.73	42.5005
1138.1	165.62
1142.47	149.374
1146.84	113.491
1151.21	36.7305
1155.57	17.9951
1159.93	28.7446
1164.29	26.0278
1168.64	81.4258
1172.99	38.7788
1177.34	105.278
1181.69	36.3584
1186.04	141.918
1190.38	31.21
1194.72	74.5005
1199.05	100.834
1203.39	25.1206
1207.72	96.4048
1212.05	42.646
1216.37	73.8852
1220.7	112.119
1225.02	75.3921
1229.34	2.71143
1233.65	138.339
1237.97	163.692
1242.28	77.541
1246.59	102.136
1250.89	133.481
1255.19	82.9072
1259.49	121.955
1263.79	22.126
1268.09	56.2725
1272.38	41.9629
1276.67	161.144
1280.95	169.167
1285.24	63.4043
1289.52	3.12793
1293.8	52.8203
1298.08	177.399
1302.35	8.0752
1306.62	99.6309
1310.89	102.769
1315.15	160.013
1319.42	204.204
1323.68	47.2432
1327.94	109.499
1332.19	66.6885
1336.44	268.762
1340.69	146.164
1344.94	84.166
1349.19	125.072
1353.43	207.231
1357.67	91.0068
1361.9	199.824
1366.14	95.3897
1370.37	71.4072
1374.6	19.0244
1378.83	30.4238
1383.05	237.617
1387.27	114.261
1391.49	115.452
1395.7	208.14
1399.92	55.5635
1404.13	158.392
1408.34	281.039
1412.54	204.652
1416.74	218.222
1420.94	286.709
1425.14	301.657
1429.34	252.618
1433.53	892.207
1437.72	672.792
1441.9	213.618
1446.09	216.757
1450.27	179.714
1454.45	66.2578
1458.63	121.832
1462.8	159.335
1466.97	129.222
1471.14	65.4248
1475.31	212.35
1479.47	146.72
1483.63	196.332
1487.79	106.341
1491.94	135.572
1496.09	110.009
1500.24	152.642
1504.39	201.497
1508.54	133.523
1512.68	138.318
1516.82	169.006
1520.95	175.559
1525.09	181.511
1529.22	78.7871
1533.35	95.8144
1537.47	101.819
1541.6	149.057
1545.72	44.6484
1549.83	22.3301
1553.95	1.05566
1558.06	197.906
1562.17	26.1943
1566.28	16.7119
1570.38	0
