Measurement: Raman, 514 nm, ccw, Raman Data Processed
Mineral: Calcite
Rruff sample: R050009
Ideal chemistry: CaCO_3_
Locality: Amparo mine, Rodeo, Durango, Mexico
Source: Eugene Schlepp
Description: Colorless cleavage rhomb
Measured chemistry: Ca_1.00_CO_3_; trace amounts of Mn
Pin_id: M00141
Orientation: Laser parallel to a* (1 0 0). Fiducial mark perpendicular to laser is parallel to -c [0 0 -1]
Raman shift (cm-1)	intensity
67.152	0
72.13	68.0753
77.106	247.971
82.079	66.5302
87.048	5.00488
92.015	15.568
96.98	5.5404
101.941	26.8184
106.9	7.13852
111.855	117.502
116.808	249.538
121.758	41.8086
126.705	26.0505
131.649	47.7766
136.591	9.41858
141.529	20.3899
146.465	16.0593
151.398	124.853
156.328	238.63
161.256	74.4798
166.18	33.276
171.102	36.112
176.021	0.305054
180.937	10.7774
185.85	23.6498
190.76	14.4072
195.668	33.4089
200.572	46.3301
205.474	52.1788
210.374	14.0106
215.27	32.935
220.163	17.3743
225.054	14.6982
229.942	49.9618
234.827	31.7043
239.709	38.9875
244.589	34.1591
249.465	35.3205
254.339	44.3126
259.21	33.2957
264.079	44.2071
268.944	93.8547
273.807	140.234
278.667	313.018
283.524	372.405
288.378	130.887
293.23	96.174
298.079	77.6788
302.925	11.158
307.768	32.5956
312.609	58.0302
317.446	44.6692
322.281	8.90778
327.113	16.8896
331.943	18.0676
336.769	6.97986
341.593	35.9413
346.414	16.0568
351.233	0.646057
356.048	14.3649
360.861	42.5123
365.671	45.6365
370.478	60.1936
375.283	26.1361
380.084	32.8614
384.883	9.56287
389.68	8.57471
394.473	38.3009
399.264	8.40063
404.052	23.9219
408.837	28.5294
413.62	43.1711
418.4	15.3096
423.177	45.7523
427.951	36.1757
432.722	12.3701
437.491	45.6102
442.257	70.7856
447.021	38.0615
451.781	33.2154
456.539	33.1737
461.294	50.195
466.047	36.9307
470.797	53.6677
475.544	41.3701
480.288	56.0624
485.03	14.1646
489.768	4.42645
494.504	8.00244
499.238	15.394
503.969	8.89795
508.697	33.3908
513.422	40.9918
518.144	49.2449
522.864	90.7219
527.582	29.8037
532.296	35.0685
537.008	59.3263
541.717	12.2363
546.423	22.0037
551.127	70.8944
555.828	23.0748
560.526	23.1341
565.222	25.9792
569.915	63.5591
574.605	34.904
579.292	22.3409
583.977	46.6174
588.659	10.4823
593.339	73.699
598.016	23.8547
602.69	49.2388
607.361	27.7494
612.03	32.896
616.696	44.6901
621.359	55.8781
626.02	89.6434
630.678	65.0455
635.333	68.6513
639.986	26.1749
644.636	56.5021
649.284	36.0612
653.928	35.9449
658.57	24.3126
663.21	24.8656
667.846	35.0487
672.481	46.0827
677.112	53.2371
681.741	40.672
686.367	15.4503
690.99	11.2997
695.611	48.8517
700.229	19.6895
704.845	36.8833
709.458	69.9688
714.068	99.4104
718.676	84.4959
723.281	27.6793
727.883	38.0677
732.483	55.8318
737.08	33.7698
741.674	7.36304
746.266	32.1877
750.855	30.7732
755.442	17.7706
760.025	60.4032
764.607	7.12427
769.185	24.1427
773.761	55.3508
778.335	3.35583
782.906	21.1352
787.474	59.2915
792.039	22.5657
796.602	1.6864
801.162	20.8484
805.72	39.7524
810.275	21.3489
814.828	46.4805
819.378	41.9006
823.925	43.0969
828.47	59.5442
833.012	33.5995
837.551	75.5362
842.088	53.2745
846.622	51.5986
851.154	49.5478
855.683	58.1377
860.209	8.15002
864.733	105.962
869.254	39.9275
873.773	49.6741
878.289	29.641
882.803	26.3842
887.314	36.6102
891.822	40.8202
896.328	36.7968
900.831	34.2854
905.332	2.96106
909.83	29.1012
914.325	58.4408
918.818	25.6781
923.308	48.2621
927.796	65.6612
932.281	49.5321
936.764	56.0785
941.244	67.4696
945.721	21.2134
950.196	44.825
954.668	98.3991
959.138	14.7445
963.605	46.8683
968.07	62.811
972.532	44.1995
976.991	34.0433
981.448	64.4565
985.903	66.4104
990.355	40.474
994.804	65.4098
999.251	45.5789
1003.7	68.8347
1008.14	53.0618
1012.58	47.9868
1017.01	83.3398
1021.45	31.7672
1025.88	74.1111
1030.31	24.2834
1034.73	85.7712
1039.16	19.3745
1043.58	95.125
1048	35.0427
1052.41	46.7346
1056.83	48.2183
1061.24	81.0471
1065.65	14.437
1070.05	97.8357
1074.46	53.4324
1078.86	189.839
1083.26	1485.73
1087.65	4134.59
1092.05	240.209
1096.44	95.6111
1100.83	27.3213
1105.21	0.985596
1109.6	72.4722
1113.98	8.02515
1118.36	0.363525
1122.73	3.7854
1127.1	80.1103
1131.47	43.2361
1135.84	57.4399
1140.21	15.3025
1144.57	38.1738
1148.93	60.0339
1153.29	6.87817
1157.65	65.1311
1162	70.2773
1166.35	21.9023
1170.7	89.0273
1175.05	84.2068
1179.39	100.231
1183.73	33.4917
1188.07	72.2417
1192.41	135.749
1196.74	101.906
1201.07	3.88379
1205.4	84.5115
1209.72	31.2398
1214.05	67.5278
1218.37	22.824
1222.69	22.3162
1227.01	57.7165
1231.32	15.6973
1235.63	110.309
1239.94	37.8552
1244.24	90.904
1248.55	88.2529
1252.85	2.86377
1257.15	22.8809
1261.44	62.4805
1265.74	87.4524
1270.03	141.047
1274.32	97.8726
1278.61	85.8106
1282.89	93.2927
1287.17	22.7134
1291.45	110.965
1295.73	39.4404
1300	136.589
1304.27	69.4712
1308.54	35.4529
1312.81	46.9155
1317.08	112.101
1321.34	66.2815
1325.6	132.845
1329.85	94.8098
1334.11	58.4243
1338.36	82.3931
1342.61	67.4907
1346.86	58.6148
1351.1	45.5205
1355.35	144.721
1359.59	118.426
1363.82	159.901
1368.06	83.561
1372.29	61.3467
1376.52	61.2598
1380.75	22.0708
1384.97	77.3994
1389.2	153.939
1393.42	18.9736
1397.64	66.3687
1401.85	23.5747
1406.07	81.1338
1410.28	138.07
1414.49	42.3003
1418.69	36.4126
1422.9	4.12207
1427.1	0.97168
1431.3	27.9712
1435.49	233.064
1439.69	4.20996
1443.88	157.975
1448.07	47.606
1452.26	46.9863
1456.44	122.249
1460.62	174.656
1464.8	79.3535
1468.98	147.028
1473.15	71.7598
1477.33	43.0039
1481.5	156.931
1485.66	170.031
1489.83	24.4829
1493.99	145.445
1498.15	103.668
1502.31	201.478
1506.47	107.034
1510.62	123.698
1514.77	306.934
1518.92	183.628
1523.07	170.081
1527.21	201.252
1531.35	125.56
1535.49	83.606
1539.63	90.2529
1543.76	77.2739
1547.9	189.285
1552.03	209.415
1556.15	139.213
1560.28	204.69
1564.4	202.23
1568.52	205.37
1572.64	4.271
1576.75	62.644
