Measurement: Raman, 514 nm, depolarized, Raman Data Processed
Mineral: Calcite
Rruff sample: R050048
Ideal chemistry: CaCO_3_
Locality: Magdalena, New Mexico, USA
Source: University of Arizona Mineral Museum
Description: Colorless massive
Measured chemistry: (Ca_0.99_Zn_0.01_)CO_3_
Pin_id: L00439
Orientation: Laser parallel to -a* (-1 0 0). Fiducial mark perpendicular to laser is parallel to -c [0 0 -1]
Raman shift (cm-1)	intensity
119.05	0
123.24	22.109
127.427	86.731
131.612	78.55
135.794	114.466
139.975	291.476
144.153	455.45
148.329	905.066
152.503	1838.49
156.674	1786.13
160.843	816.608
165.011	424.617
169.175	280.819
173.338	159.027
177.499	63.168
181.657	128.155
185.813	74.788
189.967	40.013
194.119	97.854
198.268	192.339
202.415	66.588
206.561	71.837
210.703	112.118
214.844	134.589
218.983	85.368
223.119	62.395
227.253	128.688
231.385	196.269
235.515	43.101
239.643	93.931
243.768	226.938
247.891	184.192
252.012	275.642
256.131	311.901
260.248	407.367
264.363	593.49
268.475	962.396
272.585	1675.71
276.693	2963.36
280.799	4274.78
284.903	3319.98
289.005	1913.88
293.104	951.405
297.201	490.242
301.296	268.693
305.389	299.796
309.48	254.107
313.569	138.236
317.655	176.345
321.74	190.346
325.822	161.335
329.902	111.711
333.98	184.242
338.056	173.908
342.129	133.001
346.201	53.724
350.27	131.264
354.337	155.342
358.402	119.502
362.465	51.73
366.526	51.015
370.585	113.141
374.642	26.341
378.696	14.783
382.748	61.645
386.799	59.702
390.847	56.19
394.893	49.403
398.936	4.189
402.978	203.794
407.018	56.704
411.055	32.593
415.091	16.031
419.124	108.579
423.155	122.765
427.184	39.427
431.211	53.351
435.236	149.187
439.259	162.263
443.28	26.685
447.298	76.645
451.315	147.087
455.329	90.561
459.341	18.088
463.352	17.124
467.36	178.335
471.366	182.778
475.37	148.492
479.372	28.473
483.371	14.16
487.369	162.189
491.365	71.649
495.358	74.883
499.35	13.335
503.339	202.541
507.326	211.194
511.311	46.767
515.295	70.269
519.276	81.484
523.255	182.433
527.232	117.474
531.207	10.813
535.179	117.916
539.15	154.614
543.119	141.252
547.086	158.857
551.05	51.736
555.013	91.502
558.973	177.678
562.932	203.788
566.888	29.83
570.842	83.984
574.795	119.375
578.745	155.223
582.693	170.997
586.639	41.498
590.583	37.121
594.525	199.425
598.465	314.501
602.403	49.257
606.339	74.521
610.273	159.714
614.205	264.354
618.135	279.318
622.063	62.912
625.989	67.676
629.912	201.315
633.834	286.049
637.754	152.805
641.671	45.977
645.587	10.922
649.501	73.39
653.412	349.984
657.322	246.866
661.23	60.968
665.135	3.602
669.039	167.545
672.94	291.473
676.84	255.325
680.738	39.118
684.633	14.021
688.527	245.117
692.418	188.729
696.308	213.796
700.195	6.906
704.081	135.857
707.964	785.9
711.846	2159.19
715.726	842.243
719.603	175.436
723.479	172.403
727.352	184.531
731.224	236.836
735.094	149.858
738.961	107.743
742.827	84.708
746.691	217.188
750.552	459.901
754.412	300.017
758.27	142.643
762.125	34.719
765.979	177.302
769.831	190.7
773.681	197.188
777.529	89.404
781.375	71.906
785.219	67.836
789.06	239.977
792.901	312.269
796.739	184.564
800.575	64.705
804.409	32.944
808.241	209.695
812.071	390.636
815.899	392.826
819.726	53.635
823.55	52.585
827.372	144.331
831.193	276.874
835.011	249.682
838.828	184.087
842.642	116.298
846.455	88.526
850.266	120.855
854.075	231.965
857.881	324.777
861.686	147.113
865.489	80.273
869.29	102.693
873.089	165.143
876.886	297.595
880.682	290.013
884.475	162.479
888.266	164.992
892.056	99.664
895.843	282.31
899.629	485.041
903.413	286.536
907.194	149.418
910.974	52.354
914.752	135.356
918.528	298.421
922.302	511.544
926.074	264.792
929.844	198.118
933.613	78.486
937.379	64.89
941.144	155.668
944.906	456.694
948.667	290.295
952.426	153.866
956.183	14.687
959.938	29.188
963.691	30.255
967.442	164.186
971.191	368.348
974.939	72.5
978.684	23.312
982.428	29.016
986.169	125.396
989.909	328.732
993.647	312.316
997.383	267.003
1001.12	100.329
1004.85	24.726
1008.58	51.828
1012.31	375.796
1016.03	541.213
1019.76	426.793
1023.48	312.628
1027.2	173.922
1030.92	149.729
1034.64	175.687
1038.36	542.751
1042.07	659.041
1045.78	438.287
1049.49	427.104
1053.2	213.823
1056.9	380.618
1060.61	427.541
1064.31	1024.69
1068.01	1012.39
1071.71	958.912
1075.41	1436.52
1079.1	4344.81
1082.79	25109.1
1086.48	28907.3
1090.17	4175.31
1093.86	1402.84
1097.55	721.244
1101.23	489.76
1104.91	258.137
1108.59	137.457
1112.27	136.344
1115.95	404.906
1119.62	554.428
1123.3	506.074
1126.97	475.104
1130.63	148.504
1134.3	57.801
1137.97	146.896
1141.63	237.541
1145.29	421.811
1148.95	531.188
1152.61	399.541
1156.27	79.283
1159.92	53.883
1163.57	32.191
1167.22	160.863
1170.87	421.148
1174.52	581.744
1178.16	556.154
1181.81	382.502
1185.45	323.223
1189.09	56.789
1192.73	46.383
1196.36	137.582
1200	385.162
1203.63	642.846
1207.26	617.422
1210.89	462.271
1214.52	240.385
1218.14	141.098
1221.77	19.916
1225.39	227.279
1229.01	665.422
1232.62	628.676
1236.24	654.867
1239.86	630.822
1243.47	436.859
1247.08	131.49
1250.69	48.113
1254.3	133.795
1257.9	569.541
1261.5	644.387
1265.11	769.127
1268.71	754.221
1272.3	648.939
1275.9	242.779
1279.49	12.26
1283.09	21.193
1286.68	214.516
1290.27	276.965
1293.86	588.816
1297.44	780.584
1301.03	620.137
1304.61	320.352
1308.19	240.748
1311.77	30.238
1315.34	38.934
1318.92	47.488
1322.49	205.98
1326.06	613.648
1329.63	539.883
1333.2	734.594
1336.77	559.096
1340.33	334.98
1343.89	190.463
1347.46	64.389
1351.02	199.66
1354.57	254.555
1358.13	528.008
1361.68	811.461
1365.23	766.566
1368.79	670.664
1372.33	682.141
1375.88	319.051
1379.43	270.129
1382.97	230.254
1386.51	80.768
1390.05	198.143
1393.59	536.793
1397.13	768.676
1400.66	1090.61
1404.19	910.566
1407.72	813.186
1411.25	601.01
1414.78	524.271
1418.31	77.9
1421.83	226.719
1425.36	173.84
1428.88	627.305
1432.39	1007.54
1435.91	1196.13
1439.43	1235.42
1442.94	1170.11
1446.45	893.041
1449.96	788.477
1453.47	579.732
1456.98	319.303
1460.48	99.873
1463.99	216.275
1467.49	310.48
1470.99	335.377
1474.49	752.629
1477.99	928.977
1481.48	975.988
1484.97	1026.09
1488.46	785.27
1491.95	547.463
1495.44	322.799
1498.93	277.967
1502.41	24.01
1505.9	9.699
1509.38	129.639
1512.86	0
