Measurement: Raman, 514 nm, depolarized, Raman Data Processed
Mineral: Calcite
Rruff sample: R050130
Ideal chemistry: CaCO_3_
Locality: Mexico
Source: Dave Bunk Minerals
Description: Colorless cleavage rhomb
Measured chemistry: Ca_1.00_CO_3_; trace amounts of Si (?)
Pin_id: L00286
Orientation: Laser parallel to a* (1 0 0). Fiducial mark perpendicular to laser is parallel to -c [0 0 -1]
Raman shift (cm-1)	intensity
81.246	0
85.455	54.286
89.663	24.148
93.868	100.251
98.07	200.038
102.271	238.041
106.469	311.829
110.665	311.461
114.859	358.313
119.05	353.956
123.24	368.095
127.427	352.477
131.612	343.853
135.794	357.084
139.975	437.063
144.153	480.706
148.329	984.948
152.503	2616.74
156.674	2769.03
160.843	959.831
165.011	480.1
169.175	313.566
173.338	245.076
177.499	221.788
181.657	176.822
185.813	169.096
189.967	132.594
194.119	197.309
198.268	175.227
202.415	125.358
206.561	125.685
210.703	165.221
214.844	161.964
218.983	119.927
223.119	127.043
227.253	145.37
231.385	127.86
235.515	125.491
239.643	147.539
243.768	192.833
247.891	227.93
252.012	269.516
256.131	375.587
260.248	424.969
264.363	584.005
268.475	909.544
272.585	1599.18
276.693	3009.1
280.799	5163.6
284.903	3938.5
289.005	1763.98
293.104	841.478
297.201	441.678
301.296	310.616
305.389	244.682
309.48	174.867
313.569	139.213
317.655	130.614
321.74	66.139
325.822	72.977
329.902	48.152
333.98	29.002
338.056	18.926
342.129	37.863
346.201	17.692
350.27	39.392
354.337	98.5
358.402	65.67
362.465	52.018
366.526	40.692
370.585	24.721
374.642	29.17
378.696	9.555
382.748	16.87
386.799	20.361
390.847	24.828
394.893	0.564
398.936	7.792
402.978	9.733
407.018	28.247
411.055	52.067
415.091	2.46
419.124	17.207
423.155	7.251
427.184	5.035
431.211	0.568
435.236	58.137
439.259	48.812
443.28	8.48
447.298	25.153
451.315	31.103
455.329	18.801
459.341	8.674
463.352	11.368
467.36	14.095
471.366	21.081
475.37	16.057
479.372	3.761
483.371	4.472
487.369	62.007
491.365	31.69
495.358	13.595
499.35	7.035
503.339	43.083
507.326	8.803
511.311	23.427
515.295	39.945
519.276	14.446
523.255	72.137
527.232	28.566
531.207	16.08
535.179	33.426
539.15	32.749
543.119	98.076
547.086	31.444
551.05	14.57
555.013	7.713
558.973	35.493
562.932	53.602
566.888	15.67
570.842	34.296
574.795	76.218
578.745	50.225
582.693	23.194
586.639	17.945
590.583	48.508
594.525	36.633
598.465	55.372
602.403	27.747
606.339	9.174
610.273	48.436
614.205	73.271
618.135	48.544
622.063	29.872
625.989	28.854
629.912	28.48
633.834	70.932
637.754	58.078
641.671	22.47
645.587	63.623
649.501	80.494
653.412	71.641
657.322	7.815
661.23	32.957
665.135	15.336
669.039	79.829
672.94	51.885
676.84	22.963
680.738	35.819
684.633	46.365
688.527	70.531
692.418	42.337
696.308	53.104
700.195	17.017
704.081	133.218
707.964	460.018
711.846	2698.36
715.726	675.569
719.603	170.786
723.479	74.311
727.352	48.914
731.224	78.113
735.094	38.523
738.961	24.768
742.827	34.094
746.691	48.979
750.552	87.454
754.412	69.23
758.27	5.679
762.125	0.156
765.979	68.579
769.831	82.941
773.681	21.099
777.529	14.596
781.375	33.632
785.219	92.903
789.06	52.84
792.901	78.008
796.739	28.1
800.575	15.942
804.409	54.042
808.241	88.102
812.071	64.895
815.899	83.882
819.726	64.763
823.55	45.212
827.372	47.223
831.193	62.205
835.011	76.989
838.828	22.889
842.642	25.735
846.455	0.307
850.266	48.608
854.075	85.391
857.881	72.249
861.686	24.085
865.489	26.914
869.29	13.759
873.089	49.617
876.886	52.468
880.682	18.315
884.475	17.115
888.266	2.098
892.056	31.71
895.843	78.523
899.629	85.346
903.413	51.849
907.194	57.659
910.974	53.179
914.752	8.552
918.528	66.251
922.302	47.059
926.074	77.854
929.844	11.568
933.613	9.597
937.379	15.157
941.144	67.008
944.906	101.151
948.667	25.024
952.426	34.882
956.183	1.273
959.938	29.598
963.691	11.495
967.442	53.486
971.191	64.3
974.939	51.254
978.684	5.23
982.428	60.15
986.169	40.17
989.909	71.2
993.647	56.26
997.383	68.111
1001.12	83.525
1004.85	38.649
1008.58	120.347
1012.31	90.366
1016.03	168.576
1019.76	143.806
1023.48	139.085
1027.2	78.369
1030.92	78.754
1034.64	78.595
1038.36	177.392
1042.07	171.91
1045.78	162.821
1049.49	130.74
1053.2	136.419
1056.9	173.746
1060.61	263.537
1064.31	721.948
1068.01	526.753
1071.71	594.575
1075.41	937.577
1079.1	2311.6
1082.79	30811.2
1086.48	26764.1
1090.17	2500.05
1093.86	850.015
1097.55	456.087
1101.23	344.561
1104.91	186.627
1108.59	100.842
1112.27	115.782
1115.95	115.998
1119.62	237.147
1123.3	181.86
1126.97	157.5
1130.63	68.917
1134.3	108.098
1137.97	89.563
1141.63	47.264
1145.29	88.871
1148.95	117.228
1152.61	77.445
1156.27	34.692
1159.92	27.846
1163.57	44.327
1167.22	30.498
1170.87	57.673
1174.52	41.338
1178.16	39.185
1181.81	48.131
1185.45	86.867
1189.09	8.629
1192.73	1.351
1196.36	12.168
1200	113.104
1203.63	162.302
1207.26	120.303
1210.89	107.825
1214.52	69.872
1218.14	4.882
1221.77	8.777
1225.39	46.998
1229.01	143.152
1232.62	184.174
1236.24	149.1
1239.86	55.908
1243.47	103.596
1247.08	33.3
1250.69	11.031
1254.3	63.764
1257.9	112.484
1261.5	95.104
1265.11	160.628
1268.71	91.073
1272.3	80.472
1275.9	128.74
1279.49	26.125
1283.09	5.918
1286.68	15.869
1290.27	90.736
1293.86	108.431
1297.44	154.021
1301.03	121.533
1304.61	18.027
1308.19	82.397
1311.77	34.155
1315.34	58.961
1318.92	6.122
1322.49	70.093
1326.06	95.979
1329.63	98.42
1333.2	75.816
1336.77	56.35
1340.33	91.642
1343.89	25.152
1347.46	37.336
1351.02	73.06
1354.57	116.22
1358.13	125.491
1361.68	130.6
1365.23	160.867
1368.79	71.203
1372.33	40.4
1375.88	69.102
1379.43	45.839
1382.97	85.532
1386.51	70.038
1390.05	83.292
1393.59	90.237
1397.13	120.275
1400.66	204.183
1404.19	128.607
1407.72	206.014
1411.25	193.687
1414.78	142.423
1418.31	78.182
1421.83	63.848
1425.36	140.996
1428.88	467.084
1432.39	828.388
1435.91	340.685
1439.43	226.372
1442.94	164.712
1446.45	143.378
1449.96	90.455
1453.47	87.191
1456.98	42.22
1460.48	47.268
1463.99	38.318
1467.49	26.727
1470.99	34.382
1474.49	127.538
1477.99	185.344
1481.48	191.127
1484.97	161.676
1488.46	116.264
1491.95	188.854
1495.44	111.29
1498.93	99.268
1502.41	9.851
1505.9	44.893
1509.38	36.795
1512.86	0
