Measurement: Raman, 514 nm, depolarized, Raman Data Processed
Mineral: Calcite
Rruff sample: R050009
Ideal chemistry: CaCO_3_
Locality: Amparo mine, Rodeo, Durango, Mexico
Source: Eugene Schlepp
Description: Colorless cleavage rhomb
Measured chemistry: Ca_1.00_CO_3_; trace amounts of Mn
Pin_id: M00141
Orientation: Laser parallel to a* (1 0 0). Fiducial mark perpendicular to laser is parallel to -c [0 0 -1]
Raman shift (cm-1)	intensity
74.618	0
79.593	174.532
84.564	2.2793
89.532	148.498
94.498	104.56
99.461	164.324
104.421	7.80273
109.378	35.6133
114.332	148.453
119.283	321.707
124.232	80.2725
129.178	166.991
134.12	197.553
139.061	35.4927
143.998	142.763
148.932	120.406
153.864	576.305
158.792	427.469
163.718	271.578
168.641	144.659
173.562	88.8603
178.479	68.2212
183.394	119.902
188.305	181.766
193.214	83.8569
198.12	149.186
203.024	132.426
207.924	122.794
212.822	93.3643
217.717	143.072
222.609	174.061
227.498	162.822
232.385	109.364
237.269	101.567
242.149	103.348
247.027	167.439
251.903	104.767
256.775	136.802
261.645	254.75
266.512	138.037
271.376	354.02
276.237	540.868
281.096	1091.35
285.952	788.154
290.805	397.924
295.655	288.34
300.502	36.8223
305.347	135.335
310.189	57.6055
315.028	21.8706
319.864	49.958
324.698	99.9072
329.528	196.734
334.356	17.0005
339.182	137.577
344.004	63.2573
348.824	42.8687
353.641	19.0957
358.455	137.924
363.266	11.0747
368.075	135.71
372.881	12.4492
377.684	74.625
382.484	119.853
387.282	20.4766
392.077	51.3379
396.869	74.832
401.658	136.534
406.445	96.0625
411.229	52.0596
416.01	140.196
420.788	93.6416
425.564	67.6523
430.337	93.834
435.107	65.5019
439.875	105.287
444.639	152.567
449.401	98.7412
454.161	189.707
458.917	83.4199
463.671	151.099
468.422	121.648
473.17	140.625
477.916	85.0449
482.659	289.643
487.399	24.0361
492.137	146.01
496.872	158.701
501.604	164.508
506.333	109.727
511.06	122.26
515.784	100.868
520.505	61.208
525.223	86.6279
529.939	48.625
534.652	127.019
539.363	161.441
544.07	71.5781
548.775	138.321
553.478	129.592
558.177	34.8486
562.874	120.603
567.568	28.3242
572.26	131.635
576.949	120.88
581.635	91.335
586.319	172.121
590.999	67.6387
595.677	16.8916
600.353	124.571
605.026	138.606
609.696	102.256
614.363	32.7275
619.028	12.7285
623.69	206.522
628.349	125.762
633.006	48.1113
637.66	96.8486
642.311	36.4795
646.96	97.4912
651.606	199.77
656.25	6.95606
660.89	80.2822
665.528	81.7148
670.164	2.80176
674.797	4.95508
679.427	166.845
684.054	176.079
688.679	159.634
693.301	346.49
697.921	162.665
702.537	78.6309
707.152	115.867
711.763	553.675
716.372	168.59
720.978	40.2139
725.582	41.9609
730.183	78.1728
734.781	18.3086
739.377	87.5791
743.97	77.9717
748.561	121.033
753.149	143.221
757.734	84.0264
762.316	110.273
766.896	209.776
771.474	65.1426
776.048	128.091
780.62	96.5547
785.19	74.9697
789.757	131.596
794.321	56.6172
798.883	121.924
803.442	63.956
807.998	5.82031
812.552	139.876
817.103	138.681
821.652	116.728
826.198	167.031
830.741	145.055
835.282	172.233
839.82	96.8203
844.355	222.968
848.888	223.087
853.419	164.76
857.946	90.0195
862.472	305.97
866.994	227.322
871.514	133.469
876.032	199.114
880.546	61.3584
885.059	44.6494
889.568	47.4268
894.075	103.449
898.58	133.478
903.082	38.6348
907.581	16.7666
912.078	337.896
916.572	100.251
921.063	114.31
925.552	31.7822
930.039	179.894
934.523	64.3301
939.004	207.981
943.483	111.022
947.959	118.497
952.432	270.695
956.903	101.067
961.372	250.129
965.838	88.0615
970.301	119.022
974.762	106.913
979.22	14.2568
983.676	154.87
988.129	281.237
992.58	195.382
997.028	149.357
1001.47	198.414
1005.92	180.467
1010.36	4.14453
1014.79	87.7568
1019.23	73.4853
1023.66	28.4824
1028.09	69.0723
1032.52	293.485
1036.94	163.469
1041.37	108.65
1045.79	223.367
1050.2	87.8428
1054.62	114.564
1059.03	181.866
1063.44	56.3203
1067.85	282.617
1072.26	87.3984
1076.66	307.654
1081.06	922.127
1085.45	13153.6
1089.85	2521.03
1094.24	320.184
1098.63	340.408
1103.02	226.363
1107.4	76.0254
1111.79	163.238
1116.17	197.31
1120.54	95.9531
1124.92	164.094
1129.29	264.471
1133.66	39.4766
1138.03	158.506
1142.39	79.1348
1146.75	123.74
1151.11	86.7207
1155.47	88.4902
1159.83	4.9043
1164.18	183.92
1168.53	180.502
1172.87	147.262
1177.22	157.357
1181.56	255.67
1185.9	162.016
1190.24	448.158
1194.57	213.152
1198.9	208.242
1203.23	139.219
1207.56	165.621
1211.89	1.34961
1216.21	334.781
1220.53	276.361
1224.85	216.611
1229.16	361.717
1233.47	58.7324
1237.78	200.805
1242.09	51.6523
1246.4	82.9668
1250.7	188.848
1255	214.803
1259.3	270.838
1263.59	146.621
1267.88	136.416
1272.17	261.746
1276.46	208.664
1280.75	189.426
1285.03	232.496
1289.31	221.998
1293.59	19.7441
1297.87	169.644
1302.14	113.111
1306.41	46.2227
1310.68	385.164
1314.94	169.559
1319.21	321.092
1323.47	219.197
1327.72	221.754
1331.98	273.666
1336.23	140.633
1340.49	95.1387
1344.73	335.383
1348.98	243.078
1353.22	248.815
1357.47	289.504
1361.7	152.789
1365.94	315.074
1370.17	13.8672
1374.41	197.647
1378.64	211.449
1382.86	198.469
1387.09	371.879
1391.31	137.18
1395.53	210.391
1399.75	251.492
1403.96	157.41
1408.17	281.815
1412.38	213.297
1416.59	288.447
1420.8	436.393
1425	163.068
1429.2	311.908
1433.4	303.576
1437.59	211.99
1441.78	335.516
1445.97	132.092
1450.16	387.584
1454.35	206.295
1458.53	262.519
1462.71	328.078
1466.89	121.568
1471.07	149.266
1475.24	90.0566
1479.41	162.344
1483.58	311.514
1487.75	67.5684
1491.91	457.166
1496.07	390.578
1500.23	310.228
1504.39	471.185
1508.55	332.106
1512.7	385.039
1516.85	192.701
1520.99	239.881
1525.14	414.299
1529.28	309.275
1533.42	467.478
1537.56	180.57
1541.7	302.785
1545.83	206.088
1549.96	263.049
1554.09	78.6777
1558.22	216.519
1562.34	257.551
1566.46	113.174
1570.58	196.309
1574.7	219.225
