Measurement: Raman, 514 nm, ccw, Raman Data Processed
Mineral: Calcite
Rruff sample: R050009
Ideal chemistry: CaCO_3_
Locality: Amparo mine, Rodeo, Durango, Mexico
Source: Eugene Schlepp
Description: Colorless cleavage rhomb
Measured chemistry: Ca_1.00_CO_3_; trace amounts of Mn
Pin_id: M00141
Orientation: Laser parallel to a* (1 0 0). Fiducial mark perpendicular to laser is parallel to -c [0 0 -1]
Raman shift (cm-1)	intensity
68.397	0
73.374	211.958
78.349	142.198
83.321	11.7149
88.29	40.6176
93.257	21.7735
98.22	22.4658
103.181	20.0496
108.139	21.1201
113.094	177.64
118.046	141.217
122.995	17.8312
127.941	51.5134
132.885	5.16003
137.826	43.5095
142.764	32.413
147.699	177.701
152.631	705.973
157.56	767.841
162.487	256.712
167.411	107.568
172.332	83.4446
177.25	32.3457
182.165	16.2383
187.078	7.12903
191.987	10.0142
196.894	11.0818
201.798	18.8927
206.699	70.8579
211.598	16.7806
216.493	16.9189
221.386	17.0831
226.276	47.3448
231.163	1.20471
236.048	20.5903
240.929	40.6522
245.808	95.0039
250.684	63.137
255.557	92.1716
260.428	164.044
265.295	212.205
270.16	404.222
275.022	786.101
279.882	1763.7
284.738	1637.53
289.592	661.491
294.443	273.464
299.291	143.628
304.136	97.0839
308.978	57.0048
313.818	53.7119
318.655	55.6183
323.489	41.3035
328.321	32.8481
333.15	51.4824
337.976	22.0774
342.799	3.91168
347.619	7.1416
352.437	7.1897
357.252	22.7071
362.064	17.605
366.873	33.9122
371.68	19.4709
376.483	0.499695
381.284	3.63745
386.083	36.8234
390.878	7.39734
395.671	21.1892
400.461	9.54242
405.249	58.283
410.033	54.5101
414.815	37.0972
419.594	44.9838
424.37	72.7477
429.144	50.4376
433.915	32.0774
438.683	29.6639
443.448	26.2834
448.211	5.79742
452.971	38.6323
457.728	8.02136
462.483	37.5636
467.235	27.9266
471.984	20.3478
476.73	45.5043
481.474	83.7266
486.214	29.4086
490.953	3.78107
495.688	21.3148
500.421	74.4443
505.151	62.5644
509.878	23.3166
514.603	60.7319
519.325	67.2201
524.044	19.0331
528.76	5.44763
533.474	81.036
538.185	25.4142
542.894	24.5037
547.599	52.8973
552.302	73.2952
557.003	33.9021
561.7	64.2532
566.395	54.2116
571.087	55.1875
575.777	56.9589
580.464	44.611
585.148	65.3798
589.829	10.0182
594.508	55.4883
599.184	32.9324
603.858	43.7185
608.528	42.177
613.197	57.7803
617.862	41.4113
622.525	99.7052
627.185	3.94348
631.842	49.9663
636.497	16.4878
641.149	10.856
645.798	65.0111
650.445	60.3171
655.089	14.9554
659.73	53.7377
664.369	40.7562
669.005	57.6842
673.639	48.1832
678.269	55.0552
682.898	34.9025
687.523	40.6288
692.146	41.9022
696.766	17.428
701.384	75.5298
705.998	88.6667
710.611	496.701
715.22	346.842
719.827	86.525
724.431	80.5039
729.033	8.19006
733.632	87.1809
738.229	9.51099
742.822	70.7519
747.413	27.911
752.002	46.8079
756.588	123.893
761.171	64.9091
765.752	65.4141
770.33	0.129395
774.905	27.4025
779.478	20.7092
784.048	0.259521
788.615	35.9072
793.18	59.925
797.742	77.3549
802.302	80.4713
806.859	7.94971
811.414	38.5647
815.965	66.305
820.515	54.2814
825.061	37.1517
829.605	44.6793
834.147	14.5692
838.686	13.9435
843.222	23.6314
847.755	24.6679
852.286	47.5094
856.815	91.1986
861.341	135.833
865.864	19.2115
870.384	46.0858
874.902	69.5323
879.418	15.5068
883.931	47.4467
888.441	54.1321
892.949	39.3009
897.454	35.1578
901.956	68.2096
906.456	16.0369
910.954	6.94397
915.448	72.2264
919.941	57.54
924.43	55.0175
928.917	47.7345
933.402	50.1019
937.884	34.6049
942.363	75.2677
946.84	43.8915
951.314	40.3907
955.786	35.827
960.255	32.8457
964.722	23.5448
969.186	34.1724
973.647	2.08081
978.106	22.5115
982.562	52.9775
987.016	33.0327
991.467	28.7048
995.916	79.8352
1000.36	66.9194
1004.8	19.041
1009.25	61.6311
1013.68	77.3933
1018.12	77.2373
1022.55	9.87598
1026.98	26.5984
1031.41	48.9358
1035.84	82.3796
1040.26	46.3237
1044.68	107.896
1049.1	21.2273
1053.52	45.2422
1057.93	19.8645
1062.34	22.7402
1066.75	111.339
1071.15	127.706
1075.56	200.027
1079.96	541.618
1084.36	6460.74
1088.75	5196.68
1093.14	385.888
1097.53	155.986
1101.92	162.99
1106.31	127.614
1110.69	90.0928
1115.07	11.8779
1119.45	26.3955
1123.82	88.4446
1128.2	84.3462
1132.57	51.7649
1136.93	88.5808
1141.3	13.7175
1145.66	127.632
1150.02	60.9807
1154.38	22.5083
1158.74	44.5649
1163.09	54.801
1167.44	4.59204
1171.79	25.3689
1176.13	85.2727
1180.48	24.1638
1184.82	30.0515
1189.15	5.11377
1193.49	83.9734
1197.82	78.0664
1202.15	17.3635
1206.48	9.40503
1210.81	47.4031
1215.13	29.9062
1219.45	75.5847
1223.77	138.957
1228.08	17.7366
1232.4	60.2007
1236.71	49.6597
1241.02	106.01
1245.32	38.6992
1249.62	42.7419
1253.92	32.8904
1258.22	58.9741
1262.52	58.4187
1266.81	85.6946
1271.1	47.4917
1275.39	83.583
1279.68	46.0886
1283.96	101.158
1288.24	5.96509
1292.52	146.639
1296.8	36.218
1301.07	118.967
1305.34	125.777
1309.61	29.3667
1313.88	32.5474
1318.14	86.1936
1322.4	61.4099
1326.66	111.298
1330.92	81.9702
1335.17	47.5945
1339.42	51.1846
1343.67	31.2769
1347.92	31.9575
1352.16	15.6714
1356.41	85.9785
1360.64	111.681
1364.88	65.4253
1369.12	65.7358
1373.35	79.7227
1377.58	99.2398
1381.81	1.70898
1386.03	30.8477
1390.25	52.2295
1394.47	53.7666
1398.69	34.1997
1402.91	27.9463
1407.12	77.7686
1411.33	54.2036
1415.54	8.86719
1419.74	57.2124
1423.95	1.02197
1428.15	113.591
1432.35	208.941
1436.54	273.821
1440.74	99.4326
1444.93	40.8428
1449.12	90.478
1453.3	47.8608
1457.49	63.29
1461.67	19.1602
1465.85	45.0718
1470.02	152.395
1474.2	103.559
1478.37	112.529
1482.54	25.8208
1486.71	200.894
1490.87	100.49
1495.03	13.2744
1499.19	202.834
1503.35	35.9951
1507.51	141.418
1511.66	138.803
1515.81	71.3784
1519.96	100.791
1524.1	174.244
1528.25	212.376
1532.39	138.166
1536.53	187.646
1540.66	113.015
1544.8	37.7207
1548.93	180.025
1553.06	154.834
1557.18	83.4165
1561.31	62.3628
1565.43	195.475
1569.55	56.4658
1573.67	157.142
1577.78	0
