Measurement: Raman, 514 nm, depolarized, Raman Data Processed
Mineral: Calcite
Rruff sample: R040170
Ideal chemistry: CaCO_3_
Locality: Peramea, Lerida Province, Catalonia, Spain
Source: University of Arizona Mineral Museum
Description: Pink fragment
Measured chemistry: (Ca_0.99_Mg_0.01_)CO_3_; trace amounts of Co
Pin_id: L00956
Orientation: Laser parallel to -a* (-1 0 0). Fiducial mark perpendicular to laser is parallel to c [0 0 1]
Raman shift (cm-1)	intensity
102.116	0
107.047	353.419
111.976	142.366
116.903	162.072
121.827	181.377
126.749	326.188
131.668	471.175
136.585	986.392
141.5	1732.78
146.412	2892.28
151.321	3369.23
156.229	2214.12
161.134	1080.63
166.036	500.603
170.936	242.445
175.834	202.8
180.729	257.461
185.622	265.446
190.512	159.132
195.4	198.429
200.286	117.035
205.169	220.025
210.049	135.348
214.928	314.974
219.803	100.981
224.677	261.265
229.548	333.849
234.416	417.262
239.282	584.898
244.146	549.015
249.007	818.348
253.866	1014.36
258.722	1845.82
263.576	2821.6
268.427	4812.44
273.276	7216.44
278.123	7223.07
282.967	4792.88
287.809	2783.57
292.648	1532.66
297.485	1067.53
302.319	719.804
307.151	522.005
311.98	387.13
316.807	225.377
321.631	162.709
326.454	174.841
331.273	176.042
336.09	100.552
340.905	197.503
345.717	47.0664
350.527	40.3584
355.334	106.718
360.139	56.7461
364.941	11.2236
369.741	84.0273
374.538	112.111
379.333	15.5088
384.126	52.419
388.916	30.1924
393.703	34.2275
398.488	60.5508
403.271	58.2744
408.051	210.807
412.828	67.2529
417.603	7.51074
422.376	159.789
427.146	79.8359
431.914	190.184
436.679	208.977
441.442	12.4355
446.202	88.8086
450.96	166.855
455.715	106.176
460.467	157.21
465.218	95.0898
469.965	10.8281
474.711	93.3848
479.454	121.801
484.194	72.0635
488.932	130.161
493.667	98.5381
498.4	175.852
503.13	223.138
507.858	168.617
512.583	23.8271
517.306	95.3252
522.026	216.128
526.744	53.1367
531.459	9.01758
536.172	88.1768
540.882	207.519
545.59	141.727
550.295	164.016
554.998	86.415
559.698	91.8623
564.396	133.505
569.091	70.082
573.784	77.9678
578.474	49.6065
583.162	91.0449
587.847	55.876
592.529	65.3848
597.209	155.008
601.887	148.43
606.562	132.79
611.235	239.862
615.905	276.259
620.572	154.372
625.237	133.075
629.9	319.616
634.56	101.267
639.217	1.71875
643.872	94.4336
648.524	191.435
653.174	193.164
657.821	193.345
662.466	94.2666
667.108	292.474
671.748	100.376
676.385	172.314
681.02	52.5459
685.652	133.166
690.281	139.038
694.908	391.299
699.533	638.59
704.155	1530.46
708.774	2482.49
713.391	1259.85
718.005	381.106
722.617	213.623
727.226	138.048
731.833	177.091
736.437	107.425
741.039	197.716
745.638	73.915
750.234	153.62
754.828	161.544
759.419	30.0049
764.008	161.252
768.595	102.804
773.178	176.19
777.759	124.666
782.338	62.8066
786.914	64.6201
791.488	115.484
796.059	164.469
800.627	80.7969
805.193	76.0898
809.756	33.085
814.317	188.968
818.875	27.1865
823.431	131.805
827.984	80.876
832.534	92.3916
837.082	46.7227
841.627	132.058
846.17	115.683
850.71	218.856
855.248	163.363
859.783	234.841
864.316	16.3271
868.846	149.725
873.373	212.071
877.898	149.376
882.42	3.49805
886.94	77.4522
891.457	76.2519
895.971	162.053
900.483	68.4394
904.993	207.956
909.5	67.2588
914.004	26.3076
918.505	211.946
923.004	80.0879
927.501	85.417
931.995	28.2266
936.486	1.95019
940.975	32.0147
945.461	170.911
949.945	8.1543
954.426	8.08398
958.904	99.1455
963.38	18.9014
967.853	87.1045
972.324	0.510742
976.792	232.565
981.258	263.182
985.72	199.373
990.181	234.552
994.639	256.841
999.094	510.968
1003.55	815.538
1008	1057.9
1012.44	1169.26
1016.89	815.703
1021.33	407.496
1025.77	202.671
1030.21	156.929
1034.64	257.083
1039.07	267.881
1043.5	351.715
1047.93	155.484
1052.35	235.744
1056.78	462.949
1061.19	484.848
1065.61	745.291
1070.02	1668.12
1074.43	5268.1
1078.84	22662.4
1083.25	45536.2
1087.65	17417.2
1092.05	2916.73
1096.45	838.324
1100.85	477.518
1105.24	305.742
1109.63	81.0273
1114.02	153.793
1118.4	308.041
1122.78	235.397
1127.16	185.959
1131.54	133.031
1135.92	151.119
1140.29	43.1621
1144.66	107.273
1149.02	245.67
1153.39	118.977
1157.75	183.43
1162.11	179.576
1166.46	85.7305
1170.82	162.4
1175.17	316.1
1179.52	106.828
1183.86	176.754
1188.21	70.1758
1192.55	248.59
1196.89	325.713
1201.22	205.918
1205.55	97.8359
1209.88	162.045
1214.21	205.377
1218.54	97.6875
1222.86	117.07
1227.18	185.475
1231.5	90.8965
1235.81	0.769531
1240.12	216.947
1244.43	223.248
1248.74	190.568
1253.04	170.842
1257.34	82.8887
1261.64	107.853
1265.94	255.648
1270.23	141.207
1274.52	119.211
1278.81	42.8105
1283.1	30.9707
1287.38	89.7227
1291.66	175.375
1295.94	239.758
1300.21	215.074
1304.48	220.35
1308.75	303.588
1313.02	89.7793
1317.29	140.914
1321.55	240.096
1325.81	30.8027
1330.06	0.080078
1334.32	57.6934
1338.57	165.434
1342.82	218.781
1347.06	154.088
1351.31	180.148
1355.55	173.111
1359.79	304.598
1364.02	192.252
1368.26	182.56
1372.49	155.24
1376.71	124.912
1380.94	171.5
1385.16	143.326
1389.38	341.834
1393.6	4.01367
1397.81	79.3477
1402.02	326.68
1406.23	254.221
1410.44	155.029
1414.64	242.883
1418.85	405.758
1423.04	117.619
1427.24	465.697
1431.43	732.643
1435.62	526.846
1439.81	338.721
1444	47.1113
1448.18	130.375
1452.36	241.098
1456.54	74.3496
1460.71	403.445
1464.89	129.34
1469.06	108.246
1473.22	20.8945
1477.39	271.965
1481.55	316.035
1485.71	298.65
1489.86	261.383
1494.02	140.309
1498.17	40.709
1502.32	284.342
1506.46	76.1172
1510.61	197.898
1514.75	18.8594
1518.88	290.982
1523.02	172.303
1527.15	232.344
1531.28	127.057
1535.41	276.769
1539.53	219.935
1543.66	54.1172
1547.78	203.713
1551.89	333.629
1556.01	12.4785
1560.12	287.887
1564.23	100.715
1568.33	0.931641
