Measurement: Raman, 514 nm, ccw, Raman Data Processed
Mineral: Calcite
Rruff sample: R050009
Ideal chemistry: CaCO_3_
Locality: Amparo mine, Rodeo, Durango, Mexico
Source: Eugene Schlepp
Description: Colorless cleavage rhomb
Measured chemistry: Ca_1.00_CO_3_; trace amounts of Mn
Pin_id: L00060
Orientation: Laser parallel to c* (0 0 1). Fiducial mark perpendicular to laser is parallel to a [1 0 0]
Raman shift (cm-1)	intensity
75.862	0
80.836	33.2894
85.806	12.8417
90.774	43.3178
95.739	25.856
100.701	8.21912
105.66	7.67993
110.617	40.8931
115.57	63.443
120.521	39.0656
125.469	28.6435
130.414	33.3248
135.356	3.04639
140.295	32.2537
145.232	78.9692
150.165	200.68
155.096	517.268
160.024	265.887
164.949	87.3325
169.872	51.7743
174.791	45.368
179.708	6.98608
184.622	6.55475
189.533	27.1114
194.441	7.90094
199.347	51.7217
204.249	20.1891
209.149	26.2562
214.046	13.6953
218.94	0.815063
223.832	50.4509
228.72	28.769
233.606	45.0369
238.489	36.322
243.369	20.5564
248.247	80.9992
253.121	63.3105
257.993	89.8236
262.862	89.7301
267.728	142.754
272.592	259.597
277.452	573.42
282.31	943.417
287.165	503.621
292.017	193.917
296.867	103.539
301.714	66.9599
306.558	74.3149
311.399	9.17456
316.237	33.6545
321.073	58.012
325.906	33.2021
330.736	69.7144
335.563	24.055
340.387	1.16901
345.209	21.6474
350.028	39.6684
354.844	53.4761
359.658	9.17444
364.469	39.7922
369.277	24.5102
374.082	14.7634
378.884	46.9815
383.684	3.37103
388.481	83.6856
393.275	34.1019
398.066	16.5454
402.855	11.1182
407.641	22.0651
412.424	35.0029
417.205	52.04
421.983	16.6116
426.758	54.5402
431.53	39.1609
436.299	2.29358
441.066	24.4233
445.83	39.0478
450.591	45.3811
455.35	2.53638
460.106	51.4683
464.859	13.865
469.609	16.1796
474.357	22.2946
479.102	26.9703
483.844	52.49
488.584	3.77661
493.321	40.4584
498.055	1.26599
502.786	34.697
507.515	60.2009
512.241	31.4526
516.964	31.6835
521.685	55.9191
526.402	11.4895
531.118	17.7108
535.83	20.028
540.54	58.3004
545.247	81.6619
549.951	43.7607
554.653	23.037
559.352	47.2199
564.048	0.29541
568.742	57.2057
573.432	74.7007
578.121	27.6838
582.806	54.8934
587.489	54.9443
592.169	48.1158
596.847	69.2024
601.521	57.4165
606.193	27.1377
610.863	44.8826
615.53	53.9074
620.194	4.4043
624.855	49.3989
629.514	14.9474
634.17	49.7185
638.823	11.4598
643.474	7.08508
648.122	85.2321
652.767	87.5574
657.41	60.0568
662.05	7.33667
666.688	64.6788
671.322	30.5195
675.954	9.01697
680.584	38.6659
685.211	26.6843
689.835	65.9382
694.456	68.9947
699.075	104.183
703.691	125.705
708.305	408.989
712.916	1997.19
717.524	414.044
722.13	85.1683
726.733	50.6035
731.333	56.1302
735.931	65.7017
740.526	65.1716
745.118	56.5596
749.708	109.684
754.295	57.0073
758.88	65.6506
763.462	12.6483
768.041	16.6215
772.618	32.9017
777.192	12.6
781.763	35.9154
786.332	72.3513
790.898	58.3246
795.462	43.2632
800.023	37.8734
804.581	37.2119
809.137	77.9254
813.69	62.9495
818.24	19.6663
822.788	46.3767
827.334	77.0598
831.876	30.1985
836.416	39.598
840.954	81.231
845.489	72.6335
850.021	37.7258
854.551	62.4606
859.078	9.16406
863.602	73.8791
868.124	121.844
872.644	103.737
877.16	44.3488
881.675	64.2343
886.186	72.6448
890.695	14.9744
895.202	27.4054
899.705	35.1111
904.207	68.4634
908.705	43.999
913.201	63.0488
917.695	36.1924
922.186	46.8694
926.674	31.9287
931.16	22.8564
935.643	133.106
940.124	6.03223
944.602	116.354
949.077	5.50317
953.55	17.0139
958.021	85.4678
962.489	11.6589
966.954	10.49
971.417	53.8806
975.877	19.4273
980.334	39.0376
984.789	45.439
989.242	48.1182
993.692	100.04
998.139	31.655
1002.58	39.9587
1007.03	76.6497
1011.47	22.1558
1015.9	27.6724
1020.34	124.868
1024.77	97.4678
1029.2	36.4375
1033.63	85.7317
1038.05	132.809
1042.47	14.5024
1046.89	22.3345
1051.31	42.3337
1055.72	39.7976
1060.14	38.2786
1064.55	206.819
1068.95	216.92
1073.36	244.384
1077.76	559.529
1082.16	3407.49
1086.55	35747.7
1090.95	2702.84
1095.34	474.067
1099.73	159.858
1104.12	137.185
1108.5	101.249
1112.88	48.4661
1117.26	95.605
1121.64	81.342
1126.01	77.6025
1130.38	29.2637
1134.75	67.0093
1139.12	111.312
1143.48	37.2739
1147.84	93.0591
1152.2	19.3323
1156.56	14.206
1160.91	5.07568
1165.27	23.9123
1169.61	80.8872
1173.96	1.17578
1178.31	77.5989
1182.65	5.23779
1186.98	27.2188
1191.32	51.4553
1195.66	46.9028
1199.99	15.6045
1204.32	8.35742
1208.64	100.41
1212.97	29.4763
1217.29	103.954
1221.61	107.35
1225.93	101.62
1230.24	51.0566
1234.55	53.4988
1238.86	53.4578
1243.17	19.4004
1247.47	41.1387
1251.78	82.9243
1256.07	43.8687
1260.37	159.219
1264.67	92.0972
1268.96	5.46973
1273.25	88.5708
1277.54	137.457
1281.82	113.554
1286.1	143.985
1290.38	47.1065
1294.66	76.5122
1298.93	77.2519
1303.21	129.629
1307.48	126.471
1311.74	121.023
1316.01	113.881
1320.27	42.1538
1324.53	124.784
1328.79	75.3477
1333.05	118.238
1337.3	24.2725
1341.55	78.5811
1345.8	184.364
1350.04	63.6108
1354.29	51.9145
1358.53	129.328
1362.76	70.7681
1367	105.876
1371.23	81.6909
1375.46	49.709
1379.69	33.0039
1383.92	26.6387
1388.14	47.6343
1392.36	2.35644
1396.58	66.3657
1400.8	130.546
1405.01	47.0972
1409.22	100.847
1413.43	76.1397
1417.64	47
1421.85	143.312
1426.05	61.8042
1430.25	165.086
1434.44	692.174
1438.64	222.889
1442.83	86.2793
1447.02	156.099
1451.21	84.2153
1455.39	55.5225
1459.58	52.0903
1463.76	86.2593
1467.94	100.868
1472.11	146.985
1476.28	94.6719
1480.45	167.249
1484.62	147.116
1488.79	57.1611
1492.95	67.2305
1497.11	153.449
1501.27	1.41553
1505.43	21.9189
1509.58	5.7583
1513.73	78.8965
1517.88	180.246
1522.03	74.4736
1526.18	149.843
1530.32	36.0898
1534.46	178.418
1538.6	107.093
1542.73	132.604
1546.86	172.527
1550.99	218.917
1555.12	76.2866
1559.25	106.767
1563.37	59.4492
1567.49	183.725
1571.61	66.9668
1575.73	84.5176
