Measurement: Raman, 514 nm, depolarized, Raman Data Processed
Mineral: Calcite
Rruff sample: R050048
Ideal chemistry: CaCO_3_
Locality: Magdalena, New Mexico, USA
Source: University of Arizona Mineral Museum
Description: Colorless massive
Measured chemistry: (Ca_0.99_Zn_0.01_)CO_3_
Pin_id: M00181
Orientation: Laser parallel to c* (0 0 1). Fiducial mark perpendicular to laser is parallel to b [0 1 0]
Raman shift (cm-1)	intensity
101.049	0
105.24	56.703
109.429	59.944
113.616	169.773
117.8	280.825
121.983	217.197
126.163	200.842
130.342	173.615
134.518	185.76
138.692	234.668
142.864	265.024
147.034	401.537
151.201	900.957
155.367	1263.84
159.53	632.598
163.692	308.741
167.851	153.594
172.008	115.956
176.163	117.916
180.316	51.298
184.467	76
188.616	8.709
192.762	36.535
196.907	36.477
201.049	38.567
205.189	15.796
209.328	9.523
213.464	18.708
217.598	15.574
221.73	21.418
225.86	42.749
229.988	50.133
234.113	10.614
238.237	37.083
242.359	112.252
246.478	145.86
250.595	91.854
254.711	169.951
258.824	251.592
262.935	323.882
267.044	471.556
271.151	780.469
275.256	1549.38
279.359	2768.16
283.46	2764.43
287.559	1457.67
291.656	738.665
295.75	341.722
299.843	201.943
303.933	176.984
308.022	129.459
312.108	73.316
316.193	22.022
320.275	57.636
324.355	26.485
328.434	38.146
332.51	0.66
336.584	22.549
340.656	17.864
344.726	30.685
348.794	39.735
352.86	71.709
356.924	12.181
360.986	41.302
365.046	17.294
369.104	20.557
373.159	13.313
377.213	42.701
381.265	28.323
385.315	3.682
389.362	19.577
393.408	11.52
397.451	24.351
401.493	8.418
405.533	6.513
409.57	12.361
413.606	13.84
417.639	23.408
421.671	17.185
425.7	36.735
429.728	13.172
433.753	9.595
437.777	0.002
441.798	12.412
445.818	4.17
449.835	22.504
453.851	58.759
457.864	62.958
461.876	22.151
465.885	47.31
469.893	47.415
473.898	25.471
477.902	29.637
481.903	39.781
485.903	66.671
489.9	79.4
493.896	55.071
497.889	53.702
501.881	41.237
505.87	66.126
509.858	40.167
513.844	26.413
517.827	24.876
521.809	86.578
525.789	73.734
529.766	82.782
533.742	55.837
537.716	1.822
541.688	54.984
545.657	73.383
549.625	36.71
553.591	10.975
557.555	8.496
561.517	21.889
565.477	52.762
569.435	34.032
573.391	51.253
577.345	86.728
581.297	57.827
585.248	49.661
589.196	57.16
593.142	66.31
597.086	75.067
601.029	107.858
604.969	20.089
608.908	58.953
612.844	90.995
616.779	102.743
620.712	107.448
624.642	88.173
628.571	79.394
632.498	86.318
636.423	32.273
640.346	60.461
644.267	104.367
648.186	104.619
652.103	140.778
656.019	46.211
659.932	76.5
663.843	2.352
667.753	70.014
671.66	26.479
675.566	13.543
679.47	1.96
683.372	41.23
687.271	46.165
691.169	61.312
695.065	119.734
698.96	71.94
702.852	180.579
706.742	509.146
710.631	3291.49
714.517	2281.59
718.402	417.522
722.284	136.439
726.165	103.373
730.044	110.271
733.921	121.042
737.796	49.376
741.669	80.28
745.54	90.356
749.41	69.838
753.277	52.29
757.143	71.637
761.006	11.383
764.868	25.836
768.728	81.245
772.586	53.474
776.442	35.613
780.297	73.707
784.149	36.768
787.999	8.799
791.848	67.45
795.695	41.353
799.54	4.256
803.382	32.159
807.224	21.048
811.063	47.848
814.9	98.737
818.736	74.473
822.569	13.461
826.401	31.91
830.231	51.284
834.059	41.116
837.885	84.452
841.709	79.011
845.532	52.578
849.352	0.843
853.171	39.736
856.988	128.286
860.803	191.833
864.616	7.624
868.427	34.942
872.236	3.466
876.044	115.123
879.849	95.692
883.653	2.229
887.455	27.789
891.255	70.366
895.054	50.988
898.85	10.613
902.645	133.246
906.438	48.899
910.229	47.895
914.018	15.029
917.805	17.659
921.59	100.361
925.374	106.12
929.156	85.487
932.936	14.119
936.714	21.873
940.49	66.474
944.264	86.458
948.037	57.207
951.808	72.875
955.577	56.655
959.344	13.5
963.109	12.76
966.872	55.677
970.634	21.5
974.394	15.187
978.152	24.975
981.908	27.985
985.663	33.977
989.415	75.071
993.166	84.329
996.915	144.5
1000.66	202.938
1004.41	146.79
1008.15	60.163
1011.89	50.501
1015.63	152.487
1019.37	246.136
1023.11	251.549
1026.84	154.25
1030.57	126.334
1034.31	105.444
1038.03	230.488
1041.76	240.289
1045.49	185.16
1049.21	270.969
1052.93	213.09
1056.65	255.048
1060.37	243.938
1064.09	502.231
1067.8	727.443
1071.52	673.305
1075.23	1164.38
1078.94	2889.49
1082.64	15385.7
1086.35	48732
1090.05	5748.36
1093.76	1268.74
1097.46	678.137
1101.16	448.718
1104.85	334.136
1108.55	212.561
1112.24	200.998
1115.93	145.409
1119.62	426.032
1123.31	355.248
1127	145.881
1130.68	114.761
1134.37	103.944
1138.05	4.406
1141.72	54.698
1145.4	169.965
1149.08	127.816
1152.75	126.518
1156.42	124.753
1160.1	45.335
1163.76	59.835
1167.43	81.706
1171.1	3.889
1174.76	80.693
1178.42	80.198
1182.08	99.399
1185.74	65.468
1189.4	16.906
1193.05	47.293
1196.7	14.914
1200.36	74.521
1204.01	98.483
1207.65	58.496
1211.3	232.627
1214.94	84.641
1218.59	66.52
1222.23	70.696
1225.87	68.637
1229.5	100.222
1233.14	214.227
1236.77	240.083
1240.41	233.373
1244.04	186.476
1247.66	136.674
1251.29	117.79
1254.92	107.916
1258.54	130.167
1262.16	129.063
1265.78	182.847
1269.4	243.62
1273.02	215.431
1276.63	88.902
1280.25	142.292
1283.86	28.406
1287.47	2.509
1291.08	132.435
1294.68	188.883
1298.29	83.54
1301.89	205.934
1305.49	157.059
1309.09	168.716
1312.69	24.503
1316.29	72.768
1319.88	68.258
1323.47	19.607
1327.06	30.762
1330.65	84.732
1334.24	87.324
1337.83	121.989
1341.41	153.33
1344.99	115.55
1348.57	68.696
1352.15	16.175
1355.73	10.518
1359.31	53.862
1362.88	190.667
1366.45	200.39
1370.02	158.034
1373.59	111.347
1377.16	80.418
1380.73	147.652
1384.29	156.59
1387.85	74.587
1391.41	84.456
1394.97	118.936
1398.53	164.896
1402.09	208.946
1405.64	171.891
1409.19	223.546
1412.74	169.101
1416.29	205.938
1419.84	194.631
1423.38	179.48
1426.93	140.543
1430.47	523.931
1434.01	1186.71
1437.55	593.391
1441.09	439.684
1444.62	371.68
1448.16	368.863
1451.69	402.521
1455.22	272.52
1458.75	202.022
1462.28	189.31
1465.8	108.761
1469.33	59.395
1472.85	187.23
1476.37	222.883
1479.89	230.238
1483.4	174.802
1486.92	305.38
1490.43	323.911
1493.95	138.729
1497.46	153.135
1500.97	42.559
1504.47	59.964
1507.98	2.123
1511.48	16.901
1514.99	0.328
