Measurement: Raman, 514 nm, depolarized, Raman Data Processed
Mineral: Calcite
Rruff sample: R040070
Ideal chemistry: CaCO_3_
Locality: Pryor Mountain, Big Horn County, Montana, USA
Source: University of Arizona Mineral Museum
Description: Orange scalenohedral crystals
Measured chemistry: (Ca_0.99_Mg_0.01_)CO_3_
Pin_id: L00173
Orientation: Laser parallel to a* (1 0 0). Fiducial mark perpendicular to laser is parallel to -c [0 0 -1]
Raman shift (cm-1)	intensity
90.587	0
94.768	14.367
98.947	1.99
103.124	4.599
107.3	51.984
111.473	37.012
115.644	89.077
119.813	79.917
123.981	75.354
128.146	63.266
132.309	110.575
136.47	142.221
140.63	294.132
144.787	615.267
148.942	1616.6
153.096	2898.09
157.247	2074.73
161.396	903.498
165.544	334.39
169.689	158.422
173.833	75.648
177.974	40.914
182.114	49.171
186.251	29.459
190.387	31.822
194.52	20.251
198.652	16.748
202.782	46.273
206.909	43.824
211.035	30.405
215.159	37.009
219.281	38.629
223.4	30.26
227.518	43.033
231.634	68.843
235.748	77.54
239.86	119.702
243.97	144.159
248.079	201.738
252.185	281.377
256.289	405.744
260.391	566.407
264.492	852.451
268.59	1331.52
272.687	2444.75
276.781	4592.28
280.874	5976.08
284.964	3955.91
289.053	1983.52
293.14	1021.67
297.225	575.557
301.308	314.875
305.389	238.452
309.468	157.188
313.545	126.964
317.62	84.785
321.693	93.827
325.765	55.794
329.834	60.361
333.902	65.105
337.967	35.485
342.031	17.917
346.093	40.396
350.153	25.44
354.21	14.822
358.267	42.247
362.321	1.407
366.373	11.137
370.423	34.662
374.471	34.042
378.518	1.489
382.563	8.073
386.605	51.587
390.646	4.122
394.685	13.196
398.722	22.357
402.757	20.515
406.79	15.346
410.821	12.905
414.851	29.801
418.878	6.744
422.904	9.594
426.927	27.376
430.949	8.327
434.969	9.124
438.987	4.738
443.003	2.427
447.018	37.129
451.03	2.74
455.041	23.43
459.049	4.015
463.056	16.785
467.061	1.2
471.064	1.518
475.065	0.84
479.064	4.015
483.062	7.119
487.057	28.194
491.051	0.303
495.043	35.366
499.032	26.36
503.02	34.41
507.007	10.118
510.991	31.271
514.973	22.812
518.954	46.692
522.933	24.53
526.91	11.159
530.885	9.708
534.858	16.203
538.829	23.603
542.799	30.501
546.766	20.833
550.732	18.831
554.696	20.548
558.658	14.748
562.618	13.871
566.576	3.524
570.533	33.972
574.488	39.867
578.44	28.789
582.391	42.793
586.341	6.776
590.288	30.515
594.233	39.418
598.177	30.504
602.119	35.026
606.059	47.689
609.997	15.207
613.933	15.332
617.868	20.592
621.801	23.439
625.731	26.65
629.66	19.362
633.588	27.893
637.513	42.378
641.437	29.94
645.358	33.651
649.278	31.618
653.196	32.835
657.113	10.978
661.027	40.199
664.94	9.261
668.851	54.74
672.76	15.011
676.667	2.003
680.572	16.163
684.476	35.713
688.378	43.369
692.278	23.902
696.176	62.396
700.072	94.326
703.967	216.319
707.86	885.829
711.751	2793.03
715.64	818.626
719.527	191.812
723.413	103.206
727.297	49.597
731.179	44.546
735.059	28.32
738.937	31.11
742.814	36.208
746.689	13.568
750.562	45.032
754.433	20.969
758.303	41.965
762.17	4.873
766.036	27.636
769.901	13.417
773.763	2.082
777.624	34.53
781.482	13.42
785.339	21.478
789.195	30.175
793.048	21.745
796.9	23.355
800.75	15.896
804.598	11.675
808.445	28.694
812.289	23.753
816.132	17.573
819.973	21.427
823.813	0.405
827.65	25.428
831.486	1.093
835.32	27.701
839.152	22.463
842.983	44.146
846.812	37.645
850.639	2.755
854.464	38.789
858.288	17.293
862.11	4.249
865.93	27.153
869.748	30.501
873.564	44.418
877.379	16.091
881.192	6.679
885.004	4.506
888.813	25.417
892.621	0.593
896.427	32.442
900.232	6.784
904.034	31.03
907.835	33.745
911.634	45.43
915.432	53.944
919.227	28.509
923.021	53.933
926.813	42.236
930.604	3.784
934.393	36.169
938.18	28.665
941.965	13.057
945.749	40.344
949.53	24.53
953.311	1.109
957.089	23.06
960.866	45.13
964.641	36.25
968.414	16.159
972.185	3.993
975.955	34.753
979.723	38.467
983.49	18.127
987.254	27.75
991.017	41.418
994.779	87.434
998.538	76.398
1002.3	121.105
1006.05	107.797
1009.81	136.113
1013.56	142.403
1017.31	165.974
1021.06	167.607
1024.81	173.107
1028.55	178.778
1032.3	172.188
1036.04	158.525
1039.78	196.543
1043.52	200.552
1047.26	198.532
1050.99	197.67
1054.73	231.313
1058.46	247.196
1062.19	345.431
1065.92	671.99
1069.65	549.703
1073.37	663.159
1077.1	1219.58
1080.82	3645.83
1084.54	30446.4
1088.26	42720.4
1091.97	4462.36
1095.69	1072.35
1099.4	541.167
1103.12	304.236
1106.83	286.26
1110.54	219.857
1114.24	185.641
1117.95	113.702
1121.65	180.766
1125.35	99.276
1129.06	122.676
1132.75	57.333
1136.45	47.582
1140.15	47.335
1143.84	47.271
1147.53	27.49
1151.22	45.853
1154.91	50.139
1158.6	27.784
1162.28	16.029
1165.97	51.952
1169.65	20.141
1173.33	8.249
1177.01	25.538
1180.69	39.811
1184.36	29.825
1188.04	10.541
1191.71	24.812
1195.38	9.031
1199.05	27.68
1202.71	20.288
1206.38	65.786
1210.04	45.046
1213.71	0.27
1217.37	34.354
1221.03	20.778
1224.68	47.313
1228.34	50.721
1231.99	1.028
1235.65	10.552
1239.3	73.877
1242.95	42.144
1246.59	31.712
1250.24	29.193
1253.88	77.336
1257.53	83.249
1261.17	35.057
1264.81	48.359
1268.45	25.487
1272.08	28.415
1275.72	36.181
1279.35	6.694
1282.98	35.004
1286.61	6.078
1290.24	55.838
1293.87	27.358
1297.49	8.392
1301.11	51.799
1304.73	26.421
1308.36	2.939
1311.97	28.703
1315.59	3.93
1319.2	47.741
1322.82	41.339
1326.43	33.818
1330.04	35.101
1333.65	27.081
1337.26	4.625
1340.86	38.1
1344.47	28.149
1348.07	20.605
1351.67	10.675
1355.27	0.99
1358.87	33.61
1362.46	30.272
1366.06	6.511
1369.65	14.807
1373.24	22.707
1376.83	1.856
1380.42	68.57
1384	7.335
1387.59	37.316
1391.17	46.646
1394.75	27.342
1398.33	84.383
1401.91	43.961
1405.49	86.305
1409.06	71.456
1412.64	131.054
1416.21	136.189
1419.78	85.332
1423.35	117.799
1426.91	87.167
1430.48	132.956
1434.05	360.98
1437.61	1030.33
1441.17	436.936
1444.73	201.115
1448.29	126.596
1451.84	164.025
1455.4	65.959
1458.95	83.634
1462.5	58.949
1466.05	81.761
1469.6	89.054
1473.15	77.222
1476.69	30.366
1480.24	74.583
1483.78	53.741
1487.32	51.742
1490.86	32.266
1494.39	83.915
1497.93	54.856
1501.46	26.546
1505	43.619
1508.53	53.592
1512.06	57.51
1515.59	47.9
1519.11	0.399
