Measurement: Raman, 514 nm, depolarized, Raman Data Processed
Mineral: Calcite
Rruff sample: R050130
Ideal chemistry: CaCO_3_
Locality: Mexico
Source: Dave Bunk Minerals
Description: Colorless cleavage rhomb
Measured chemistry: Ca_1.00_CO_3_; trace amounts of Si (?)
Pin_id: L00264
Orientation: Laser parallel to -c* (0 0 -1). Fiducial mark perpendicular to laser is parallel to a [1 0 0]
Raman shift (cm-1)	intensity
49.365	0
53.566	27.808
57.765	46.015
61.962	52.452
66.157	60.751
70.349	64.291
74.54	26.036
78.729	21.789
82.916	0.219
87.101	21.99
91.284	0.581
95.465	14.025
99.644	30.76
103.82	71.546
107.995	53.363
112.168	288.208
116.339	96.134
120.508	83.26
124.675	82.516
128.84	98.037
133.003	96.33
137.164	76.862
141.323	96.544
145.48	137.891
149.635	285.03
153.788	670.09
157.939	814.113
162.088	381.14
166.235	172.2
170.38	84.267
174.523	56.342
178.664	21.429
182.803	21.528
186.94	31.665
191.076	11.77
195.209	9.879
199.34	20.301
203.47	24.581
207.597	15.067
211.722	22.96
215.846	20.583
219.967	11.04
224.087	15.295
228.204	16.195
232.32	14.943
236.434	16.296
240.545	25.777
244.655	47.797
248.763	41.992
252.869	49.84
256.973	95.429
261.075	129.27
265.175	204.135
269.273	301.214
273.369	546.103
277.463	1052.2
281.556	1685.57
285.646	1418.63
289.734	671.736
293.821	295.94
297.905	170.332
301.988	89.507
306.069	62.558
310.147	69.255
314.224	48.151
318.299	34.042
322.372	14.968
326.443	28.855
330.512	26.723
334.579	13.609
338.645	21.476
342.708	14.611
346.769	18.412
350.829	24.196
354.887	21.795
358.942	22.35
362.996	19.978
367.048	7.616
371.098	18.045
375.146	11.487
379.192	24.017
383.236	15.414
387.279	30.774
391.319	0.908
395.358	3.382
399.394	14.212
403.429	7.533
407.462	19.951
411.493	9.294
415.522	23.396
419.549	2.119
423.575	10.376
427.598	9.663
431.619	3.867
435.639	4.298
439.657	3.554
443.673	15.562
447.687	2.7
451.699	13.758
455.709	1.881
459.717	8.123
463.724	11.144
467.728	12.093
471.731	19.075
475.732	8.211
479.731	18.584
483.728	11.458
487.723	20.267
491.716	8.122
495.708	12.862
499.697	3.367
503.685	7.167
507.671	27.02
511.655	34.625
515.637	34.256
519.617	32.739
523.596	16.061
527.572	30.594
531.547	44.371
535.52	39.757
539.491	16.303
543.46	19.682
547.427	34.075
551.393	23.359
555.356	28.675
559.318	12.985
563.278	14.789
567.236	31.02
571.192	16.269
575.147	10.033
579.099	14.285
583.05	19.501
586.999	17.78
590.946	17.013
594.891	21.48
598.834	14.411
602.776	10.602
606.715	32.761
610.653	4.096
614.589	28.168
618.523	26.149
622.456	17.077
626.386	2.627
630.315	2.994
634.242	19.046
638.167	33.177
642.09	28.141
646.012	11.18
649.931	14.423
653.849	16.493
657.765	23.092
661.679	21.016
665.592	27.068
669.502	24.031
673.411	45.438
677.318	21.904
681.223	22.541
685.126	19.549
689.028	45.512
692.927	26.433
696.825	62.632
700.721	101.529
704.616	165.795
708.508	650.629
712.399	3578.53
716.288	1527.84
720.175	333.761
724.06	126.753
727.944	58.775
731.825	48.234
735.705	62.22
739.584	40.766
743.46	47.722
747.334	23.508
751.207	27.031
755.078	20.764
758.947	41.475
762.815	18.164
766.68	18.551
770.544	5.247
774.406	22.925
778.267	38.549
782.125	17.145
785.982	14.531
789.837	18.16
793.69	23.651
797.542	22.193
801.391	31.765
805.239	22.296
809.085	17.863
812.93	22.404
816.772	20.457
820.613	21.019
824.452	5.533
828.29	5.081
832.125	9.402
835.959	22.868
839.791	26.303
843.621	9.71
847.45	1.893
851.277	33.487
855.102	4.142
858.925	25.211
862.746	2.557
866.566	26.894
870.384	6.23
874.2	18.442
878.015	0.847
881.828	27.127
885.639	4.39
889.448	29.635
893.256	14.862
897.061	21.066
900.865	33.263
904.668	24.415
908.468	24.606
912.267	14.794
916.064	25.941
919.86	20.121
923.653	16.752
927.445	41.92
931.236	33.112
935.024	20.762
938.811	27.931
942.596	7.869
946.379	17.295
950.161	31.492
953.94	22.694
957.719	42.597
961.495	0.298
965.27	11.082
969.043	23.873
972.814	16.255
976.583	49.384
980.351	37.694
984.117	21.884
987.882	7.404
991.644	16.46
995.405	37.641
999.165	70.594
1002.92	80.794
1006.68	61.663
1010.43	86.943
1014.18	91.188
1017.93	109.456
1021.68	109.748
1025.43	114.727
1029.18	104.002
1032.92	110.136
1036.66	88.784
1040.4	102.737
1044.14	124.349
1047.88	131.485
1051.62	133.864
1055.35	164.252
1059.08	183.671
1062.81	249.103
1066.54	505.878
1070.27	459.367
1073.99	514.841
1077.72	900.759
1081.44	2150.27
1085.16	20264.3
1088.88	42981.9
1092.59	4710.07
1096.31	1096.64
1100.02	562.549
1103.73	386.153
1107.44	322.497
1111.15	241.107
1114.86	152.188
1118.57	162.187
1122.27	142.229
1125.97	152.844
1129.67	127.837
1133.37	99.53
1137.07	101.244
1140.76	92.918
1144.45	68.64
1148.15	48.656
1151.84	84.137
1155.53	80.783
1159.21	55.065
1162.9	62.794
1166.58	50.795
1170.26	50.567
1173.94	9.316
1177.62	18.659
1181.3	9.46
1184.97	45.341
1188.65	42.253
1192.32	31.041
1195.99	22.168
1199.66	23.049
1203.33	29.916
1206.99	9.646
1210.65	14.976
1214.32	19.572
1217.98	18.309
1221.64	7.879
1225.29	24.823
1228.95	7.083
1232.6	9.806
1236.26	18.553
1239.91	9.187
1243.56	37.82
1247.2	24.462
1250.85	45.09
1254.49	8.631
1258.13	19.2
1261.78	3.207
1265.41	4.689
1269.05	45.816
1272.69	32.271
1276.32	48.706
1279.95	48.122
1283.59	21.514
1287.21	28.89
1290.84	34.242
1294.47	5.555
1298.09	23.162
1301.72	44.051
1305.34	37.229
1308.96	10.358
1312.58	41.456
1316.19	9.558
1319.81	6.392
1323.42	8.624
1327.03	8.616
1330.64	2.583
1334.25	19.538
1337.86	44.535
1341.46	5.485
1345.07	21.338
1348.67	23.268
1352.27	9.081
1355.87	6.939
1359.46	10.44
1363.06	8.217
1366.65	24.562
1370.25	24.274
1373.84	20.981
1377.43	8.395
1381.02	27.06
1384.6	17.574
1388.18	47.483
1391.77	12.911
1395.35	49.363
1398.93	18.057
1402.51	10.715
1406.08	40.731
1409.66	55.34
1413.23	72.306
1416.8	87.05
1420.37	118.338
1423.94	100.227
1427.51	122.68
1431.08	145.999
1434.64	401.262
1438.2	1122.45
1441.76	364.369
1445.32	128.532
1448.88	89.804
1452.43	70.506
1455.99	54.345
1459.54	60.12
1463.09	51.993
1466.64	58.679
1470.19	49.474
1473.74	26.341
1477.28	1.152
1480.83	14.957
1484.37	29.851
1487.91	21.923
1491.45	35.094
1494.98	42.466
1498.52	18.979
1502.05	58.1
1505.59	60.506
1509.12	50.695
1512.65	41.932
1516.17	30.557
1519.7	7.413
1523.23	0.026
