Measurement: Raman, 514 nm, depolarized, Raman Data Processed
Mineral: Calcite
Rruff sample: R040070
Ideal chemistry: CaCO_3_
Locality: Pryor Mountain, Big Horn County, Montana, USA
Source: University of Arizona Mineral Museum
Description: Orange scalenohedral crystals
Measured chemistry: (Ca_0.99_Mg_0.01_)CO_3_
Pin_id: M00039
Orientation: Laser parallel to -c* (0 0 -1). Fiducial mark perpendicular to laser is parallel to a [1 0 0]
Raman shift (cm-1)	intensity
97.554	0
101.732	14.952
105.908	53.851
110.082	51.283
114.254	87.058
118.424	83.469
122.592	48.04
126.758	6.4
130.922	8.224
135.083	17.233
139.243	31.058
143.401	88.142
147.557	216.743
151.711	536.117
155.863	697.287
160.013	330.907
164.161	135.168
168.308	51.118
172.452	46.345
176.594	47.645
180.734	15.835
184.872	29.378
189.008	4.226
193.143	19.238
197.275	19.289
201.405	8.73
205.534	4.729
209.66	7.342
213.784	4.297
217.907	31.853
222.027	24.483
226.146	17.79
230.263	41.393
234.377	95.128
238.49	82.579
242.601	77.255
246.709	94.101
250.816	108.307
254.921	142.206
259.024	160.998
263.125	230.719
267.224	336.876
271.321	517.383
275.416	873.26
279.51	1488.5
283.601	1327.14
287.69	689.375
291.778	367.6
295.863	227.183
299.947	154.232
304.029	113.212
308.108	113.029
312.186	74.968
316.262	96.479
320.336	73.545
324.408	68.042
328.478	67.475
332.546	72.885
336.612	51.05
340.677	84.896
344.739	73.206
348.799	81.081
352.858	51.339
356.915	34.692
360.969	22.812
365.022	35.695
369.073	19.052
373.122	19.403
377.169	34.105
381.215	41.667
385.258	50.797
389.299	74.812
393.339	61.936
397.376	31.311
401.412	20.374
405.446	20.687
409.478	4.084
413.508	6.469
417.536	1.162
421.562	22.87
425.586	8.676
429.609	4.61
433.629	9.33
437.648	3.154
441.665	23.874
445.68	4.507
449.693	1.042
453.704	21.482
457.713	43.841
461.721	38.133
465.726	47.354
469.73	34.518
473.731	39.54
477.731	47.479
481.729	31.332
485.725	23.885
489.72	12.561
493.712	18.129
497.703	20.561
501.691	35.154
505.678	27.571
509.663	19.15
513.646	49.818
517.627	55.748
521.607	78.968
525.584	41.434
529.56	37.93
533.534	62.662
537.506	51.235
541.476	33.426
545.444	12.553
549.41	31.875
553.375	36.048
557.337	51.983
561.298	88.249
565.257	64.572
569.214	65.795
573.17	50.195
577.123	73.503
581.075	68.765
585.024	108.976
588.972	140.031
592.918	116.883
596.863	111.807
600.805	139.436
604.746	145.193
608.685	118.17
612.621	131.328
616.557	189.07
620.49	311.312
624.421	370.515
628.351	296.898
632.279	201.975
636.205	175.092
640.129	186.157
644.051	274.03
647.972	277.84
651.89	250.553
655.807	198.141
659.722	134.714
663.636	71.434
667.547	24.139
671.457	32.949
675.365	13.786
679.271	22.433
683.175	1.75
687.077	48.166
690.978	13.173
694.877	18.448
698.774	78.436
702.669	95.439
706.562	465.458
710.454	2690.49
714.344	1772.51
718.232	353.574
722.118	121.613
726.002	54.568
729.885	39.552
733.766	35.518
737.645	44.464
741.522	7.606
745.397	5.277
749.271	12.126
753.143	19.941
757.013	38.704
760.881	36.414
764.748	34.098
768.613	50.763
772.476	44.403
776.337	28.011
780.196	27.59
784.054	26.129
787.91	60.648
791.764	47.147
795.616	39.628
799.467	63.093
803.316	68.544
807.163	28.982
811.008	44.409
814.851	35.827
818.693	82.233
822.533	75.431
826.371	105.761
830.208	101.737
834.042	125.729
837.875	135.876
841.706	170.575
845.536	161.459
849.363	213.195
853.189	269.407
857.013	322.76
860.836	384.119
864.656	310.513
868.475	209.917
872.292	182.322
876.108	148.727
879.922	171.133
883.733	157.497
887.544	134.654
891.352	152.174
895.159	194.541
898.964	161.784
902.767	164.67
906.568	135.339
910.368	118.477
914.166	136.294
917.962	100.793
921.757	53.313
925.55	66.302
929.341	57.829
933.13	81.415
936.918	69.833
940.703	62.386
944.488	56.942
948.27	50.577
952.051	98.223
955.83	122.878
959.607	55.544
963.383	46.219
967.156	63.905
970.928	6.601
974.699	3.308
978.468	30.983
982.234	1.669
986	69.314
989.763	98.977
993.525	49.688
997.285	141.591
1001.04	381.262
1004.8	282.576
1008.55	77.815
1012.31	133.323
1016.06	165.304
1019.81	215.523
1023.56	251.26
1027.31	237.155
1031.05	181.078
1034.79	152.836
1038.53	139.112
1042.27	128.485
1046.01	128.785
1049.75	140.252
1053.48	156.242
1057.22	188.781
1060.95	222.762
1064.68	455.592
1068.4	528.668
1072.13	511.732
1075.86	870.827
1079.58	1938.12
1083.3	12499
1087.02	53615.1
1090.74	6542.24
1094.45	1266.35
1098.17	571.452
1101.88	400.546
1105.59	282.63
1109.3	234.704
1113.01	189.767
1116.71	127.818
1120.42	141.857
1124.12	136.881
1127.82	94.366
1131.52	132.328
1135.22	96.897
1138.91	40.858
1142.61	20.82
1146.3	9.235
1149.99	5.329
1153.68	3.473
1157.37	3.655
1161.06	27.88
1164.74	50.8
1168.42	28.453
1172.1	33.082
1175.78	48.687
1179.46	38.269
1183.14	19.825
1186.81	48.352
1190.48	0.155
1194.15	2.108
1197.83	7.7
1201.49	35.873
1205.16	26.716
1208.82	0.378
1212.49	41.849
1216.15	65.741
1219.81	82.651
1223.46	59.48
1227.12	23.242
1230.78	66.18
1234.43	62.079
1238.08	142.944
1241.73	138.774
1245.38	141.577
1249.03	142.353
1252.67	110.102
1256.31	74.866
1259.95	106.558
1263.6	149.267
1267.23	191.901
1270.87	232.506
1274.51	211.099
1278.14	220.696
1281.77	198.296
1285.4	161.869
1289.03	149.4
1292.66	165.103
1296.28	187.97
1299.91	125.99
1303.53	104.829
1307.15	170.793
1310.77	206.727
1314.38	252.663
1318	283.647
1321.61	221.646
1325.23	198.584
1328.84	134.395
1332.45	60.176
1336.06	25.259
1339.66	62.542
1343.27	7.411
1346.87	2.904
1350.47	28.988
1354.07	64.344
1357.67	20.151
1361.26	27.59
1364.86	21.427
1368.45	7.216
1372.04	86.47
1375.63	105.956
1379.22	80.817
1382.81	95.731
1386.39	46.739
1389.98	119.701
1393.56	84.616
1397.14	29.483
1400.72	80.303
1404.3	29.072
1407.87	101.787
1411.45	141.472
1415.02	136.176
1418.59	119.945
1422.16	149.725
1425.73	130.485
1429.29	246.233
1432.86	369.085
1436.42	1147.95
1439.98	910.977
1443.54	677.681
1447.1	644.324
1450.66	697.364
1454.21	753.46
1457.77	752.493
1461.32	677.317
1464.87	534.007
1468.42	461.665
1471.96	365.168
1475.51	286.469
1479.06	238.539
1482.6	281.482
1486.14	181.187
1489.68	152.554
1493.22	142.962
1496.75	15.497
1500.29	28.279
1503.82	39.555
1507.35	19.479
1510.88	21.812
1514.41	33.017
1517.94	13.557
1521.46	30.392
