Measurement: Raman, 514 nm, ccw, Raman Data Processed
Mineral: Calcite
Rruff sample: R050009
Ideal chemistry: CaCO_3_
Locality: Amparo mine, Rodeo, Durango, Mexico
Source: Eugene Schlepp
Description: Colorless cleavage rhomb
Measured chemistry: Ca_1.00_CO_3_; trace amounts of Mn
Pin_id: L00060
Orientation: Laser parallel to c* (0 0 1). Fiducial mark perpendicular to laser is parallel to a [1 0 0]
Raman shift (cm-1)	intensity
73.374	0
78.349	30.8639
83.321	26.3221
88.29	23.4762
93.257	86.6779
98.22	48.1361
103.181	49.9382
108.139	1.12195
113.094	44.571
118.046	64.9949
122.995	51.386
127.941	53.3763
132.885	49.3328
137.826	17.8928
142.764	128.409
147.699	208.139
152.631	487.607
157.56	573.982
162.487	209.705
167.411	116.848
172.332	38.2079
177.25	59.785
182.165	32.418
187.078	48.023
191.987	67.6177
196.894	37.5463
201.798	31.7799
206.699	44.5195
211.598	65.3298
216.493	37.074
221.386	44.2304
226.276	48.0045
231.163	11.2839
236.048	45.4497
240.929	68.3125
245.808	84.4957
250.684	71.1091
255.557	72.2535
260.428	123.895
265.295	138.524
270.16	291.327
275.022	491.779
279.882	1136.33
284.738	1251.91
289.592	554.299
294.443	251.67
299.291	153.122
304.136	85.7258
308.978	85.4052
313.818	42.0803
318.655	5.42224
323.489	94.2693
328.321	90.7845
333.15	46.9662
337.976	46.0049
342.799	17.0897
347.619	43.8085
352.437	72.9094
357.252	64.8773
362.064	9.78198
366.873	16.2935
371.68	26.1679
376.483	19.8204
381.284	30.8816
386.083	30.6777
390.878	3.32971
395.671	14.874
400.461	37.0753
405.249	53.8612
410.033	53.7687
414.815	6.03943
419.594	47.616
424.37	0.488159
429.144	60.2906
433.915	54.037
438.683	79.5125
443.448	14.4379
448.211	30.5586
452.971	3.67127
457.728	86.7738
462.483	18.1612
467.235	2.1217
471.984	70.8525
476.73	14.913
481.474	54.6843
486.214	40.1773
490.953	23.7407
495.688	58.2573
500.421	72.1278
505.151	43.2549
509.878	31.3615
514.603	53.3195
519.325	33.2338
524.044	12.9784
528.76	71.9342
533.474	7.71472
538.185	6.35413
542.894	38.4504
547.599	35.6437
552.302	62.2496
557.003	2.15173
561.7	51.7867
566.395	49.3877
571.087	92.1634
575.777	1.16748
580.464	59.3873
585.148	9.59131
589.829	1.35169
594.508	77.616
599.184	1.09546
603.858	13.1665
608.528	51.509
613.197	47.7024
617.862	61.5361
622.525	95.3101
627.185	75.6731
631.842	9.94604
636.497	11.5906
641.149	12.9683
645.798	40.814
650.445	1.83643
655.089	89.5664
659.73	33.894
664.369	87.4954
669.005	39.1997
673.639	37.7466
678.269	32.5466
682.898	88.5864
687.523	38.6365
692.146	107.102
696.766	85.1231
701.384	50.6103
705.998	283.312
710.611	1445.8
715.22	1532.94
719.827	196.573
724.431	75.3897
729.033	86.3162
733.632	117.555
738.229	56.8755
742.822	3.04688
747.413	49.6833
752.002	21.9849
756.588	74.1191
761.171	47.8599
765.752	68.1265
770.33	7.9104
774.905	74.5444
779.478	23.7161
784.048	41.3828
788.615	48.9734
793.18	139.072
797.742	43.2315
802.302	92.0349
806.859	2.19385
811.414	53.4014
815.965	108.447
820.515	49.6475
825.061	51.2515
829.605	29.3994
834.147	66.5833
838.686	4.33203
843.222	88.1306
847.755	115.311
852.286	66.531
856.815	83.3594
861.341	126.43
865.864	134.563
870.384	130.453
874.902	98.595
879.418	57.0891
883.931	68.2483
888.441	102.108
892.949	15.1123
897.454	73.6228
901.956	177.022
906.456	11.7952
910.954	20.4631
915.448	22.2478
919.941	125.894
924.43	26.2026
928.917	57.1006
933.402	77.6313
937.884	23.9439
942.363	31.542
946.84	188.277
951.314	77.9722
955.786	74.9983
960.255	11.5649
964.722	73.114
969.186	134.223
973.647	148.539
978.106	92.3525
982.562	39.0225
987.016	15.2805
991.467	76.6523
995.916	91.6006
1000.36	123.17
1004.8	103.923
1009.25	39.4963
1013.68	104.783
1018.12	132.527
1022.55	80.471
1026.98	65.5337
1031.41	111.476
1035.84	132.771
1040.26	111.165
1044.68	24.4326
1049.1	101.857
1053.52	32.8882
1057.93	107.044
1062.34	133.637
1066.75	518.286
1071.15	296.041
1075.56	491.223
1079.96	1489.47
1084.36	16611.6
1088.75	18500.8
1093.14	1194.58
1097.53	341.563
1101.92	216.321
1106.31	168.879
1110.69	151.361
1115.07	115.402
1119.45	104.633
1123.82	44.4199
1128.2	51.5903
1132.57	130.387
1136.93	34.8374
1141.3	29.6201
1145.66	64.9468
1150.02	12.0727
1154.38	17.7422
1158.74	62.6313
1163.09	61.7666
1167.44	104.017
1171.79	87.813
1176.13	19.0488
1180.48	39.8765
1184.82	103.138
1189.15	84.9131
1193.49	115.1
1197.82	23.9839
1202.15	7.84521
1206.48	90.0498
1210.81	76.4907
1215.13	60.5337
1219.45	122.085
1223.77	38.4048
1228.08	42.6694
1232.4	50.9004
1236.71	71.0293
1241.02	18.5127
1245.32	127.849
1249.62	102.364
1253.92	61.9805
1258.22	138.835
1262.52	163.218
1266.81	144.032
1271.1	139.252
1275.39	99.062
1279.68	198.677
1283.96	187.093
1288.24	64.9888
1292.52	85.1763
1296.8	141.114
1301.07	143.159
1305.34	117.911
1309.61	125.493
1313.88	94.8945
1318.14	137.481
1322.4	149.638
1326.66	146.756
1330.92	113.272
1335.17	140.161
1339.42	124.256
1343.67	42.7275
1347.92	149.442
1352.16	9.90137
1356.41	54.4014
1360.64	100.566
1364.88	71.5606
1369.12	90.3272
1373.35	42.6636
1377.58	177.007
1381.81	130.589
1386.03	58.498
1390.25	117.866
1394.47	80.0859
1398.69	134.265
1402.91	157.524
1407.12	46.4219
1411.33	81.5547
1415.54	161.247
1419.74	31.748
1423.95	184.931
1428.15	54.6377
1432.35	313.851
1436.54	683.163
1440.74	67.2266
1444.93	79.2637
1449.12	250.711
1453.3	170.281
1457.49	189.129
1461.67	82.8272
1465.85	83.3311
1470.02	59.5469
1474.2	58.874
1478.37	110.564
1482.54	100.634
1486.71	27.6104
1490.87	29.4707
1495.03	117.727
1499.19	77.2725
1503.35	168.22
1507.51	177.106
1511.66	207.981
1515.81	123.481
1519.96	154.452
1524.1	101.167
1528.25	119.864
1532.39	147.25
1536.53	205.639
1540.66	288.232
1544.8	73.3623
1548.93	146.397
1553.06	22.7598
1557.18	146.517
1561.31	228.738
1565.43	171.263
1569.55	118.017
1573.67	112.243
1577.78	0
