Measurement: Raman, 514 nm, depolarized, Raman Data Processed
Mineral: Cancrinite
Rruff sample: R050352
Ideal chemistry: (Na,Ca,[box])_8_(Al_6_Si_6_)O_24_(CO_3_,S^6+^O_4_)_2_2H_2_O
Locality: York River, quarry #2, Dungannon Township, Ontario, Canada
Source: California Institute of Technology
Description: Pink fragment
Measured chemistry: (Na_6.07_Ca_1.62_[box]_0.31_)_Σ=8_(Al_0.99_Si_1.01_O_4_)_6_((CO_3_)_0.84_[box]_0.16_)_Σ=2_·2H_2_O
Pin_id: L01694
Orientation: Laser parallel to -c* (0 0 -1). Fiducial mark perpendicular to laser is parallel to a [1 0 0]
Raman shift (cm-1)	intensity
83.602	0
88.542	1675.1
93.48	2076.96
98.416	1189.55
103.349	655.389
108.28	1508.34
113.208	1155.54
118.134	1785.75
123.058	1825.96
127.979	1448.74
132.898	1116.96
137.814	634.263
142.728	487.607
147.639	39.3691
152.549	101.98
157.455	122.393
162.359	203.968
167.261	13.4844
172.161	406.428
177.058	780.884
181.952	1429.74
186.845	2016.92
191.734	2450.58
196.622	2508.71
201.507	2141.83
206.389	1521.19
211.269	1553.73
216.147	2287.4
221.022	2649.17
225.895	3045.05
230.765	3132.77
235.633	3293.43
240.498	3171.49
245.361	3151.94
250.222	3383.81
255.08	4244.55
259.936	6307.9
264.789	8558.77
269.64	11799
274.488	14053.8
279.334	12171.8
284.178	8139.89
289.019	6357.11
293.857	6684.53
298.693	7218.14
303.527	6090.17
308.358	4082.95
313.187	2516.05
318.013	1675.35
322.837	1240.03
327.659	1515.58
332.478	1827.9
337.294	1911.95
342.108	1553.86
346.92	1045.68
351.729	986.534
356.535	472.281
361.34	16.7871
366.141	122.226
370.94	206.534
375.737	101.522
380.531	41.6528
385.323	78.6997
390.113	187.856
394.9	768.202
399.684	1095.82
404.466	1123.76
409.245	648.037
414.022	641.817
418.797	1004.66
423.569	1819.77
428.338	4105.67
433.105	8507.48
437.87	14400.3
442.632	15984.9
447.391	9873.61
452.149	5349.01
456.903	4516.75
461.655	5678.54
466.405	6191.91
471.152	5255.91
475.897	3049.55
480.639	1898.28
485.378	1569.46
490.116	1749.52
494.85	1942.73
499.582	1678.52
504.312	1702.92
509.039	2250.45
513.764	3765.73
518.486	6020.72
523.206	7195.76
527.923	4733.6
532.638	2536.01
537.35	1264.02
542.059	729.492
546.766	413.421
551.471	388.81
556.173	184.678
560.873	88.0928
565.57	106.089
570.264	119.58
574.957	37.708
579.646	138.939
584.333	7.43994
589.018	2.42822
593.7	14.4414
598.379	30.7764
603.056	90.6226
607.73	141.866
612.402	2.27588
617.072	57.4438
621.739	71.2627
626.403	128.781
631.065	59.1836
635.724	118.531
640.381	89.7339
645.035	169.094
649.687	108.11
654.336	58.8193
658.983	87.9419
663.627	32.04
668.268	177.605
672.907	343.888
677.544	568.247
682.178	819.466
686.809	990.012
691.438	1078.65
696.065	1401.34
700.688	1350.37
705.31	997.761
709.929	958.223
714.545	1478.07
719.158	1609.71
723.77	737.693
728.378	425.971
732.984	333.746
737.588	322.419
742.189	288.92
746.787	456.968
751.383	395.65
755.976	375.234
760.567	564.827
765.155	647.258
769.741	830.667
774.324	1225.83
778.904	781.165
783.482	418.025
788.058	273.89
792.631	219.2
797.201	99.2022
801.769	63.8574
806.334	48.5225
810.897	103.717
815.457	54.1221
820.014	23.5791
824.569	167.065
829.122	62.6162
833.671	151.11
838.219	21.6162
842.763	55.6768
847.306	115.901
851.845	73.6162
856.382	105.63
860.917	38.9082
865.448	133.018
869.978	88.8564
874.505	47.416
879.029	21.3623
883.55	40.419
888.069	52.2363
892.586	30.6494
897.1	74.2334
901.611	68.1904
906.12	105.356
910.626	144.541
915.129	295.247
919.63	486.674
924.129	779.739
928.625	870.557
933.118	1076.19
937.609	1042.32
942.097	1045.87
946.582	1563.69
951.065	1775.68
955.546	1888.59
960.023	1768.12
964.499	1493.13
968.971	1685.6
973.441	1681.92
977.909	1797.02
982.374	2017.83
986.836	2287.1
991.295	2604.5
995.753	2766.81
1000.21	3000.05
1004.66	3062.74
1009.11	2768.34
1013.55	2374.5
1018	2127.2
1022.44	2322.6
1026.88	2387.13
1031.32	3179.45
1035.75	5406.24
1040.18	11850.2
1044.61	13983.5
1049.04	23140.9
1053.46	45082.1
1057.88	47128.5
1062.3	20875.1
1066.71	5652.41
1071.13	2805.57
1075.54	1756.51
1079.94	1647.98
1084.35	1771.53
1088.75	2016.75
1093.15	1655.87
1097.55	1759.76
1101.94	1205.93
1106.34	1183.88
1110.73	497.232
1115.11	623.504
1119.5	1020.6
1123.88	1097.92
1128.26	501.708
1132.63	75.5137
1137.01	160.911
1141.38	203.692
1145.75	169.413
1150.12	131.095
1154.48	25.5176
1158.84	23.0859
1163.2	151.027
1167.55	125.492
1171.91	29.3281
1176.26	43.9609
1180.61	3.91797
1184.95	125.793
1189.29	177.801
1193.63	117.822
1197.97	170.787
1202.31	379.435
1206.64	67.2793
1210.97	169.268
1215.29	126.644
1219.62	260.658
1223.94	217.209
1228.26	11.5977
1232.57	141.043
1236.89	144.154
1241.2	178.361
1245.51	295.385
1249.81	350.207
1254.12	93.7988
1258.42	205.125
1262.72	180.264
1267.01	82.8184
1271.3	140.512
1275.59	85.6894
1279.88	57.6016
1284.17	89.0508
1288.45	83.8008
1292.73	116.555
1297.01	283.535
1301.28	244.305
1305.55	74.043
1309.82	33.459
1314.09	59.8047
1318.35	64.834
1322.61	15.2891
1326.87	299.967
1331.13	153.812
1335.38	158.865
1339.63	367.481
1343.88	135.949
1348.12	263.918
1352.37	124.375
1356.61	226.168
1360.85	435.238
1365.08	498.994
1369.31	916.26
1373.54	1770.37
1377.77	1824.62
1381.99	1112.12
1386.22	1029.24
1390.43	885.231
1394.65	579.826
1398.87	482.67
1403.08	590.59
1407.29	692.096
1411.49	467.688
1415.69	380.803
1419.89	322.918
1424.09	30.3926
1428.29	216.176
1432.48	116.182
1436.67	145.166
1440.86	214.049
1445.04	511.293
1449.23	964.852
1453.4	819.693
1457.58	336.182
1461.76	202.816
1465.93	209.184
1470.1	257.283
1474.26	489.096
1478.43	651.158
1482.59	674.656
1486.75	513.746
1490.9	311.647
1495.06	351.754
1499.21	246.898
1503.35	399.152
1507.5	472.156
1511.64	560.775
1515.78	397.731
1519.92	266.391
1524.05	543.762
1528.18	336.41
1532.31	117.481
1536.44	91.8633
1540.56	454.582
1544.69	340.65
1548.8	256.758
1552.92	86.4766
1557.03	323.275
1561.14	171.531
1565.25	150.242
1569.36	93.9883
