Measurement: Raman, 514 nm, depolarized, Raman Data Processed
Mineral: Cancrinite
Rruff sample: R050352
Ideal chemistry: (Na,Ca,[box])_8_(Al_6_Si_6_)O_24_(CO_3_,S^6+^O_4_)_2_2H_2_O
Locality: York River, quarry #2, Dungannon Township, Ontario, Canada
Source: California Institute of Technology
Description: Pink fragment
Measured chemistry: (Na_6.07_Ca_1.62_[box]_0.31_)_Σ=8_(Al_0.99_Si_1.01_O_4_)_6_((CO_3_)_0.84_[box]_0.16_)_Σ=2_·2H_2_O
Pin_id: M00367
Orientation: Laser parallel to a* (1 0 0). Fiducial mark perpendicular to laser is parallel to c [0 0 1]
Raman shift (cm-1)	intensity
170.936	0
175.834	47.4746
180.729	36.1758
185.622	506.234
190.512	945.833
195.4	1151.22
200.286	1350.07
205.169	1814.53
210.049	2525.1
214.928	4131.14
219.803	5132.04
224.677	5578.32
229.548	4999.71
234.416	4184.78
239.282	3575.26
244.146	3082.34
249.007	3586.3
253.866	5064.96
258.722	7997.73
263.576	12143.2
268.427	17930.2
273.276	22091.2
278.123	18696.8
282.967	11296
287.809	8034.9
292.648	8232.58
297.485	8869.95
302.319	7678.39
307.151	5232.71
311.98	2922.4
316.807	1772.88
321.631	1247.52
326.454	1752.8
331.273	2831.3
336.09	3775.25
340.905	5412.43
345.717	7092.13
350.527	6700.88
355.334	3880.16
360.139	1746.69
364.941	87.2559
369.741	192.7
374.538	542.915
379.333	330.194
384.126	150.346
388.916	220.355
393.703	793.046
398.488	1587.89
403.271	2703.05
408.051	4683.1
412.828	7776.18
417.603	10507
422.376	8998.82
427.146	5894.15
431.914	3857.34
436.679	2772.95
441.442	2384.16
446.202	2132.16
450.96	2853.13
455.715	5308.99
460.467	7405.84
465.218	6486.88
469.965	4518.03
474.711	4449.79
479.454	5140.68
484.194	6934.1
488.932	9767.76
493.667	12889.3
498.4	12995.2
503.13	11148.8
507.858	8471.12
512.583	6164.04
517.306	4027.66
522.026	2703.08
526.744	1673.75
531.459	1240.11
536.172	725.828
540.882	547.336
545.59	432.725
550.295	352.029
554.998	135.356
559.698	187.603
564.396	173.9
569.091	207.391
573.784	180.773
578.474	189.986
583.162	28.8945
587.847	19.2188
592.529	81.0156
597.209	129.227
601.887	157.617
606.562	59.4297
611.235	191.664
615.905	98.1016
620.572	245.154
625.237	68.9414
629.9	97.6406
634.56	17.8379
639.217	134.674
643.872	217
648.524	176.885
653.174	212.684
657.821	80.6172
662.466	178.857
667.108	374.43
671.748	559.18
676.385	836.303
681.02	1119.57
685.652	1167.84
690.281	1004.56
694.908	1182.93
699.533	957.402
704.155	790.957
708.774	803.047
713.391	891.623
718.005	1215.46
722.617	697.4
727.226	415.5
731.833	378.568
736.437	328.57
741.039	346.029
745.638	331.693
750.234	657.008
754.828	692.811
759.419	1108.74
764.008	1950.98
768.595	3361.46
773.178	4151.4
777.759	3147.23
782.338	1220.76
786.914	563.549
791.488	369.91
796.059	372.961
800.627	24.2207
805.193	89.0078
809.756	111.307
814.317	146.152
818.875	29.6367
823.431	0.654297
827.984	116.582
832.534	69.6113
837.082	81.8203
841.627	107.189
846.17	167.559
850.71	21.3691
855.248	0.75
859.783	0.960938
864.316	39.3418
868.846	156.957
873.373	14.3047
877.898	75.5137
882.42	35.2969
886.94	15.0117
891.457	42.8301
895.971	230.6
900.483	67.9727
904.993	117.156
909.5	484.119
914.004	590.793
918.505	1447.18
923.004	1884.12
927.501	2883.76
931.995	3192.09
936.486	2962.96
940.975	2747.93
945.461	3041.67
949.945	4137.05
954.426	5214.99
958.904	4622.91
963.38	4124.06
967.853	3769.83
972.324	3995.54
976.792	4328.44
981.258	4080.68
985.72	4658.94
990.181	4543.55
994.639	4292.5
999.094	4313.39
1003.55	4076
1008	3988.98
1012.44	3247.93
1016.89	3001.85
1021.33	2526.86
1025.77	2274.77
1030.21	2577.98
1034.64	3594.45
1039.07	7821.8
1043.5	10425.4
1047.93	14287.6
1052.35	30452.3
1056.78	34934.1
1061.19	17702.6
1065.61	4076.76
1070.02	1703.94
1074.43	1034.55
1078.84	888.871
1083.25	1130.01
1087.65	944.258
1092.05	961.311
1096.45	831.15
1100.85	598.754
1105.24	376.065
1109.63	364.221
1114.02	193.803
1118.4	464.852
1122.78	771.621
1127.16	420.654
1131.54	77.1875
1135.92	73.8262
1140.29	86.5019
1144.66	120.326
1149.02	30.0781
1153.39	153.103
1157.75	203.315
1162.11	59.3379
1166.46	57.666
1170.82	120.699
1175.17	140.094
1179.52	14.8145
1183.86	381.039
1188.21	49.2461
1192.55	150.18
1196.89	237.418
1201.22	303.883
1205.55	70.8125
1209.88	174.758
1214.21	337.469
1218.54	369.566
1222.86	258.617
1227.18	219.449
1231.5	181.598
1235.81	260.379
1240.12	276.957
1244.43	152.508
1248.74	327.727
1253.04	203.266
1257.34	43.9961
1261.64	375.57
1265.94	201.012
1270.23	82.8086
1274.52	57.4297
1278.81	297.379
1283.1	154.121
1287.38	133.43
1291.66	164.184
1295.94	131.465
1300.21	76.5625
1304.48	160.809
1308.75	51.8203
1313.02	87.2539
1317.29	245.648
1321.55	118.809
1325.81	10.5195
1330.06	419.309
1334.32	227.223
1338.57	173.828
1342.82	263.16
1347.06	200.891
1351.31	117.82
1355.55	129.856
1359.79	85.8281
1364.02	187.293
1368.26	658.059
1372.49	788.5
1376.71	966.051
1380.94	542.602
1385.16	809.523
1389.38	359.863
1393.6	565.598
1397.81	417.754
1402.02	211.996
1406.23	700.516
1410.44	29.3906
1414.64	368.746
1418.85	28.0977
1423.04	97.7812
1427.24	269.164
1431.43	230.223
1435.62	9.95703
1439.81	14.2305
1444	283.926
1448.18	506.773
1452.36	606.457
1456.54	512.082
1460.71	268.215
1464.89	147.652
1469.06	169.93
1473.22	37.3008
1477.39	471.566
1481.55	63.8516
1485.71	265.762
1489.86	273.211
1494.02	89.3047
1498.17	345.848
1502.32	266.449
1506.46	302.961
1510.61	233.469
1514.75	128.016
1518.88	332.211
1523.02	157.633
1527.15	159.555
1531.28	226.769
1535.41	324.25
1539.53	11.8672
1543.66	215.098
1547.78	334.141
1551.89	221.297
1556.01	155.371
1560.12	367.539
1564.23	148.562
1568.33	26.7891
