Measurement: Raman, 514 nm, depolarized, Raman Data Processed
Mineral: Carrollite
Rruff sample: R050089
Ideal chemistry: Cu^1+^Co^3+^_2_S_4_
Locality: Kambove, Katanga, Democratic Republic of the Congo
Source: Rock Currier
Description: Steel-gray octahedral crystal associated with calcite
Measured chemistry: (Cu_0.96_Fe^2+^_0.04_)_Σ=1_Co_2.00_S_4.00_ ; the vein is pyrite: (Fe_0.99_Co_0.01_)_Σ=1_S_2.00_
Pin_id: L00215
Orientation: Laser parallel to a* (1 0 0). Fiducial mark perpendicular to laser is parallel to b [0 1 0]
Raman shift (cm-1)	intensity
95.38	0
100.344	132.309
105.305	4013.07
110.264	4894.88
115.22	11973.4
120.173	12178.5
125.123	839.668
130.07	935.695
135.014	400.016
139.955	818.356
144.894	41.1875
149.83	123.766
154.762	530.738
159.692	543.211
164.62	1307.29
169.544	1114.12
174.465	1408.75
179.384	1078.89
184.3	1230.42
189.213	2018.12
194.123	2653.64
199.03	3240.34
203.934	1574.79
208.836	357.356
213.735	4.09375
218.631	172.285
223.524	41.8125
228.414	326.223
233.302	30.6172
238.186	124.711
243.068	92.7266
247.947	10.9141
252.823	711.199
257.697	1600.47
262.567	1534.76
267.435	717.016
272.3	485.082
277.162	508.543
282.021	56.793
286.878	375.824
291.732	259.019
296.583	501.902
301.431	386.535
306.276	594.094
311.119	758.191
315.958	288.434
320.795	528.082
325.629	566.941
330.461	625.234
335.289	471.918
340.115	677.969
344.938	769.414
349.759	862.281
354.576	750.426
359.391	854.496
364.203	587.82
369.012	598.969
373.818	500.703
378.622	387.508
383.423	293.168
388.221	499.609
393.016	411.777
397.809	596.469
402.598	549.789
407.386	465.449
412.17	384.465
416.951	356.898
421.73	542.926
426.506	906.934
431.279	732.664
436.05	869.184
440.818	748.922
445.583	514.734
450.345	684.625
455.105	747.609
459.861	819.637
464.615	1004.88
469.367	769.285
474.115	968.094
478.861	1176.73
483.604	1108.5
488.345	1141.43
493.082	1039.49
497.817	1247.21
502.55	1332.45
507.279	1576.69
512.006	1331.87
516.73	1541.76
521.451	2203.95
526.17	1563.66
530.886	1717.94
535.599	1766.66
540.31	1792.91
545.017	2012.31
549.723	2462.61
554.425	2307.03
559.125	2348.67
563.822	2434.36
568.516	2301.79
573.207	2286.35
577.896	1589.73
582.583	879.344
587.266	825.883
591.947	483.269
596.625	186.602
601.3	481.367
605.973	497.602
610.643	327.367
615.311	101.348
619.975	337.625
624.637	392.223
629.297	360.32
633.953	358.184
638.607	521.106
643.259	211.379
647.907	440.559
652.553	218.309
657.197	116.606
661.837	46.6836
666.475	112.359
671.111	7.35547
675.743	249.469
680.373	124.637
685.001	93.2383
689.625	35.3984
694.247	175.695
698.867	112.449
703.483	393.719
708.097	89.3008
712.709	104.453
717.318	199.051
721.924	83.1094
726.527	146.769
731.128	59.5469
735.726	125.473
740.322	59.9922
744.915	93.6953
749.505	204.211
754.093	318.672
758.678	416.223
763.26	48.1484
767.84	263.512
772.417	178.793
776.992	314.988
781.564	75.0703
786.133	228.148
790.7	126.742
795.264	369.359
799.825	127.988
804.384	532.297
808.94	277.82
813.494	406.68
818.045	269.742
822.593	294.676
827.139	13.1719
831.682	126.414
836.223	333.258
840.761	113.996
845.296	56.0938
849.829	65.2461
854.359	151.543
858.887	112.066
863.412	137.809
867.934	141.074
872.454	90.2383
876.971	142.613
881.486	401.641
885.998	23.8555
890.507	39.7344
895.014	104.188
899.518	186.434
904.02	172.168
908.519	263.375
913.016	294.363
917.51	405.613
922.001	285.074
926.49	375.34
930.976	287.387
935.46	436.856
939.941	97.1406
944.42	467.969
948.896	641.281
953.369	114.406
957.84	457.981
962.309	535.41
966.774	349.117
971.238	599.731
975.698	468.902
980.156	98.3125
984.612	595.93
989.065	575.066
993.516	493.469
997.964	517.332
1002.41	607.719
1006.85	461.586
1011.29	829.402
1015.73	593.41
1020.16	681.988
1024.6	561.016
1029.03	863.637
1033.46	659.34
1037.88	877.996
1042.3	847.152
1046.72	991.789
1051.14	981.941
1055.56	1095.62
1059.97	1087.82
1064.38	1084.51
1068.79	835.699
1073.19	1063.85
1077.59	1294.9
1081.99	1227.79
1086.39	1128.49
1090.79	1070.92
1095.18	1021.34
1099.57	1214.77
1103.95	1108.71
1108.34	1032.15
1112.72	1182.55
1117.1	1003.96
1121.48	896.531
1125.85	817.691
1130.23	552.43
1134.6	553.297
1138.96	637.816
1143.33	553.754
1147.69	275.273
1152.05	484.367
1156.41	940.551
1160.76	242.488
1165.11	546.496
1169.46	826.035
1173.81	279.496
1178.16	303.41
1182.5	166.582
1186.84	423.016
1191.18	114.684
1195.51	2.58203
1199.84	533.68
1204.17	363.285
1208.5	217.902
1212.83	255.504
1217.15	205.43
1221.47	93
1225.79	89.8633
1230.1	359.848
1234.41	62.8477
1238.73	44.8086
1243.03	113.211
1247.34	340.527
1251.64	50.6328
1255.94	44.8984
1260.24	247.688
1264.54	104.992
1268.83	195.469
1273.12	76.6289
1277.41	169.828
1281.69	167.949
1285.98	70.8672
1290.26	214.812
1294.54	193.988
1298.81	390.492
1303.09	451.852
1307.36	220.785
1311.63	121.727
1315.89	389.656
1320.16	163.547
1324.42	162.32
1328.68	273.16
1332.93	43.0508
1337.19	374.898
1341.44	13.4453
1345.69	446.633
1349.94	161.539
1354.18	382.934
1358.42	418.789
1362.66	271.113
1366.9	378.965
1371.13	293.648
1375.37	354.359
1379.6	119.191
1383.82	322.559
1388.05	291.848
1392.27	229.551
1396.49	267.844
1400.71	487.184
1404.92	27.1875
1409.14	212.035
1413.35	258.047
1417.56	46.4727
1421.76	550.559
1425.97	216.828
1430.17	431.555
1434.37	290.43
1438.56	265.652
1442.76	350.348
1446.95	337.519
1451.14	261.555
1455.33	288.828
1459.51	464.375
1463.69	273.215
1467.87	307.043
1472.05	393.106
1476.22	448.477
1480.4	244.129
1484.57	45.6289
1488.73	567.883
1492.9	328.922
1497.06	44.6836
1501.22	98.2617
1505.38	313.871
1509.54	480.254
1513.69	343.199
1517.84	191.769
1521.99	196.922
1526.14	335.625
1530.28	7.93359
1534.42	45.668
1538.56	276.094
1542.7	310.824
1546.83	398.394
1550.97	127.684
1555.1	361.672
1559.22	41.4219
1563.35	124.715
1567.47	36.9414
