Measurement: Raman, 514 nm, depolarized, Raman Data Processed
Mineral: Carrollite
Rruff sample: R040165
Ideal chemistry: Cu^1+^Co^3+^_2_S_4_
Locality: Katanga, Democratic Republic of the Congo
Source: University of Arizona Mineral Museum
Description: Steel gray octahedral crystals that have a tarnished exterior
Measured chemistry: (Cu_0.97_Fe_0.03_)Co_1.98_S_4_
Pin_id: M00105
Orientation: Laser parallel to -a* (-1 0 0). Fiducial mark perpendicular to laser is parallel to -c [0 0 -1]
Raman shift (cm-1)	intensity
96.621	0
101.585	252.016
106.545	7713.79
111.503	7637.7
116.458	8705.14
121.41	2493.48
126.36	436.371
131.306	1200.38
136.25	696.789
141.19	350.848
146.128	103.969
151.063	459.535
155.995	318.688
160.925	344.609
165.851	1162.13
170.775	776.617
175.695	826.672
180.613	896.285
185.528	895.023
190.44	2091.85
195.35	2566.73
200.256	2695.07
205.16	703.414
210.061	16.1836
214.959	130.445
219.854	20.582
224.747	69.1875
229.636	147.031
234.523	140.672
239.407	473.121
244.288	839.703
249.166	1582.76
254.042	2114.82
258.915	2984.15
263.784	1442.39
268.651	829.805
273.516	193.84
278.377	696.316
283.236	176.184
288.092	143.953
292.945	188.5
297.795	222.742
302.642	834.031
307.487	727.078
312.329	1239.09
317.168	804.629
322.004	234.996
326.838	650.184
331.668	350.109
336.496	610.746
341.321	1069.11
346.144	1191.21
350.963	2029.07
355.78	1959.99
360.594	2362.47
365.405	1656.02
370.214	1063.9
375.019	430.906
379.822	379.231
384.622	293.43
389.42	101.719
394.215	89.1836
399.006	213.578
403.795	261.019
408.582	217.062
413.365	158.781
418.146	359.309
422.924	267.711
427.7	518.106
432.472	489.562
437.242	379.449
442.009	513.066
446.774	565.777
451.535	611.836
456.294	643.32
461.05	513.305
465.804	556.883
470.554	459.816
475.302	616.613
480.047	644.731
484.79	699.168
489.529	1066.85
494.266	1004.76
499.001	959.426
503.732	1109.3
508.461	1179.52
513.187	1041.68
517.911	1605.98
522.631	1209.28
527.349	1810.5
532.065	1820.06
536.777	1521.33
541.487	1575.73
546.194	1796.27
550.898	1757.64
555.6	1788.5
560.299	1785.42
564.995	2036.42
569.689	2092.3
574.38	1686.81
579.068	1385.95
583.754	640.918
588.437	154.719
593.117	188.035
597.794	24.5156
602.469	185.894
607.141	384.551
611.81	364.582
616.477	395.66
621.141	297.836
625.802	399.504
630.461	93.0547
635.117	123.211
639.77	392.484
644.421	413.359
649.069	496.535
653.714	192.738
658.357	441.41
662.997	103.191
667.634	108.898
672.269	27.2344
676.901	45.9844
681.53	34.6289
686.157	78.9414
690.781	101.144
695.402	284.715
700.021	137.812
704.637	83.25
709.251	152.668
713.861	32.7969
718.469	100.453
723.075	147.856
727.678	276.57
732.278	27.7422
736.876	21.9727
741.47	79.3398
746.063	349.168
750.652	489.531
755.239	193.113
759.824	471.383
764.406	410.484
768.985	271.731
773.561	423.648
778.135	67.793
782.706	150.113
787.275	129.613
791.841	275.856
796.404	401.941
800.965	366.801
805.523	311.609
810.079	360.969
814.632	88.7188
819.182	287.613
823.73	289.785
828.275	312.789
832.818	493.602
837.358	254.356
841.895	57.2852
846.43	234.695
850.962	225.93
855.491	143.785
860.018	450.117
864.543	0.476563
869.064	15.6719
873.583	311.82
878.1	89.2773
882.614	253.93
887.125	243.859
891.634	371.465
896.14	145.758
900.644	108.359
905.145	245.945
909.644	88.5352
914.14	328.938
918.633	617.785
923.124	258.777
927.612	488.144
932.098	120.594
936.581	236.289
941.061	372.336
945.539	278.707
950.015	803.25
954.487	236.109
958.958	640.074
963.425	143.848
967.89	369.566
972.353	304.211
976.813	166.828
981.271	571.625
985.726	684.18
990.178	845.805
994.628	673.938
999.075	507.477
1003.52	897.269
1007.96	688.172
1012.4	778.891
1016.84	554.481
1021.27	462.016
1025.71	606.684
1030.13	631.078
1034.56	878.977
1038.99	555.117
1043.41	1101.94
1047.83	975.109
1052.24	920.691
1056.66	1093.52
1061.07	1032.83
1065.48	1175.62
1069.89	794.035
1074.29	1214.34
1078.69	1010.53
1083.09	1252.2
1087.49	1085.79
1091.88	1066.97
1096.28	1236.13
1100.66	799.449
1105.05	1197.38
1109.43	1224.74
1113.82	1077.19
1118.2	853.531
1122.57	1176.26
1126.95	768.598
1131.32	701.656
1135.69	724.32
1140.05	781.969
1144.42	266.129
1148.78	356.086
1153.14	492.969
1157.5	451.559
1161.85	258.527
1166.2	217.438
1170.55	103.703
1174.9	117.258
1179.24	145.059
1183.58	432.027
1187.92	90.2227
1192.26	188.633
1196.6	197.258
1200.93	118.922
1205.26	384.562
1209.58	483.324
1213.91	29.7305
1218.23	119.328
1222.55	206.301
1226.87	0.105469
1231.18	80.5508
1235.49	143.066
1239.8	241.723
1244.11	60.6602
1248.41	254.394
1252.72	13.2383
1257.02	281.906
1261.32	4.73828
1265.61	429.754
1269.9	34.8359
1274.19	18.9961
1278.48	234.785
1282.77	64.5117
1287.05	116.176
1291.33	300.75
1295.61	158.32
1299.88	265.059
1304.15	210.715
1308.42	104.762
1312.69	343.074
1316.96	43.8672
1321.22	345.715
1325.48	111.562
1329.74	55.2852
1334	218.598
1338.25	91.5039
1342.5	332.016
1346.75	416.977
1351	628.352
1355.24	214.043
1359.48	374.426
1363.72	277.312
1367.96	173.398
1372.19	174.051
1376.42	680.238
1380.65	108.434
1384.88	210.34
1389.11	203.856
1393.33	406.43
1397.55	166.262
1401.76	421.91
1405.98	219.566
1410.19	196.004
1414.4	402.152
1418.61	59.2656
1422.82	179.168
1427.02	150.199
1431.22	228.258
1435.42	547.742
1439.61	131.254
1443.81	214.711
1448	287.68
1452.18	214.266
1456.37	397.156
1460.56	399.098
1464.74	438.836
1468.92	175.227
1473.09	163.727
1477.27	157.09
1481.44	301.469
1485.61	277.25
1489.78	503.699
1493.94	306.715
1498.1	340.273
1502.26	173.938
1506.42	314.141
1510.58	359.613
1514.73	259.684
1518.88	13.3984
1523.03	109.867
1527.17	136.359
1531.32	11.375
1535.46	72.5078
1539.6	360.031
1543.73	356.207
1547.87	452.586
1552	168.34
1556.13	432.473
1560.26	106.188
1564.38	116.441
1568.5	259.973
