Measurement: Raman, 514 nm, depolarized, Raman Data Processed
Mineral: Cassiterite
Rruff sample: R050502
Ideal chemistry: SnO_2_
Locality: Redruth, Cornwall, England
Source: California Institute of Technology
Description: Black crystals associated with colorless quartz and grey stannite.
Measured chemistry: SnO_2_
Pin_id: M00499
Orientation: Laser parallel to a* (1 0 0). Fiducial mark perpendicular to laser is parallel to -c [0 0 -1]
Raman shift (cm-1)	intensity
169.765	0
174.7	151.28
179.631	88.6406
184.56	78.3545
189.484	362.152
194.406	869.689
199.325	1540.35
204.24	2638.55
209.153	3593.17
214.062	5430.74
218.968	7971.69
223.87	10929.2
228.77	13860.3
233.666	15811.3
238.56	15970.7
243.45	13174.8
248.337	9042.64
253.221	5317.99
258.102	3352.45
262.979	2083.35
267.854	1718.77
272.726	2319.78
277.594	4478.23
282.459	6999.04
287.321	6683.76
292.18	4799.01
297.036	3593.72
301.889	2641.89
306.739	2093.47
311.586	1605.8
316.43	1303.72
321.271	1143.07
326.108	1027.03
330.943	989.538
335.774	1023.33
340.603	1155.91
345.428	1286.54
350.251	1387.77
355.07	1363.38
359.887	814.332
364.7	36.4644
369.511	369.822
374.318	304.812
379.123	334.876
383.924	410.392
388.723	414.793
393.518	272.815
398.311	297.83
403.1	241.99
407.887	55.6397
412.671	253.654
417.451	530.523
422.229	842.192
427.004	1799.05
431.776	3512.84
436.545	5660.63
441.311	6498.98
446.074	6363.55
450.834	5465.54
455.591	5217.31
460.346	6125.37
465.097	7849.97
469.846	9242.72
474.591	8921
479.334	6575.61
484.074	5392.86
488.811	5400.39
493.545	5495.14
498.276	5483.2
503.005	5375.52
507.73	5008.13
512.453	4580.71
517.173	4206.5
521.89	3849.94
526.604	3586.98
531.315	3388.71
536.024	3470.35
540.729	3816.22
545.432	3862.5
550.132	3945.2
554.83	4325.79
559.524	4582.38
564.216	4911.11
568.904	4931.71
573.59	4897.03
578.274	4907.23
582.954	4918.41
587.632	5088.76
592.307	5665.23
596.979	6451.86
601.648	7693.76
606.315	9499.05
610.979	11260.9
615.64	13503.5
620.298	18504.9
624.954	30519.4
629.607	48881.2
634.257	51702.5
638.904	33729.5
643.549	18863.5
648.191	11913
652.83	8423.33
657.467	5963.56
662.101	4121.28
666.732	2887.32
671.36	2117.87
675.986	1652.18
680.609	2057.61
685.23	2617.56
689.847	3039.49
694.462	3522.75
699.075	3185.61
703.685	2602.88
708.292	2367.42
712.896	2903.17
717.498	3212.06
722.097	3723.53
726.694	3777.05
731.287	3785.93
735.879	3804.62
740.467	3701.04
745.053	3503.07
749.637	3405.53
754.217	3053.79
758.795	2783.33
763.371	2392.62
767.944	2797.71
772.514	4033.67
777.082	3741.2
781.647	2321.19
786.21	1138.57
790.77	442.37
795.327	144.096
799.882	59.5708
804.434	376.144
808.984	592.956
813.531	509.386
818.076	413.94
822.618	184.697
827.158	458.142
831.695	1370.5
836.229	2247.18
840.761	1936.21
845.291	1023.46
849.817	286.836
854.342	100.144
858.864	10.6865
863.383	114.925
867.9	109.924
872.414	171.141
876.926	220.435
881.436	70.6787
885.942	245.013
890.447	175.38
894.949	37.439
899.448	71.7959
903.945	28.0117
908.44	21.543
912.932	49.042
917.421	78.8101
921.909	16.1211
926.393	80.3525
930.876	154.276
935.355	254.906
939.833	335.552
944.308	294.838
948.78	320.196
953.25	353.284
957.718	414.61
962.183	603.855
966.646	667.035
971.107	830.905
975.565	771.477
980.02	786.935
984.474	684.728
988.925	570.389
993.373	680.782
997.819	642.633
1002.26	678.315
1006.7	731.718
1011.14	729.879
1015.58	803.363
1020.01	882.717
1024.45	892.792
1028.88	868.812
1033.3	916.112
1037.73	925.321
1042.15	901.9
1046.57	830.531
1050.99	681.207
1055.4	582.437
1059.82	551.861
1064.23	396.732
1068.64	505.193
1073.04	355.198
1077.45	400.909
1081.85	351.69
1086.25	323.344
1090.64	357.839
1095.04	399.888
1099.43	384.399
1103.82	404.935
1108.21	429.694
1112.6	424.603
1116.98	493.505
1121.36	569.086
1125.74	523.904
1130.12	390.407
1134.49	322.619
1138.86	148.193
1143.23	265.637
1147.6	159.712
1151.96	130.726
1156.33	204.737
1160.69	134.901
1165.05	8.63623
1169.4	45.4917
1173.76	59.5342
1178.11	33.417
1182.46	56.895
1186.81	90.6333
1191.15	15.9351
1195.49	27.4795
1199.84	1.01856
1204.17	44.1626
1208.51	9.05176
1212.84	60.6733
1217.18	116.218
1221.51	65.4868
1225.83	23.0952
1230.16	68.0439
1234.48	227.339
1238.8	214
1243.12	178.045
1247.44	311.496
1251.76	382.388
1256.07	363.75
1260.38	459.6
1264.69	395.951
1268.99	611.812
1273.3	729.194
1277.6	645.101
1281.9	745.325
1286.2	610.809
1290.49	564.351
1294.79	458.184
1299.08	363.964
1303.37	300.502
1307.65	273.332
1311.94	262.04
1316.22	133.823
1320.5	63.4331
1324.78	117.822
1329.06	32.0342
1333.33	70.3999
1337.6	65.5
1341.87	81.8179
1346.14	41.8887
1350.41	88.4082
1354.67	134.384
1358.93	134.826
1363.19	272.653
1367.45	122.858
1371.71	138.935
1375.96	198.119
1380.21	223.291
1384.46	151.839
1388.71	148.845
1392.96	89.312
1397.2	46.2471
1401.44	5.65674
1405.68	65.4429
1409.92	12.0532
1414.16	60.8857
1418.39	66.4766
1422.62	35.2197
1426.85	58.8994
1431.08	57.9565
1435.3	13.7905
1439.53	35.1475
1443.75	175.294
1447.97	225.803
1452.19	102.971
1456.4	247.845
1460.62	258.365
1464.83	276.546
1469.04	210.402
1473.24	288.963
1477.45	350.259
1481.65	402.309
1485.86	370.125
1490.06	332.371
1494.26	361.514
1498.45	400.508
1502.64	438.519
1506.84	442.88
1511.03	513.984
1515.22	428.938
1519.4	377.712
1523.59	407.253
1527.77	324.737
1531.95	323.541
1536.13	202.427
1540.31	191.027
1544.48	143.864
1548.65	209.08
1552.82	205.584
1556.99	192.034
1561.16	48.9395
1565.33	0
