Measurement: Raman, 514 nm, depolarized, Raman Data Processed
Mineral: Cassiterite
Rruff sample: R040072
Ideal chemistry: SnO_2_
Locality: Bolivia
Source: University of Arizona Mineral Museum
Description: Black fragment
Measured chemistry: Sn_0.99_O_2_
Pin_id: M00007
Orientation: Laser parallel to a* (1 0 0). Fiducial mark perpendicular to laser is parallel to c [0 0 1]
Raman shift (cm-1)	intensity
185.562	0
189.698	1.25
193.831	117.338
197.963	59.008
202.093	109.312
206.221	83.897
210.347	123.795
214.472	236.185
218.594	374.823
222.714	321.267
226.832	237.255
230.948	165.968
235.063	147.248
239.175	50.074
243.286	126.249
247.394	84.676
251.501	141.875
255.605	124.126
259.708	162.543
263.808	107.803
267.907	136.147
272.004	191.486
276.099	47.438
280.192	67.106
284.283	14.334
288.372	40.564
292.459	101.264
296.544	82.402
300.627	68.842
304.709	69.831
308.788	83.401
312.865	40.335
316.941	25.464
321.015	16.752
325.086	33.541
329.156	43.878
333.224	7.311
337.29	34.003
341.354	11.052
345.416	43.613
349.476	47.899
353.534	10.19
357.591	14.781
361.645	13.712
365.698	34.983
369.748	16.514
373.797	41.805
377.844	44.6
381.889	75.915
385.932	80.925
389.973	149.733
394.012	74.741
398.049	142.705
402.084	189.96
406.118	226.74
410.15	344.347
414.179	241.878
418.207	266.437
422.233	195.878
426.257	147.565
430.279	239.897
434.299	295.5
438.318	341
442.334	248.163
446.349	194.51
450.361	167.805
454.372	193.374
458.381	198.225
462.388	196.592
466.394	382.838
470.397	559.537
474.398	1127.07
478.398	947.616
482.396	698.317
486.391	571.873
490.385	639.244
494.377	770.712
498.368	960.534
502.356	958.108
506.342	800.876
510.327	763.735
514.31	699.601
518.291	563.168
522.27	414.614
526.247	331.384
530.222	340.647
534.196	473.808
538.167	722.735
542.137	841.285
546.105	773.986
550.071	690.13
554.035	656.112
557.998	603.614
561.958	492.814
565.917	434.244
569.874	353.726
573.829	350.267
577.782	350.876
581.733	285.565
585.683	335.28
589.63	330.168
593.576	373.168
597.52	465.322
601.462	566.713
605.402	776.354
609.341	1018.22
613.277	1296.24
617.212	1841.4
621.145	2831.69
625.076	4992.1
629.006	10392
632.933	18994.4
636.859	16608.4
640.783	8336.94
644.705	4534.94
648.625	3058.18
652.543	2317.3
656.46	2025.96
660.375	1900.25
664.288	1901.33
668.199	1954.79
672.108	2054.32
676.016	2119.17
679.921	2024.84
683.825	1998.6
687.727	1944.78
691.628	1918.71
695.526	2048.72
699.423	1768.8
703.318	1217.94
707.211	939.132
711.102	800.379
714.992	721.677
718.879	672.016
722.765	602.387
726.649	567.789
730.532	478.414
734.412	447.909
738.291	370.912
742.168	409.797
746.043	334.804
749.916	284.1
753.788	279.238
757.658	214.591
761.526	156.739
765.392	53.454
769.257	21.92
773.119	79.061
776.98	30.456
780.839	39.642
784.697	48.673
788.552	77.448
792.406	7.252
796.258	47.298
800.108	83.584
803.957	54.366
807.804	19.551
811.649	42.22
815.492	53.745
819.333	37.166
823.173	10.504
827.011	31.741
830.847	1.103
834.681	65.944
838.514	9.902
842.345	64.784
846.174	165.561
850.001	223.267
853.827	246.878
857.651	220.382
861.473	309.792
865.293	232.118
869.112	221.372
872.928	154.534
876.744	149.61
880.557	173.061
884.369	83.514
888.178	49.343
891.987	60.655
895.793	68.665
899.598	32.155
903.401	29.695
907.202	0.014
911.001	21.516
914.799	21.813
918.595	70.686
922.389	32.387
926.182	85.762
929.972	55.99
933.761	9.327
937.549	18.492
941.334	56.664
945.118	44.248
948.9	43.014
952.681	59.265
956.459	74.4
960.236	68.171
964.012	148.409
967.785	175.938
971.557	211.64
975.327	220.886
979.095	172.532
982.862	123.128
986.627	117.207
990.39	127.363
994.152	76.709
997.912	92.911
1001.67	79.136
1005.43	72.286
1009.18	94.416
1012.93	128.547
1016.68	120.141
1020.43	109.657
1024.18	76.053
1027.93	104.22
1031.67	175.294
1035.42	97.712
1039.16	121.912
1042.9	200.027
1046.63	151.607
1050.37	92.632
1054.11	86.859
1057.84	54.812
1061.57	103.399
1065.3	89.124
1069.03	66.303
1072.75	121.114
1076.47	73.428
1080.2	32.739
1083.92	30.366
1087.64	119.79
1091.36	93.648
1095.07	99.587
1098.79	132.654
1102.5	71.908
1106.21	74.295
1109.92	93.699
1113.62	122.167
1117.33	108.642
1121.04	214.112
1124.74	379.55
1128.44	164.948
1132.14	140.331
1135.83	115.72
1139.53	105.095
1143.22	130.402
1146.92	55.686
1150.61	53.497
1154.3	48.11
1157.98	55.266
1161.67	20.64
1165.35	1.655
1169.04	28.233
1172.72	60.043
1176.4	41.742
1180.07	10.651
1183.75	2.904
1187.42	37.217
1191.1	3.475
1194.77	6.756
1198.44	7.452
1202.1	6.839
1205.77	44.681
1209.43	40.604
1213.1	66.868
1216.76	44.418
1220.42	50.933
1224.07	92.555
1227.73	107.563
1231.38	124.365
1235.04	89.814
1238.69	114.226
1242.34	140.55
1245.99	95.815
1249.63	75.154
1253.28	117.035
1256.92	113.719
1260.56	100.982
1264.2	207.602
1267.84	164.612
1271.48	167.691
1275.11	156.9
1278.74	215.562
1282.38	191.112
1286.01	219.941
1289.63	224.865
1293.26	201.197
1296.89	232.059
1300.51	256.931
1304.13	246.317
1307.75	251.256
1311.37	245.776
1314.99	258.336
1318.6	220.731
1322.22	164.012
1325.83	206.603
1329.44	225.745
1333.05	176.272
1336.66	110.935
1340.26	175.328
1343.87	89.106
1347.47	111.027
1351.07	87.659
1354.67	33.291
1358.27	103.853
1361.86	110.395
1365.46	93.73
1369.05	113.189
1372.64	157.642
1376.23	86.956
1379.82	180.079
1383.41	124.964
1386.99	86.062
1390.57	41.073
1394.16	46.016
1397.74	10.82
1401.32	14.448
1404.89	43.861
1408.47	4.957
1412.04	21.928
1415.61	37.619
1419.18	12.916
1422.75	23.583
1426.32	14.72
1429.89	33.995
1433.45	2.714
1437.01	75.576
1440.58	52.779
1444.13	44.181
1447.69	55.055
1451.25	50.702
1454.81	51.33
1458.36	98.202
1461.91	107.224
1465.46	113.764
1469.01	151.826
1472.56	99.886
1476.1	127.992
1479.64	116.455
1483.19	143.502
1486.73	150.727
1490.27	80.362
1493.81	106.309
1497.34	65.873
1500.88	74.983
1504.41	96.871
1507.94	105.537
1511.47	105.076
1515	120.999
1518.53	107.194
1522.05	83.972
1525.57	79.969
1529.1	60.908
1532.62	42.585
