Measurement: Raman, 514 nm, depolarized, Raman Data Processed
Mineral: Cassiterite
Rruff sample: R040017
Ideal chemistry: SnO_2_
Locality: Bolivia
Source: University of Arizona Mineral Museum
Description: Dark brown short prismatic single crystals
Measured chemistry: Sn_1.00_O_2_; trace amounts of Fe
Pin_id: M00048
Orientation: Laser parallel to -c* (0 0 -1). Fiducial mark perpendicular to laser is parallel to a [1 0 0]
Raman shift (cm-1)	intensity
92.678	0
96.858	99.167
101.036	133.412
105.212	261.394
109.387	388.557
113.559	697.985
117.729	1039.18
121.897	1493.36
126.063	1433.18
130.228	842.003
134.39	791.025
138.55	854.726
142.709	894.223
146.865	971.287
151.019	1071.05
155.171	1075.47
159.322	1030.39
163.47	958.072
167.617	1034.62
171.761	874.904
175.904	611.934
180.044	365.078
184.183	269.676
188.319	151.579
192.454	149.961
196.586	62.252
200.717	20.4
204.846	2.666
208.972	62.556
213.097	20.924
217.22	80.57
221.341	168.625
225.46	88.667
229.577	27.98
233.692	33.654
237.805	21.979
241.916	100.591
246.025	106.081
250.132	149.564
254.237	243.702
258.34	249.48
262.442	334.885
266.541	433.124
270.639	412.6
274.734	481.222
278.828	487.487
282.919	504.432
287.009	561.469
291.097	536.991
295.183	566.236
299.266	626.8
303.348	557.087
307.428	683.771
311.507	570.981
315.583	568.508
319.657	494.382
323.729	529.573
327.8	476.425
331.868	473.397
335.935	457.597
339.999	397.728
344.062	382.426
348.123	227.076
352.182	258.173
356.239	217.582
360.294	141.634
364.347	2.645
368.398	97.48
372.448	41.195
376.495	61.701
380.54	0.72
384.584	105.982
388.626	106.708
392.666	12.333
396.704	12.582
400.74	86.999
404.774	200.983
408.806	396.39
412.836	810.438
416.865	1046.59
420.891	986.787
424.916	935.358
428.939	1265.78
432.959	1729.49
436.978	2274.69
440.996	2864.45
445.011	3653.33
449.024	5279.35
453.036	7579.53
457.045	10469.7
461.053	10589.8
465.059	7419.02
469.063	4644.59
473.065	3191.96
477.065	2415.03
481.063	2025.93
485.06	1969.58
489.054	1789.6
493.047	1769.6
497.038	1740.18
501.027	1510.22
505.014	1325.43
508.999	1091.8
512.982	889.555
516.964	653.161
520.944	400.933
524.921	311.96
528.897	248.914
532.871	266.337
536.844	399.268
540.814	524.08
544.783	441.771
548.749	324.423
552.714	314.891
556.677	150.792
560.638	148.518
564.597	69.527
568.555	2.228
572.511	24.728
576.464	19.398
580.416	4.209
584.366	25.12
588.315	95.4
592.261	258.121
596.206	514.353
600.148	744.182
604.089	1299.57
608.028	1961.47
611.965	2692.8
615.901	3791.5
619.834	5860.59
623.766	10071
627.696	20091.9
631.624	33543
635.551	28594.5
639.475	14686.4
643.398	7838.55
647.318	5121.08
651.237	3685.96
655.155	2840.18
659.07	2251.75
662.984	1924.67
666.895	1711.94
670.805	1643.57
674.713	1467.56
678.62	1386.16
682.524	1342.83
686.427	1396.63
690.328	1506.26
694.227	1470.41
698.124	1303.02
702.02	774.993
705.913	593.255
709.805	516.81
713.695	511.659
717.584	578.792
721.47	488.167
725.355	435.754
729.238	370.666
733.119	368.495
736.998	376.256
740.876	357.146
744.752	457.156
748.626	461.615
752.498	534.641
756.368	626.659
760.237	911.562
764.104	1493.56
767.969	3046.37
771.832	4897.41
775.693	5169.31
779.553	3983.01
783.411	2687.65
787.267	2068.88
791.122	1729.67
794.974	1443.19
798.825	1236.28
802.674	929.95
806.522	687.478
810.367	589.983
814.211	401.455
818.053	276.888
821.893	138.27
825.732	13.591
829.568	27.843
833.403	15.993
837.236	57.973
841.068	32.86
844.898	8.558
848.726	51.142
852.552	71.605
856.376	60.938
860.199	304.131
864.02	154.181
867.839	124.082
871.656	117.825
875.472	109.406
879.286	54.816
883.098	44.049
886.909	53.063
890.717	18.807
894.524	37.795
898.33	32.878
902.133	35.554
905.935	84.944
909.735	83.101
913.533	12.015
917.33	23.427
921.124	42.723
924.918	52.861
928.709	78.628
932.499	43.899
936.286	80.488
940.073	120.187
943.857	121.763
947.64	161.853
951.421	262.527
955.2	332.695
958.978	256.814
962.753	302.357
966.527	395.883
970.3	439.811
974.071	470.373
977.84	374.657
981.607	352.837
985.372	323.327
989.136	302.302
992.898	256.189
996.659	285.633
1000.42	299.596
1004.17	309.371
1007.93	328.854
1011.68	352.99
1015.43	362.502
1019.18	361.395
1022.93	375.555
1026.68	400.012
1030.42	380.395
1034.17	423.962
1037.91	444.904
1041.65	457.835
1045.39	443.228
1049.12	381.281
1052.86	279.016
1056.59	248.917
1060.33	187.468
1064.06	166.637
1067.78	108.027
1071.51	115.015
1075.23	91.879
1078.96	102.129
1082.68	137.013
1086.4	46.685
1090.12	76.849
1093.83	116.041
1097.55	110.408
1101.26	84.074
1104.97	75.566
1108.68	98.166
1112.39	170.068
1116.1	108.441
1119.8	146.475
1123.5	162.25
1127.2	149.312
1130.9	114.184
1134.6	82.929
1138.3	64.757
1141.99	96.083
1145.69	108.967
1149.38	88.921
1153.07	78.771
1156.76	83.537
1160.44	16.884
1164.13	12.146
1167.81	22.995
1171.49	25.179
1175.17	32.511
1178.85	12.7
1182.52	41.582
1186.2	26.125
1189.87	19.502
1193.54	20.024
1197.21	2.655
1200.88	4.325
1204.55	28.586
1208.21	28.086
1211.88	41.653
1215.54	37.352
1219.2	69.421
1222.86	60.927
1226.51	51.456
1230.17	49.047
1233.82	67.44
1237.47	83.686
1241.12	80.744
1244.77	99.942
1248.42	108.114
1252.06	46.317
1255.71	17.588
1259.35	43.848
1262.99	78.027
1266.63	89.779
1270.26	23.143
1273.9	60.605
1277.53	14.33
1281.16	2.048
1284.8	45.16
1288.42	85.21
1292.05	76.862
1295.68	47.871
1299.3	44.197
1302.92	68.147
1306.55	81.342
1310.16	78.818
1313.78	51.547
1317.4	18.649
1321.01	21.913
1324.62	17.352
1328.24	24.22
1331.85	72.966
1335.45	48.492
1339.06	10.999
1342.66	36.898
1346.27	15.517
1349.87	34.531
1353.47	48.609
1357.07	2.308
1360.66	85.878
1364.26	35.632
1367.85	89.408
1371.44	106.961
1375.04	105.281
1378.62	154.62
1382.21	52.015
1385.8	50.194
1389.38	72.47
1392.96	68.922
1396.54	20.582
1400.12	49.766
1403.7	26.028
1407.28	37.273
1410.85	27.676
1414.42	20.098
1417.99	6.882
1421.56	26.664
1425.13	26.468
1428.7	20.974
1432.26	79.537
1435.83	0.994
1439.39	66.774
1442.95	57.051
1446.51	57.888
1450.06	101.385
1453.62	80.844
1457.17	125.395
1460.73	83.816
1464.28	79.263
1467.83	115.315
1471.37	162.939
1474.92	137.164
1478.46	97.037
1482.01	97.068
1485.55	128.991
1489.09	100.74
1492.63	125.455
1496.16	83.072
1499.7	185.032
1503.23	163.809
1506.76	126.679
1510.29	213.424
1513.82	197.663
1517.35	43.378
1520.88	142.735
1524.4	66.294
1527.92	83.472
1531.44	0.982
