Measurement: Raman, 514 nm, depolarized, Raman Data Processed
Mineral: Cassiterite
Rruff sample: R060563
Ideal chemistry: SnO_2_
Locality: unknown
Source: Gemological Institute of America
Description: Dark brown fragment
Measured chemistry: Sn_1.00_O_2_
Pin_id: L01474
Orientation: Laser parallel to c* (0 0 1). Fiducial mark perpendicular to laser is parallel to a [1 0 0]
Raman shift (cm-1)	intensity
114.44	0
119.365	139.746
124.288	171.572
129.209	0.852539
134.127	106.707
139.043	20.7993
143.956	160.875
148.867	128.531
153.775	113.045
158.681	113.683
163.585	82.7017
168.486	0.613281
173.385	20.352
178.282	68.2393
183.176	139.96
188.067	5.70264
192.956	71.6694
197.843	92.8491
202.727	158.687
207.609	72.8643
212.489	102.235
217.366	339.924
222.24	436.051
227.112	552.451
231.982	592.636
236.849	729.517
241.714	1065.15
246.577	433.584
251.437	316.898
256.294	486.335
261.149	607.369
266.002	572.228
270.852	522.934
275.7	372.22
280.545	289.719
285.388	164.797
290.229	71.7466
295.067	199.39
299.902	288.992
304.735	312.485
309.566	273.885
314.394	234.538
319.22	334.657
324.043	246.492
328.864	323.116
333.682	401.474
338.498	393.775
343.311	377.602
348.122	249.949
352.931	360.336
357.737	348.709
362.54	200.589
367.341	121.974
372.14	255.636
376.936	281.638
381.73	187.412
386.521	377.559
391.31	356.73
396.096	327.04
400.88	302.8
405.661	431.001
410.44	495.652
415.216	505.762
419.99	431.34
424.761	404.691
429.53	414.551
434.297	420.386
439.061	406.467
443.822	497.014
448.581	425.218
453.337	389.977
458.091	521.163
462.843	896.773
467.592	1414.83
472.338	1603.36
477.082	1132.42
481.824	902.869
486.563	1013.7
491.3	1111.9
496.034	1372.5
500.765	1300.52
505.494	1008.92
510.221	879.686
514.945	483.833
519.666	211.359
524.385	28.2148
529.102	105.644
533.816	289.568
538.527	737.144
543.236	628.082
547.943	456.377
552.647	364.025
557.348	350.022
562.047	4.36182
566.744	89.9814
571.438	71.3359
576.129	172.863
580.818	106.563
585.504	80.7061
590.188	255.248
594.87	519.653
599.549	1059.37
604.225	1976.39
608.899	2895.71
613.57	4411.33
618.239	7785.24
622.905	15768.5
627.569	35050.1
632.23	57497.2
636.889	41323.7
641.545	17738.8
646.198	8571.51
650.849	5097.74
655.498	3207.61
660.144	2318.8
664.787	1703.08
669.428	1511.82
674.067	1281.93
678.703	1046.29
683.336	1332.88
687.967	1415.69
692.595	1671.72
697.221	1506.95
701.844	712.096
706.465	331.644
711.083	312.092
715.698	358.698
720.311	241.923
724.922	89.1621
729.53	119.708
734.135	36.6357
738.738	169.791
743.338	191.164
747.936	266.747
752.531	607.575
757.124	1005.66
761.714	2394.09
766.302	5595.4
770.887	10900.4
775.469	13374.5
780.049	9930.93
784.626	6046.97
789.201	3888.24
793.773	3101.51
798.343	2438.3
802.91	1985.81
807.475	1584.52
812.037	983.254
816.596	794.568
821.153	419.772
825.707	200.935
830.259	115.05
834.808	131.111
839.355	174.109
843.899	243.065
848.441	510.14
852.98	508.426
857.516	610.125
862.05	688.128
866.581	577.14
871.11	392.021
875.636	516.762
880.159	359.353
884.68	277.785
889.199	225.046
893.714	41.1162
898.228	3.91992
902.738	11.6992
907.246	10.877
911.752	5.62305
916.255	1.9082
920.755	5.85644
925.253	61.0049
929.748	143.895
934.241	19.6152
938.731	117.281
943.218	50.5049
947.703	167.559
952.186	169.357
956.665	312.606
961.142	261.585
965.617	401.725
970.089	489.216
974.558	528.448
979.025	510.351
983.489	386.978
987.951	256.321
992.41	190.372
996.866	272.121
1001.32	410.562
1005.77	305.693
1010.22	287.517
1014.67	433.073
1019.11	364.285
1023.55	402.214
1027.99	479.51
1032.42	379.8
1036.86	370.302
1041.29	484.613
1045.72	318.081
1050.14	230.281
1054.56	131.375
1058.98	82.0977
1063.4	135.251
1067.82	42.1387
1072.23	72.3096
1076.64	80.6123
1081.05	17.2646
1085.45	145.31
1089.85	197.448
1094.25	179.833
1098.65	153.048
1103.04	100.07
1107.43	240.926
1111.82	271.682
1116.21	295.193
1120.59	316.541
1124.97	247.726
1129.35	338.757
1133.73	238.633
1138.1	219.361
1142.47	268.99
1146.84	85.5225
1151.21	131.93
1155.57	84.25
1159.93	120.461
1164.29	39.5938
1168.64	102.221
1172.99	16.834
1177.34	13.0752
1181.69	37.083
1186.04	96.1494
1190.38	163.227
1194.72	106.921
1199.05	28.2822
1203.39	99.2305
1207.72	55.331
1212.05	20.71
1216.37	122.003
1220.7	91.4629
1225.02	113.902
1229.34	51.0195
1233.65	117.611
1237.97	91.1123
1242.28	279.592
1246.59	154.995
1250.89	223.323
1255.19	234.582
1259.49	169.774
1263.79	198.903
1268.09	197.972
1272.38	111.999
1276.67	233.909
1280.95	231.952
1285.24	238.454
1289.52	190.254
1293.8	178.778
1298.08	178.968
1302.35	48.085
1306.62	191.516
1310.89	147.864
1315.15	195.407
1319.42	200.42
1323.68	57.8008
1327.94	50.5928
1332.19	132.245
1336.44	172.778
1340.69	36.3574
1344.94	120.369
1349.19	90.4014
1353.43	58.998
1357.67	68.4863
1361.9	129.062
1366.14	66.4805
1370.37	144.78
1374.6	137.099
1378.83	260.382
1383.05	88.6621
1387.27	64.9375
1391.49	79.208
1395.7	53.4883
1399.92	91.7402
1404.13	0.023438
1408.34	19.6426
1412.54	160.227
1416.74	83.2949
1420.94	30.9912
1425.14	104.956
1429.34	51.291
1433.53	218.07
1437.72	126.807
1441.9	249.112
1446.09	307.968
1450.27	304.025
1454.45	514.206
1458.63	435.438
1462.8	348.725
1466.97	330.721
1471.14	477.335
1475.31	521.068
1479.47	442.94
1483.63	383.973
1487.79	548.734
1491.94	547.273
1496.09	612.224
1500.24	726.426
1504.39	683.244
1508.54	758.796
1512.68	843.148
1516.82	670.601
1520.95	787.942
1525.09	673.984
1529.22	766.671
1533.35	561.831
1537.47	529.622
1541.6	555.165
1545.72	443.185
1549.83	278.315
1553.95	323.742
1558.06	173.256
1562.17	113.164
1566.28	49.875
1570.38	0
