Measurement: Raman, 514 nm, depolarized, Raman Data Processed
Mineral: Cassiterite
Rruff sample: R040072
Ideal chemistry: SnO_2_
Locality: Bolivia
Source: University of Arizona Mineral Museum
Description: Black fragment
Measured chemistry: Sn_0.99_O_2_
Pin_id: L00343
Orientation: Laser parallel to c* (0 0 1). Fiducial mark perpendicular to laser is parallel to a [1 0 0]
Raman shift (cm-1)	intensity
43.192	0
47.422	13.02
51.65	41.105
55.876	39.81
60.1	47.106
64.322	72.466
68.541	51.685
72.758	302.168
76.973	295.915
81.186	314.661
85.397	256.107
89.605	249.975
93.811	141.343
98.015	146.464
102.217	133.574
106.417	173.325
110.614	273.895
114.81	350.383
119.003	463.949
123.194	430.364
127.383	345.27
131.569	323.386
135.754	260.139
139.936	240.484
144.116	183.686
148.294	165.072
152.47	165.501
156.643	106.768
160.815	101.126
164.984	90.351
169.151	44.339
173.316	33.203
177.479	32.127
181.639	22.77
185.798	3.027
189.954	6.934
194.108	6.195
198.261	20.759
202.41	5.383
206.558	0.268
210.704	111.968
214.847	280.138
218.989	387.408
223.128	387.018
227.265	341.206
231.4	394.726
235.532	401.921
239.663	463.424
243.792	510.352
247.918	501.949
252.042	549.727
256.164	511.674
260.284	423.394
264.402	513.011
268.518	516.626
272.632	419.108
276.743	343.433
280.852	314.734
284.96	302.371
289.065	299.36
293.168	325.38
297.269	295.971
301.368	316.467
305.465	277.346
309.559	258.046
313.652	274.138
317.742	262.946
321.83	358.479
325.917	347.007
330.001	307.391
334.083	332.798
338.163	318.981
342.241	292.136
346.316	204.593
350.39	169.304
354.462	137.173
358.531	125.283
362.598	43.604
366.664	15.561
370.727	6.13
374.788	1.006
378.847	1.375
382.904	15.52
386.959	34.409
391.012	40.682
395.063	24.042
399.112	14.959
403.158	18.18
407.203	32.978
411.245	8.528
415.286	16.134
419.324	80.022
423.36	18.243
427.395	9.705
431.427	31.552
435.457	42.078
439.485	38.847
443.511	52.729
447.535	66.416
451.557	11.441
455.577	20.692
459.595	116.901
463.61	112.843
467.624	190.806
471.636	264.515
475.646	369.48
479.653	516.948
483.659	688.047
487.662	883.355
491.664	1000.89
495.663	1288.68
499.661	1172.75
503.656	1048.16
507.649	905.963
511.641	757.119
515.63	555.534
519.617	282.192
523.603	168.846
527.586	213.885
531.567	375.596
535.546	704.754
539.523	893.398
543.499	799.973
547.472	687.865
551.443	538.108
555.412	418.628
559.379	322.206
563.344	301.915
567.307	213.192
571.268	122.506
575.227	81.754
579.185	162.171
583.14	167.163
587.093	247.294
591.044	382.571
594.993	575.284
598.94	855.356
602.885	1281.54
606.828	1796.35
610.769	2569.31
614.708	4007.2
618.646	6460.99
622.581	11771.3
626.514	24179
630.445	44747.2
634.374	42355.8
638.301	22214.8
642.227	10714.2
646.15	6136.91
650.071	4061.99
653.991	2755.43
657.908	2087.23
661.823	1535.37
665.737	1288.85
669.648	1179.67
673.557	1082.84
677.465	1010.34
681.37	1074.17
685.274	1049.34
689.176	1275.88
693.075	1495.77
696.973	1315
700.869	658.557
704.762	327.43
708.654	209.607
712.544	317.123
716.432	361.986
720.318	333.176
724.202	186.691
728.084	123.511
731.964	151.615
735.842	167.045
739.718	124.834
743.593	164.935
747.465	197.978
751.335	374.065
755.204	621.482
759.07	1093.53
762.935	2096.54
766.798	4462.3
770.658	7738.63
774.517	9039.4
778.374	7178.09
782.229	4545.93
786.082	3081.87
789.933	2337.88
793.782	1892.83
797.629	1623.33
801.475	1397.4
805.318	1063.57
809.159	860.838
812.999	672.19
816.837	473.623
820.672	334.129
824.506	180.701
828.338	102.332
832.168	113.015
835.996	129.744
839.822	137.511
843.646	227.309
847.469	310.13
851.289	327.969
855.108	323.82
858.924	453.677
862.739	413.534
866.552	329.383
870.363	249.22
874.172	267.04
877.979	211.834
881.784	165.599
885.588	98.325
889.389	21.01
893.189	10.353
896.987	23.824
900.783	57.48
904.576	53.398
908.369	48.482
912.159	60.543
915.947	62.938
919.733	48.398
923.518	52.803
927.301	2.896
931.081	0.575
934.86	20.256
938.637	26.309
942.413	48.972
946.186	37.163
949.957	85.447
953.727	127.411
957.495	177.286
961.261	234.948
965.025	299.722
968.787	352.802
972.547	370.99
976.305	359.015
980.062	288.875
983.817	222.569
987.569	152.095
991.32	142.45
995.07	187.654
998.817	192.803
1002.56	219.716
1006.31	200.633
1010.05	200.519
1013.79	240.107
1017.53	303.664
1021.26	304.191
1025	289.672
1028.73	312.066
1032.46	318.143
1036.19	335.264
1039.91	345.222
1043.64	270.214
1047.36	261.991
1051.09	219.131
1054.81	168.77
1058.52	83.274
1062.24	91.601
1065.95	73.149
1069.66	77.537
1073.38	34.387
1077.09	52.321
1080.79	32.655
1084.5	56.187
1088.2	10.784
1091.9	40.492
1095.6	87.464
1099.3	97.664
1102.99	130.804
1106.69	111.811
1110.38	159.692
1114.07	146.488
1117.76	163.209
1121.45	199.807
1125.13	180.37
1128.82	174.816
1132.5	174.154
1136.18	139.464
1139.86	89.776
1143.53	109.84
1147.21	122.844
1150.88	64.703
1154.55	65.575
1158.22	103.334
1161.88	76.011
1165.55	60.31
1169.21	35.408
1172.88	48.882
1176.54	34.595
1180.19	45.903
1183.85	30.283
1187.51	15.765
1191.16	26.299
1194.81	40.962
1198.46	56.757
1202.11	30.176
1205.75	22.219
1209.4	43.973
1213.04	106.583
1216.68	99.087
1220.32	148.864
1223.95	102.963
1227.59	98.531
1231.22	122.695
1234.85	119.212
1238.48	129.033
1242.11	133.655
1245.74	164.988
1249.36	193.352
1252.98	127.42
1256.61	127.686
1260.22	114.273
1263.84	153.247
1267.46	169.801
1271.07	168.297
1274.68	201.505
1278.3	169.925
1281.9	177.33
1285.51	149.088
1289.12	102.212
1292.72	98.38
1296.32	94.034
1299.92	104.387
1303.52	125.52
1307.12	149.943
1310.71	189.856
1314.3	103.108
1317.89	91.745
1321.48	73.61
1325.07	58.212
1328.66	51.046
1332.24	16.281
1335.83	4.136
1339.41	14.692
1342.98	22.458
1346.56	7.167
1350.14	12.191
1353.71	5.4
1357.28	2.825
1360.85	30.973
1364.42	0.453
1367.99	17.085
1371.56	40.976
1375.12	73.774
1378.68	128.406
1382.24	106.814
1385.8	79.91
1389.36	10.522
1392.91	22.628
1396.46	32.192
1400.02	17.034
1403.57	17.421
1407.11	4.292
1410.66	37.794
1414.2	58.544
1417.75	31.311
1421.29	61.192
1424.83	55.391
1428.37	20.081
1431.9	2.745
1435.44	37.322
1438.97	70.633
1442.5	50.083
1446.03	59.603
1449.56	179.855
1453.09	193.927
1456.61	212.557
1460.13	130.67
1463.65	142.327
1467.17	89.692
1470.69	64.504
1474.2	51.997
1477.72	39.087
1481.23	5.61
1484.74	59.365
1488.25	57.695
1491.76	25.138
1495.27	109.046
1498.77	83.531
1502.27	126.881
1505.77	92.112
1509.27	83.956
