Measurement: Raman, 514 nm, depolarized, Raman Data Processed
Mineral: Cassiterite
Rruff sample: R060563
Ideal chemistry: SnO_2_
Locality: unknown
Source: Gemological Institute of America
Description: Dark brown fragment
Measured chemistry: Sn_1.00_O_2_
Pin_id: L01330
Orientation: Laser parallel to -a* (-1 0 0). Fiducial mark perpendicular to laser is parallel to c [0 0 1]
Raman shift (cm-1)	intensity
114.44	0
119.365	92.5479
124.288	284.733
129.209	68.1178
134.127	87.0361
139.043	65.4606
143.956	116.14
148.867	75.3104
153.775	79.2744
158.681	60.9199
163.585	122.697
168.486	79.0852
173.385	72.3301
178.282	5.19367
183.176	7.04248
188.067	29.6045
192.956	27.0312
197.843	44.2554
202.727	41.0866
207.609	26.3363
212.489	136.266
217.366	364.48
222.24	439.704
227.112	420.462
231.982	366.559
236.849	377.376
241.714	489.483
246.577	553.045
251.437	555.766
256.294	585.981
261.149	614.859
266.002	545.37
270.852	559.321
275.7	291.587
280.545	124.805
285.388	94.5559
290.229	71.9206
295.067	93.7506
299.902	146.982
304.735	141.933
309.566	122.489
314.394	148.11
319.22	198.296
324.043	259.094
328.864	249.144
333.682	179.416
338.498	236.664
343.311	187.156
348.122	153.05
352.931	117.154
357.737	16.9434
362.54	17.6136
367.341	73.2375
372.14	88.9984
376.936	3.90833
381.73	17.9797
386.521	42.801
391.31	38.1654
396.096	2.65466
400.88	52.5544
405.661	49.8149
410.44	106.128
415.216	24.5625
419.99	25.1334
424.761	71.8442
429.53	202.736
434.297	356.693
439.061	349.314
443.822	213.497
448.581	195.315
453.337	223.412
458.091	256.803
462.843	539.505
467.592	1181.55
472.338	1924.99
477.082	1606.85
481.824	1133.14
486.563	1356.83
491.3	1633.93
496.034	2046.46
500.765	1913.69
505.494	1653.7
510.221	1319.05
514.945	979.379
519.666	567.228
524.385	309.861
529.102	383.358
533.816	727.968
538.527	1121.74
543.236	1113.09
547.943	776.813
552.647	588.411
557.348	388.106
562.047	206.842
566.744	99.6103
571.438	37.5654
576.129	32.0793
580.818	28.0952
585.504	27.4768
590.188	210.686
594.87	488.579
599.549	903.158
604.225	1575.42
608.899	2485.38
613.57	4116.16
618.239	7490.48
622.905	15779.6
627.569	35357.5
632.23	56935.4
636.889	40371.3
641.545	17544.2
646.198	8314.08
650.849	4938.06
655.498	3257.2
660.144	2317.41
664.787	1878.51
669.428	1659.42
674.067	1655.04
678.703	1632.33
683.336	1773.28
687.967	2109.92
692.595	2411.2
697.221	2166.19
701.844	1095.6
706.465	591.576
711.083	453.095
715.698	487.197
720.311	504.983
724.922	344.781
729.53	214.335
734.135	177.363
738.738	110.57
743.338	86.7788
747.936	3.1333
752.531	31.1068
757.124	4.15137
761.714	128.3
766.302	820.195
770.887	1999.37
775.469	2551.76
780.049	1852.67
784.626	914.592
789.201	515.737
793.773	297.184
798.343	234.917
802.91	149.477
807.475	164.56
812.037	113.48
816.596	136.2
821.153	39.9425
825.707	27.6819
830.259	55.6082
834.808	10.8695
839.355	117.224
843.899	305.49
848.441	533.652
852.98	504.702
857.516	570.646
862.05	692.479
866.581	502.149
871.11	500.63
875.636	367.905
880.159	282.959
884.68	214.776
889.199	97.7709
893.714	55.5411
898.228	0.629028
902.738	21.3859
907.246	25.0413
911.752	39.6067
916.255	35.1165
920.755	31.5352
925.253	12.5181
929.748	30.4663
934.241	66.1379
938.731	99.531
943.218	130.346
947.703	164.895
952.186	218.905
956.665	316.809
961.142	370.304
965.617	511.591
970.089	571.027
974.558	611.755
979.025	503.069
983.489	411.965
987.951	315.443
992.41	261.499
996.866	276.132
1001.32	259.341
1005.77	332.125
1010.22	296.485
1014.67	343.421
1019.11	323.933
1023.55	334.031
1027.99	362.559
1032.42	406.274
1036.86	390.739
1041.29	386.19
1045.72	242.547
1050.14	247.804
1054.56	118.063
1058.98	76.0187
1063.4	65.137
1067.82	81.0851
1072.23	10.5784
1076.64	46.6738
1081.05	64.1287
1085.45	58.2356
1089.85	46.2257
1094.25	89.9073
1098.65	126.365
1103.04	149.703
1107.43	124.819
1111.82	176.709
1116.21	282.378
1120.59	426.832
1124.97	467.079
1129.35	391.124
1133.73	300.975
1138.1	243.637
1142.47	258.117
1146.84	221.422
1151.21	186.583
1155.57	155.688
1159.93	87.7274
1164.29	89.7257
1168.64	57.9099
1172.99	55.2825
1177.34	22.8313
1181.69	54.5445
1186.04	25.2954
1190.38	16.7705
1194.72	24.2572
1199.05	3.54571
1203.39	6.30261
1207.72	15.3144
1212.05	29.4188
1216.37	50.5384
1220.7	68.2244
1225.02	82.0892
1229.34	97.5803
1233.65	147.81
1237.97	95.6853
1242.28	146.496
1246.59	119.242
1250.89	139.923
1255.19	159.542
1259.49	167.103
1263.79	148.608
1268.09	182.061
1272.38	132.464
1276.67	172.835
1280.95	180.598
1285.24	191.079
1289.52	183.755
1293.8	237.199
1298.08	220.305
1302.35	224.846
1306.62	245.488
1310.89	196.07
1315.15	169.189
1319.42	129.776
1323.68	87.4
1327.94	82.6603
1332.19	57.5605
1336.44	38.3925
1340.69	59.7612
1344.94	23.123
1349.19	9.12952
1353.43	36.6382
1357.67	1.37598
1361.9	74.0847
1366.14	116.686
1370.37	148.023
1374.6	212.132
1378.83	182.155
1383.05	171.151
1387.27	127.119
1391.49	102.057
1395.7	65.6335
1399.92	4.85266
1404.13	25.7094
1408.34	31.5034
1412.54	26.8185
1416.74	13.152
1420.94	24.4613
1425.14	17.7266
1429.34	37.144
1433.53	35.2737
1437.72	70.7896
1441.9	115.939
1446.09	121.502
1450.27	190.423
1454.45	226.278
1458.63	243.414
1462.8	235.157
1466.97	280.975
1471.14	316.986
1475.31	286.074
1479.47	381.275
1483.63	379.611
1487.79	440.791
1491.94	447.114
1496.09	481.886
1500.24	542.375
1504.39	558.546
1508.54	635.632
1512.68	636.47
1516.82	640.264
1520.95	605.202
1525.09	553.002
1529.22	467.521
1533.35	454.112
1537.47	395.371
1541.6	332.782
1545.72	321.701
1549.83	224.998
1553.95	179.183
1558.06	111.61
1562.17	46.7199
1566.28	1.43542
1570.38	0
