Measurement: Raman, 514 nm, depolarized, Raman Data Processed
Mineral: Cassiterite
Rruff sample: R050502
Ideal chemistry: SnO_2_
Locality: Redruth, Cornwall, England
Source: California Institute of Technology
Description: Black crystals associated with colorless quartz and grey stannite.
Measured chemistry: SnO_2_
Pin_id: M00088
Orientation: Laser parallel to -c* (0 0 -1). Fiducial mark perpendicular to laser is parallel to b [0 1 0]
Raman shift (cm-1)	intensity
201.19	0
206.082	110.466
210.971	202.171
215.858	659.143
220.742	1195.72
225.624	1491.88
230.503	2075.82
235.38	3645.75
240.254	3645.12
245.125	3666.28
249.994	1683.19
254.861	1037.9
259.725	1419.18
264.586	1112.15
269.445	686.686
274.302	595.588
279.155	810.901
284.007	1297.86
288.855	1730.46
293.702	1780.61
298.545	1651.01
303.386	1476.81
308.225	1195.15
313.061	958.78
317.894	843.437
322.725	811.229
327.554	719.893
332.38	717.675
337.203	750.796
342.024	778.449
346.842	1066.64
351.658	1091.25
356.471	706.261
361.281	53.8989
366.09	226.65
370.895	395.109
375.698	401.269
380.498	263.151
385.296	207.315
390.092	145.287
394.884	251.455
399.675	497.719
404.462	1134.15
409.248	1768.14
414.03	2525.99
418.81	3344.03
423.588	4191.45
428.363	4711.05
433.135	4918.31
437.905	4785.88
442.672	5170.35
447.437	6304.48
452.199	7340.37
456.959	7838.03
461.716	7941.52
466.47	7757.89
471.222	6900.78
475.972	5412.15
480.719	4421.5
485.463	3972.97
490.205	3713.55
494.944	3551.81
499.681	3262.64
504.415	2852.27
509.146	2217.65
513.875	1621.88
518.602	1235.65
523.326	742.989
528.047	498.954
532.766	482.812
537.482	530.177
542.196	583.623
546.907	661.785
551.616	534.143
556.322	742.058
561.025	508.628
565.726	570.696
570.424	301.988
575.12	181.351
579.813	568.875
584.504	1020.66
589.192	1975.73
593.877	3150.11
598.56	4315.8
603.241	6015.8
607.919	8005.67
612.594	9993.82
617.267	13945
621.937	23000.6
626.604	36809.1
631.269	42514.5
635.932	33691.7
640.592	18686.8
645.249	10862.8
649.904	7250.68
654.556	5060.59
659.206	3385.46
663.853	2364.59
668.497	1772.87
673.139	1334.53
677.779	1267.62
682.416	1426.06
687.05	1839.07
691.682	2077.96
696.311	2308.8
700.937	2121.49
705.561	2098.85
710.183	2449.52
714.802	2921.21
719.418	3301.52
724.032	3401.41
728.643	3814.81
733.251	3804.65
737.857	3839.88
742.461	4029.44
747.062	4061.25
751.66	4037.46
756.256	4047.74
760.849	4334.07
765.44	6027.15
770.028	8189.07
774.613	8849.75
779.196	6850.17
783.777	4408.48
788.354	2753.01
792.93	2013.83
797.502	1495.86
802.072	1025.76
806.64	691.262
811.205	326.042
815.767	141.744
820.327	150.42
824.884	275.539
829.439	261.651
833.991	271.415
838.541	232.764
843.087	55.544
847.632	101.58
852.174	76.3203
856.713	277.374
861.25	360.911
865.784	353.023
870.315	337.154
874.844	315.359
879.371	258.419
883.894	162.298
888.416	116.011
892.934	101.268
897.45	66.6499
901.964	20.7842
906.475	24.5132
910.983	59.8364
915.489	63.7168
919.992	52.2317
924.493	159.762
928.991	119.463
933.486	144.248
937.979	261.519
942.47	277.225
946.957	358.435
951.443	460.804
955.925	501.988
960.405	665.111
964.883	637.695
969.358	731.536
973.83	694.909
978.3	665.484
982.767	575.072
987.232	496.086
991.694	469.644
996.153	559.742
1000.61	570.398
1005.06	523.868
1009.52	576.875
1013.97	626.344
1018.41	555.954
1022.86	564.497
1027.3	660.174
1031.74	661.833
1036.17	630.595
1040.61	607.01
1045.04	585.641
1049.47	427.202
1053.89	379.324
1058.32	355.808
1062.74	227.869
1067.15	300.106
1071.57	207.225
1075.98	243.769
1080.39	179.946
1084.8	170.63
1089.21	150.217
1093.61	257.403
1098.01	192.931
1102.41	189.858
1106.8	246.879
1111.19	198.738
1115.59	282.121
1119.97	520.817
1124.36	410.764
1128.74	281.189
1133.12	168.346
1137.5	161.916
1141.87	202.345
1146.24	67.2913
1150.61	128.401
1154.98	108.426
1159.34	131.342
1163.7	6.73486
1168.06	19.3284
1172.42	35.4993
1176.77	0.875244
1181.12	106.486
1185.47	27.1584
1189.82	21.718
1194.16	56.4844
1198.5	15.8738
1202.84	34.1987
1207.18	7.87939
1211.51	34.1213
1215.84	10.396
1220.17	4.30811
1224.5	97.5535
1228.82	103.1
1233.14	65.7368
1237.46	63.2349
1241.77	131.631
1246.09	47.5083
1250.39	118.382
1254.7	98.2212
1259.01	92.043
1263.31	2.74463
1267.61	83.3164
1271.91	75.0142
1276.2	91.3442
1280.49	52.7134
1284.78	57.7353
1289.07	105.504
1293.35	86.1162
1297.64	83.5923
1301.91	186.21
1306.19	5.99756
1310.46	88.7466
1314.74	42.1172
1319.01	40.6177
1323.27	104.094
1327.54	63.4844
1331.8	65.6436
1336.06	30.4097
1340.31	206.325
1344.57	104.37
1348.82	61.623
1353.06	145.713
1357.31	81.6758
1361.55	66.6787
1365.79	252.468
1370.03	186.161
1374.27	158.79
1378.5	178.466
1382.73	234.206
1386.96	176.012
1391.18	116.886
1395.4	60.8345
1399.62	114.582
1403.84	65.3545
1408.06	19.227
1412.27	30.0117
1416.48	20.7036
1420.69	27.8418
1424.89	38.2817
1429.09	107.024
1433.29	64.8823
1437.49	99.5571
1441.68	139.687
1445.87	130.786
1450.06	153.196
1454.25	221.079
1458.43	328.891
1462.62	245.412
1466.79	371.513
1470.97	358.15
1475.14	302.057
1479.31	276.668
1483.48	331.79
1487.65	388.576
1491.81	382.37
1495.97	423.217
1500.13	418.663
1504.29	395.111
1508.44	513.525
1512.59	423.041
1516.74	502.588
1520.88	439.548
1525.03	381.345
1529.17	415.961
1533.3	272.573
1537.44	305.846
1541.57	176.958
1545.7	144
1549.83	117.695
1553.95	237.666
1558.08	19.3364
1562.19	4.58594
