Measurement: Raman, 514 nm, depolarized, Raman Data Processed
Mineral: Cassiterite
Rruff sample: R040017
Ideal chemistry: SnO_2_
Locality: Bolivia
Source: University of Arizona Mineral Museum
Description: Dark brown short prismatic single crystals
Measured chemistry: Sn_1.00_O_2_; trace amounts of Fe
Pin_id: L00125
Orientation: Laser parallel to -a* (-1 0 0). Fiducial mark perpendicular to laser is parallel to c [0 0 1]
Raman shift (cm-1)	intensity
130.329	0
134.5	8.955
138.669	7.758
142.837	108.4
147.002	72.772
151.166	235.044
155.327	477.997
159.486	646.134
163.644	787.052
167.799	1080.94
171.952	1305.96
176.104	1576.37
180.253	1822.76
184.4	2183.5
188.546	2632.7
192.689	2804.45
196.83	3318.64
200.97	3754.3
205.107	4142.69
209.243	4544.23
213.376	5038.72
217.507	5605.44
221.637	5780.83
225.764	5992.12
229.89	6152.96
234.013	6108.71
238.135	5674.12
242.254	5299.01
246.372	4696.81
250.487	4006.61
254.601	3046.46
258.712	2128.46
262.822	1225.82
266.93	472.641
271.036	100.424
275.139	493.529
279.241	2845.95
283.341	4040.7
287.439	3051.11
291.535	1879.21
295.629	1187.25
299.72	740.566
303.811	492.72
307.899	300.595
311.985	157.689
316.069	34.709
320.151	88.406
324.231	1.356
328.31	7.698
332.386	47.755
336.46	21.368
340.533	24.24
344.603	24.401
348.672	27.736
352.738	70.78
356.803	51.962
360.866	144.361
364.927	181.271
368.986	186.224
373.043	107.202
377.098	80.956
381.151	11.709
385.202	101.816
389.251	274.121
393.298	292.408
397.344	319.684
401.387	445.059
405.429	546.598
409.468	617.85
413.506	776.656
417.542	826.114
421.575	873.225
425.607	1060.49
429.637	1265.75
433.666	1333.47
437.692	1557.12
441.716	1648.07
445.738	1631.59
449.759	1764.7
453.777	2009.55
457.794	2216.22
461.809	2418.94
465.822	2682.45
469.832	3100.1
473.842	4100.11
477.849	4113.35
481.854	3745.13
485.857	4064.28
489.859	4463.24
493.858	4674.31
497.856	5099.97
501.852	4851.5
505.846	4784.82
509.838	4571.31
513.828	4240.62
517.816	3800.08
521.802	3404.99
525.787	3122
529.769	3060.89
533.75	3121.91
537.729	3497.74
541.706	3801.46
545.681	3560.4
549.654	3110.57
553.625	2968.47
557.595	2816.55
561.562	2745.31
565.528	2501.26
569.492	2281.59
573.454	2132.81
577.414	2048.88
581.372	1976.94
585.328	1939.01
589.283	1947.11
593.235	2067.4
597.186	2293.06
601.135	2672.79
605.082	3104.57
609.027	3664.71
612.971	4562.83
616.912	6169.77
620.852	9221.83
624.79	14699
628.726	29614.3
632.66	53315.3
636.592	50639.6
640.522	27475.7
644.451	14371.4
648.378	8817.3
652.303	6298.46
656.226	4925.19
660.147	3913.9
664.066	3227.9
667.984	2938.48
671.899	2824.16
675.813	2646.34
679.725	2616.46
683.635	2664.97
687.544	2877.2
691.45	3258.18
695.355	3659.77
699.258	3256.76
703.159	2167.99
707.058	1451.42
710.956	1397.05
714.851	1394.84
718.745	1387.8
722.637	1299.9
726.527	1084.13
730.415	1032.46
734.302	882.88
738.187	833.376
742.07	748.95
745.951	648.598
749.83	529.317
753.707	421.1
757.583	250.944
761.457	146.845
765.329	89.222
769.199	75.57
773.067	35.305
776.934	36.26
780.799	68.65
784.662	120.874
788.523	181.891
792.383	124.548
796.24	7.714
800.096	64.213
803.95	51.615
807.802	74.581
811.653	7.596
815.502	31.609
819.348	84.594
823.194	48.553
827.037	74.481
830.878	49.378
834.718	59.229
838.556	228.023
842.392	250.76
846.227	436.426
850.059	586.015
853.89	670.519
857.719	754.933
861.547	793.253
865.372	751.479
869.196	650.611
873.018	623.661
876.838	528.612
880.657	416.462
884.473	401.237
888.288	309.938
892.101	288.588
895.913	186.146
899.722	243.632
903.53	227.054
907.336	252.425
911.141	236.77
914.943	226.05
918.744	188.528
922.543	232.906
926.341	248.862
930.136	254.437
933.93	316.179
937.722	210.41
941.512	276.28
945.301	286.592
949.088	355.5
952.873	404.077
956.656	370.728
960.438	377.354
964.218	504.818
967.996	590.796
971.772	679.202
975.547	765.119
979.32	644.518
983.091	473.837
986.861	353.945
990.628	276.348
994.394	249.757
998.158	244.171
1001.92	251.593
1005.68	277.024
1009.44	214.465
1013.2	240.918
1016.95	282.383
1020.71	284.891
1024.46	389.374
1028.21	333.927
1031.96	319.8
1035.71	287.957
1039.45	285.007
1043.19	256.775
1046.94	339.995
1050.68	292.421
1054.41	156.028
1058.15	84.586
1061.89	24.648
1065.62	58.922
1069.35	42.864
1073.08	73.304
1076.81	141.875
1080.54	98.366
1084.26	10.97
1087.98	11.808
1091.71	41.962
1095.42	58.434
1099.14	82.127
1102.86	160.043
1106.57	216.194
1110.29	121.583
1114	113.207
1117.71	121.942
1121.41	167.749
1125.12	255.667
1128.83	268.692
1132.53	293.819
1136.23	277.027
1139.93	254.548
1143.63	193.556
1147.32	167.859
1151.02	154.184
1154.71	68.513
1158.4	67.626
1162.09	22.157
1165.78	53.452
1169.46	22.293
1173.15	4.895
1176.83	5.767
1180.51	1.024
1184.19	3.114
1187.87	50.481
1191.54	0.604
1195.22	3.41
1198.89	40.373
1202.56	27.427
1206.23	6.001
1209.9	14.81
1213.56	58.866
1217.23	145.279
1220.89	92.636
1224.55	142.405
1228.21	122.463
1231.87	140.379
1235.52	136.12
1239.18	127.653
1242.83	154.123
1246.48	192.846
1250.13	232.503
1253.78	201.323
1257.42	200.16
1261.07	210.073
1264.71	178.061
1268.35	243.132
1271.99	199.136
1275.63	197.518
1279.27	274.997
1282.9	257.99
1286.53	264.331
1290.16	220.498
1293.79	250.009
1297.42	206.151
1301.05	244.025
1304.67	251.165
1308.29	263.523
1311.92	236.788
1315.54	212.619
1319.15	186.147
1322.77	132.116
1326.38	104.59
1330	128.814
1333.61	77.77
1337.22	105.043
1340.83	88.743
1344.43	124.077
1348.04	50.971
1351.64	78.885
1355.24	63.983
1358.85	28.199
1362.44	67.076
1366.04	82.186
1369.63	157.788
1373.23	136.14
1376.82	194.117
1380.41	248.903
1384	278.726
1387.59	240.322
1391.17	180.713
1394.76	124.721
1398.34	38.178
1401.92	31.082
1405.5	5.967
1409.08	28.667
1412.65	11.845
1416.23	5.632
1419.8	63.089
1423.37	37.025
1426.94	26.678
1430.51	8.568
1434.08	42.266
1437.64	14.655
1441.2	92.52
1444.77	99.96
1448.33	152.635
1451.88	176.655
1455.44	259.135
1459	246.811
1462.55	293.221
1466.1	249.421
1469.65	193.187
1473.2	131.789
1476.75	96.736
1480.29	49.018
1483.84	99.772
1487.38	68.783
1490.92	109.504
1494.46	95.724
1498	202.861
1501.54	121.601
1505.07	148.315
1508.6	128.488
1512.13	68.28
1515.66	114.264
1519.19	8.017
1522.72	0
