Measurement: Raman, 514 nm, depolarized, Raman Data Processed
Mineral: Catapleiite
Rruff sample: R040005
Ideal chemistry: Na_2_Zr^4+^Si_3_O_9_2H_2_O
Locality: Langesundsfjord Eikaholmen Vestfold, Norway
Source: University of Arizona Mineral Museum
Description: Brown thin tabular crystal
Measured chemistry: (Na_1.28_Ca_0.36_[box]_0.36_)_Σ=2_Zr_1.00_Si_3.00_O_9_·2H_2_O
Pin_id: L01591
Orientation: Laser parallel to b* (0 1 0). Fiducial mark perpendicular to laser is parallel to -c [0 0 -1]
Raman shift (cm-1)	intensity
120.596	0
125.519	3.16016
130.439	31.168
135.356	306.164
140.271	1070.83
145.184	1444.73
150.094	1644.61
155.002	1947.69
159.908	1927.07
164.811	2040.81
169.711	2244.14
174.61	2506.43
179.505	2705.11
184.399	3304.46
189.29	3648.08
194.178	5130.63
199.064	5984.75
203.948	6954.17
208.829	7473.44
213.708	7110.92
218.585	5605.96
223.459	3860.79
228.33	2519.03
233.199	1828.55
238.066	1127.91
242.93	793.74
247.792	506.199
252.651	437.422
257.508	451.467
262.363	38.8789
267.215	287.549
272.064	146.148
276.912	237.107
281.756	292.592
286.598	125.303
291.438	234.027
296.276	428.853
301.111	532.469
305.943	702.812
310.773	894.234
315.601	866.521
320.426	1180.05
325.248	959.984
330.068	865.283
334.886	1065.36
339.701	1175.76
344.514	1242.22
349.324	1092.48
354.132	1448.39
358.938	1587.72
363.741	1773.81
368.541	1799.75
373.339	1771.55
378.135	1668.22
382.928	1304.79
387.718	1371.1
392.506	1435.67
397.292	1535.65
402.075	1679.35
406.856	1933.14
411.634	2136.53
416.41	2804.97
421.183	3945.77
425.954	4951.47
430.722	6578.47
435.488	7536.13
440.251	7468.31
445.012	6238.72
449.77	4448.18
454.526	3046.28
459.28	1721.96
464.03	1390.13
468.779	935.293
473.525	584.473
478.268	587.451
483.009	514.771
487.747	308.256
492.483	469.014
497.217	436.131
501.948	953.627
506.676	1224.52
511.402	1776.76
516.125	2145.37
520.846	2205.45
525.565	2164.12
530.281	1722.58
534.994	1420.84
539.705	1049.06
544.413	1059.09
549.119	833.215
553.822	1382.19
558.523	2048.19
563.222	3164.95
567.917	4887.38
572.611	6488.83
577.302	6539.01
581.99	4920.52
586.676	3106.28
591.359	1764.3
596.04	1403.45
600.718	1363.71
605.394	1112.94
610.067	1385.05
614.737	2175.11
619.406	3621.06
624.071	5927.89
628.734	9795.64
633.395	11125.7
638.053	7581.04
642.708	3683.05
647.361	1638.98
652.012	845.676
656.66	405.684
661.305	262.217
665.948	222.469
670.588	130.262
675.226	189.674
679.861	143.955
684.494	286.31
689.124	78.6934
693.752	88.375
698.377	65
702.999	113.438
707.619	77.3906
712.237	187.088
716.852	161.783
721.464	343.582
726.074	285.098
730.681	554.227
735.286	695.668
739.888	642.672
744.488	550.217
749.085	604.32
753.68	548.633
758.272	432.33
762.861	254.352
767.448	371.897
772.033	246.799
776.614	210.119
781.194	171.846
785.77	160.01
790.345	153.656
794.916	135.748
799.485	150.166
804.052	41.1406
808.616	48.3555
813.177	289.092
817.736	160.67
822.292	76.3945
826.846	99.2148
831.397	0.320313
835.945	111.992
840.491	39.8574
845.035	117.418
849.576	37.8242
854.114	117.068
858.65	129.978
863.183	56.1465
867.713	52.4727
872.241	35.7422
876.767	87.7637
881.29	17.2812
885.81	27.8828
890.328	179.9
894.843	376.402
899.356	895.432
903.866	1383.96
908.373	2106.64
912.878	2812.48
917.38	3543.12
921.88	4817.35
926.377	7018.34
930.872	8816.46
935.364	9688.09
939.853	8695.59
944.34	6448.3
948.824	4514.7
953.306	2978.3
957.785	2394.06
962.261	2423.29
966.735	2994.86
971.207	3809.2
975.675	5640.55
980.141	9106.65
984.605	14478.5
989.066	22007.3
993.524	30753.8
997.98	37223.3
1002.43	37856.1
1006.88	33445.8
1011.33	26439.1
1015.78	19502.1
1020.22	13872.5
1024.66	9875.28
1029.1	7302.42
1033.53	5795.9
1037.97	4968.75
1042.4	4782.97
1046.82	4321.6
1051.25	3881.64
1055.67	3059
1060.09	2469.1
1064.51	2117.64
1068.92	2038.44
1073.33	2657.49
1077.74	3741.39
1082.15	5856.52
1086.55	7871.48
1090.95	8184.19
1095.35	6402.18
1099.75	4127.19
1104.14	2708.9
1108.53	1743.19
1112.92	912.754
1117.31	1181.39
1121.69	1529.61
1126.07	1082.38
1130.45	510.779
1134.82	300.342
1139.19	380.484
1143.57	283.719
1147.93	540.711
1152.3	203.033
1156.66	420.668
1161.02	363.793
1165.38	319.426
1169.73	315.648
1174.08	318.963
1178.43	88.2188
1182.78	267.684
1187.12	28.2969
1191.46	261.84
1195.8	288.783
1200.14	104.91
1204.47	169.041
1208.8	72.125
1213.13	135.969
1217.46	93.5371
1221.78	214.197
1226.1	79.9043
1230.42	10.6406
1234.73	144.658
1239.04	227.133
1243.35	65.3769
1247.66	80.7305
1251.97	21.3711
1256.27	80.416
1260.57	151.018
1264.86	139.873
1269.16	2.58984
1273.45	55.7949
1277.74	41.125
1282.03	21.4902
1286.31	422.701
1290.59	133.234
1294.87	123.035
1299.14	82.1875
1303.42	96.0957
1307.69	119.148
1311.95	62.8184
1316.22	335.898
1320.48	455.004
1324.74	193.295
1329	485.779
1333.26	92.2656
1337.51	362.348
1341.76	408.254
1346	275.641
1350.25	334.934
1354.49	86.8711
1358.73	192.769
1362.96	265.559
1367.2	386.342
1371.43	314.815
1375.66	179.461
1379.88	344.402
1384.11	382.256
1388.33	186.494
1392.54	107.812
1396.76	163.551
1400.97	220.688
1405.18	146.285
1409.39	212.721
1413.59	266.44
1417.8	198.131
1421.99	154.543
1426.19	368.721
1430.38	377.588
1434.58	424.301
1438.77	99.2891
1442.95	139.148
1447.13	237.621
1451.32	16.3926
1455.49	314.691
1459.67	358.393
1463.84	301.768
1468.01	119.875
1472.18	280.93
1476.35	125.6
1480.51	380.66
1484.67	59.7617
1488.83	17.7891
1492.98	215.615
1497.13	227.656
1501.28	91.9414
1505.43	494.207
1509.57	373.484
1513.71	385.853
1517.85	114.728
1521.99	252.18
1526.12	91.0586
1530.25	186.629
1534.38	139.174
1538.5	219.643
1542.62	22.7734
1546.74	276.215
1550.86	223.873
1554.98	489.215
1559.09	59.1211
1563.2	270.279
1567.31	77.9551
1571.41	0
