Measurement: Raman, 514 nm, depolarized, Raman Data Processed
Mineral: Catapleiite
Rruff sample: R060208
Ideal chemistry: Na_2_Zr^4+^Si_3_O_9_2H_2_O
Locality: Mont Saint-Hilaire, Rouville County, Quebec, Canada
Source: Royal Ontario Museum
Description: Colorless transparent thin tabular pseudohexagonal crystal
Measured chemistry: Na_2.00_Zr_1.00_Si_3.00_O_9_Â·2H_2_O
Pin_id: M01568
Orientation: Laser parallel to b* (0 1 0). Fiducial mark perpendicular to laser is parallel to c [0 0 1]
Raman shift (cm-1)	intensity
102.392	0
107.335	465.22
112.275	573.893
117.213	1148.55
122.148	1318.55
127.081	1514.53
132.011	1612.71
136.938	1668.42
141.864	1552.27
146.786	1604.88
151.706	1924.85
156.624	1892.34
161.539	1953.67
166.451	2008.55
171.361	2007.11
176.269	2257.53
181.173	2433.11
186.076	2960.32
190.975	3854.82
195.873	4911.43
200.767	5615.02
205.659	5821.7
210.549	5846.11
215.436	4932.96
220.321	3144.88
225.203	1864.31
230.082	1032.95
234.959	520.034
239.833	164.587
244.705	26.648
249.574	57.8008
254.441	126.948
259.305	54.9053
264.167	26.7422
269.026	215.07
273.882	233.69
278.736	172.581
283.588	46.001
288.436	85.6938
293.283	281.353
298.126	348.019
302.968	291.331
307.806	169.488
312.642	359.638
317.476	415.893
322.307	489.17
327.135	468.345
331.961	444.898
336.784	200.481
341.605	81.6299
346.423	167.281
351.239	287.908
356.052	497.809
360.863	880.552
365.671	909.143
370.476	789.529
375.279	610.755
380.079	534.884
384.877	510.935
389.672	496.641
394.465	509.656
399.255	675.856
404.042	982.17
408.827	1551.38
413.609	2748.75
418.389	5014.64
423.166	8828.58
427.941	12995.5
432.713	11765.9
437.483	6769.84
442.25	3747.69
447.014	2064.43
451.776	1293.09
456.535	862.674
461.292	569.212
466.046	441.716
470.797	352.215
475.546	226.745
480.293	187.37
485.037	157.012
489.778	220.991
494.517	246.39
499.253	377.066
503.986	528.21
508.717	925.083
513.446	1456.44
518.171	1884.24
522.895	2107.54
527.615	1868.43
532.334	1442.57
537.049	1212.7
541.762	1079.24
546.472	1017.86
551.18	1090.36
555.885	1597.43
560.588	2455.18
565.288	4258.11
569.986	6653.4
574.681	7364.14
579.373	4861.72
584.063	2411.95
588.75	1245.05
593.435	629.195
598.117	521.372
602.796	516.57
607.473	728.784
612.147	1419
616.819	2769.49
621.488	5586.92
626.155	10298.4
630.819	11938.7
635.48	6568.22
640.139	2730.2
644.795	1281.68
649.449	535.888
654.1	314.017
658.748	212.372
663.394	128.668
668.037	41.5679
672.678	15.3081
677.316	73.6929
681.952	15.9546
686.585	49.7944
691.215	29.3301
695.843	16.5869
700.468	2.24805
705.09	56.9165
709.711	18.395
714.328	72.7969
718.943	135.581
723.555	134.793
728.165	284.434
732.772	446.5
737.376	388.988
741.978	450.894
746.577	265.283
751.174	179.016
755.768	70.2578
760.36	117.671
764.949	63.5713
769.535	32.2808
774.119	25.9204
778.7	69.6719
783.279	99.8799
787.855	38.1001
792.428	79.7002
796.999	87.4092
801.567	5.40234
806.133	85.4297
810.696	17.7847
815.256	13.6084
819.814	22.4878
824.369	1.3042
828.922	77.3711
833.472	47.9463
838.019	16.9946
842.564	0.926758
847.107	143.962
851.646	184.394
856.183	178.691
860.718	142.919
865.25	212.07
869.779	65.9893
874.306	49.6963
878.83	5.78613
883.351	51.5576
887.87	38.7549
892.386	113.256
896.9	215.222
901.411	359.525
905.92	470.276
910.426	790.025
914.929	1241.23
919.43	2442.7
923.928	4954.22
928.423	9356.31
932.916	12590.3
937.407	9981.01
941.894	5021.07
946.38	2939.24
950.862	1884.67
955.342	1141.25
959.819	836.759
964.294	931.655
968.766	934.746
973.236	1470.5
977.703	2170.94
982.167	3570.14
986.629	6440.93
991.088	12510.2
995.544	23754.2
999.998	36211.7
1004.45	40533.8
1008.9	36081.4
1013.34	28070.5
1017.79	19147.3
1022.23	10892.6
1026.67	6421.69
1031.1	4484.48
1035.54	3808.55
1039.97	3637.36
1044.39	2787.94
1048.82	1896.22
1053.24	1314.9
1057.66	1095.46
1062.08	975.528
1066.49	1228.57
1070.91	1795.67
1075.32	2930.08
1079.72	5003.92
1084.13	8725.41
1088.53	11753.8
1092.93	10401
1097.33	6225.77
1101.72	3291.81
1106.11	1834.46
1110.5	1199.9
1114.89	739.726
1119.27	442.921
1123.65	391.713
1128.03	367.534
1132.4	175.556
1136.78	242.959
1141.15	129.983
1145.52	90.8491
1149.88	19.0845
1154.24	141.744
1158.61	74.0059
1162.96	7.96191
1167.32	18.2637
1171.67	47.2559
1176.02	29.2363
1180.37	101.886
1184.71	46.145
1189.05	26.5708
1193.39	18.3242
1197.73	92.3154
1202.06	21.5771
1206.4	2.20947
1210.72	50.0601
1215.05	54.709
1219.37	56.7734
1223.7	1.68555
1228.01	44.5537
1232.33	0.782715
1236.64	43.769
1240.95	30.9297
1245.26	100.03
1249.57	48.355
1253.87	49.4805
1258.17	21.6987
1262.47	82.6377
1266.76	36.8701
1271.06	139.82
1275.35	45.9741
1279.63	77.166
1283.92	22.959
1288.2	43.1494
1292.48	37.8779
1296.76	76.2056
1301.03	61.5337
1305.3	48.4321
1309.57	135.05
1313.84	134.987
1318.1	99.9688
1322.36	111.423
1326.62	250.353
1330.88	146.246
1335.13	48.0967
1339.38	219.716
1343.63	118.212
1347.87	195.658
1352.12	121.035
1356.36	140.642
1360.59	156.126
1364.83	135.464
1369.06	87.4604
1373.29	167.154
1377.52	74.6064
1381.74	151.584
1385.96	60.9673
1390.18	165.636
1394.4	116.933
1398.62	13.2798
1402.83	4.54004
1407.04	47.5288
1411.24	75.4448
1415.45	70.5859
1419.65	45.1645
1423.85	210.992
1428.04	91.9766
1432.23	120.147
1436.43	348.323
1440.61	79.043
1444.8	284.328
1448.98	183.208
1453.16	209.509
1457.34	375.123
1461.52	215.278
1465.69	314.211
1469.86	186.931
1474.03	228.515
1478.19	323.797
1482.35	217.176
1486.51	202.637
1490.67	173.981
1494.82	107.279
1498.97	73.8848
1503.12	26.498
1507.27	105.345
1511.41	138.809
1515.55	105.502
1519.69	108.361
1523.83	48.7959
1527.96	133.956
1532.09	111.147
1536.22	192.328
1540.35	142.767
1544.47	79.2031
1548.59	199.083
1552.71	114.269
1556.82	179.504
1560.93	222.934
