Measurement: Raman, 514 nm, depolarized, Raman Data Processed
Mineral: Catapleiite
Rruff sample: R060208
Ideal chemistry: Na_2_Zr^4+^Si_3_O_9_2H_2_O
Locality: Mont Saint-Hilaire, Rouville County, Quebec, Canada
Source: Royal Ontario Museum
Description: Colorless transparent thin tabular pseudohexagonal crystal
Measured chemistry: Na_2.00_Zr_1.00_Si_3.00_O_9_Â·2H_2_O
Pin_id: M01569
Orientation: Laser parallel to -c* (0 0 -1). Fiducial mark perpendicular to laser is parallel to a [1 0 0]
Raman shift (cm-1)	intensity
120.914	0
125.848	44.5762
130.779	509.573
135.707	810.432
140.633	1055.44
145.556	1575.11
150.476	1994.51
155.395	2550.26
160.31	2679.71
165.223	2386.99
170.134	1760.55
175.042	1019.75
179.947	782.831
184.85	755.121
189.751	930.306
194.649	1084.27
199.544	1515.3
204.437	1715.2
209.327	1813.69
214.215	1645.77
219.1	1103.71
223.982	577.005
228.862	258.058
233.74	16.6284
238.615	47.0488
243.487	17.6377
248.357	67.8569
253.224	159.771
258.089	27.0474
262.951	51.085
267.811	103.948
272.668	49.1982
277.523	13.8149
282.375	283.095
287.224	668.04
292.071	1439.2
296.916	1677.48
301.758	1459.52
306.597	1177.94
311.434	1117.9
316.268	992.863
321.099	946.088
325.928	882.752
330.755	751.338
335.579	467.385
340.4	400.071
345.219	170.313
350.035	263.582
354.849	222.686
359.66	615.636
364.469	613.442
369.275	807.668
374.078	656.398
378.879	784.066
383.678	614.491
388.473	592.175
393.267	395.49
398.057	418.076
402.845	498.541
407.631	950.923
412.414	1654.67
417.194	3288.1
421.972	6399.66
426.748	10767.6
431.52	11934
436.29	7608.73
441.058	4081.3
445.823	2386.71
450.586	1428
455.345	966.232
460.103	630.435
464.858	542.644
469.61	348.901
474.359	329.27
479.106	177.831
483.851	58.751
488.593	27.3984
493.332	82.3144
498.069	139.387
502.803	120.419
507.535	295.913
512.264	667.453
516.99	1142.78
521.714	1411
526.435	1559.17
531.154	1476.54
535.87	1443.49
540.584	1470.11
545.295	1552.93
550.004	1702.07
554.709	2395.26
559.413	3528.87
564.113	6063.06
568.812	10204.9
573.507	13183.2
578.2	10163.7
582.891	5136.4
587.578	2484.32
592.264	1329.43
596.946	807.738
601.626	594.232
606.304	788.904
610.979	1073.74
615.651	2002.74
620.321	4370.88
624.988	8979.46
629.653	13479.1
634.315	8894.93
638.974	3610.49
643.631	1714.64
648.285	830.117
652.937	352.67
657.586	259.21
662.233	53.7798
666.877	58.0947
671.518	41.7378
676.157	7.56494
680.793	54.0352
685.427	27.6221
690.058	37.8765
694.686	36.898
699.312	63.7588
703.935	11.5928
708.556	105.448
713.174	108.878
717.789	170.908
722.402	473.541
727.013	570.77
731.62	967.585
736.225	1202.98
740.828	975.946
745.428	820.477
750.025	473.564
754.62	291.203
759.212	127.388
763.802	103.088
768.389	86.2695
772.973	44.9316
777.555	69.0034
782.134	30.6123
786.711	21.1548
791.285	105.01
795.856	10.7915
800.425	31.5405
804.992	102.363
809.555	74.9165
814.116	113.06
818.675	29.2988
823.231	82.0952
827.784	50.0957
832.335	131.345
836.883	171.968
841.428	78.3003
845.971	165.397
850.512	218.784
855.049	239.913
859.584	438.796
864.117	346.419
868.647	281.784
873.174	264.912
877.699	386.841
882.221	384.496
886.741	408.524
891.258	583.273
895.772	858.406
900.284	1152.01
904.793	1676.6
909.3	2394.79
913.803	3965.84
918.305	7015.72
922.804	13982.1
927.3	27029.6
931.793	41205.7
936.284	36401.4
940.773	19409.5
945.258	9511.58
949.742	6165.6
954.222	3371.07
958.7	1802.23
963.176	1135.61
967.648	880.485
972.119	739.824
976.586	726.62
981.051	1019.71
985.513	1585.04
989.973	2889.84
994.43	5561.24
998.885	9484.3
1003.34	12104.7
1007.79	11583
1012.23	9438.89
1016.68	6678.99
1021.12	3885.6
1025.56	2325.25
1029.99	1332.54
1034.43	1047.83
1038.86	939.089
1043.29	795.464
1047.71	470.633
1052.14	256.091
1056.56	89.5234
1060.98	176.578
1065.39	96.4658
1069.8	201.483
1074.21	511.641
1078.62	711.065
1083.03	1456.87
1087.43	2405.47
1091.83	2340.13
1096.23	1364.25
1100.62	707.981
1105.01	266.938
1109.4	143.619
1113.79	24.3135
1118.17	121.831
1122.56	53.1621
1126.93	13.6631
1131.31	7.93262
1135.69	106.804
1140.06	95.0264
1144.42	199.578
1148.79	97.1934
1153.15	82.8955
1157.52	37.8272
1161.87	57.2178
1166.23	17.2363
1170.58	49.9375
1174.93	154.724
1179.28	126.84
1183.63	172.356
1187.97	89.1885
1192.31	178.693
1196.65	25.5938
1200.98	45.8027
1205.31	21.748
1209.64	83.7041
1213.97	229.024
1218.29	8.56543
1222.62	101.105
1226.93	6.74121
1231.25	20.1973
1235.57	68.4062
1239.88	165.455
1244.18	152.359
1248.49	31.7432
1252.8	139.983
1257.1	39.0195
1261.39	73.7939
1265.69	90.2939
1269.98	60.3193
1274.27	124.026
1278.56	131.485
1282.85	14.5254
1287.13	37.3672
1291.41	65.1416
1295.69	67.585
1299.96	45.2227
1304.23	90.0879
1308.5	250.747
1312.77	118.647
1317.03	38.8779
1321.3	91.0381
1325.56	216.147
1329.81	189.727
1334.07	151.07
1338.32	202.389
1342.57	100.679
1346.81	154.507
1351.06	84.1406
1355.3	149.111
1359.54	260.069
1363.77	123.79
1368	90.5391
1372.23	85.3086
1376.46	35.8252
1380.69	22.5547
1384.91	41.6406
1389.13	0.053711
1393.35	164.411
1397.56	1.69434
1401.77	125.012
1405.98	116.227
1410.19	178.794
1414.39	48.9815
1418.6	110.67
1422.8	177.381
1426.99	130.965
1431.19	84.7568
1435.38	47.7129
1439.57	190.63
1443.75	273.268
1447.94	201.157
1452.12	263.593
1456.3	259.155
1460.47	243.515
1464.64	231.445
1468.82	213.283
1472.98	144.655
1477.15	262.468
1481.31	281.955
1485.47	177.298
1489.63	176.142
1493.78	142.603
1497.94	173.774
1502.09	44.9727
1506.23	55.831
1510.38	19.748
1514.52	119.957
1518.66	75.3008
1522.8	1.66016
1526.93	50.9434
1531.06	145.059
1535.19	164.161
1539.32	151.616
1543.44	245.625
1547.56	104.062
1551.68	73.5322
1555.79	191.745
1559.91	7.4082
