Measurement: Raman, 514 nm, depolarized, Raman Data Processed
Mineral: Catapleiite
Rruff sample: R060198
Ideal chemistry: Na_2_Zr^4+^Si_3_O_9_2H_2_O
Locality: Mont Saint-Hilaire, Rouville County, Quebec, Canada
Source: Royal Ontario Museum
Description: Tan colored pseudohexagonal tabular crystals
Measured chemistry: (Na_1.92_Ca_0.04_[box]_0.04_)_Σ=2_Zr_1.00_Si_3.00_O_9_·2H_2_O
Pin_id: L00755
Orientation: Laser parallel to -a* (-1 0 0). Fiducial mark perpendicular to laser is parallel to -b [0 -1 0]
Raman shift (cm-1)	intensity
95.948	0
100.883	13.8965
105.815	514.178
110.744	1087.46
115.671	1439.79
120.596	776.139
125.519	742.212
130.439	1011.76
135.356	1207.18
140.271	2009.71
145.184	2172.97
150.094	2445.56
155.002	2541.89
159.908	2304.7
164.811	2309.31
169.711	2244.41
174.61	2260.84
179.505	2575.29
184.399	3303.44
189.29	4363.19
194.178	5657.15
199.064	6821.3
203.948	7411.68
208.829	7008.14
213.708	5660.39
218.585	3534.07
223.459	2162.41
228.33	1240.13
233.199	632.382
238.066	323.245
242.93	10.918
247.792	54.8081
252.651	40.0459
257.508	25.6314
262.363	25.8438
267.215	114.138
272.064	166.093
276.912	48.081
281.756	19.3408
286.598	156.261
291.438	331.592
296.276	394.535
301.111	301.367
305.943	267.298
310.773	385.49
315.601	367.829
320.426	433.78
325.248	458.7
330.068	334.841
334.886	353.565
339.701	348.386
344.514	443.601
349.324	592.71
354.132	1001.06
358.938	1272.8
363.741	1356.22
368.541	1283.88
373.339	863.932
378.135	739.884
382.928	742.858
387.718	633.267
392.506	707.382
397.292	798.221
402.075	1071.16
406.856	1638.1
411.634	2751.68
416.41	4678.72
421.183	8431.62
425.954	12046.4
430.722	10601.8
435.488	6330.91
440.251	3692.71
445.012	2204.7
449.77	1244.36
454.526	867.653
459.28	657.967
464.03	335.327
468.779	220.466
473.525	215.581
478.268	61.1562
483.009	77.6196
487.747	129.19
492.483	161.754
497.217	305.214
501.948	403.498
506.676	743.385
511.402	1203.98
516.125	1925.73
520.846	2184.26
525.565	2228.59
530.281	1729.52
534.994	1220.88
539.705	1059.98
544.413	982.953
549.119	1129.24
553.822	1961.93
558.523	3654.62
563.222	6122.8
567.917	7949.38
572.611	7170.23
577.302	4387.1
581.99	2020.68
586.676	755.326
591.359	273.048
596.04	130.853
600.718	51.7124
605.394	343.607
610.067	715.67
614.737	1894.51
619.406	4352.43
624.071	9171.15
628.734	11632.7
633.395	6792.66
638.053	2688.44
642.708	1112.59
647.361	325.537
652.012	237.005
656.66	7.74512
661.305	43.9878
665.948	138.987
670.588	23.4443
675.226	68.0996
679.861	69.9814
684.494	198.494
689.124	146.27
693.752	45.29
698.377	140.467
702.999	55.708
707.619	153.023
712.237	379.455
716.852	279.04
721.464	355.941
726.074	495.635
730.681	610.641
735.286	719.777
739.888	612.041
744.488	350.669
749.085	244.264
753.68	24.1357
758.272	161.076
762.861	87.2407
767.448	45.4893
772.033	119.818
776.614	32.5947
781.194	78.5151
785.77	76.2773
790.345	36.1143
794.916	63.8066
799.485	18.752
804.052	80.1592
808.616	53.8389
813.177	157.419
817.736	165.914
822.292	248.029
826.846	509.19
831.397	879.538
835.945	1004.67
840.491	783.424
845.035	631.85
849.576	715.995
854.114	407.581
858.65	248.19
863.183	216.476
867.713	68.4707
872.241	120.206
876.767	22.2822
881.29	7.97656
885.81	10.9854
890.328	207.776
894.843	347.473
899.356	622.5
903.866	1547.9
908.373	3096.78
912.878	4052.98
917.38	5176.42
921.88	9111.06
926.377	15588.6
930.872	20047.8
935.364	18317.4
939.853	12722.6
944.34	9687.57
948.824	6785.62
953.306	3310.47
957.785	1823.19
962.261	1583.07
966.735	1341.95
971.207	1869.8
975.675	2626.54
980.141	3935.16
984.605	6787.65
989.066	12729
993.524	24346.2
997.98	40788.2
1002.43	50642.2
1006.88	48671
1011.33	38738.5
1015.78	27056
1020.22	17074.5
1024.66	10527.1
1029.1	6793.83
1033.53	5131.92
1037.97	4796.5
1042.4	3781.26
1046.82	2817.24
1051.25	2081.76
1055.67	1590.78
1060.09	1241.71
1064.51	1324.03
1068.92	1635.8
1073.33	2258.18
1077.74	3904.15
1082.15	6638.74
1086.55	10752.7
1090.95	9465.86
1095.35	6217.88
1099.75	3462.76
1104.14	2041.94
1108.53	1053.01
1112.92	799.746
1117.31	680.734
1121.69	773.132
1126.07	558.129
1130.45	355.498
1134.82	393.318
1139.19	228.562
1143.57	187.209
1147.93	245.234
1152.3	127.657
1156.66	216.534
1161.02	132.038
1165.38	242.299
1169.73	128.986
1174.08	105.875
1178.43	56.9492
1182.78	38.1338
1187.12	23.499
1191.46	89.4336
1195.8	116.634
1200.14	102.522
1204.47	98.1152
1208.8	6.35644
1213.13	130.003
1217.46	90.4766
1221.78	83.1816
1226.1	7.88281
1230.42	138.652
1234.73	136.723
1239.04	109.415
1243.35	81.7012
1247.66	212.562
1251.97	256.031
1256.27	198.085
1260.57	292.712
1264.86	261.929
1269.16	349.76
1273.45	240.152
1277.74	336.16
1282.03	410.108
1286.31	453.041
1290.59	502.698
1294.87	503.544
1299.14	481.56
1303.42	589.132
1307.69	428.381
1311.95	345.24
1316.22	472.383
1320.48	359.658
1324.74	466.135
1329	484.216
1333.26	534.761
1337.51	675.533
1341.76	743.428
1346	735.168
1350.25	745.844
1354.49	943.676
1358.73	1435.44
1362.96	1489.97
1367.2	992.584
1371.43	636.141
1375.66	477.184
1379.88	471.629
1384.11	495.941
1388.33	856.37
1392.54	1082.97
1396.76	1248.86
1400.97	707.062
1405.18	83.1123
1409.39	50.8906
1413.59	111.189
1417.8	86.999
1421.99	52.1289
1426.19	169.174
1430.38	268.874
1434.58	227.913
1438.77	418.517
1442.95	423.126
1447.13	415.031
1451.32	354.988
1455.49	355.239
1459.67	429.423
1463.84	385.856
1468.01	458.657
1472.18	298.1
1476.35	408.203
1480.51	291.978
1484.67	458.978
1488.83	386.783
1492.98	336.675
1497.13	101.387
1501.28	289.984
1505.43	186.171
1509.57	164.691
1513.71	26.7031
1517.85	16.1885
1521.99	126.368
1526.12	236.459
1530.25	32.294
1534.38	47.1963
1538.5	224.955
1542.62	590.489
1546.74	288.756
1550.86	257.069
1554.98	206.634
1559.09	68.4883
1563.2	18.5635
1567.31	16.5039
