Measurement: Raman, 514 nm, depolarized, Raman Data Processed
Mineral: Catapleiite
Rruff sample: R060198
Ideal chemistry: Na_2_Zr^4+^Si_3_O_9_2H_2_O
Locality: Mont Saint-Hilaire, Rouville County, Quebec, Canada
Source: Royal Ontario Museum
Description: Tan colored pseudohexagonal tabular crystals
Measured chemistry: (Na_1.92_Ca_0.04_[box]_0.04_)_Σ=2_Zr_1.00_Si_3.00_O_9_·2H_2_O
Pin_id: L01747
Orientation: Laser parallel to c* (0 0 1). Fiducial mark perpendicular to laser is parallel to a [1 0 0]
Raman shift (cm-1)	intensity
92.246	0
97.182	151.603
102.116	688.144
107.047	2072.44
111.976	2039.29
116.903	2514.28
121.827	1848.81
126.749	1838.13
131.668	2073.13
136.585	2800.33
141.5	3169.94
146.412	3973.25
151.321	4865.97
156.229	5282.51
161.134	5762.08
166.036	4950.72
170.936	3838.36
175.834	2963.65
180.729	2732.94
185.622	2987.2
190.512	3351
195.4	3952.05
200.286	4933.99
205.169	4385.19
210.049	4035.84
214.928	3066.21
219.803	1989.62
224.677	1101.88
229.548	683.15
234.416	270.682
239.282	269.204
244.146	31.8223
249.007	19.4941
253.866	58.7725
258.722	188.081
263.576	161.385
268.427	138.949
273.276	86.9404
278.123	65.875
282.967	140.391
287.809	650.777
292.648	1187.41
297.485	1542.55
302.319	1137.4
307.151	802.093
311.98	728.756
316.807	488.975
321.631	406.226
326.454	251.152
331.273	345.543
336.09	237.22
340.905	123.642
345.717	90.7891
350.527	358.771
355.334	528.43
360.139	834.887
364.941	952.101
369.741	731.112
374.538	833.048
379.333	705.938
384.126	643.154
388.916	576.549
393.703	646.745
398.488	695.891
403.271	1045.87
408.051	1764.29
412.828	3276.75
417.603	6239.74
422.376	10903.5
427.146	16082.6
431.914	15646.2
436.679	9507.02
441.442	5165.78
446.202	3094.46
450.96	1911.1
455.715	1311.69
460.467	838.261
465.218	549.851
469.965	355.062
474.711	330.485
479.454	164.544
484.194	170.684
488.932	7.63769
493.667	115.144
498.4	172.559
503.13	316.022
507.858	471.394
512.583	908.633
517.306	1446.64
522.026	2070.54
526.744	2085.64
531.459	1939.26
536.172	1965.61
540.882	1971.14
545.59	2263.4
550.295	2982.09
554.998	4789.69
559.698	9045.15
564.396	15445.5
569.091	19718.7
573.784	17666
578.474	11145.2
583.162	5343.15
587.847	2716.96
592.529	1394.59
597.209	997.035
601.887	868.266
606.562	988.267
611.235	1905.91
615.905	3422.51
620.572	7036.42
625.237	13561
629.9	19018
634.56	11706.8
639.217	4433.11
643.872	1780.63
648.524	910.834
653.174	417.092
657.821	177.445
662.466	171.814
667.108	76.4268
671.748	35.6055
676.385	18.5078
681.02	9.90332
685.652	122.361
690.281	109.561
694.908	88.6689
699.533	106.573
704.155	13.8672
708.774	4.86914
713.391	250.648
718.005	446.056
722.617	781.402
727.226	1099.69
731.833	1436.93
736.437	1649.09
741.039	1235.21
745.638	939.28
750.234	525.313
754.828	278.315
759.419	92.2861
764.008	77.0752
768.595	84.3223
773.178	29.7861
777.759	162.292
782.338	129.518
786.914	126.091
791.488	114.908
796.059	125.811
800.627	96.1738
805.193	3.85449
809.756	88.7832
814.317	87.417
818.875	167.001
823.431	430.887
827.984	619.699
832.534	997.291
837.082	987.493
841.627	751.781
846.17	666.148
850.71	696.046
855.248	472.4
859.783	407.574
864.316	351.613
868.846	353.56
873.373	538.461
877.898	640.358
882.42	580.294
886.94	653.315
891.457	769.465
895.971	1193.57
900.483	2003.46
904.993	3874.59
909.5	6302.9
914.004	8604.02
918.505	13605.4
923.004	23322.3
927.501	37595.8
931.995	48739.1
936.486	44516.4
940.975	29710.9
945.461	19130.9
949.945	11451.4
954.426	5506.53
958.904	2923.41
963.38	2097.78
967.853	1737.65
972.324	1839.13
976.792	2499.56
981.258	3356.52
985.72	5369.91
990.181	9683.48
994.639	17823.3
999.094	27099.5
1003.55	31824.9
1008	29160.6
1012.44	22110.7
1016.89	15081
1021.33	9349.62
1025.77	6056.59
1030.21	4107.9
1034.64	3097.83
1039.07	2698.58
1043.5	2135.84
1047.93	1479.53
1052.35	1160.46
1056.78	808.833
1061.19	849.323
1065.61	705.211
1070.02	873.153
1074.43	1069.98
1078.84	1666.53
1083.25	2977.76
1087.65	3930.6
1092.05	3521.25
1096.45	2315.07
1100.85	1106.8
1105.24	641.176
1109.63	344.343
1114.02	422.19
1118.4	744.707
1122.78	848.058
1127.16	429.177
1131.54	359.267
1135.92	271.721
1140.29	386.756
1144.66	311.487
1149.02	227.741
1153.39	193.699
1157.75	330.594
1162.11	126.365
1166.46	132.921
1170.82	189.966
1175.17	54.3516
1179.52	124.397
1183.86	27.4141
1188.21	3.67285
1192.55	67.4414
1196.89	148.54
1201.22	53.5557
1205.55	7.23926
1209.88	131.427
1214.21	97.4629
1218.54	74.2812
1222.86	4.73633
1227.18	47.0986
1231.5	95.1875
1235.81	78.5488
1240.12	109.164
1244.43	190.35
1248.74	249.106
1253.04	146.414
1257.34	372.253
1261.64	403.598
1265.94	323.423
1270.23	366.736
1274.52	379.512
1278.81	394.453
1283.1	261.394
1287.38	626.884
1291.66	550.569
1295.94	530.41
1300.21	437.228
1304.48	353.535
1308.75	436.349
1313.02	327.829
1317.29	409.558
1321.55	330.446
1325.81	455.853
1330.06	558.66
1334.32	569.081
1338.57	782.301
1342.82	730.836
1347.06	689.692
1351.31	871.928
1355.55	1315.81
1359.79	1759.66
1364.02	1356.88
1368.26	951.023
1372.49	595.398
1376.71	530.752
1380.94	594.818
1385.16	538.161
1389.38	1078.43
1393.6	1432.94
1397.81	1077.12
1402.02	453.005
1406.23	62.833
1410.44	68.3154
1414.64	70.8106
1418.85	2.98926
1423.04	161.449
1427.24	284.989
1431.43	194.627
1435.62	156.524
1439.81	488.326
1444	502.614
1448.18	311.979
1452.36	481.25
1456.54	230.27
1460.71	611.092
1464.89	461.041
1469.06	526.76
1473.22	433.622
1477.39	438.021
1481.55	460.001
1485.71	344.577
1489.86	398.404
1494.02	334.508
1498.17	256.427
1502.32	143.51
1506.46	102.408
1510.61	268.664
1514.75	57.9258
1518.88	154.925
1523.02	156.999
1527.15	216.391
1531.28	33.6016
1535.41	321.622
1539.53	121.757
1543.66	192.788
1547.78	175.566
1551.89	360.75
1556.01	205.985
1560.12	273.034
1564.23	266.878
1568.33	0.186523
