Measurement: Raman, 514 nm, depolarized, Raman Data Processed
Mineral: Catapleiite
Rruff sample: R060208
Ideal chemistry: Na_2_Zr^4+^Si_3_O_9_2H_2_O
Locality: Mont Saint-Hilaire, Rouville County, Quebec, Canada
Source: Royal Ontario Museum
Description: Colorless transparent thin tabular pseudohexagonal crystal
Measured chemistry: Na_2.00_Zr_1.00_Si_3.00_O_9_Â·2H_2_O
Pin_id: M01705
Orientation: Laser parallel to a* (1 0 0). Fiducial mark perpendicular to laser is parallel to -b [0 -1 0]
Raman shift (cm-1)	intensity
106.099	0
111.04	83.1914
115.978	639.488
120.914	903.264
125.848	1055.79
130.779	1383.17
135.707	1687.6
140.633	1408.19
145.556	1385.12
150.476	1570.86
155.395	1692.84
160.31	1796.68
165.223	1702.66
170.134	1747.69
175.042	1863.06
179.947	1932.64
184.85	2244.27
189.751	2788.29
194.649	3445.29
199.544	4043.39
204.437	4088.98
209.327	4264.41
214.215	3521.03
219.1	2466.57
223.982	1519.68
228.862	924.46
233.74	615.525
238.615	300.023
243.487	226.883
248.357	106.213
253.224	213.472
258.089	124.883
262.951	50.8565
267.811	87.8438
272.668	43.1582
277.523	123.228
282.375	159.723
287.224	81.8213
292.071	108.374
296.916	109.907
301.758	40.4648
306.597	11.9912
311.434	65.4795
316.268	228.964
321.099	296.399
325.928	326.788
330.755	257.129
335.579	139.953
340.4	3.0957
345.219	10.5049
350.035	13.1777
354.849	292.376
359.66	433.72
364.469	570.174
369.275	472.662
374.078	216.575
378.879	246.432
383.678	208.442
388.473	107.558
393.267	284.748
398.057	274.079
402.845	479.319
407.631	807.378
412.414	1633.78
417.194	2784.11
421.972	5347.99
426.748	8155.19
431.52	7915.86
436.29	4874.87
441.058	2385.19
445.823	1492.42
450.586	821.615
455.345	496.917
460.103	177.234
464.858	201.635
469.61	279.038
474.359	103.441
479.106	57.8682
483.851	228.911
488.593	33.5059
493.332	214.612
498.069	41.4785
502.803	339.455
507.535	561.674
512.264	644.148
516.99	1200.84
521.714	1344.62
526.435	1375.6
531.154	906.557
535.87	729.424
540.584	483.916
545.295	402.123
550.004	493.367
554.709	683.394
559.413	1367.45
564.113	2434.11
568.812	3492.5
573.507	4067.82
578.2	2962.66
582.891	1528.49
587.578	780.557
592.264	324.307
596.946	69.6231
601.626	358.139
606.304	385.725
610.979	1002.15
615.651	1556.63
620.321	3399.82
624.988	6516.17
629.653	8255.25
634.315	4638.88
638.974	1925.15
643.631	817.762
648.285	388.934
652.937	178.891
657.586	67.9043
662.233	3.60742
666.877	45.9863
671.518	57.9902
676.157	71.9277
680.793	59.7266
685.427	129.893
690.058	25.1934
694.686	131.783
699.312	60.4844
703.935	51.8711
708.556	39.2188
713.174	203.672
717.789	265.853
722.402	199.027
727.013	217.549
731.62	286.713
736.225	276.045
740.828	425.277
745.428	316.658
750.025	296.834
754.62	190
759.212	51.9688
763.802	306.963
768.389	97.3262
772.973	14.9551
777.555	223.775
782.134	91.8106
786.711	108.779
791.285	27.7324
795.856	150.523
800.425	29.0078
804.992	65.3398
809.555	67.3398
814.116	177.373
818.675	174.012
823.231	118.103
827.784	262.318
832.335	9.56445
836.883	51.1582
841.428	127.137
845.971	44.8945
850.512	44.8867
855.049	127.377
859.584	167.01
864.117	194.787
868.647	227.33
873.174	123.025
877.699	114.387
882.221	26.3145
886.741	118.793
891.258	52.7461
895.772	77.1035
900.284	350.406
904.793	340.603
909.3	483.779
913.803	755.438
918.305	1412.12
922.804	2871.64
927.3	5653.33
931.793	7215.37
936.284	6087.57
940.773	3154.4
945.258	1730.98
949.742	1265.51
954.222	686.049
958.7	554.396
963.176	604.844
967.648	776.816
972.119	1142.08
976.586	1564.34
981.051	2624.86
985.513	4381.93
989.973	8521.94
994.43	16048.7
998.885	24742.4
1003.34	28655
1007.79	26290.1
1012.23	21354.9
1016.68	14515.2
1021.12	8841.35
1025.56	4914.56
1029.99	3234.02
1034.43	2946.41
1038.86	2671.12
1043.29	2203.67
1047.71	1309.19
1052.14	1160.56
1056.56	750.387
1060.98	765.697
1065.39	967.508
1069.8	1185.65
1074.21	2020.77
1078.62	3445.47
1083.03	6316.01
1087.43	8613.77
1091.83	7909.82
1096.23	4876.28
1100.62	2688.43
1105.01	1641.96
1109.4	958.256
1113.79	688.045
1118.17	456.697
1122.56	416.572
1126.93	97.5156
1131.31	216.578
1135.69	312.195
1140.06	109.064
1144.42	175.644
1148.79	64.7188
1153.15	50.8027
1157.52	228.902
1161.87	136.215
1166.23	261.682
1170.58	242.553
1174.93	248.135
1179.28	145.486
1183.63	111.934
1187.97	193.238
1192.31	182.475
1196.65	61.5625
1200.98	101.594
1205.31	187.096
1209.64	37.5781
1213.97	103.473
1218.29	168.818
1222.62	187.211
1226.93	28.2324
1231.25	198.83
1235.57	222.588
1239.88	263.022
1244.18	25.7617
1248.49	198.098
1252.8	91.6133
1257.1	254.461
1261.39	322.908
1265.69	206.435
1269.98	206.268
1274.27	115.348
1278.56	160.018
1282.85	179.58
1287.13	61.1387
1291.41	119.201
1295.69	51.0234
1299.96	57.5508
1304.23	9.03125
1308.5	234.508
1312.77	191.289
1317.03	499.691
1321.3	321.406
1325.56	527.246
1329.81	251.785
1334.07	370.469
1338.32	429.676
1342.57	343
1346.81	203.121
1351.06	357.969
1355.3	182.426
1359.54	270.402
1363.77	294.934
1368	174.801
1372.23	205.441
1376.46	173.633
1380.69	264.637
1384.91	1.89453
1389.13	292.828
1393.35	487.199
1397.56	121.301
1401.77	213.816
1405.98	176.727
1410.19	158.773
1414.39	109.398
1418.6	134.496
1422.8	53.332
1426.99	353.039
1431.19	365.836
1435.38	238.461
1439.57	65.0273
1443.75	416.867
1447.94	474.359
1452.12	439.996
1456.3	418.398
1460.47	336.418
1464.64	470.703
1468.82	605.5
1472.98	719.356
1477.15	256.832
1481.31	279.519
1485.47	470.414
1489.63	270.598
1493.78	403.793
1497.94	106.422
1502.09	351.539
1506.23	197.356
1510.38	139.43
1514.52	305.883
1518.66	245.836
1522.8	203.559
1526.93	197.992
1531.06	521.34
1535.19	233.797
1539.32	365.473
1543.44	314.465
1547.56	441.945
1551.68	259.215
1555.79	119.223
1559.91	1.13672
