Measurement: Raman, 514 nm, depolarized, Raman Data Processed
Mineral: Catapleiite
Rruff sample: R060208
Ideal chemistry: Na_2_Zr^4+^Si_3_O_9_2H_2_O
Locality: Mont Saint-Hilaire, Rouville County, Quebec, Canada
Source: Royal Ontario Museum
Description: Colorless transparent thin tabular pseudohexagonal crystal
Measured chemistry: Na_2.00_Zr_1.00_Si_3.00_O_9_Â·2H_2_O
Pin_id: M00973
Orientation: Laser parallel to (-1 0 -1). Fiducial mark perpendicular to laser is parallel to -b [0 -1 0]
Raman shift (cm-1)	intensity
99.345	0
104.294	194.422
109.241	842.21
114.185	1511.12
119.126	1846.95
124.064	2207.18
129	2487.9
133.933	2550.95
138.864	2510.51
143.791	2442.77
148.716	2689.77
153.638	3017.21
158.558	3103.36
163.475	3145.86
168.389	2980.49
173.3	3228.47
178.209	3330.47
183.115	3922.33
188.018	4647.12
192.918	5692.27
197.816	6905.05
202.711	7934.75
207.604	8309.69
212.494	8213.68
217.381	6428.48
222.265	3960.43
227.147	2431.61
232.026	1247.15
236.902	776.704
241.775	347.279
246.646	129.163
251.514	11.2256
256.38	14.9219
261.243	135.69
266.103	110.63
270.96	259.674
275.815	329.063
280.667	306.096
285.516	164.386
290.363	141.562
295.207	251.792
300.048	293.237
304.887	112.037
309.723	204.286
314.556	160.05
319.387	406.399
324.215	525.303
329.04	539.751
333.862	377.479
338.682	154.841
343.5	63.6216
348.314	167.319
353.126	454.071
357.935	798.913
362.742	1177.84
367.546	986.802
372.347	926.61
377.145	546.531
381.941	503.576
386.735	370.757
391.525	380.101
396.313	428.131
401.098	649.397
405.881	1141.44
410.661	1867.29
415.438	3431.62
420.213	6290.6
424.985	11107.6
429.754	14328.8
434.521	11446.5
439.285	6213.49
444.046	3385.57
448.805	2037.67
453.561	1262.91
458.315	784.252
463.065	555.693
467.813	453.242
472.559	256.909
477.302	164.723
482.042	91.7939
486.78	205.417
491.515	216.709
496.247	401.967
500.977	477.733
505.704	907.994
510.428	1291.77
515.15	2066.2
519.869	2761.27
524.586	2946.53
529.3	2559.37
534.011	1979.18
538.719	1594.71
543.425	1332.14
548.129	1330.88
552.83	1583.43
557.528	2122.36
562.223	3553.49
566.916	6012.51
571.607	8458.06
576.294	8113.45
580.979	4830.85
585.662	2304.42
590.341	1190.96
595.019	677.467
599.693	544.941
604.365	686.368
609.035	943.744
613.701	1780.12
618.366	3616.1
623.027	7614.69
627.686	13058.7
632.342	12571.9
636.996	5825.89
641.647	2335.72
646.296	1129.53
650.942	534.225
655.585	310.49
660.226	163.786
664.864	16.1811
669.499	43.647
674.132	14.0957
678.763	13.3164
683.39	122.019
688.015	56.314
692.638	24.582
697.258	47.7231
701.875	21.6499
706.49	13.3115
711.102	31.3735
715.712	37.52
720.319	218.891
724.923	335.558
729.525	414.519
734.124	539.93
738.721	534.465
743.315	459.822
747.907	305.009
752.496	192.385
757.082	28.0259
761.666	89.8296
766.247	27.832
770.826	11.8511
775.402	12.6245
779.975	19.8101
784.546	21.3843
789.115	117.279
793.681	3.27148
798.244	37.624
802.804	51.9458
807.363	53.6118
811.918	68.519
816.471	49.8164
821.022	54.604
825.569	60.2173
830.115	40.3852
834.657	61.2647
839.198	89.7285
843.735	83.2378
848.27	116.324
852.803	149.532
857.333	85.2202
861.86	102.624
866.385	9.77148
870.907	60.6484
875.427	17.2827
879.944	23.314
884.459	125.857
888.971	147.301
893.481	254.579
897.988	283.832
902.492	473.55
906.994	822.525
911.493	1253.18
915.99	2168.87
920.485	4161.31
924.976	8135.81
929.466	14170.2
933.952	16227.4
938.436	10537.7
942.918	5356.42
947.397	3199.87
951.874	2048.97
956.348	1414.23
960.819	1137.58
965.288	1235.01
969.755	1439.31
974.219	2140.27
978.68	3283.98
983.139	5397.39
987.595	9736.5
992.049	18696.2
996.501	33668.5
1000.95	48749.5
1005.4	52739.9
1009.84	47355.1
1014.28	35787.1
1018.72	23239.8
1023.16	12980.5
1027.59	7689.69
1032.02	5392.29
1036.45	4747.46
1040.88	4323.43
1045.3	3074.8
1049.72	2001.69
1054.14	1444.93
1058.56	1269.53
1062.97	1187.51
1067.38	1572.64
1071.79	2095.47
1076.19	3332.47
1080.6	5900.77
1085	9812.65
1089.4	12339.5
1093.79	9549.22
1098.19	5380.65
1102.58	2798.89
1106.97	1673.19
1111.35	1016.24
1115.74	672.589
1120.12	407.081
1124.5	317.552
1128.87	266.045
1133.25	198.549
1137.62	265.803
1141.99	263.95
1146.35	105.759
1150.72	23.4932
1155.08	79.9785
1159.44	58.3691
1163.79	32.043
1168.15	122.248
1172.5	158.875
1176.85	42.5078
1181.19	10.4141
1185.54	28.8359
1189.88	75.3467
1194.22	81.5137
1198.55	59.2334
1202.89	8.63379
1207.22	39.5527
1211.55	94.29
1215.88	57.044
1220.2	46.8438
1224.52	24.4424
1228.84	9.40234
1233.16	16.9277
1237.47	24.9268
1241.78	0.808594
1246.09	53.5732
1250.4	131.878
1254.7	5.94727
1259.01	200.002
1263.31	19.0381
1267.6	122.514
1271.9	90.0791
1276.19	39.6455
1280.48	65.0303
1284.77	65.1328
1289.05	97.5557
1293.33	18.9424
1297.61	158.924
1301.89	71.0068
1306.16	91.9443
1310.44	162.954
1314.71	120.194
1318.97	279.084
1323.24	217.789
1327.5	80.9912
1331.76	103.261
1336.02	98.1582
1340.28	55.5
1344.53	93.0898
1348.78	211.965
1353.03	222.102
1357.27	146.48
1361.52	114.49
1365.76	86.8789
1370	183.338
1374.23	135.92
1378.47	124.357
1382.7	125.489
1386.93	63.6553
1391.15	8.7168
1395.38	121.663
1399.6	23.0869
1403.82	71.1484
1408.03	72.8428
1412.25	149.273
1416.46	76.4219
1420.67	39.8965
1424.88	112.52
1429.08	81.6592
1433.28	221.222
1437.48	225.786
1441.68	303.677
1445.87	445.343
1450.07	254.648
1454.26	157.663
1458.44	235.664
1462.63	231.992
1466.81	301.438
1470.99	195.196
1475.17	122.807
1479.34	283.43
1483.52	268.675
1487.69	169.581
1491.86	255.072
1496.02	159.512
1500.19	175.253
1504.35	117.988
1508.51	163.874
1512.66	176.02
1516.82	53.4385
1520.97	119.16
1525.12	256.214
1529.26	194.219
1533.41	177.069
1537.55	126.109
1541.69	211.851
1545.83	66.4492
1549.96	82.0996
1554.09	196.795
1558.22	3.54394
1562.35	0
