Measurement: Raman, 514 nm, depolarized, Raman Data Processed
Mineral: Catapleiite
Rruff sample: R040005
Ideal chemistry: Na_2_Zr^4+^Si_3_O_9_2H_2_O
Locality: Langesundsfjord Eikaholmen Vestfold, Norway
Source: University of Arizona Mineral Museum
Description: Brown thin tabular crystal
Measured chemistry: (Na_1.28_Ca_0.36_[box]_0.36_)_Σ=2_Zr_1.00_Si_3.00_O_9_·2H_2_O
Pin_id: L01206
Orientation: Laser parallel to c* (0 0 1). Fiducial mark perpendicular to laser is parallel to a [1 0 0]
Raman shift (cm-1)	intensity
125.519	0
130.439	82.3848
135.356	336.119
140.271	966.199
145.184	1142.25
150.094	1045.89
155.002	916.686
159.908	995.803
164.811	846.863
169.711	974.875
174.61	869.771
179.505	917.879
184.399	524.301
189.29	570.166
194.178	803.463
199.064	805.191
203.948	994.613
208.829	1079.43
213.708	1034.17
218.585	962.871
223.459	869.678
228.33	468.547
233.199	224.518
238.066	306.648
242.93	93.9766
247.792	153.938
252.651	209.731
257.508	159.148
262.363	76.1777
267.215	60.1914
272.064	98.5019
276.912	43.8633
281.756	20.1016
286.598	31.1094
291.438	98.5039
296.276	4.69922
301.111	243.106
305.943	76.7812
310.773	210.197
315.601	347.201
320.426	271.736
325.248	259.777
330.068	361.41
334.886	335.394
339.701	184.184
344.514	273.363
349.324	336.072
354.132	198.295
358.938	226.272
363.741	235.815
368.541	499.562
373.339	351.773
378.135	142.342
382.928	247.272
387.718	126.539
392.506	343.129
397.292	278.092
402.075	418.443
406.856	123.273
411.634	159.107
416.41	199.938
421.183	488.082
425.954	417.131
430.722	751.705
435.488	1072.12
440.251	1430.72
445.012	1515.95
449.77	1243.43
454.526	793.121
459.28	709.019
464.03	436.107
468.779	160.371
473.525	207.787
478.268	58.6348
483.009	370.955
487.747	88.3164
492.483	80.6445
497.217	5.99219
501.948	113.295
506.676	317.912
511.402	157.016
516.125	219.303
520.846	260.037
525.565	410.359
530.281	308.381
534.994	267.691
539.705	287.902
544.413	124.514
549.119	351.49
553.822	435.379
558.523	757.766
563.222	880.348
567.917	1541.78
572.611	2001.36
577.302	2614.02
581.99	2329.85
586.676	1664.72
591.359	936.172
596.04	523.34
600.718	519.393
605.394	458.06
610.067	596.479
614.737	590.186
619.406	780.143
624.071	1145.63
628.734	1909.69
633.395	2668.27
638.053	2653.48
642.708	1758.59
647.361	675.383
652.012	219.33
656.66	341.76
661.305	264.312
665.948	269.844
670.588	164.256
675.226	235.016
679.861	15.3418
684.494	8.85156
689.124	234.728
693.752	34.9551
698.377	41.6641
702.999	19.7344
707.619	25.2363
712.237	23.793
716.852	975.644
721.464	332.287
726.074	456.269
730.681	292.869
735.286	268.619
739.888	333.178
744.488	356.582
749.085	307.31
753.68	140.602
758.272	253.082
762.861	32.0957
767.448	144.565
772.033	51.5859
776.614	237.092
781.194	235.144
785.77	248.978
790.345	8.66992
794.916	106.959
799.485	132.727
804.052	269.455
808.616	67.9531
813.177	73.7305
817.736	167.84
822.292	42.3262
826.846	313.754
831.397	48.2988
835.945	45.125
840.491	138.606
845.035	79.5312
849.576	129.066
854.114	168.773
858.65	39.6445
863.183	110.426
867.713	151.477
872.241	166.363
876.767	60.0898
881.29	59.6523
885.81	18.5586
890.328	301.578
894.843	216.398
899.356	330.141
903.866	429.352
908.373	870.523
912.878	1065.24
917.38	1547.29
921.88	1822.48
926.377	2129.66
930.872	3359.61
935.364	3815.57
939.853	4232.37
944.34	3287.86
948.824	1995.72
953.306	1268.75
957.785	949.336
962.261	929.664
966.735	551.535
971.207	789.875
975.675	917.602
980.141	1535.27
984.605	1997.69
989.066	3173.88
993.524	4309.3
997.98	5133.89
1002.43	5734.85
1006.88	4812.38
1011.33	3460.51
1015.78	2373.21
1020.22	2158.42
1024.66	1345.19
1029.1	1089.13
1033.53	711.621
1037.97	870.887
1042.4	582.512
1046.82	665.453
1051.25	537.828
1055.67	212.387
1060.09	262.902
1064.51	82.0547
1068.92	87.5469
1073.33	101.945
1077.74	249.887
1082.15	298.199
1086.55	414.68
1090.95	708.234
1095.35	352.844
1099.75	551.906
1104.14	270.062
1108.53	117.074
1112.92	229.668
1117.31	261.219
1121.69	706.066
1126.07	200.18
1130.45	231.578
1134.82	82.5352
1139.19	201.09
1143.57	169.535
1147.93	335.527
1152.3	72.6172
1156.66	211.543
1161.02	45.6133
1165.38	232.859
1169.73	177.379
1174.08	183.242
1178.43	158.394
1182.78	178.102
1187.12	175.309
1191.46	333.242
1195.8	54.9609
1200.14	65.8867
1204.47	221.305
1208.8	320.66
1213.13	212.992
1217.46	60.5742
1221.78	284.281
1226.1	389.762
1230.42	59.4922
1234.73	186.957
1239.04	278.328
1243.35	139.16
1247.66	46.7148
1251.97	0.714844
1256.27	35.3125
1260.57	35.6641
1264.86	389.508
1269.16	13.082
1273.45	44.2109
1277.74	133.852
1282.03	96.0703
1286.31	95.3008
1290.59	0.421875
1294.87	92.8047
1299.14	84.8086
1303.42	226.492
1307.69	190.559
1311.95	352.723
1316.22	293.293
1320.48	328.863
1324.74	371.348
1329	504.348
1333.26	569.367
1337.51	158.324
1341.76	173.824
1346	382.477
1350.25	334.504
1354.49	233.152
1358.73	260.516
1362.96	424.629
1367.2	180.836
1371.43	51.6836
1375.66	164.176
1379.88	400.824
1384.11	333.84
1388.33	208.129
1392.54	219.75
1396.76	243.094
1400.97	370.301
1405.18	188.188
1409.39	77.2852
1413.59	180.125
1417.8	106.746
1421.99	103.211
1426.19	106.055
1430.38	228.348
1434.58	247.121
1438.77	112.219
1442.95	342.09
1447.13	276.711
1451.32	177.875
1455.49	325.707
1459.67	191.406
1463.84	180.102
1468.01	332.559
1472.18	23.8398
1476.35	147.262
1480.51	375.473
1484.67	197.133
1488.83	454.941
1492.98	15.8398
1497.13	358.473
1501.28	332.617
1505.43	493.789
1509.57	492.828
1513.71	282.731
1517.85	504.367
1521.99	197.59
1526.12	521.547
1530.25	332.703
1534.38	359.621
1538.5	496.555
1542.62	315.824
1546.74	202.844
1550.86	12.0664
1554.98	410.473
1559.09	420.258
1563.2	234.703
1567.31	314.254
1571.41	0
