Measurement: Raman, 514 nm, depolarized, Raman Data Processed
Mineral: Catapleiite
Rruff sample: R060198
Ideal chemistry: Na_2_Zr^4+^Si_3_O_9_2H_2_O
Locality: Mont Saint-Hilaire, Rouville County, Quebec, Canada
Source: Royal Ontario Museum
Description: Tan colored pseudohexagonal tabular crystals
Measured chemistry: (Na_1.92_Ca_0.04_[box]_0.04_)_Σ=2_Zr_1.00_Si_3.00_O_9_·2H_2_O
Pin_id: L01561
Orientation: Laser parallel to b* (0 1 0). Fiducial mark perpendicular to laser is parallel to c [0 0 1]
Raman shift (cm-1)	intensity
95.948	0
100.883	23.5381
105.815	431.346
110.744	1478.79
115.671	1519.92
120.596	1347.39
125.519	1379.71
130.439	1688.82
135.356	2270.64
140.271	3049.84
145.184	3774.54
150.094	4416.34
155.002	4921.82
159.908	4637.66
164.811	3778.11
169.711	2910.75
174.61	2190.35
179.505	1564.62
184.399	1458.68
189.29	1525.41
194.178	1773.88
199.064	2211.48
203.948	2812.91
208.829	2209.72
213.708	1987.15
218.585	1301.72
223.459	778.509
228.33	326.315
233.199	139.342
238.066	58.1313
242.93	156.24
247.792	294.228
252.651	138.032
257.508	3.62012
262.363	77.5166
267.215	98.6245
272.064	66.6001
276.912	187.516
281.756	418.057
286.598	928.576
291.438	1585.18
296.276	1947.25
301.111	1813.86
305.943	1508.2
310.773	1264.16
315.601	1094.29
320.426	1003.08
325.248	878.387
330.068	663.214
334.886	466.738
339.701	289.628
344.514	161.066
349.324	277.413
354.132	479.313
358.938	761.552
363.741	914.48
368.541	971.554
373.339	920.092
378.135	812.971
382.928	827.027
387.718	635.256
392.506	593.731
397.292	629.467
402.075	769.703
406.856	1559.18
411.634	3113.4
416.41	6272.28
421.183	11953.9
425.954	17067.2
430.722	16259.1
435.488	10781.3
440.251	6341.46
445.012	3667.59
449.77	2263.73
454.526	1431.94
459.28	945.274
464.03	598.825
468.779	366.694
473.525	253.936
478.268	110.623
483.009	147.69
487.747	5.02637
492.483	9.66211
497.217	5.81592
501.948	153.696
506.676	650.013
511.402	784.453
516.125	1398.25
520.846	1987.36
525.565	2253.97
530.281	2167.63
534.994	2271.58
539.705	2130.27
544.413	2338.65
549.119	2929.82
553.822	4378.78
558.523	7132.13
563.222	12873.3
567.917	18737.4
572.611	19882.7
577.302	14263.5
581.99	7385.52
586.676	3701.91
591.359	1889.62
596.04	1081.62
600.718	836.905
605.394	907.444
610.067	1572.22
614.737	3208.21
619.406	7433.92
624.071	14910.2
628.734	18709.8
633.395	12874.4
638.053	5701.23
642.708	2405.08
647.361	1032.02
652.012	569.084
656.66	206.464
661.305	106.382
665.948	215.562
670.588	47.9819
675.226	258.134
679.861	41.8389
684.494	121.5
689.124	24.4605
693.752	22.335
698.377	7.98096
702.999	62.6182
707.619	150.199
712.237	179.037
716.852	399.725
721.464	641.64
726.074	1136.77
730.681	1582.1
735.286	1730.62
739.888	1464.32
744.488	986.184
749.085	611.21
753.68	337.554
758.272	39.6992
762.861	37.0029
767.448	55.9619
772.033	171.648
776.614	107.61
781.194	91.9707
785.77	110.915
790.345	63.3481
794.916	7.98047
799.485	14.7456
804.052	16.6982
808.616	83.3892
813.177	132.024
817.736	165.821
822.292	317.142
826.846	458.369
831.397	645.792
835.945	859.245
840.491	729.045
845.035	581.993
849.576	491.707
854.114	469.933
858.65	434.696
863.183	482.026
867.713	462.952
872.241	556.504
876.767	538.71
881.29	659.601
885.81	838.207
890.328	1088.56
894.843	1359.45
899.356	1910
903.866	3034.66
908.373	5335.68
912.878	8116.03
917.38	12189.8
921.88	22581.4
926.377	40800.2
930.872	56299.3
935.364	50990.2
939.853	32919.2
944.34	19655
948.824	13013.3
953.306	6926.6
957.785	3505.39
962.261	2179.23
966.735	1621.04
971.207	1270.8
975.675	1112.53
980.141	1665.16
984.605	2273.49
989.066	4156.52
993.524	7744.26
997.98	13164.7
1002.43	17462.9
1006.88	17809.9
1011.33	14981.6
1015.78	10699.1
1020.22	6891.41
1024.66	4061.51
1029.1	2701.44
1033.53	1848.32
1037.97	1660.27
1042.4	1284.55
1046.82	917.499
1051.25	618.933
1055.67	285.397
1060.09	294.421
1064.51	239.713
1068.92	317.633
1073.33	595.234
1077.74	1062.05
1082.15	2180.1
1086.55	3335.84
1090.95	3165.32
1095.35	2133.44
1099.75	1011.77
1104.14	438.913
1108.53	107.792
1112.92	153.117
1117.31	156.207
1121.69	369.652
1126.07	402.442
1130.45	196.685
1134.82	159.32
1139.19	280.366
1143.57	145.758
1147.93	254.494
1152.3	130.586
1156.66	220.422
1161.02	140.782
1165.38	79.4834
1169.73	157.513
1174.08	19.9941
1178.43	77.5977
1182.78	82.7715
1187.12	56.417
1191.46	1.56348
1195.8	3.49219
1200.14	28.8193
1204.47	93.9746
1208.8	143.696
1213.13	71.3789
1217.46	51.0547
1221.78	123.02
1226.1	35.8945
1230.42	79.042
1234.73	5.5249
1239.04	39.4053
1243.35	75.8574
1247.66	120.954
1251.97	152.694
1256.27	131.058
1260.57	236.081
1264.86	323.747
1269.16	240.02
1273.45	209.874
1277.74	345.323
1282.03	197.435
1286.31	224.85
1290.59	294.55
1294.87	268.871
1299.14	341.591
1303.42	366.68
1307.69	278.6
1311.95	318.546
1316.22	230.809
1320.48	369.456
1324.74	250.723
1329	321.36
1333.26	539.452
1337.51	583.637
1341.76	644.12
1346	664.285
1350.25	696.596
1354.49	765.513
1358.73	1139.6
1362.96	1164.11
1367.2	894.292
1371.43	735.476
1375.66	448.052
1379.88	459.79
1384.11	502.49
1388.33	632.112
1392.54	938.189
1396.76	1202.4
1400.97	656.352
1405.18	195.592
1409.39	13.8867
1413.59	51.1553
1417.8	183.715
1421.99	158.608
1426.19	223.73
1430.38	174.342
1434.58	143.046
1438.77	239.727
1442.95	279.3
1447.13	424.663
1451.32	336.707
1455.49	308.608
1459.67	379.352
1463.84	420.512
1468.01	507.379
1472.18	420.358
1476.35	317.066
1480.51	353.417
1484.67	336.319
1488.83	393.474
1492.98	279.014
1497.13	104.356
1501.28	179.14
1505.43	144.016
1509.57	50.7148
1513.71	48.0781
1517.85	46.624
1521.99	149.693
1526.12	12.8076
1530.25	78.5273
1534.38	100.853
1538.5	159.87
1542.62	325.779
1546.74	431.978
1550.86	295.89
1554.98	315.19
1559.09	21.1982
1563.2	5.92969
1567.31	42.2549
