Measurement: Raman, 514 nm, depolarized, Raman Data Processed
Mineral: Catapleiite
Rruff sample: R040005
Ideal chemistry: Na_2_Zr^4+^Si_3_O_9_2H_2_O
Locality: Langesundsfjord Eikaholmen Vestfold, Norway
Source: University of Arizona Mineral Museum
Description: Brown thin tabular crystal
Measured chemistry: (Na_1.28_Ca_0.36_[box]_0.36_)_Σ=2_Zr_1.00_Si_3.00_O_9_·2H_2_O
Pin_id: L00558
Orientation: Laser parallel to a* (1 0 0). Fiducial mark perpendicular to laser is parallel to -b [0 -1 0]
Raman shift (cm-1)	intensity
172.161	0
177.058	341.16
181.952	437.269
186.845	1059.89
191.734	1508.54
196.622	2373.07
201.507	3016.82
206.389	3382.16
211.269	3604.17
216.147	3300.15
221.022	2333.35
225.895	1661.27
230.765	1591.36
235.633	1122.17
240.498	727.127
245.361	530.305
250.222	554.445
255.08	283.508
259.936	197.207
264.789	133.418
269.64	172.228
274.488	85.0176
279.334	71.7676
284.178	63.8027
289.019	154.289
293.857	127.043
298.693	141.602
303.527	111.725
308.358	236.578
313.187	312.121
318.013	437.869
322.837	193.285
327.659	591.826
332.478	509.371
337.294	623.955
342.108	945.854
346.92	900.641
351.729	1002.28
356.535	1159.99
361.34	1053.29
366.141	1222.26
370.94	1191.74
375.737	1197.34
380.531	1035.98
385.323	947.131
390.113	975.596
394.9	1112.27
399.684	1093.83
404.466	908.338
409.245	1107.9
414.022	1162.96
418.797	1537.65
423.569	1926.36
428.338	2754.03
433.105	3622.59
437.87	4697.13
442.632	4741.8
447.391	3791.27
452.149	2392.16
456.903	1623.2
461.655	897.252
466.405	749.385
471.152	525.309
475.897	345.34
480.639	199.428
485.378	278.82
490.116	141.775
494.85	71.1836
499.582	353.684
504.312	264.832
509.039	635.221
513.764	812.439
518.486	1077.58
523.206	836.152
527.923	904.543
532.638	673.348
537.35	440.445
542.059	496.477
546.766	329.176
551.471	503.273
556.173	823.777
560.873	1406.37
565.57	2134.84
570.264	3122.59
574.957	4115.65
579.646	3265.91
584.333	2239.76
589.018	1378.84
593.7	936.469
598.379	623.199
603.056	493.781
607.73	791.481
612.402	881.137
617.072	1439.66
621.739	2530
626.403	4758.18
631.065	7009.24
635.724	6674.84
640.381	3820.54
645.035	1620.11
649.687	693.551
654.336	441.871
658.983	229.082
663.627	38.5273
668.268	11.6523
672.907	203.184
677.544	30.1094
682.178	126.672
686.809	79.0234
691.438	216.457
696.065	25.3164
700.688	78.0391
705.31	2.27344
709.929	6.53516
714.545	399.141
719.158	207.469
723.77	457.219
728.378	491.172
732.984	548.633
737.588	469.887
742.189	567.383
746.787	613.531
751.383	512.184
755.976	500.441
760.567	522.562
765.155	464.785
769.741	342.203
774.324	420.82
778.904	479.625
783.482	230.644
788.058	411.902
792.631	381.426
797.201	477.25
801.769	79.2773
806.334	390.856
810.897	226.664
815.457	177.488
820.014	272.453
824.569	171.93
829.122	125.422
833.671	173.598
838.219	202.172
842.763	199.391
847.306	12.8203
851.845	9.21484
856.382	60.5781
860.917	151.684
865.448	40.2656
869.978	46.3242
874.505	303.602
879.029	265.469
883.55	51.0508
888.069	196.387
892.586	174.965
897.1	574.789
901.611	856.863
906.12	1111.23
910.626	1738.9
915.129	1887.9
919.63	2294.26
924.129	3182.01
928.625	4086.16
933.118	4837.75
937.609	5127.1
942.097	4488.06
946.582	3034.36
951.065	2131.8
955.546	1791.6
960.023	1301.68
964.499	1495.52
968.971	2199.02
973.441	3260.69
977.909	4685.11
982.374	7306.47
986.836	11147.4
991.295	15857.2
995.753	19752.3
1000.21	21938.4
1004.66	20105.7
1009.11	16450.6
1013.55	12037.7
1018	9106.92
1022.44	6654.29
1026.88	4433.27
1031.32	3695.84
1035.75	2718.95
1040.18	2425.64
1044.61	2280.92
1049.04	2212.68
1053.46	1985.03
1057.88	1465.88
1062.3	1083.19
1066.71	981.926
1071.13	1108.05
1075.54	1714.46
1079.94	2372.84
1084.35	3752.32
1088.75	4615.85
1093.15	4500.76
1097.55	3092.11
1101.94	2178.55
1106.34	1298.21
1110.73	1058.07
1115.11	513.129
1119.5	453.676
1123.88	450.844
1128.26	144.68
1132.63	227.144
1137.01	312.387
1141.38	1.04688
1145.75	37.6445
1150.12	123.328
1154.48	292.676
1158.84	90.0898
1163.2	355.93
1167.55	364.273
1171.91	346.356
1176.26	551.027
1180.61	318.582
1184.95	188.269
1189.29	111.883
1193.63	149.117
1197.97	89.9375
1202.31	262.332
1206.64	113.031
1210.97	109.477
1215.29	48.4922
1219.62	77.7578
1223.94	171
1228.26	175.625
1232.57	18.8789
1236.89	127.656
1241.2	29.6836
1245.51	179.738
1249.81	229.934
1254.12	70.4414
1258.42	9.95703
1262.72	387.543
1267.01	6.34766
1271.3	0.773438
1275.59	31.1055
1279.88	56.2695
1284.17	227.59
1288.45	119.195
1292.73	264.629
1297.01	156.672
1301.28	131.484
1305.55	453.535
1309.82	3.35938
1314.09	435.086
1318.35	480.492
1322.61	126.606
1326.87	415.547
1331.13	260.066
1335.38	427.445
1339.63	476.535
1343.88	560.703
1348.12	303.348
1352.37	429.531
1356.61	625.422
1360.85	426.172
1365.08	423.914
1369.31	68.0859
1373.54	348.117
1377.77	286.539
1381.99	131.059
1386.22	425.019
1390.43	318.949
1394.65	182.164
1398.87	383.465
1403.08	314.793
1407.29	19.8477
1411.49	145.441
1415.69	407.414
1419.89	215.887
1424.09	406.219
1428.29	41.7109
1432.48	54.8203
1436.67	367.019
1440.86	293.715
1445.04	430.383
1449.23	142.418
1453.4	275.922
1457.58	317.508
1461.76	278.668
1465.93	394.227
1470.1	121.277
1474.26	382.398
1478.43	432.66
1482.59	173.047
1486.75	223.883
1490.9	206.922
1495.06	151.59
1499.21	220.902
1503.35	321.703
1507.5	78.4219
1511.64	265.328
1515.78	48.3125
1519.92	202.055
1524.05	24.4648
1528.18	220.754
1532.31	160.547
1536.44	295.621
1540.56	370.148
1544.69	410.871
1548.8	367.078
1552.92	375.852
1557.03	295.867
1561.14	395.449
1565.25	210.82
1569.36	0.175781
