Measurement: Raman, 514 nm, depolarized, Raman Data Processed
Mineral: Catapleiite
Rruff sample: R060198
Ideal chemistry: Na_2_Zr^4+^Si_3_O_9_2H_2_O
Locality: Mont Saint-Hilaire, Rouville County, Quebec, Canada
Source: Royal Ontario Museum
Description: Tan colored pseudohexagonal tabular crystals
Measured chemistry: (Na_1.92_Ca_0.04_[box]_0.04_)_Σ=2_Zr_1.00_Si_3.00_O_9_·2H_2_O
Pin_id: L00848
Orientation: Laser parallel to (1 0 1). Fiducial mark perpendicular to laser is parallel to b [0 1 0]
Raman shift (cm-1)	intensity
95.948	0
100.883	6.51465
105.815	373.751
110.744	821.408
115.671	1095.05
120.596	893.571
125.519	1038.96
130.439	1489.99
135.356	2195.27
140.271	3138.25
145.184	3157.79
150.094	3578.4
155.002	3906.11
159.908	3798.03
164.811	3527.09
169.711	2933.43
174.61	2793.73
179.505	2544.42
184.399	3034.61
189.29	3678.29
194.178	4644.41
199.064	5564.28
203.948	6118.89
208.829	5570.84
213.708	4378.66
218.585	2832.83
223.459	1677.01
228.33	918.207
233.199	429.387
238.066	13.1572
242.93	30.1328
247.792	187.78
252.651	53.4565
257.508	51.2441
262.363	87.7022
267.215	330.058
272.064	175.886
276.912	18.0503
281.756	347.022
286.598	712.243
291.438	1134.5
296.276	1181.14
301.111	938.526
305.943	903.951
310.773	888.565
315.601	753.438
320.426	797.623
325.248	632.976
330.068	622.183
334.886	386.615
339.701	410.084
344.514	379.04
349.324	512.49
354.132	705.498
358.938	1094.11
363.741	1124.28
368.541	1169.98
373.339	987.402
378.135	885.144
382.928	681.299
387.718	679.106
392.506	610.156
397.292	686.138
402.075	888.517
406.856	1556.01
411.634	2788.81
416.41	5716.68
421.183	10595.1
425.954	14756
430.722	12864.1
435.488	8205.03
440.251	4550.87
445.012	2790.62
449.77	1682.33
454.526	1168.02
459.28	722.738
464.03	376.8
468.779	342.509
473.525	188.35
478.268	117.173
483.009	117.117
487.747	164.196
492.483	177.588
497.217	339.019
501.948	507.721
506.676	877.189
511.402	1384.58
516.125	2042.95
520.846	2635.42
525.565	2712.86
530.281	2509.24
534.994	2119.32
539.705	2100.28
544.413	2085.37
549.119	2554.64
553.822	3762.28
558.523	6441.68
563.222	10636.5
567.917	14683.6
572.611	14344.7
577.302	9801.07
581.99	4675.41
586.676	2301
591.359	1204.01
596.04	755.868
600.718	723.114
605.394	888.556
610.067	1567.17
614.737	3006.94
619.406	6752.69
624.071	13269.2
628.734	15362.6
633.395	9285.06
638.053	3949.64
642.708	1768.63
647.361	764.883
652.012	497.449
656.66	173.777
661.305	107.518
665.948	72.8594
670.588	35.9111
675.226	62.5703
679.861	48.7246
684.494	33.335
689.124	125.926
693.752	46.1328
698.377	7.10352
702.999	158.906
707.619	91.7402
712.237	106.514
716.852	359.546
721.464	582.836
726.074	855.369
730.681	1434.13
735.286	1223.12
739.888	1107.33
744.488	761.727
749.085	469.324
753.68	296.108
758.272	174.06
762.861	94.1113
767.448	32.9004
772.033	88.5801
776.614	129.348
781.194	24.6641
785.77	121.162
790.345	61.2734
794.916	115.292
799.485	29.6318
804.052	78.8848
808.616	69.7637
813.177	50.957
817.736	15.585
822.292	58.8223
826.846	66.8516
831.397	263.659
835.945	167.372
840.491	127.831
845.035	296.664
849.576	240.906
854.114	267.035
858.65	223.715
863.183	138.971
867.713	381.828
872.241	243.314
876.767	353.456
881.29	348.281
885.81	532.823
890.328	575.126
894.843	710.29
899.356	1229.51
903.866	1926.15
908.373	3252.85
912.878	5357.14
917.38	9147.73
921.88	17197.3
926.377	31030.8
930.872	41791.3
935.364	35603.8
939.853	21924.3
944.34	12717.2
948.824	7618.9
953.306	4144.09
957.785	2385.43
962.261	1787.83
966.735	1526.67
971.207	1651.14
975.675	2186.43
980.141	3476.73
984.605	5615.66
989.066	10615.2
993.524	19927.4
997.98	32713.2
1002.43	40158.6
1006.88	38584.6
1011.33	30600.4
1015.78	21237
1020.22	13232.3
1024.66	8086.44
1029.1	5192.01
1033.53	4005.37
1037.97	3501.41
1042.4	2914.87
1046.82	1898.61
1051.25	1438.98
1055.67	956.456
1060.09	679.039
1064.51	667.653
1068.92	607.165
1073.33	962.483
1077.74	1554.52
1082.15	2747.01
1086.55	3935.67
1090.95	3716.8
1095.35	2438.4
1099.75	1205.33
1104.14	572.047
1108.53	277.225
1112.92	201.828
1117.31	347.131
1121.69	507.992
1126.07	348.073
1130.45	80.7939
1134.82	212.107
1139.19	107.888
1143.57	107.011
1147.93	195.532
1152.3	63.3603
1156.66	136.294
1161.02	2.24609
1165.38	43.1299
1169.73	1.56836
1174.08	122.04
1178.43	10.7891
1182.78	5.52148
1187.12	6.12695
1191.46	92.083
1195.8	36.0781
1200.14	12.6895
1204.47	21.6748
1208.8	64.7598
1213.13	61.3086
1217.46	112.869
1221.78	49.5449
1226.1	17.8633
1230.42	58.2891
1234.73	13.1094
1239.04	118.37
1243.35	39.0967
1247.66	194.343
1251.97	15.1523
1256.27	164.199
1260.57	89.2891
1264.86	263.956
1269.16	3.21094
1273.45	92.7891
1277.74	150.601
1282.03	164.181
1286.31	195.943
1290.59	100.684
1294.87	155.319
1299.14	352.317
1303.42	319.964
1307.69	110.886
1311.95	242.049
1316.22	217.582
1320.48	203.668
1324.74	214.31
1329	290.402
1333.26	162.48
1337.51	279.197
1341.76	376.876
1346	245.723
1350.25	314.907
1354.49	331.818
1358.73	416.483
1362.96	476.531
1367.2	302.887
1371.43	223.696
1375.66	300.054
1379.88	105.79
1384.11	87.3672
1388.33	328.306
1392.54	369.017
1396.76	328.223
1400.97	226.846
1405.18	192.763
1409.39	120.587
1413.59	91.8574
1417.8	77.2363
1421.99	28.1807
1426.19	157.909
1430.38	202.827
1434.58	286.785
1438.77	227.423
1442.95	192.928
1447.13	350.102
1451.32	182.378
1455.49	89.4238
1459.67	355.763
1463.84	297.209
1468.01	273.745
1472.18	246.438
1476.35	283.896
1480.51	256.778
1484.67	144.028
1488.83	308.349
1492.98	305.963
1497.13	155.18
1501.28	86.167
1505.43	119.584
1509.57	92.2012
1513.71	58.7324
1517.85	20.9609
1521.99	23.0859
1526.12	216.873
1530.25	275.305
1534.38	68.2539
1538.5	193.524
1542.62	619.139
1546.74	479.441
1550.86	240.685
1554.98	173.492
1559.09	1.26465
1563.2	72.4463
1567.31	233.859
