Measurement: Raman, 514 nm, depolarized, Raman Data Processed
Mineral: Celestine
Rruff sample: R050008
Ideal chemistry: SrS^6+^O_4_
Locality: Scofield Quarry, Maybee, Monroe County, Michigan, USA
Source: Eugene Schlepp
Description: Pale blue tabular crystals
Measured chemistry: Sr_1.00_S_1.00_O_4_
Pin_id: M00399
Orientation: Laser parallel to b* (0 1 0). Fiducial mark perpendicular to laser is parallel to -c [0 0 -1]
Raman shift (cm-1)	intensity
50.167	0
54.392	63.433
58.614	94.351
62.834	165.046
67.052	181.018
71.268	155.581
75.481	84.445
79.693	37.581
83.902	5.851
88.108	0.016
92.313	0.897
96.515	56.443
100.715	97.015
104.913	140.809
109.109	175.753
113.303	111.746
117.494	145.736
121.683	186.709
125.87	272.701
130.055	361.688
134.237	325.868
138.417	207.617
142.596	124.321
146.771	88.121
150.945	88.962
155.117	88.296
159.286	94.326
163.453	86.354
167.618	143.3
171.781	196.646
175.941	159.41
180.1	111.269
184.256	95.542
188.41	92.079
192.562	106.665
196.711	187.697
200.859	207.937
205.004	151.405
209.147	73.697
213.288	40.654
217.427	15.378
221.564	6.543
225.698	29.439
229.83	25.939
233.96	19.171
238.088	21.707
242.214	10.105
246.338	2.577
250.459	34.297
254.579	22.569
258.696	25.362
262.811	2.574
266.924	12.943
271.035	17.294
275.143	16.621
279.25	7.919
283.354	6.198
287.456	17.458
291.556	26.696
295.654	18.911
299.75	1.107
303.843	5.689
307.935	8.413
312.024	2.522
316.111	0.405
320.196	11.626
324.279	1.636
328.36	1.389
332.439	10.553
336.516	28.472
340.59	10.36
344.662	16.222
348.733	1.065
352.801	0.111
356.867	2.198
360.931	11.571
364.992	12.318
369.052	24.044
373.11	3.183
377.165	13.541
381.218	13.107
385.27	11.454
389.319	18.023
393.366	13.487
397.411	8.84
401.454	19.238
405.495	28.5
409.533	17.564
413.57	31.035
417.604	25.835
421.637	42.182
425.667	38.607
429.695	58.041
433.721	106.274
437.745	115.51
441.767	205.851
445.787	428.293
449.805	1108.74
453.821	2834.76
457.834	3508.18
461.846	4755.59
465.856	3040.95
469.863	1005.3
473.868	404.711
477.872	210.619
481.873	123.072
485.872	87.453
489.869	83.965
493.864	54.192
497.857	41.422
501.848	44.598
505.837	56.093
509.824	32.497
513.809	4.161
517.792	16.225
521.772	19.492
525.751	20.987
529.728	19.774
533.702	6.183
537.675	21.739
541.645	34.321
545.613	0.099
549.58	1.963
553.544	18.705
557.507	0.297
561.467	12.087
565.425	14.113
569.381	26.91
573.335	16.916
577.288	33.526
581.238	38.33
585.186	48.151
589.132	46.052
593.076	68.638
597.018	47.715
600.958	56.34
604.896	96.396
608.832	181.384
612.766	319.864
616.698	696.538
620.628	1686.17
624.556	2634.67
628.482	2076.34
632.405	848.729
636.327	857.181
640.247	1668.53
644.165	828.196
648.081	345.552
651.995	386.808
655.907	808.748
659.817	965.974
663.725	382.194
667.63	164.383
671.534	70.539
675.436	46.374
679.336	40.488
683.234	17.568
687.13	37.799
691.024	11.949
694.916	10.132
698.806	27.101
702.694	2.472
706.58	27.273
710.464	12.486
714.346	22.435
718.226	14.211
722.105	18.31
725.981	9.988
729.855	15.635
733.727	4.322
737.597	4.134
741.466	25.665
745.332	56.098
749.196	34.471
753.059	37.797
756.919	5.209
760.778	0.132
764.634	32.286
768.489	29.404
772.341	0.519
776.192	10.496
780.041	7.466
783.887	17.395
787.732	8.287
791.575	12.142
795.416	10.963
799.255	27.744
803.092	22.49
806.927	5.201
810.76	12.873
814.591	32.693
818.421	13.104
822.248	13.326
826.073	6.813
829.897	26.654
833.718	4.906
837.538	13.455
841.356	16.226
845.171	6.063
848.985	6.053
852.797	30.222
856.607	8.773
860.415	15.85
864.221	2.349
868.025	18.573
871.828	0.709
875.628	25.797
879.426	5.556
883.223	11.065
887.018	2.508
890.81	1.921
894.601	29.934
898.39	34.397
902.177	20.161
905.962	4.573
909.745	12.897
913.526	20.876
917.306	20.677
921.083	52.475
924.859	15.55
928.632	18.623
932.404	50.3
936.174	24.973
939.942	25.737
943.708	37.561
947.472	31.428
951.235	49.995
954.995	104.841
958.754	97.677
962.51	115.031
966.265	135.012
970.018	183.001
973.769	242.901
977.518	330.271
981.265	494.343
985.011	693.923
988.754	1064.59
992.496	2145.41
996.236	7276.1
999.974	52243.6
1003.71	22809.9
1007.44	4323.73
1011.18	1667.21
1014.91	914.097
1018.63	565.561
1022.36	434.03
1026.09	340.467
1029.81	240.685
1033.53	204.104
1037.25	168.203
1040.97	146.799
1044.68	110.701
1048.4	62.664
1052.11	68.689
1055.82	81.689
1059.53	58.804
1063.23	59.322
1066.94	58.607
1070.64	79.967
1074.34	25.384
1078.04	37.864
1081.74	75.398
1085.43	191.996
1089.12	406.657
1092.82	1035.78
1096.51	902.547
1100.19	364.366
1103.88	270.238
1107.56	437.161
1111.25	567.14
1114.93	314.824
1118.61	121.905
1122.28	103.119
1125.96	31.5
1129.63	56.75
1133.3	79.051
1136.97	122.423
1140.64	182.006
1144.31	303.516
1147.97	493.217
1151.63	1127.82
1155.29	2321.56
1158.95	2563.27
1162.61	1958.33
1166.26	994.735
1169.92	547.129
1173.57	317.826
1177.22	198.835
1180.87	172.941
1184.51	241.515
1188.15	439.55
1191.8	309.616
1195.44	184.877
1199.08	107.033
1202.71	62.176
1206.35	56.343
1209.98	35.583
1213.61	15.054
1217.24	28.49
1220.87	17.799
1224.5	31.072
1228.12	36.731
1231.75	17.258
1235.37	11.565
1238.99	16.901
1242.6	19.261
1246.22	34.645
1249.83	45.322
1253.44	45.741
1257.05	19.202
1260.66	46.696
1264.27	22.194
1267.87	12.683
1271.48	2.157
1275.08	19.626
1278.68	24.106
1282.28	21.11
1285.87	10.687
1289.47	50.017
1293.06	69.314
1296.65	19.573
1300.24	12.788
1303.83	2.01
1307.41	24.852
1310.99	7.752
1314.58	5.322
1318.16	11.372
1321.73	19.382
1325.31	8.664
1328.89	16.229
1332.46	30.07
1336.03	0.869
1339.6	2.639
1343.17	18.366
1346.73	14.062
1350.3	4.266
1353.86	1.376
1357.42	29.984
1360.98	30.564
1364.54	19.141
1368.09	0.274
1371.65	13.665
1375.2	7.801
1378.75	20.588
1382.3	31.406
1385.85	42.647
1389.39	4.163
1392.93	40.844
1396.48	60.097
1400.02	34.542
1403.56	31.547
1407.09	25.699
1410.63	53.93
1414.16	20.669
1417.69	17.119
1421.22	6.147
1424.75	8.544
1428.27	61.11
1431.8	50.603
1435.32	48.324
1438.84	60.755
1442.36	52.957
1445.88	60.156
1449.4	30.212
1452.91	68.016
1456.42	25.002
1459.93	53.195
1463.44	56.157
1466.95	49.006
1470.45	75.342
1473.96	55.169
1477.46	75.083
1480.96	64.251
1484.46	35.531
1487.96	28.913
1491.45	23.327
1494.95	18.934
1498.44	31.197
1501.93	35.904
1505.42	67.28
1508.9	47.784
1512.39	29.114
1515.87	62.247
