Measurement: Raman, 514 nm, depolarized, Raman Data Processed
Mineral: Celestine
Rruff sample: R040007
Ideal chemistry: SrS^6+^O_4_
Locality: Coahuila, Mexico
Source: University of Arizona Mineral Museum
Description: Blue tabular crystals
Measured chemistry: (Sr_0.95_Ba_0.04_Ca_0.01_)_Σ=1_S_1.00_O_4_; = Light bands. (Sr_0.99_Ba_0.01_)_Σ=1_S_1.00_O_4_; trace amounts of Ca = Dark bands
Pin_id: M00014
Orientation: Laser parallel to a* (1 0 0). Fiducial mark perpendicular to laser is parallel to b [0 1 0]
Raman shift (cm-1)	intensity
51.466	0
55.666	16.732
59.863	13.701
64.059	7.073
68.253	38.298
72.445	126.723
76.635	363.443
80.823	1045.87
85.009	2087.6
89.193	1308.38
93.375	715.066
97.554	484.501
101.732	330.517
105.908	319.013
110.082	259.918
114.254	317.184
118.424	379.425
122.592	423.688
126.758	495.971
130.922	458.747
135.083	332.704
139.243	232.757
143.401	189.813
147.557	157.934
151.711	157.142
155.863	160.443
160.013	200.846
164.161	294.354
168.308	376.968
172.452	298.702
176.594	224.524
180.734	182.662
184.872	144.674
189.008	122.782
193.143	119.573
197.275	124.729
201.405	104.593
205.534	88.158
209.66	91.579
213.784	86.188
217.907	71.044
222.027	47.469
226.146	78.417
230.263	42.76
234.377	46.339
238.49	46.138
242.601	49.49
246.709	34.634
250.816	39.917
254.921	15.323
259.024	27.838
263.125	35.453
267.224	39.158
271.321	29.947
275.416	24.813
279.51	31.752
283.601	28.758
287.69	9.829
291.778	2.958
295.863	15.141
299.947	21.373
304.029	47.653
308.108	16.98
312.186	18.353
316.262	10.773
320.336	12.237
324.408	8.746
328.478	12.702
332.546	0.884
336.612	7.491
340.677	21.166
344.739	0.953
348.799	17.897
352.858	6.862
356.915	2.405
360.969	8.97
365.022	23.102
369.073	28.004
373.122	7.12
377.169	17.949
381.215	24.222
385.258	2.92
389.299	10.829
393.339	15.972
397.376	22.987
401.412	4.958
405.446	8.124
409.478	38.342
413.508	51.5
417.536	25.693
421.562	53.932
425.586	52.211
429.609	75.518
433.629	132.862
437.648	261.23
441.665	499.623
445.68	1452.04
449.693	4798.49
453.704	6194.97
457.713	2290.48
461.721	1137.01
465.726	545.559
469.73	240.957
473.731	160.542
477.731	85.141
481.729	61.474
485.725	32.376
489.72	20.522
493.712	30.158
497.703	48.567
501.691	33.767
505.678	19.773
509.663	5.7
513.646	31.923
517.627	50.26
521.607	27.937
525.584	29.915
529.56	16.664
533.534	5.385
537.506	28.278
541.476	1.134
545.444	16.136
549.41	1.617
553.375	23.269
557.337	22.014
561.298	38.354
565.257	24.063
569.214	9.293
573.17	48.345
577.123	30.397
581.075	59.98
585.024	72.878
588.972	98.449
592.918	93.204
596.863	90.04
600.805	150.782
604.746	267.389
608.685	410.769
612.621	904.437
616.557	2541.42
620.49	3358.31
624.421	3016.85
628.351	936.577
632.279	548.31
636.205	831.813
640.129	508.287
644.051	169.735
647.972	101.407
651.89	117.662
655.807	62.082
659.722	58.46
663.636	47.793
667.547	25.555
671.457	16.941
675.365	27.269
679.271	12.899
683.175	23.483
687.077	12.57
690.978	37.689
694.877	13.217
698.774	23.136
702.669	4.679
706.562	17.311
710.454	13.305
714.344	23.348
718.232	32.328
722.118	2.283
726.002	16.321
729.885	13.719
733.766	10.434
737.645	10.341
741.522	44.079
745.397	9.781
749.271	15.44
753.143	28.072
757.013	40.675
760.881	45.235
764.748	16.746
768.613	36.203
772.476	40.63
776.337	20.026
780.196	10.394
784.054	0.735
787.91	29.047
791.764	26.337
795.616	18.608
799.467	7.858
803.316	18.087
807.163	13.74
811.008	33.373
814.851	28.469
818.693	3.548
822.533	3.449
826.371	29.885
830.208	31.728
834.042	5.653
837.875	28.451
841.706	6.335
845.536	37.223
849.363	34.953
853.189	4.755
857.013	16.823
860.836	45.705
864.656	47.294
868.475	0.184
872.292	26.066
876.108	8.361
879.922	13.698
883.733	20.805
887.544	9.266
891.352	32.277
895.159	58.012
898.964	42.926
902.767	43.781
906.568	54.502
910.368	34.311
914.166	80.25
917.962	46.411
921.757	79.252
925.55	71.825
929.341	74.451
933.13	72.405
936.918	82.984
940.703	90.985
944.488	62.993
948.27	83.028
952.051	118.066
955.83	92.913
959.607	150.13
963.383	178.234
967.156	199.36
970.928	260.414
974.699	418.712
978.468	384.926
982.234	631.166
986	796.103
989.763	1562.09
993.525	4100.57
997.285	25131.5
1001.04	47190.5
1004.8	6613.94
1008.55	2010.29
1012.31	1017.73
1016.06	648.236
1019.81	457.729
1023.56	313.29
1027.31	261.677
1031.05	211.781
1034.79	146.606
1038.53	110.395
1042.27	121.453
1046.01	104.255
1049.75	99.7
1053.48	94.221
1057.22	76.123
1060.95	72.3
1064.68	97.338
1068.4	75.383
1072.13	101.459
1075.86	94.561
1079.58	119.686
1083.3	173.833
1087.02	364.253
1090.74	914.455
1094.45	1577.77
1098.17	718.003
1101.88	377.284
1105.59	475.559
1109.3	842.88
1113.01	715.226
1116.71	334.543
1120.42	189.009
1124.12	133.421
1127.82	33.906
1131.52	28.355
1135.22	39.009
1138.91	24.508
1142.61	22.991
1146.3	25.598
1149.99	35.397
1153.68	100.96
1157.37	165.455
1161.06	191.957
1164.74	111.462
1168.42	44.545
1172.1	13.489
1175.78	7
1179.46	5.612
1183.14	2.842
1186.81	7.751
1190.48	0.046
1194.15	17.633
1197.83	13.036
1201.49	8.082
1205.16	18.359
1208.82	12.736
1212.49	31.789
1216.15	24.343
1219.81	13.733
1223.46	42.098
1227.12	21.418
1230.78	27.797
1234.43	46.094
1238.08	14.624
1241.73	72.658
1245.38	24.073
1249.03	67.805
1252.67	26.011
1256.31	50.189
1259.95	18.357
1263.6	5.462
1267.23	20.652
1270.87	8.728
1274.51	52.79
1278.14	48.837
1281.77	30.868
1285.4	49.854
1289.03	9.738
1292.66	16.612
1296.28	7.402
1299.91	52.135
1303.53	22.837
1307.15	26.513
1310.77	36.165
1314.38	25.207
1318	20.869
1321.61	31.9
1325.23	11.248
1328.84	4.364
1332.45	33.757
1336.06	0.861
1339.66	2.635
1343.27	2.23
1346.87	4.336
1350.47	43.093
1354.07	5.921
1357.67	5.222
1361.26	13.598
1364.86	14.757
1368.45	44.915
1372.04	42.084
1375.63	23.664
1379.22	51.593
1382.81	44.451
1386.39	2.916
1389.98	57.599
1393.56	40.274
1397.14	23.664
1400.72	61.121
1404.3	18.362
1407.87	26.742
1411.45	43.392
1415.02	45.654
1418.59	75.996
1422.16	32.27
1425.73	55.299
1429.29	30.763
1432.86	75.163
1436.42	52.881
1439.98	36.542
1443.54	81.819
1447.1	102.369
1450.66	75.872
1454.21	110.429
1457.77	108.499
1461.32	82.194
1464.87	75.101
1468.42	50.185
1471.96	72.308
1475.51	34.25
1479.06	77.225
1482.6	68.595
1486.14	23.292
1489.68	0.969
1493.22	19.879
1496.75	96.948
1500.29	28.26
1503.82	42.976
1507.35	34.134
1510.88	74.476
1514.41	37.281
1517.94	78.762
1521.46	24.266
1524.99	0
