Measurement: Raman, 514 nm, depolarized, Raman Data Processed
Mineral: Celestine
Rruff sample: R040007
Ideal chemistry: SrS^6+^O_4_
Locality: Coahuila, Mexico
Source: University of Arizona Mineral Museum
Description: Blue tabular crystals
Measured chemistry: (Sr_0.95_Ba_0.04_Ca_0.01_)_Σ=1_S_1.00_O_4_; = Light bands. (Sr_0.99_Ba_0.01_)_Σ=1_S_1.00_O_4_; trace amounts of Ca = Dark bands
Pin_id: M00011
Orientation: Laser parallel to c* (0 0 1). Fiducial mark perpendicular to laser is parallel to a [1 0 0]
Raman shift (cm-1)	intensity
52.866	0
57.065	17.825
61.262	17.645
65.458	1.745
69.651	30.748
73.842	121.155
78.031	301.384
82.218	645.724
86.404	1006.7
90.587	918.003
94.768	679.441
98.947	552.814
103.124	445.93
107.3	411.668
111.473	364.948
115.644	442.714
119.813	532.922
123.981	431.6
128.146	435.753
132.309	372.329
136.47	308.224
140.63	284.211
144.787	245.28
148.942	221.476
153.096	253.82
157.247	214.319
161.396	232.982
165.544	287.815
169.689	312.818
173.833	262.991
177.974	217.341
182.114	174.845
186.251	195.51
190.387	207.668
194.52	229.099
198.652	265.885
202.782	255.526
206.909	222.108
211.035	154.477
215.159	149.056
219.281	106.669
223.4	104.632
227.518	116.222
231.634	104.531
235.748	102.736
239.86	87.448
243.97	71.852
248.079	53.855
252.185	53.06
256.289	93.446
260.391	70.996
264.492	66.703
268.59	52.554
272.687	66.537
276.781	62.645
280.874	39.87
284.964	50.094
289.053	34.652
293.14	35.196
297.225	33.836
301.308	0.435
305.389	39.383
309.468	29.289
313.545	23.281
317.62	11.36
321.693	12.477
325.765	29.763
329.834	3.077
333.902	9.46
337.967	10.081
342.031	11.551
346.093	11.399
350.153	8.698
354.21	1.587
358.267	6.826
362.321	7.99
366.373	9.018
370.423	10.815
374.471	21.151
378.518	9.202
382.563	36.605
386.605	25.074
390.646	23.543
394.685	15.915
398.722	3.58
402.757	13.325
406.79	46.58
410.821	71.601
414.851	68.379
418.878	53.227
422.904	42.153
426.927	81.862
430.949	126.914
434.969	167.018
438.987	292.172
443.003	501.374
447.018	1286.63
451.03	3271.94
455.041	5708.29
459.049	7460.7
463.056	6123.14
467.061	2433.63
471.064	895.167
475.065	405.751
479.064	259.369
483.062	141.688
487.057	112.38
491.051	98.984
495.043	100.705
499.032	58.231
503.02	59.721
507.007	70.859
510.991	28.186
514.973	32.077
518.954	25.946
522.933	3.364
526.91	12.807
530.885	14.448
534.858	31.671
538.829	19.312
542.799	15.691
546.766	25.233
550.732	23.233
554.696	17.902
558.658	7.655
562.618	0.926
566.576	10.498
570.533	31.841
574.488	14.118
578.44	41.531
582.391	5.521
586.341	28.908
590.288	68.784
594.233	61.642
598.177	76.524
602.119	90.305
606.059	202.125
609.997	335.226
613.933	872.408
617.868	2014.11
621.801	1756.92
625.731	917.243
629.66	587.87
633.588	844.763
637.513	1843.4
641.437	1461.56
645.358	510.952
649.278	184.556
653.196	185.089
657.113	131.591
661.027	103.483
664.94	71.934
668.851	27.357
672.76	31.745
676.667	28.106
680.572	45.575
684.476	45.923
688.378	39.121
692.278	23.916
696.176	31.003
700.072	35.616
703.967	5.478
707.86	1.28
711.751	5.192
715.64	6.917
719.527	1.731
723.413	12.365
727.297	41.683
731.179	4.237
735.059	35.73
738.937	14.879
742.814	22.447
746.689	23.761
750.562	18.037
754.433	24.275
758.303	34.467
762.17	44.605
766.036	7.704
769.901	7.245
773.763	12.741
777.624	56.692
781.482	46.605
785.339	2.467
789.195	18.276
793.048	12.052
796.9	0.209
800.75	12.537
804.598	45.054
808.445	39.615
812.289	3.852
816.132	4.64
819.973	32.086
823.813	13.469
827.65	14.829
831.486	25.029
835.32	40.308
839.152	34.443
842.983	16.44
846.812	35.432
850.639	45.056
854.464	0.707
858.288	18.508
862.11	46.198
865.93	18.874
869.748	37.145
873.564	26.213
877.379	5.106
881.192	6.026
885.004	12.512
888.813	2.462
892.621	7.906
896.427	15.294
900.232	51.43
904.034	57.626
907.835	52.82
911.634	34.079
915.432	80.296
919.227	85.067
923.021	18.181
926.813	39.315
930.604	49.005
934.393	76.772
938.18	61.123
941.965	58.44
945.749	97.759
949.53	120.312
953.311	106.145
957.089	112.561
960.866	123.002
964.641	153.047
968.414	200.477
972.185	241.045
975.955	360.586
979.723	397.155
983.49	540.745
987.254	846.104
991.017	1692.78
994.779	4714.5
998.538	27909.3
1002.3	48608.1
1006.05	9918.92
1009.81	2570.8
1013.56	1200.76
1017.31	764.734
1021.06	508.789
1024.81	392.909
1028.55	308.082
1032.3	264.523
1036.04	184.558
1039.78	159.834
1043.52	94.651
1047.26	95.025
1050.99	67.089
1054.73	58.158
1058.46	57.841
1062.19	21.318
1065.92	28.234
1069.65	26.955
1073.37	43.771
1077.1	57.705
1080.82	30.602
1084.54	12.549
1088.26	62.543
1091.97	48.256
1095.69	59.832
1099.4	79.564
1103.12	178.12
1106.83	320.323
1110.54	637.555
1114.24	535.817
1117.95	206.112
1121.65	87.453
1125.35	46.834
1129.06	15.305
1132.75	48.78
1136.45	114.248
1140.15	107.739
1143.84	186.369
1147.53	335.03
1151.22	547.789
1154.91	1086.39
1158.6	1971.69
1162.28	2318.59
1165.97	1527.2
1169.65	763.932
1173.33	409.638
1177.01	200.412
1180.69	134.354
1184.36	125.041
1188.04	95.883
1191.71	57.182
1195.38	8.022
1199.05	28.857
1202.71	11.755
1206.38	18.716
1210.04	6.712
1213.71	22.052
1217.37	25.311
1221.03	12.452
1224.68	5.818
1228.34	9.262
1231.99	62.733
1235.65	29.055
1239.3	47.534
1242.95	28.97
1246.59	62.386
1250.24	36.198
1253.88	38.723
1257.53	42.16
1261.17	47.55
1264.81	83.162
1268.45	81.685
1272.08	7.157
1275.72	40.446
1279.35	53.742
1282.98	38.991
1286.61	10.211
1290.24	10.635
1293.87	45.463
1297.49	30.503
1301.11	55.441
1304.73	31.272
1308.36	32.02
1311.97	58.688
1315.59	24.315
1319.2	56.894
1322.82	53.424
1326.43	45.895
1330.04	61.274
1333.65	14.404
1337.26	23.829
1340.86	23.735
1344.47	5.481
1348.07	11.017
1351.67	34.033
1355.27	25.712
1358.87	18.376
1362.46	17.508
1366.06	7.551
1369.65	23.936
1373.24	9.352
1376.83	30.358
1380.42	60.409
1384	65.841
1387.59	79.314
1391.17	2.145
1394.75	39.932
1398.33	51.664
1401.91	60.219
1405.49	12.829
1409.06	18.851
1412.64	92.011
1416.21	90.771
1419.78	71.925
1423.35	58.885
1426.91	65.447
1430.48	56.48
1434.05	58.903
1437.61	71.308
1441.17	111.145
1444.73	146.512
1448.29	130.721
1451.84	150.667
1455.4	183.475
1458.95	142.316
1462.5	170.356
1466.05	93.895
1469.6	83.313
1473.15	72.695
1476.69	79.791
1480.24	39.797
1483.78	89.878
1487.32	50.533
1490.86	83.381
1494.39	58.161
1497.93	20.204
1501.46	15.72
1505	11.76
1508.53	17.399
1512.06	46.704
1515.59	16.869
1519.11	27.166
1522.64	0
