Measurement: Raman, 514 nm, depolarized, Raman Data Processed
Mineral: Celestine
Rruff sample: R040007
Ideal chemistry: SrS^6+^O_4_
Locality: Coahuila, Mexico
Source: University of Arizona Mineral Museum
Description: Blue tabular crystals
Measured chemistry: (Sr_0.95_Ba_0.04_Ca_0.01_)_Σ=1_S_1.00_O_4_; = Light bands. (Sr_0.99_Ba_0.01_)_Σ=1_S_1.00_O_4_; trace amounts of Ca = Dark bands
Pin_id: M00013
Orientation: Laser parallel to b* (0 1 0). Fiducial mark perpendicular to laser is parallel to c [0 0 1]
Raman shift (cm-1)	intensity
51.466	0
55.666	7.022
59.863	8.988
64.059	3.907
68.253	14.697
72.445	83.135
76.635	231.792
80.823	599.891
85.009	1215.96
89.193	807.834
93.375	404.375
97.554	340.46
101.732	429.968
105.908	423.821
110.082	280.972
114.254	280.436
118.424	282.199
122.592	371.19
126.758	322.487
130.922	220.004
135.083	164.661
139.243	148.385
143.401	128.119
147.557	169.884
151.711	167.707
155.863	181.598
160.013	171.565
164.161	211.611
168.308	251.939
172.452	255.896
176.594	181.146
180.734	167.685
184.872	193.045
189.008	227.536
193.143	300.611
197.275	311.435
201.405	214.532
205.534	159.779
209.66	118.516
213.784	68.243
217.907	57.489
222.027	58.828
226.146	39.579
230.263	28.353
234.377	61.402
238.49	46.652
242.601	44.047
246.709	9.567
250.816	26.189
254.921	42.901
259.024	28.705
263.125	14.592
267.224	37.554
271.321	32.579
275.416	21.661
279.51	25.795
283.601	5.022
287.69	5.204
291.778	13.529
295.863	27.77
299.947	34.105
304.029	7.525
308.108	14.873
312.186	16.3
316.262	9.762
320.336	9.258
324.408	9.786
328.478	12.346
332.546	28.932
336.612	32.461
340.677	4.146
344.739	1.809
348.799	0.017
352.858	4.323
356.915	20.351
360.969	3.028
365.022	12.729
369.073	17.643
373.122	3.419
377.169	17.177
381.215	1.622
385.258	32.151
389.299	43.949
393.339	27.786
397.376	10.671
401.412	23.874
405.446	39.743
409.478	43.709
413.508	32.7
417.536	58.595
421.562	78.698
425.586	85.928
429.609	148.566
433.629	220.682
437.648	361.82
441.665	829.995
445.68	2324.05
449.693	6759.25
453.704	7730.98
457.713	2997.25
461.721	1251.54
465.726	563.561
469.73	330.22
473.731	183.552
477.731	99.912
481.729	101.284
485.725	80.618
489.72	48.009
493.712	38.916
497.703	18.698
501.691	4.726
505.678	12.141
509.663	22.066
513.646	27.891
517.627	29.31
521.607	11.696
525.584	27.18
529.56	4.662
533.534	7.155
537.506	23.395
541.476	18.91
545.444	14.756
549.41	22.121
553.375	9.451
557.337	10.921
561.298	40.537
565.257	31.976
569.214	28.422
573.17	15.639
577.123	6.121
581.075	15.139
585.024	4.774
588.972	50.36
592.918	41.737
596.863	65.627
600.805	62.842
604.746	136.566
608.685	244.298
612.621	568.804
616.557	1546.03
620.49	1283.26
624.421	811.664
628.351	590.827
632.279	611.281
636.205	1432.01
640.129	1128.1
644.051	471.651
647.972	564.888
651.89	1390.9
655.807	2138.32
659.722	944.354
663.636	357.329
667.547	190.86
671.457	79.775
675.365	82.803
679.271	66.012
683.175	58.837
687.077	22.339
690.978	37.057
694.877	49.85
698.774	41.075
702.669	45.722
706.562	29.334
710.454	43.895
714.344	37.405
718.232	33.588
722.118	21.094
726.002	43.426
729.885	44.78
733.766	16.018
737.645	49.158
741.522	2.168
745.397	27.99
749.271	1.111
753.143	3.83
757.013	42.153
760.881	12.073
764.748	1.062
768.613	32.737
772.476	34.578
776.337	6.282
780.196	33.934
784.054	5.552
787.91	0.122
791.764	18.624
795.616	0.908
799.467	3.517
803.316	27.904
807.163	36.261
811.008	25.581
814.851	9.866
818.693	20.122
822.533	24.352
826.371	3.444
830.208	18.387
834.042	2.731
837.875	37.087
841.706	33.658
845.536	16.4
849.363	16.494
853.189	8.374
857.013	16.986
860.836	43.832
864.656	20.779
868.475	38.567
872.292	5.189
876.108	19.065
879.922	25.678
883.733	0.397
887.544	60.082
891.352	55.543
895.159	54.415
898.964	74.082
902.767	70.128
906.568	56.919
910.368	28.53
914.166	65.621
917.962	16.317
921.757	5.62
925.55	59.076
929.341	66.521
933.13	69.24
936.918	86.756
940.703	52.95
944.488	41.548
948.27	91.856
952.051	119.431
955.83	148.248
959.607	138.083
963.383	191.512
967.156	194.291
970.928	269.193
974.699	392.955
978.468	405.485
982.234	652.427
986	888.425
989.763	1697.54
993.525	4668.69
997.285	27769.8
1001.04	51293
1004.8	7683.3
1008.55	2238.62
1012.31	1097.97
1016.06	633.388
1019.81	445.849
1023.56	345.365
1027.31	253.996
1031.05	181.606
1034.79	163.265
1038.53	113.153
1042.27	126.935
1046.01	17.849
1049.75	11.831
1053.48	32.883
1057.22	92.002
1060.95	49.179
1064.68	29.419
1068.4	30.71
1072.13	35.972
1075.86	20.364
1079.58	61.812
1083.3	41.308
1087.02	2.848
1090.74	115.444
1094.45	170.093
1098.17	112.786
1101.88	213.526
1105.59	582.31
1109.3	1153.13
1113.01	940.343
1116.71	394.376
1120.42	221.328
1124.12	162.322
1127.82	112.822
1131.52	112.076
1135.22	178.15
1138.91	162.486
1142.61	308.831
1146.3	535.99
1149.99	1116.41
1153.68	2650.79
1157.37	3824.25
1161.06	3029.25
1164.74	1800.61
1168.42	924.115
1172.1	525.026
1175.78	352.235
1179.46	288.083
1183.14	388.274
1186.81	665.816
1190.48	924.782
1194.15	488.043
1197.83	259.972
1201.49	144.329
1205.16	63.302
1208.82	85
1212.49	64.677
1216.15	51.408
1219.81	41.086
1223.46	42.764
1227.12	41.529
1230.78	102.339
1234.43	60.004
1238.08	34.691
1241.73	23.353
1245.38	63.049
1249.03	68.736
1252.67	53.418
1256.31	7.104
1259.95	3.23
1263.6	43.386
1267.23	7.975
1270.87	29.585
1274.51	8.854
1278.14	12.159
1281.77	27.279
1285.4	47.792
1289.03	13.928
1292.66	22.212
1296.28	27.305
1299.91	14.367
1303.53	24.401
1307.15	32.399
1310.77	16.354
1314.38	31.266
1318	12.13
1321.61	22.946
1325.23	6.284
1328.84	5.575
1332.45	28.994
1336.06	38.454
1339.66	5.165
1343.27	7.149
1346.87	22.401
1350.47	27.603
1354.07	52.783
1357.67	27.915
1361.26	37.011
1364.86	52.382
1368.45	33.302
1372.04	27.297
1375.63	59.19
1379.22	39.967
1382.81	44.168
1386.39	35.516
1389.98	39.877
1393.56	45.517
1397.14	54.151
1400.72	50.465
1404.3	48.498
1407.87	45.9
1411.45	42.766
1415.02	57.604
1418.59	5.235
1422.16	85.454
1425.73	53.305
1429.29	24.588
1432.86	34.079
1436.42	42.868
1439.98	31.89
1443.54	49.69
1447.1	64.555
1450.66	101.319
1454.21	84.282
1457.77	70.986
1461.32	87.479
1464.87	78.808
1468.42	25.017
1471.96	20.111
1475.51	25.617
1479.06	26.249
1482.6	46.641
1486.14	35.871
1489.68	23.925
1493.22	38.792
1496.75	21.483
1500.29	5.732
1503.82	11.433
1507.35	2.729
1510.88	4.869
1514.41	35.791
1517.94	87.653
1521.46	0.09
