Measurement: Raman, 514 nm, depolarized, Raman Data Processed
Mineral: Celestine
Rruff sample: R050008
Ideal chemistry: SrS^6+^O_4_
Locality: Scofield Quarry, Maybee, Monroe County, Michigan, USA
Source: Eugene Schlepp
Description: Pale blue tabular crystals
Measured chemistry: Sr_1.00_S_1.00_O_4_
Pin_id: M00310
Orientation: Laser parallel to -a* (-1 0 0). Fiducial mark perpendicular to laser is parallel to b [0 1 0]
Raman shift (cm-1)	intensity
50.167	0
54.392	70.054
58.614	115.449
62.834	149.609
67.052	208.696
71.268	68.393
75.481	57.89
79.693	0.79
83.902	10.734
88.108	161.705
92.313	161.426
96.515	141.064
100.715	113.953
104.913	45.323
109.109	80.052
113.303	41.956
117.494	59.724
121.683	84.758
125.87	130.796
130.055	207.206
134.237	230.726
138.417	137.869
142.596	73.569
146.771	50.236
150.945	38.926
155.117	40.919
159.286	16.504
163.453	51.281
167.618	105.562
171.781	222.865
175.941	102.774
180.1	81.428
184.256	39.856
188.41	19.052
192.562	16.866
196.711	17.502
200.859	23.818
205.004	18.026
209.147	5.28
213.288	10.867
217.427	14.481
221.564	2.039
225.698	6.901
229.83	5.56
233.96	6.526
238.088	2.32
242.214	6.917
246.338	6.217
250.459	6.889
254.579	7.2
258.696	20.754
262.811	9.112
266.924	32.272
271.035	28.147
275.143	25.843
279.25	39.212
283.354	25.919
287.456	27.917
291.556	31.117
295.654	37.168
299.75	40.993
303.843	30.598
307.935	33.983
312.024	40.827
316.111	25.306
320.196	37.735
324.279	39.629
328.36	28.004
332.439	36.746
336.516	39.559
340.59	45.732
344.662	48.926
348.733	40.06
352.801	39.052
356.867	30.735
360.931	25.187
364.992	31.367
369.052	37.963
373.11	32.667
377.165	34.768
381.218	28.273
385.27	26.464
389.319	24.296
393.366	37.368
397.411	37.909
401.454	43.967
405.495	25.579
409.533	20.698
413.57	19.684
417.604	27.823
421.637	49.042
425.667	41.915
429.695	66.139
433.721	78.399
437.745	98.509
441.767	182.81
445.787	366.991
449.805	1060.12
453.821	3541.28
457.834	3724.45
461.846	1243.65
465.856	724.839
469.863	305.036
473.868	147.303
477.872	96.421
481.873	69.532
485.872	52.839
489.869	21.145
493.864	25.457
497.857	29.743
501.848	30.106
505.837	12.551
509.824	15.92
513.809	25.313
517.792	15.715
521.772	20.995
525.751	11.354
529.728	5.798
533.702	17.307
537.675	23.166
541.645	23.492
545.613	14.09
549.58	13.645
553.544	19.336
557.507	23.018
561.467	23.73
565.425	3.451
569.381	18.263
573.335	10.463
577.288	17.238
581.238	4.053
585.186	29.612
589.132	33.676
593.076	20.504
597.018	38.333
600.958	63.164
604.896	81.445
608.832	141.903
612.766	290.777
616.698	713.844
620.628	1818.7
624.556	2288.55
628.482	1621.03
632.405	503.868
636.327	368.272
640.247	600.144
644.165	264.577
648.081	104.565
651.995	72.417
655.907	79.26
659.817	83.081
663.725	58.901
667.63	38.715
671.534	29.684
675.436	19.605
679.336	11.608
683.234	14.397
687.13	11.178
691.024	0.756
694.916	1.172
698.806	4.646
702.694	9.644
706.58	0.727
710.464	21.453
714.346	30.053
718.226	6.902
722.105	8.668
725.981	14.175
729.855	5.754
733.727	7.87
737.597	4.407
741.466	0.1
745.332	14.579
749.196	21.041
753.059	32.485
756.919	7.088
760.778	5.702
764.634	16.637
768.489	13.958
772.341	21.258
776.192	15.538
780.041	5.2
783.887	38.029
787.732	33.241
791.575	5.431
795.416	3.593
799.255	6.27
803.092	5.819
806.927	27.883
810.76	31.922
814.591	23.928
818.421	19.918
822.248	0.892
826.073	21.847
829.897	38.785
833.718	16.703
837.538	20.296
841.356	2.491
845.171	2.294
848.985	13.643
852.797	12.697
856.607	19.808
860.415	15.761
864.221	24.956
868.025	13.701
871.828	9.419
875.628	21.115
879.426	4.757
883.223	10.922
887.018	5.432
890.81	12.669
894.601	13.812
898.39	33.391
902.177	27.989
905.962	14.591
909.745	27.513
913.526	17.76
917.306	16.356
921.083	26.934
924.859	51.324
928.632	36.925
932.404	16.967
936.174	23.533
939.942	57.163
943.708	20.207
947.472	27.772
951.235	27.265
954.995	59.389
958.754	52.052
962.51	83.713
966.265	103.396
970.018	108.089
973.769	179.635
977.518	201.35
981.265	298.96
985.011	442.518
988.754	688.275
992.496	1383.99
996.236	4207.73
999.974	34339.5
1003.71	12977.3
1007.44	2477.16
1011.18	1052.32
1014.91	605.209
1018.63	367.707
1022.36	258.407
1026.09	190.247
1029.81	157.281
1033.53	147.342
1037.25	96.338
1040.97	119.675
1044.68	79.876
1048.4	79.077
1052.11	66.652
1055.82	67.714
1059.53	67.995
1063.23	49.597
1066.94	53.972
1070.64	48.372
1074.34	51.815
1078.04	54.344
1081.74	92.821
1085.43	170.335
1089.12	344.875
1092.82	910.448
1096.51	740.049
1100.19	304.683
1103.88	239.355
1107.56	395.052
1111.25	569.781
1114.93	324.543
1118.61	140.34
1122.28	88.166
1125.96	32.017
1129.63	21.892
1133.3	5.793
1136.97	35.718
1140.64	23.664
1144.31	15.112
1147.97	43.101
1151.63	54.63
1155.29	133.661
1158.95	156.724
1162.61	110.815
1166.26	54.926
1169.92	35.12
1173.57	37.036
1177.22	59.216
1180.87	12.467
1184.51	5.581
1188.15	12.497
1191.8	2.805
1195.44	7.917
1199.08	17.738
1202.71	6.174
1206.35	12.548
1209.98	15.478
1213.61	15.892
1217.24	0.838
1220.87	17.437
1224.5	34.715
1228.12	12.223
1231.75	10.587
1235.37	24.743
1238.99	40.062
1242.6	13.547
1246.22	34.894
1249.83	3.248
1253.44	16.579
1257.05	28.938
1260.66	35.386
1264.27	13.357
1267.87	5.696
1271.48	6.04
1275.08	8.445
1278.68	3.92
1282.28	18.108
1285.87	5.639
1289.47	32.629
1293.06	9.961
1296.65	20.173
1300.24	31.342
1303.83	10.504
1307.41	15.639
1310.99	6.245
1314.58	27.847
1318.16	16.916
1321.73	31.917
1325.31	20.912
1328.89	22.752
1332.46	19.644
1336.03	15.474
1339.6	0.798
1343.17	2.863
1346.73	20.834
1350.3	21.412
1353.86	39.067
1357.42	20.756
1360.98	31.404
1364.54	51.056
1368.09	31.768
1371.65	8.435
1375.2	7.95
1378.75	31.646
1382.3	3.952
1385.85	21.249
1389.39	14.537
1392.93	40.773
1396.48	37.987
1400.02	44.184
1403.56	50.778
1407.09	56.295
1410.63	39.388
1414.16	17.492
1417.69	24.104
1421.22	11.594
1424.75	34.503
1428.27	29.241
1431.8	51.1
1435.32	47.864
1438.84	67.201
1442.36	38.8
1445.88	44.823
1449.4	37.49
1452.91	33.452
1456.42	42.511
1459.93	57.859
1463.44	12.405
1466.95	38.419
1470.45	38.579
1473.96	43.039
1477.46	23.102
1480.96	30.598
1484.46	55.04
1487.96	30.374
1491.45	40.224
1494.95	26.387
1498.44	40.208
1501.93	42.268
1505.42	1.169
1508.9	23.862
1512.39	29.55
1515.87	33.925
