Measurement: Raman, 514 nm, depolarized, Raman Data Processed
Mineral: Celestine
Rruff sample: R050008
Ideal chemistry: SrS^6+^O_4_
Locality: Scofield Quarry, Maybee, Monroe County, Michigan, USA
Source: Eugene Schlepp
Description: Pale blue tabular crystals
Measured chemistry: Sr_1.00_S_1.00_O_4_
Pin_id: M00186
Orientation: Laser parallel to c* (0 0 1). Fiducial mark perpendicular to laser is parallel to -a [-1 0 0]
Raman shift (cm-1)	intensity
56.212	0
60.426	28.527
64.637	40.368
68.847	20.792
73.054	4.208
77.26	1.02
81.463	4.131
85.664	108.483
89.863	213.992
94.059	180.563
98.254	182.171
102.446	100.107
106.637	89.129
110.825	244.596
115.011	107.201
119.195	95.228
123.377	176.124
127.556	166.905
131.734	116.579
135.909	66.434
140.083	34.696
144.254	35.015
148.423	38.063
152.59	39.927
156.755	41.228
160.918	58.684
165.078	105.067
169.237	196.809
173.393	140.998
177.548	76.348
181.7	52.794
185.85	42.547
189.998	53.33
194.144	100.431
198.288	180.272
202.429	164.8
206.569	85.231
210.707	36.603
214.842	9.938
218.976	10.246
223.107	18.949
227.236	10.372
231.363	9.575
235.488	10.517
239.611	10.261
243.732	4.6
247.851	8.744
251.967	0.549
256.082	18.331
260.195	5.09
264.305	2.828
268.414	4.46
272.52	10.218
276.624	1.137
280.726	2.962
284.827	1.947
288.925	5.597
293.021	6.116
297.115	5.388
301.207	14.078
305.296	21.515
309.384	3.895
313.47	11.236
317.554	2.452
321.635	21.83
325.715	1.091
329.792	20.322
333.868	11.515
337.941	9.674
342.013	0.818
346.082	1.94
350.15	6.952
354.215	13.141
358.278	10.223
362.339	18.293
366.399	13.359
370.456	7.409
374.511	19.456
378.564	14.36
382.615	36.349
386.664	30.082
390.711	11.962
394.756	16.502
398.799	32.941
402.84	35.769
406.879	49.199
410.916	50.122
414.951	55.771
418.983	70.341
423.014	77.197
427.043	92.001
431.07	118.422
435.095	175.004
439.118	301.298
443.138	517.673
447.157	1301.95
451.174	3910.62
455.189	5958.56
459.202	7701.12
463.212	4975.54
467.221	1669.53
471.228	669.449
475.233	346.432
479.236	216.293
483.237	129.306
487.235	94.141
491.232	75.906
495.227	68.647
499.22	64.713
503.211	41.752
507.2	35.787
511.187	42.986
515.172	26.039
519.155	13.127
523.136	24.246
527.115	14.37
531.092	26.497
535.067	22.641
539.04	17.329
543.011	9.038
546.98	13.243
550.947	23.256
554.913	15.836
558.876	22.358
562.837	16.681
566.797	9
570.754	8.389
574.709	17.73
578.663	38.09
582.614	34.705
586.564	47.076
590.511	49.475
594.457	59.35
598.401	65.743
602.343	110.214
606.282	173.655
610.22	343.012
614.156	1013.03
618.09	2440.9
622.022	1599.32
625.952	760.766
629.88	579.232
633.807	1020.26
637.731	2296.64
641.653	1157.01
645.574	316.867
649.492	143.337
653.409	100.567
657.323	78.955
661.236	48.616
665.147	28.95
669.056	27.483
672.963	9.164
676.868	15.905
680.771	15.229
684.672	11.625
688.571	20.509
692.468	5.738
696.364	21.305
700.257	11.785
704.149	0.936
708.038	4.037
711.926	4.44
715.812	3.723
719.696	8.842
723.578	26.943
727.458	13.668
731.336	15.51
735.213	17.008
739.087	15.138
742.96	12.127
746.83	3.906
750.699	20.026
754.566	12.936
758.431	17.824
762.294	13.689
766.155	6.516
770.014	15.304
773.872	24.056
777.727	4.776
781.581	7.474
785.433	11.148
789.282	16.789
793.13	14.936
796.977	2.997
800.821	2.56
804.663	3.096
808.504	9.6
812.342	14.071
816.179	5.519
820.014	5.942
823.847	17.344
827.678	1.28
831.507	8.06
835.334	21.381
839.16	7.319
842.983	6.052
846.805	13.18
850.625	10.369
854.443	11.531
858.259	12.471
862.074	11.459
865.886	2.451
869.697	0.728
873.506	1.237
877.313	17.175
881.118	4.975
884.921	0.908
888.722	2.766
892.522	6.36
896.319	19.194
900.115	44.488
903.909	21.336
907.701	26.156
911.492	28.001
915.28	20.689
919.067	39.536
922.852	44.782
926.635	40.143
930.416	41.91
934.195	84.76
937.973	51.551
941.748	88.77
945.522	78.653
949.294	108.447
953.064	89.842
956.832	115.671
960.599	129.802
964.364	168.7
968.127	214.33
971.888	305.296
975.647	408.077
979.404	512.46
983.16	710.312
986.914	1081.33
990.666	2212.68
994.416	7017.24
998.164	52968.9
1001.91	30565.7
1005.65	5536.81
1009.4	2014.74
1013.14	1080.51
1016.88	704.016
1020.62	498.255
1024.35	375.559
1028.09	299.893
1031.82	249.379
1035.55	199.252
1039.28	129.247
1043	129.637
1046.73	100.217
1050.45	101.856
1054.17	74.543
1057.89	78.264
1061.61	80.165
1065.33	72.053
1069.04	55.908
1072.75	42.815
1076.46	32.788
1080.17	25.793
1083.88	20.845
1087.59	32.939
1091.29	47.078
1094.99	76.383
1098.69	93.599
1102.39	218.859
1106.09	499.158
1109.78	813.504
1113.47	441.891
1117.16	177.055
1120.85	74.926
1124.54	29.439
1128.23	56.994
1131.91	81.787
1135.59	106.422
1139.27	166.1
1142.95	282.999
1146.63	436.889
1150.3	772.727
1153.98	1511.58
1157.65	2488.57
1161.32	2321.51
1164.99	1222.5
1168.65	626.532
1172.32	364.594
1175.98	205.061
1179.64	127.883
1183.3	80.814
1186.96	62.905
1190.62	44.5
1194.27	27.755
1197.92	2.24
1201.57	20.534
1205.22	5.834
1208.87	5.779
1212.51	14.086
1216.16	16.638
1219.8	1.155
1223.44	18.279
1227.08	31.701
1230.72	11.628
1234.35	11.035
1237.98	5.545
1241.62	29.114
1245.25	16.779
1248.87	39.271
1252.5	12.778
1256.12	18.54
1259.75	24.063
1263.37	25.773
1266.99	21.837
1270.61	10.433
1274.22	4.953
1277.84	5.702
1281.45	9.382
1285.06	7.052
1288.67	0.7
1292.28	13.978
1295.88	31.418
1299.49	16.826
1303.09	8.198
1306.69	16.539
1310.29	20.807
1313.89	14.185
1317.48	21.483
1321.08	24.756
1324.67	4.016
1328.26	5.172
1331.85	10.32
1335.44	8.584
1339.02	6.551
1342.61	9.438
1346.19	6.401
1349.77	11.341
1353.35	3.978
1356.92	8.082
1360.5	12.776
1364.07	17.618
1367.64	6.437
1371.21	24.242
1374.78	11.052
1378.35	17.885
1381.91	2.365
1385.48	2.963
1389.04	12.555
1392.6	34.983
1396.16	6.529
1399.71	24.833
1403.27	7.338
1406.82	0.446
1410.38	14.883
1413.92	29.218
1417.47	13.67
1421.02	28.58
1424.57	25.834
1428.11	16.03
1431.65	62.115
1435.19	30.039
1438.73	60.581
1442.27	32.05
1445.8	25.64
1449.33	29.133
1452.87	30.653
1456.4	49.826
1459.92	29.239
1463.45	33.454
1466.98	37.691
1470.5	32.519
1474.02	6.866
1477.54	23.251
1481.06	26.599
1484.58	21.126
1488.09	12.247
1491.61	14.003
1495.12	2.633
1498.63	9.532
1502.14	2.658
1505.64	16.079
1509.15	18.884
1512.65	7.134
1516.15	33.706
