Measurement: Raman, 514 nm, ccw, Raman Data Processed
Mineral: Celsian
Rruff sample: R060152
Ideal chemistry: BaAl_2_Si_2_O_8_
Locality: Benallt mine, Lleyn, Wales
Source: Marcus Origlieri
Description: Colorless to white elongated prismatic crystals
Measured chemistry: (Ba_0.98_K_0.02_[box]_0.02_)_Î£=1_Al_2.00_Si_2.00_O_8_
Pin_id: M00479
Orientation: Laser parallel to -c* (0 0 -1). Fiducial mark perpendicular to laser is parallel to a [1 0 0]
Raman shift (cm-1)	intensity
96.135	0
101.059	1456.34
105.981	7445.27
110.9	12975.2
115.817	10608.2
120.732	8748.41
125.645	18378
130.556	38071.8
135.464	51851.1
140.371	28321.4
145.275	6812.91
150.177	1998.67
155.076	1034.33
159.974	468.254
164.869	963.293
169.762	983.356
174.653	907.894
179.541	379.625
184.427	434.863
189.311	222.676
194.193	1251.47
199.073	1327.66
203.95	44.0898
208.825	799.277
213.698	167.148
218.569	2277
223.437	3567.27
228.303	1833.98
233.167	2475.62
238.028	7859.15
242.888	20335.9
247.745	30000
252.599	21801.3
257.452	15987.9
262.302	8839.75
267.15	4108.11
271.995	2457.55
276.839	1473.18
281.68	1203.33
286.518	767.309
291.355	690.055
296.189	1350.66
301.02	3125.86
305.85	5335.8
310.677	4264.57
315.502	2295.14
320.325	2126.44
325.145	790.223
329.963	376.406
334.778	88.2109
339.592	106.981
344.403	79.4062
349.211	445.352
354.017	586.93
358.821	807.496
363.623	427.977
368.422	97.2656
373.219	96.2539
378.014	272.391
382.806	755.082
387.596	3987.87
392.383	8519.73
397.168	4188.85
401.951	857.078
406.732	317.434
411.51	724.938
416.285	878.848
421.059	3666.85
425.829	10198.6
430.598	10678.6
435.364	3395.18
440.128	971.688
444.889	257.66
449.648	621.144
454.405	1039.95
459.159	2193.83
463.911	5071.84
468.66	11016.7
473.407	13116.9
478.152	6999.65
482.894	4950.99
487.634	6264.84
492.372	11362.2
497.106	25395.4
501.839	69467.8
506.569	147341
511.297	118034
516.022	42877.2
520.745	15215.2
525.466	8143.25
530.184	4701.41
534.899	2724.64
539.612	1496.04
544.323	1127.36
549.031	1114.8
553.737	1439.76
558.44	1005.47
563.141	291.836
567.84	200.648
572.536	208.348
577.229	331.062
581.92	1659.84
586.609	4511.42
591.295	10098.8
595.979	10820
600.66	4870.06
605.339	1956.91
610.015	1317.68
614.689	1199.73
619.36	1528.98
624.029	1564.42
628.696	994.094
633.36	224.293
638.021	3.45703
642.68	473.84
647.336	487.84
651.99	647.688
656.642	182.074
661.291	98.4922
665.937	97.2578
670.581	472.945
675.222	1861.1
679.861	4542.5
684.498	5250.32
689.132	2388.22
693.763	682.606
698.392	47.0156
703.018	10.7734
707.642	137.633
712.263	608.168
716.882	1193.74
721.498	1451.25
726.112	2218.95
730.723	1689.82
735.332	833.836
739.938	1781.99
744.541	4639.26
749.142	11221.6
753.741	11393.1
758.337	4878.65
762.93	1797.21
767.521	739.742
772.109	640.231
776.695	419.445
781.278	2.23438
785.859	5.66406
790.437	108.926
795.012	268.586
799.585	12.7031
804.155	76.375
808.723	160.019
813.288	54.1914
817.851	57.1445
822.411	161.996
826.968	263.504
831.523	23.5508
836.076	40.7617
840.625	507.488
845.172	523.398
849.717	961.777
854.259	3079.52
858.798	2431.66
863.335	1158.93
867.869	765.914
872.401	762.066
876.93	526.481
881.456	435.992
885.98	498.684
890.501	543.727
895.02	676.106
899.536	602.598
904.049	872.539
908.56	902.785
913.068	922.273
917.573	1250.87
922.076	1261.21
926.576	1185.12
931.074	1385.07
935.569	1780.17
940.061	2226.89
944.551	2506.66
949.038	2637.47
953.522	2721.65
958.004	3363.07
962.483	6021.36
966.96	13434.7
971.434	22898.1
975.905	15279.8
980.373	11589.1
984.839	18022.9
989.303	13788
993.763	10290.4
998.221	10151.3
1002.68	7574.5
1007.13	6306.06
1011.58	8967.83
1016.03	10124.2
1020.47	6067.23
1024.91	2754.24
1029.35	1122.59
1033.79	600.012
1038.22	807.375
1042.65	661.934
1047.08	1410.2
1051.51	2584.24
1055.93	3375.2
1060.35	2731.78
1064.77	1106
1069.19	779.723
1073.6	864.324
1078.01	686.988
1082.42	1123.23
1086.82	1310.39
1091.22	591.172
1095.62	710.938
1100.02	993.195
1104.41	676.578
1108.8	345.469
1113.19	772.625
1117.58	407.047
1121.96	298.719
1126.34	2.64844
1130.72	157.805
1135.09	309.172
1139.46	54.3359
1143.83	567.805
1148.2	4.57812
1152.56	170.617
1156.92	104.602
1161.28	613.055
1165.64	244.898
1169.99	468.039
1174.34	48.7891
1178.69	367.344
1183.04	287.328
1187.38	15.6797
1191.72	208.125
1196.05	204.625
1200.39	216.922
1204.72	22.8984
1209.05	236.25
1213.37	433.57
1217.7	11.0391
1222.02	247.352
1226.33	67.8984
1230.65	571.594
1234.96	712.445
1239.27	744.469
1243.58	721.172
1247.88	729.414
1252.18	643.172
1256.48	170.344
1260.78	755.75
1265.07	917.43
1269.36	1124.34
1273.64	278.516
1277.93	1156.34
1282.21	521.125
1286.49	758.984
1290.77	780.516
1295.04	181.359
1299.31	189.836
1303.58	936.477
1307.84	1128.05
1312.11	902.523
1316.37	265.867
1320.62	706.578
1324.88	241
1329.13	361.938
1333.38	280.117
1337.62	484.891
1341.86	541.406
1346.1	453.625
1350.34	482.688
1354.58	940.508
1358.81	456.906
1363.04	823.016
1367.26	208.797
1371.48	306.594
1375.7	275.352
1379.92	609.523
1384.14	1112.4
1388.35	296.992
1392.56	650.289
1396.77	975.609
1400.97	304.922
1405.17	992.609
1409.37	990.531
1413.56	300.383
1417.76	731.352
1421.94	633.438
1426.13	493.438
1430.32	180.945
1434.5	623.703
1438.68	415.508
1442.85	567.664
1447.02	425.93
1451.19	405.547
1455.36	555.719
1459.53	839.195
1463.69	977.656
1467.85	589.906
1472	48.8281
1476.15	896.359
1480.3	323.406
1484.45	12.2812
1488.6	485.242
1492.74	420.898
1496.88	103.609
1501.01	63.2188
1505.14	82.2891
1509.27	321.242
1513.4	665.156
1517.53	766.516
1521.65	966.086
1525.77	537.898
1529.88	759.664
1533.99	855.484
1538.11	785.57
1542.21	516.805
1546.32	687.102
1550.42	741.305
1554.52	799.633
1558.61	345.734
1562.71	432.555
1566.8	315.203
1570.88	34.6406
1574.97	151.055
