Measurement: Raman, 514 nm, ccw, Raman Data Processed
Mineral: Celsian
Rruff sample: R060152
Ideal chemistry: BaAl_2_Si_2_O_8_
Locality: Benallt mine, Lleyn, Wales
Source: Marcus Origlieri
Description: Colorless to white elongated prismatic crystals
Measured chemistry: (Ba_0.98_K_0.02_[box]_0.02_)_Î£=1_Al_2.00_Si_2.00_O_8_
Pin_id: M00486
Orientation: Laser parallel to (1 0 1). Fiducial mark perpendicular to laser is parallel to -b [0 -1 0]
Raman shift (cm-1)	intensity
119.865	0
124.809	2847.2
129.75	8539.39
134.689	10919.9
139.624	5527.37
144.557	926.19
149.487	14.7623
154.414	118.638
159.339	121.334
164.26	606.954
169.179	360.032
174.095	282.486
179.009	0.132111
183.919	8.26072
188.827	240.026
193.732	1464.75
198.634	1764.85
203.534	313.792
208.43	40.319
213.324	129.944
218.215	674.286
223.104	914.219
227.99	740.857
232.872	1395
237.753	3362.03
242.63	6944.52
247.504	8664.36
252.376	6564.57
257.245	4591.91
262.112	2566.4
266.975	1369.95
271.836	975.079
276.694	723.378
281.549	393.873
286.402	209.579
291.252	470.479
296.099	753.293
300.943	1239.5
305.785	1508.33
310.624	1061.67
315.46	657.85
320.293	478.848
325.124	193.251
329.952	7.61008
334.777	38.252
339.599	63.8419
344.419	67.7374
349.236	148.882
354.05	98.1362
358.862	1.12973
363.67	81.5316
368.476	19.6403
373.28	123.635
378.08	102.417
382.878	531.222
387.673	1533.24
392.466	2474.24
397.255	1223.16
402.042	173.476
406.827	112.324
411.608	105.346
416.387	400.326
421.163	1263.04
425.936	2756.79
430.707	2523.26
435.475	993.691
440.24	83.9038
445.003	70.4797
449.763	53.2953
454.52	454.513
459.274	1076.74
464.026	2409.43
468.775	3438.81
473.522	3659.41
478.265	1927.88
483.006	1765.01
487.744	2494.06
492.48	4800.36
497.213	11871.3
501.943	25904.2
506.671	42238.7
511.395	31770.5
516.117	11714.2
520.837	4520.19
525.554	2540.3
530.268	1214.83
534.979	888.8
539.688	506.323
544.394	551.569
549.097	728.565
553.798	1028.89
558.496	638.624
563.191	355.111
567.884	226.675
572.574	243.238
577.261	439.984
581.945	1025.94
586.627	2165.39
591.307	3379.35
595.983	3191.22
600.657	1893.46
605.329	928.639
609.997	737.392
614.663	419.79
619.326	328.622
623.987	191.864
628.645	234.263
633.3	79.6488
637.953	113.41
642.603	46.2452
647.25	72.87
651.895	35.7952
656.537	134.084
661.176	20.26
665.813	38.3509
670.447	269.129
675.079	554.136
679.708	1345.6
684.334	1122.04
688.957	575.095
693.578	225.115
698.196	14.2967
702.812	31.8909
707.425	13.797
712.035	279.13
716.643	307.466
721.248	577.436
725.85	665.113
730.45	857.554
735.047	307.654
739.642	778.384
744.234	1720.74
748.823	3052.71
753.41	2675.3
757.994	1175.5
762.575	321.326
767.154	5.91163
771.73	3.90374
776.304	1.9358
780.875	112.98
785.443	6.77575
790.009	12.029
794.572	52.7351
799.132	54.5192
803.69	119.355
808.245	198.938
812.798	6.95617
817.348	259.524
821.896	113.793
826.44	209.807
830.983	182.127
835.522	43.5168
840.059	197.444
844.594	237.305
849.125	289.412
853.655	58.2998
858.181	299.841
862.705	129.625
867.227	190.927
871.746	192.686
876.262	26.5923
880.776	30.0214
885.287	235.246
889.795	288.082
894.301	221.737
898.804	52.1425
903.305	177.072
907.803	46.0176
912.299	82.1717
916.792	57.9428
921.282	208.88
925.77	263.337
930.255	64.2578
934.738	206.219
939.218	84.5311
943.695	321.002
948.17	603.606
952.643	1060.24
957.112	1392.98
961.58	2496.01
966.044	4540.95
970.506	5914.34
974.966	4118.64
979.423	3490.52
983.877	4689.9
988.329	3546.45
992.778	2843.13
997.225	2908.94
1001.67	2974.88
1006.11	1622.96
1010.55	1682.22
1014.99	2139.66
1019.42	1435.3
1023.85	553.092
1028.28	22.0424
1032.71	72.9373
1037.13	79.6978
1041.55	222.351
1045.97	58.5451
1050.39	429.561
1054.8	772.209
1059.21	814.076
1063.62	373.245
1068.03	322.647
1072.43	290.411
1076.83	151.881
1081.23	305.804
1085.62	343.272
1090.02	394.765
1094.41	160.765
1098.8	398.613
1103.18	224.845
1107.56	284.224
1111.94	283.857
1116.32	114.489
1120.7	115.895
1125.07	319.349
1129.44	370.022
1133.81	300.649
1138.17	119.071
1142.54	236.92
1146.9	107.616
1151.26	136.466
1155.61	109.352
1159.96	264.353
1164.32	307.814
1168.66	82.4324
1173.01	173.849
1177.35	21.3979
1181.69	121.85
1186.03	40.7388
1190.36	17.5682
1194.7	21.8469
1199.03	57.9461
1203.36	117.885
1207.68	200.669
1212	126.669
1216.32	187.097
1220.64	8.93297
1224.96	130.135
1229.27	226.627
1233.58	9.58023
1237.89	131.476
1242.19	14.091
1246.49	131.303
1250.8	110.744
1255.09	7.67096
1259.39	74.2238
1263.68	0.093982
1267.97	24.494
1272.26	245.285
1276.54	1.88184
1280.83	193.144
1285.11	244.464
1289.38	144.125
1293.66	164.833
1297.93	34.4959
1302.2	144.219
1306.47	56.6624
1310.74	174.321
1315	68.1703
1319.26	216.872
1323.52	11.1152
1327.78	12.8985
1332.03	219.151
1336.28	4.22513
1340.53	12.2163
1344.77	29.2274
1349.02	136.965
1353.26	233.691
1357.49	239.986
1361.73	191.141
1365.96	241.71
1370.19	244.707
1374.42	71.133
1378.65	75.3085
1382.87	8.90883
1387.09	94.8786
1391.31	120.329
1395.53	12.9124
1399.74	66.7362
1403.95	81.6935
1408.16	132.048
1412.37	50.6143
1416.57	122.491
1420.78	184.362
1424.97	182.24
1429.17	183.567
1433.37	7.06457
1437.56	89.6293
1441.75	253.181
1445.93	146.8
1450.12	114.748
1454.3	88.9883
1458.48	1.6437
1462.66	171.653
1466.83	191.802
1471	1.28792
1475.17	33.4228
1479.34	62.4058
1483.51	22.9423
1487.67	75.0597
1491.83	9.32733
1495.99	253.463
1500.14	102.716
1504.29	168.399
1508.44	216.718
1512.59	246.379
1516.74	77.7643
1520.88	108.993
1525.02	240.41
1529.16	249.188
1533.3	33.2399
1537.43	73.8165
1541.56	268.959
1545.69	212.931
1549.82	80.4024
1553.94	134.122
1558.06	328.332
1562.18	61.4915
1566.3	98.3194
1570.41	31.1198
1574.52	329.255
