Measurement: Raman, 514 nm, ccw, Raman Data Processed
Mineral: Celsian
Rruff sample: R060152
Ideal chemistry: BaAl_2_Si_2_O_8_
Locality: Benallt mine, Lleyn, Wales
Source: Marcus Origlieri
Description: Colorless to white elongated prismatic crystals
Measured chemistry: (Ba_0.98_K_0.02_[box]_0.02_)_Î£=1_Al_2.00_Si_2.00_O_8_
Pin_id: M00168
Orientation: Laser parallel to a* (1 0 0). Fiducial mark perpendicular to laser is parallel to b [0 1 0]
Raman shift (cm-1)	intensity
95.659	0
100.61	2490.23
105.559	7101.6
110.504	17097.8
115.447	12601.5
120.387	4721.44
125.324	9678.36
130.259	29490.1
135.191	52611.9
140.12	26981.5
145.046	7678.73
149.97	2673.55
154.891	625.914
159.809	451.852
164.724	1518.98
169.637	1186.49
174.547	1143.64
179.454	786.977
184.359	225.453
189.261	164.594
194.16	1826.65
199.056	3884.56
203.95	489.844
208.841	984.625
213.729	456.711
218.614	949.32
223.497	3943.05
228.377	1545.97
233.254	1681.34
238.129	4747.54
243.001	14319.6
247.87	29572.5
252.737	19584
257.6	16238.9
262.461	8574.95
267.32	3395.42
272.175	2132.52
277.028	1090.22
281.879	1011.91
286.726	318.617
291.571	6.80469
296.413	255.859
301.252	1769.43
306.089	4378.06
310.923	3701.2
315.755	1298.88
320.583	1311.97
325.409	378.359
330.232	92.7891
335.053	335.469
339.871	35.25
344.686	179.242
349.498	5.74219
354.308	679.234
359.115	1085.39
363.92	452.586
368.721	125.07
373.52	233.312
378.317	72.4453
383.111	303.406
387.902	2284.61
392.69	8166.41
397.475	4907.14
402.258	1121.3
407.039	635.562
411.816	1031.77
416.591	982.891
421.364	2961.87
426.133	8240.69
430.9	11986.4
435.664	4515.19
440.426	1677.99
445.185	1116.36
449.941	889.734
454.695	1562.14
459.445	2960.57
464.194	5827.02
468.939	9598.14
473.682	15062.5
478.423	8121.09
483.16	5370.81
487.895	5632.3
492.627	10872.4
497.357	18959.4
502.084	46766
506.808	121416
511.53	128537
516.249	43008.7
520.965	16057.9
525.679	8532.72
530.39	4812.12
535.098	3129.49
539.804	2254.77
544.507	2048.92
549.208	2338.56
553.906	2391.12
558.601	1884.6
563.293	1067.99
567.983	880.477
572.671	940.156
577.355	1244.59
582.037	1821.03
586.717	3659.16
591.393	8658.93
596.067	11496.3
600.739	5671.6
605.408	2215.78
610.074	1225.94
614.737	1527.28
619.398	1556.75
624.057	955.734
628.712	122.445
633.365	65.9688
638.016	246.93
642.664	147.531
647.309	165.039
651.951	36.5469
656.591	22.375
661.229	443.875
665.863	15.7188
670.495	893.258
675.125	1525.81
679.752	2924.09
684.376	5501.37
688.998	3506.09
693.617	1233.7
698.233	592.008
702.847	831.43
707.458	958.859
712.066	1626.16
716.672	1781.03
721.276	1911.13
725.877	2503.45
730.475	2557.01
735.07	1412.94
739.663	2599.15
744.254	4085.7
748.841	9648.62
753.426	13030.5
758.009	6688.16
762.589	3564
767.166	1832.5
771.741	756.781
776.313	826.156
780.883	880.82
785.45	601.492
790.014	102.953
794.576	280.953
799.135	106.086
803.692	78.2031
808.246	32.1562
812.797	77.9062
817.346	0.125
821.893	86.9531
826.436	190.602
830.977	98.0156
835.516	245.773
840.052	126.07
844.585	28.4688
849.116	509.625
853.645	481.969
858.17	997.594
862.693	341.516
867.214	263.758
871.732	248.625
876.247	185.625
880.76	243.734
885.27	310.203
889.778	757.07
894.283	322.391
898.786	295.242
903.286	201.797
907.783	71.7734
912.278	943.844
916.77	618.664
921.26	1104.7
925.747	754.812
930.232	605.781
934.714	983.82
939.193	1635.23
943.67	2016.08
948.145	2456.55
952.617	2449.76
957.086	3356.58
961.553	4156.53
966.017	8934.23
970.479	19617.2
974.938	15289.1
979.394	9379.88
983.848	14807.4
988.3	14936.2
992.749	9161.07
997.195	10725.1
1001.64	6775.02
1006.08	5444.19
1010.52	7342.15
1014.96	9030.8
1019.39	6563.2
1023.82	2888.01
1028.25	1554.49
1032.67	998.25
1037.1	887.656
1041.52	518.109
1045.94	12.6875
1050.35	1574.52
1054.77	2776.45
1059.18	2684.12
1063.59	1735.33
1067.99	1112.33
1072.4	850.781
1076.8	194.359
1081.19	260.836
1085.59	197.312
1089.98	738.047
1094.38	141.5
1098.76	1395.11
1103.15	904.172
1107.53	660.766
1111.91	951.422
1116.29	468.078
1120.67	795.375
1125.04	724.891
1129.41	134.391
1133.78	75.5625
1138.14	504.609
1142.51	523.375
1146.87	36.5156
1151.23	562.109
1155.58	12.4844
1159.93	254.25
1164.29	283.812
1168.63	213.266
1172.98	418.984
1177.32	216.844
1181.66	326.266
1186	11.125
1190.34	379.234
1194.67	78.3438
1199	80.0625
1203.33	340.109
1207.65	18
1211.98	650.031
1216.3	615.047
1220.62	12.125
1224.93	925.312
1229.24	125.578
1233.56	259.984
1237.86	923.516
1242.17	456.203
1246.47	339.953
1250.77	220.625
1255.07	82.5938
1259.37	584.062
1263.66	787.297
1267.95	721.625
1272.24	540.906
1276.53	536.312
1280.81	928.844
1285.09	715.953
1289.37	775.109
1293.64	1111.8
1297.92	793.297
1302.19	248.516
1306.46	726.703
1310.72	321.062
1314.99	1202.02
1319.25	949.453
1323.51	670.797
1327.76	314.719
1332.02	890.109
1336.27	371.359
1340.52	616.969
1344.76	869.609
1349.01	966.375
1353.25	817.719
1357.49	529.328
1361.72	464.141
1365.96	612.844
1370.19	1102.22
1374.42	496.281
1378.64	906.25
1382.87	569.156
1387.09	751.844
1391.31	453.422
1395.53	571.891
1399.74	840.812
1403.95	761.172
1408.16	963.031
1412.37	984.312
1416.58	660.094
1420.78	827.703
1424.98	634.062
1429.18	680.797
1433.37	1217.19
1437.56	1280.5
1441.75	1106.47
1445.94	1274.59
1450.13	998.719
1454.31	1168.83
1458.49	1306.2
1462.67	1069.8
1466.84	1318.06
1471.02	434
1475.19	431.5
1479.36	635.75
1483.52	782.812
1487.68	274.922
1491.85	881.672
1496	294.125
1500.16	406.953
1504.31	276.047
1508.46	264.609
1512.61	94.875
1516.76	255.547
1520.9	1008.16
1525.05	85.2812
1529.18	515.062
1533.32	380.969
1537.45	426.641
1541.59	843.562
1545.72	473.594
1549.84	127.281
1553.97	1034
1558.09	7.10938
1562.21	862.438
1566.33	17.4688
1570.44	434.984
1574.56	154.781
1578.67	0
