Measurement: Raman, 514 nm, depolarized, Raman Data Processed
Mineral: Celsian
Rruff sample: R060152
Ideal chemistry: BaAl_2_Si_2_O_8_
Locality: Benallt mine, Lleyn, Wales
Source: Marcus Origlieri
Description: Colorless to white elongated prismatic crystals
Measured chemistry: (Ba_0.98_K_0.02_[box]_0.02_)_Î£=1_Al_2.00_Si_2.00_O_8_
Pin_id: M00479
Orientation: Laser parallel to -c* (0 0 -1). Fiducial mark perpendicular to laser is parallel to a [1 0 0]
Raman shift (cm-1)	intensity
87.513	0
92.441	2173.97
97.366	11291.6
102.29	24917.9
107.211	46452.7
112.13	47270.1
117.046	17626.7
121.961	11041.5
126.873	12509.1
131.783	19186.8
136.691	21303.8
141.597	8719.55
146.5	1392.9
151.402	622.934
156.301	16.6328
161.198	877.762
166.092	4160.13
170.985	5471.19
175.875	2434.59
180.763	458.41
185.649	566.426
190.532	305.992
195.413	1006.92
200.292	917.988
205.169	417.144
210.044	832.16
214.916	64.6172
219.786	1185.46
224.654	1164.57
229.519	656.867
234.382	1492.86
239.243	5859.97
244.102	14017.8
248.958	16908.7
253.813	10803.5
258.664	7745.72
263.514	3827.37
268.361	1480.58
273.206	873.453
278.049	431.59
282.889	168.363
287.728	19.0391
292.563	466.641
297.397	1186.89
302.228	3030.78
307.057	4852.19
311.884	2819.76
316.708	910.848
321.53	839.356
326.35	64.0039
331.167	246.902
335.982	264.426
340.795	29.8633
345.605	652.84
350.413	2370.34
355.219	5245.49
360.022	5461.83
364.823	1880.73
369.622	288.133
374.418	24.1992
379.212	46.207
384.004	616.832
388.793	3268.28
393.58	4590.16
398.364	1916.26
403.146	407.531
407.926	226.91
412.704	37.1562
417.479	229.297
422.251	2273.64
427.022	5519.76
431.79	4430.52
436.555	1415.31
441.319	513.625
446.079	858.938
450.838	2108.62
455.594	5927.46
460.347	14869.5
465.099	18096.6
469.847	13151.5
474.594	8831.08
479.338	4424.59
484.079	3041.86
488.819	4472.4
493.555	9273.54
498.29	23166.3
503.022	65270.9
507.751	116422
512.478	73168.2
517.203	24846.2
521.925	11612.4
526.645	8436.41
531.363	5675.81
536.078	2577.03
540.79	1649.88
545.5	1354.35
550.208	1866.81
554.913	2916.65
559.616	1149.56
564.316	445.848
569.014	59.8828
573.709	16.3828
578.402	68.2031
583.093	566.676
587.781	2365.68
592.466	4734.22
597.15	3771.3
601.83	1618.94
606.508	945.18
611.184	1596.38
615.857	2961.53
620.528	2567.09
625.196	1272.82
629.862	713.742
634.525	258.852
639.186	97.1758
643.844	9.42188
648.5	163.523
653.153	393.688
657.804	307.668
662.452	14.7109
667.098	231.566
671.742	619.188
676.382	2179.46
681.021	4976.07
685.656	4240.82
690.29	1489.75
694.92	720.012
699.549	353.066
704.174	354.477
708.797	921.43
713.418	1895.59
718.036	2048.05
722.652	1921.61
727.265	2116
731.875	1123.2
736.483	567.523
741.089	1269.98
745.692	3444.53
750.292	5535.82
754.89	4455.78
759.485	1878.44
764.078	961.699
768.668	185.523
773.256	11.4258
777.841	68.5625
782.423	332.68
787.003	128.773
791.581	183.269
796.156	6.30469
800.728	340.562
805.298	59.5117
809.865	34.4062
814.429	136.754
818.991	161.723
823.551	147.461
828.107	148.394
832.662	577.719
837.213	156.285
841.762	642.305
846.309	291.848
850.853	601.906
855.394	872.543
859.933	1146.78
864.469	747.676
869.002	471.262
873.533	587.43
878.062	585.125
882.587	664.547
887.11	376.57
891.631	661.191
896.149	871.457
900.664	940.41
905.177	864.117
909.687	1178.43
914.194	1088.44
918.699	1067.36
923.201	1204.15
927.701	1318.02
932.198	1355.96
936.692	2067.1
941.184	2853.94
945.673	2936.53
950.159	2144.47
954.643	1957.9
959.124	2574.09
963.603	3516.49
968.078	7511
972.552	12114.7
977.022	8955.29
981.49	13406
985.955	17199.2
990.418	10815
994.878	8144.79
999.335	7563.25
1003.79	5661.86
1008.24	5801.4
1012.69	8672.86
1017.14	8711.55
1021.58	4746.37
1026.02	2492.66
1030.46	2148.13
1034.9	1864.53
1039.33	1129.72
1043.76	1245.85
1048.19	2523.58
1052.62	4714.4
1057.04	5333.88
1061.46	3463.76
1065.88	1645.99
1070.29	1005.22
1074.7	1466.64
1079.11	752.578
1083.52	1091.57
1087.92	757.852
1092.32	752.75
1096.72	437.055
1101.12	352.734
1105.51	472.789
1109.9	231.141
1114.29	479.812
1118.67	816.852
1123.06	11.8984
1127.43	471.453
1131.81	104.742
1136.18	47.9688
1140.56	103.484
1144.93	38.2109
1149.29	274.219
1153.65	138.188
1158.02	9.10938
1162.37	266.125
1166.73	322.398
1171.08	164.594
1175.43	117.93
1179.78	447.562
1184.12	46.6641
1188.46	104.188
1192.8	110.25
1197.14	78.5391
1201.47	197.719
1205.8	6.15625
1210.13	2.30469
1214.45	196.219
1218.78	41.875
1223.1	89.4766
1227.41	133.078
1231.73	262.875
1236.04	225.836
1240.35	346.977
1244.65	470.961
1248.96	685.656
1253.26	655.57
1257.55	446.516
1261.85	577.828
1266.14	432.047
1270.43	782.164
1274.72	1015.92
1279	1274.88
1283.28	573.438
1287.56	1009.96
1291.84	961.422
1296.11	708.898
1300.38	1002.66
1304.64	1090.02
1308.91	1200.64
1313.17	924.266
1317.43	799.461
1321.68	1197.11
1325.94	692.758
1330.19	1036.77
1334.44	555.422
1338.68	678.375
1342.92	789.352
1347.16	381.922
1351.4	670.578
1355.63	613.234
1359.86	356.953
1364.09	749.211
1368.32	1025.76
1372.54	145.641
1376.76	476.125
1380.98	458.305
1385.19	129.906
1389.4	660.062
1393.61	359.109
1397.82	90.0938
1402.02	223.484
1406.22	29.5703
1410.42	371.68
1414.61	258.898
1418.8	209.258
1422.99	41.3984
1427.18	259.195
1431.36	341.336
1435.54	447
1439.72	13.3281
1443.89	475.727
1448.07	158.812
1452.24	282.242
1456.4	291
1460.57	20.3984
1464.73	9.89844
1468.88	383.742
1473.04	489.117
1477.19	362.016
1481.34	28.7812
1485.49	258.039
1489.63	398.672
1493.77	67.6094
1497.91	25.5391
1502.05	327.93
1506.18	444.992
1510.31	95.3594
1514.43	12.2578
1518.56	65.6875
1522.68	31.4141
1526.8	228.391
1530.91	513.031
1535.02	221.289
1539.13	322.297
1543.24	300.047
1547.34	525
1551.44	342.008
1555.54	468.25
1559.64	209.234
1563.73	440.344
1567.82	49.4922
1571.91	675.445
1575.99	1.98438
