Measurement: Raman, 514 nm, ccw, Raman Data Processed
Mineral: Celsian
Rruff sample: R060152
Ideal chemistry: BaAl_2_Si_2_O_8_
Locality: Benallt mine, Lleyn, Wales
Source: Marcus Origlieri
Description: Colorless to white elongated prismatic crystals
Measured chemistry: (Ba_0.98_K_0.02_[box]_0.02_)_Î£=1_Al_2.00_Si_2.00_O_8_
Pin_id: M00486
Orientation: Laser parallel to (1 0 1). Fiducial mark perpendicular to laser is parallel to -b [0 -1 0]
Raman shift (cm-1)	intensity
119.865	0
124.809	1.56438
129.75	316.352
134.689	327.49
139.624	90.4468
144.557	186.101
149.487	429.657
154.414	1253.94
159.339	4413.99
164.26	10258.5
169.179	16077.2
174.095	9388.19
179.009	3773.67
183.919	1053.42
188.827	621.764
193.732	809.872
198.634	621.768
203.534	38.7562
208.43	112.373
213.324	185.252
218.215	750.426
223.104	1086.38
227.99	530.904
232.872	1230.98
237.753	2945.17
242.63	6382.51
247.504	8326.69
252.376	6560.52
257.245	4832.41
262.112	3037.81
266.975	1602.11
271.836	977.866
276.694	697.651
281.549	297.238
286.402	368.377
291.252	735.115
296.099	1200.2
300.943	3060.75
305.785	4770.45
310.624	3279.33
315.46	1111.77
320.293	632.895
325.124	370.579
329.952	176.722
334.777	44.0442
339.599	75.506
344.419	259.76
349.236	159.503
354.05	221.643
358.862	96.8436
363.67	6.45187
368.476	228.808
373.28	88.83
378.08	10.1975
382.878	614.314
387.673	1396.74
392.466	1771.46
397.255	601.671
402.042	364.118
406.827	338.092
411.608	551.153
416.387	295.654
421.163	961.218
425.936	2104.11
430.707	2090.94
435.475	1003.87
440.24	392.636
445.003	539.042
449.763	1149
454.52	2891.03
459.274	5954.3
464.026	7791.78
468.775	4832.86
473.522	3513.79
478.265	1317.23
483.006	1246.78
487.744	1185.88
492.48	2951.96
497.213	7784
501.943	18305.8
506.671	31237.3
511.395	24576.9
516.117	9354.58
520.837	3928.59
525.554	2377.61
530.268	1775.28
534.979	797.109
539.688	269.704
544.394	233.507
549.097	316.924
553.798	228.612
558.496	277.936
563.191	212.88
567.884	144.701
572.574	171.552
577.261	155.851
581.945	130.068
586.627	410.662
591.307	62.1308
595.983	299.486
600.657	133.636
605.329	85.8147
609.997	358.901
614.663	211.382
619.326	272.108
623.987	265.874
628.645	392.024
633.3	274.539
637.953	332.834
642.603	185.358
647.25	289.798
651.895	53.3359
656.537	271.072
661.176	48.1512
665.813	27.1939
670.447	432.941
675.079	947.9
679.708	2450.63
684.334	2520.58
688.957	1060.59
693.578	17.3823
698.196	121.792
702.812	56.6104
707.425	674.112
712.035	1548.87
716.643	1369.02
721.248	768.858
725.85	781.855
730.45	677.98
735.047	24.2384
739.642	53.1607
744.234	48.2041
748.823	147.621
753.41	136.362
757.994	215.544
762.575	69.4006
767.154	255.154
771.73	236.328
776.304	315.756
780.875	140.863
785.443	174.264
790.009	143.022
794.572	271.904
799.132	161.549
803.69	215.865
808.245	68.7401
812.798	180.406
817.348	42.0929
821.896	191.412
826.44	13.8027
830.983	16.5411
835.522	28.2753
840.059	244.585
844.594	45.3854
849.125	126.064
853.655	86.2517
858.181	94.2098
862.705	121.142
867.227	185.369
871.746	12.6962
876.262	186.413
880.776	17.4782
885.287	57.1328
889.795	71.5019
894.301	41.3097
898.804	152.935
903.305	159.767
907.803	100.717
912.299	76.2554
916.792	123.487
921.282	202.08
925.77	14.8562
930.255	319.359
934.738	231.155
939.218	392.483
943.695	514.184
948.17	487.02
952.643	644.671
957.112	1026.72
961.58	1250.37
966.044	1168.3
970.506	1858.43
974.966	1777.42
979.423	3177.1
983.877	5549.05
988.329	4257.96
992.778	2177.4
997.225	1873.11
1001.67	3775.84
1006.11	1928.77
1010.55	1239.17
1014.99	570.265
1019.42	510.673
1023.85	571.988
1028.28	697.406
1032.71	980.759
1037.13	499.876
1041.55	477.588
1045.97	360.829
1050.39	628.702
1054.8	791.297
1059.21	1128.84
1063.62	732.963
1068.03	568.102
1072.43	504.526
1076.83	337.363
1081.23	467.499
1085.62	483.657
1090.02	516.567
1094.41	263.41
1098.8	485.837
1103.18	298.321
1107.56	343.066
1111.94	331.61
1116.32	158.886
1120.7	157.804
1125.07	359.995
1129.44	414.162
1133.81	349.424
1138.17	44.2206
1142.54	68.8272
1146.9	233.697
1151.26	246.083
1155.61	297.823
1159.96	111.945
1164.32	277.793
1168.66	62.1224
1173.01	125.776
1177.35	131.811
1181.69	91.9331
1186.03	196.102
1190.36	195.815
1194.7	129.434
1199.03	73.9306
1203.36	6.53319
1207.68	36.2732
1212	50.4177
1216.32	147.742
1220.64	57.174
1224.96	244.696
1229.27	144.121
1233.58	12.6997
1237.89	17.9286
1242.19	36.8664
1246.49	18.876
1250.8	52.1695
1255.09	81.5394
1259.39	116.083
1263.68	157.301
1267.97	5.40277
1272.26	200.989
1276.54	44.6871
1280.83	6.33473
1285.11	236.791
1289.38	43.1209
1293.66	50.3394
1297.93	119.794
1302.2	274.263
1306.47	111.361
1310.74	7.10259
1315	289.23
1319.26	60.1771
1323.52	157.411
1327.78	151.351
1332.03	352.772
1336.28	185.597
1340.53	133.529
1344.77	201.807
1349.02	243.374
1353.26	333.96
1357.49	333.707
1361.73	280.965
1365.96	327.925
1370.19	324.484
1374.42	143.5
1378.65	138.02
1382.87	111.768
1387.09	148.951
1391.31	169.263
1395.53	55.5749
1399.74	107.153
1403.95	121.624
1408.16	168.326
1412.37	84.9526
1416.57	152.558
1420.78	211.621
1424.97	208.538
1429.17	209.742
1433.37	29.3707
1437.56	108.878
1441.75	270.603
1445.93	167.228
1450.12	134.115
1454.3	101.893
1458.48	7.0424
1462.66	176.849
1466.83	193.565
1471	0.13043
1475.17	28.8327
1479.34	55.7062
1483.51	14.5401
1487.67	65.5384
1491.83	2.60314
1495.99	240.75
1500.14	89.385
1504.29	154.719
1508.44	203.29
1512.59	233.307
1516.74	65.9783
1520.88	98.6902
1525.02	233.072
1529.16	245.018
1533.3	31.3774
1537.43	72.3454
1541.56	272.495
1545.69	216.089
1549.82	83.1944
1553.94	140.017
1558.06	195.522
1562.18	379.586
1566.3	309.585
1570.41	595.305
1574.52	394.753
