Measurement: Raman, 514 nm, depolarized, Raman Data Processed
Mineral: Celsian
Rruff sample: R060152
Ideal chemistry: BaAl_2_Si_2_O_8_
Locality: Benallt mine, Lleyn, Wales
Source: Marcus Origlieri
Description: Colorless to white elongated prismatic crystals
Measured chemistry: (Ba_0.98_K_0.02_[box]_0.02_)_Î£=1_Al_2.00_Si_2.00_O_8_
Pin_id: M00288
Orientation: Laser parallel to b* (0 1 0). Fiducial mark perpendicular to laser is parallel to c [0 0 1]
Raman shift (cm-1)	intensity
89.467	0
94.421	444.208
99.373	5041.99
104.322	12918.6
109.268	18407.8
114.212	16403.6
119.152	8127.3
124.09	3849.95
129.026	6436.11
133.958	9503.9
138.888	7339.78
143.815	1323.89
148.739	1034.66
153.661	2298.73
158.58	8589.17
163.496	24554.7
168.409	48028.6
173.32	51389.7
178.228	29604.1
183.133	10473.2
188.035	3349.43
192.935	1746.54
197.832	1701.35
202.727	457.682
207.618	1180.69
212.507	711.692
217.393	3658.59
222.277	6824.51
227.157	4305.71
232.035	3295.04
236.911	8973.33
241.783	21843.9
246.653	35492.1
251.52	32428
256.385	25211.9
261.246	15593.4
266.105	5706.9
270.962	2167.95
275.815	921.866
280.666	399.644
285.514	457.265
290.36	1150.71
295.203	3900.13
300.043	9660.2
304.88	17084
309.715	15016.6
314.547	5210.9
319.376	1208.12
324.203	14.5195
329.027	466.368
333.848	498.786
338.667	198.136
343.482	898.893
348.296	3430.89
353.106	7775.97
357.914	10553.6
362.719	5301.14
367.521	1522.06
372.321	150.232
377.118	79.2598
381.912	823.213
386.704	3075.21
391.493	4920.98
396.279	3161.14
401.063	2444.86
405.844	4764.02
410.622	7709.59
415.398	6086.51
420.171	4767.81
424.941	8113.49
429.709	10753.5
434.473	5938.7
439.236	2728.33
443.995	1905.33
448.752	3009.9
453.506	6317.79
458.258	13742.4
463.007	22819.7
467.753	18772.7
472.497	12162.2
477.238	6647.79
481.976	4183.22
486.712	4411.75
491.445	7616.57
496.175	17059.9
500.902	40683.8
505.627	84192.1
510.35	94193.7
515.069	42226.9
519.786	16524.1
524.501	9677.19
529.213	7041.18
533.922	3882.63
538.628	2215.95
543.332	1486.33
548.033	1194.52
552.731	1549.3
557.427	1187.87
562.121	530.262
566.811	176.447
571.499	110.314
576.184	4.13184
580.867	9.99023
585.547	128.657
590.224	237.958
594.899	490.978
599.571	61.1123
604.241	162.657
608.908	48.3457
613.572	77.9746
618.233	212.554
622.892	69.3076
627.549	84.458
632.202	13.3682
636.853	249.543
641.502	46.9375
646.148	84.0283
650.791	234.715
655.432	358.005
660.069	543.031
664.705	1099.56
669.338	2154.16
673.968	4735.7
678.595	9342.46
683.22	12989.2
687.842	9025.39
692.462	4641.61
697.079	3255.48
701.694	3124.72
706.305	4270.36
710.915	6679.24
715.521	7856.82
720.125	5678.47
724.727	4366.18
729.325	3515.91
733.922	2535.04
738.515	2607.36
743.106	4276.8
747.695	7832.63
752.28	9796.92
756.864	5670.94
761.444	2633.06
766.022	1434.05
770.598	791.218
775.17	649.694
779.741	359.565
784.308	371.521
788.873	226.448
793.436	19.0947
797.996	17.2324
802.553	83.8701
807.108	126.14
811.66	23.0176
816.209	171.215
820.756	93.9609
825.301	23.6895
829.842	93.8701
834.382	87.8897
838.918	36.248
843.452	39.8223
847.984	50.0625
852.513	141.555
857.039	105.935
861.563	64.1211
866.084	5.06152
870.603	46.334
875.119	119.241
879.632	74.5596
884.143	9.2334
888.651	70.8975
893.157	27.7422
897.66	259.371
902.161	181.432
906.659	233.324
911.154	425.062
915.647	394.173
920.138	546.265
924.626	510.272
929.111	671.964
933.594	791.741
938.074	1134.88
942.551	1359.59
947.026	1463.46
951.499	1339.79
955.969	1318.32
960.436	1558.53
964.901	1889.89
969.363	3130.18
973.823	4944.01
978.28	10014.5
982.735	19078.5
987.187	19504.6
991.637	10351.1
996.084	7174.82
1000.53	5484.84
1004.97	5292.82
1009.41	7009.12
1013.85	8425.06
1018.28	6893.94
1022.71	4621.04
1027.14	3710.22
1031.57	3818.96
1035.99	3318.03
1040.41	2316.38
1044.83	2369.52
1049.25	3623.79
1053.66	4824.2
1058.08	4508.15
1062.48	2983.3
1066.89	1808.29
1071.3	1149.15
1075.7	663.051
1080.1	657.558
1084.49	649.019
1088.89	719.649
1093.28	758.688
1097.67	840.107
1102.05	633.98
1106.44	367.319
1110.82	469.026
1115.2	357.389
1119.57	184.543
1123.95	177.619
1128.32	178.75
1132.69	97.6377
1137.05	192.519
1141.42	144.962
1145.78	58.1602
1150.14	3.18457
1154.49	28.9414
1158.85	64.1689
1163.2	5.99609
1167.55	79.7207
1171.89	76.4336
1176.24	43.1494
1180.58	197.227
1184.92	92.8916
1189.25	33.6035
1193.59	149.541
1197.92	157.281
1202.25	53.541
1206.57	169.322
1210.9	70.9219
1215.22	53.4316
1219.54	65.8106
1223.85	126.95
1228.17	25.9688
1232.48	15.123
1236.79	158.697
1241.09	8.0918
1245.4	167.686
1249.7	223.201
1254	189.659
1258.29	149.993
1262.59	256.312
1266.88	179.466
1271.17	191.445
1275.45	199.339
1279.74	108.141
1284.02	79.8262
1288.3	158.435
1292.58	148.881
1296.85	64.1504
1301.12	110.189
1305.39	315.462
1309.66	375.577
1313.92	218.534
1318.18	221.685
1322.44	180.231
1326.7	342.769
1330.95	157.686
1335.2	218.641
1339.45	118.402
1343.7	60.9238
1347.95	181.287
1352.19	69.084
1356.43	102.808
1360.66	159.248
1364.9	135.58
1369.13	288.443
1373.36	97.791
1377.59	214.019
1381.81	106.982
1386.04	42.9404
1390.26	291.983
1394.47	237.217
1398.69	127.928
1402.9	213.545
1407.11	176.743
1411.32	228.547
1415.53	233.288
1419.73	67.3486
1423.93	195.084
1428.13	268.399
1432.32	348.625
1436.52	446.228
1440.71	309.191
1444.89	712.825
1449.08	437.795
1453.26	516.967
1457.44	482.929
1461.62	642.234
1465.8	427.885
1469.97	334.731
1474.14	293.847
1478.31	169.958
1482.48	293.087
1486.64	335.192
1490.81	147.56
1494.96	52.0654
1499.12	194.656
1503.28	19.6523
1507.43	13.6885
1511.58	36.2754
1515.72	76.5469
1519.87	211.786
1524.01	152.357
1528.15	183.356
1532.29	84.7627
1536.42	300.486
1540.55	99.1103
1544.68	176.622
1548.81	113.713
1552.94	112.964
1557.06	76.9385
1561.18	75.1064
1565.3	31.4219
1569.41	157.451
1573.53	184.552
