Measurement: Raman, 514 nm, ccw, Raman Data Processed
Mineral: Celsian
Rruff sample: R060152
Ideal chemistry: BaAl_2_Si_2_O_8_
Locality: Benallt mine, Lleyn, Wales
Source: Marcus Origlieri
Description: Colorless to white elongated prismatic crystals
Measured chemistry: (Ba_0.98_K_0.02_[box]_0.02_)_Î£=1_Al_2.00_Si_2.00_O_8_
Pin_id: M00479
Orientation: Laser parallel to -c* (0 0 -1). Fiducial mark perpendicular to laser is parallel to a [1 0 0]
Raman shift (cm-1)	intensity
92.441	0
97.366	3037
102.29	13410.4
107.211	26310.1
112.13	14734
117.046	4257.44
121.961	7898.27
126.873	3343.53
131.783	1875.87
136.691	848.324
141.597	9.32812
146.5	332.336
151.402	356.59
156.301	348.551
161.198	1797.74
166.092	5707.64
170.985	7262.09
175.875	3479.68
180.763	926.106
185.649	360.07
190.532	148.383
195.413	87.5078
200.292	27.2734
205.169	21.2461
210.044	147.148
214.916	5.41797
219.786	711.91
224.654	864.898
229.519	545.672
234.382	1583.07
239.243	5351.44
244.102	11004.1
248.958	11693.9
253.813	7097.38
258.664	5166.06
263.514	2632.52
268.361	1412.59
273.206	1049.13
278.049	384.25
282.889	450.199
287.728	34.4258
292.563	662.172
297.397	1256.61
302.228	3986.46
307.057	5908.65
311.884	3432.23
316.708	906.121
321.53	348.281
326.35	208.688
331.167	261.305
335.982	485.316
340.795	316.652
345.605	940.996
350.413	3198.05
355.219	6908.75
360.022	5777.76
364.823	1785.48
369.622	619.805
374.418	92.3906
379.212	377.727
384.004	370.691
388.793	2246.42
393.58	3710.18
398.364	1362.85
403.146	32.4688
407.926	62.1719
412.704	157.156
417.479	34.7617
422.251	1190.91
427.022	2467.68
431.79	1778.15
436.555	1154.78
441.319	1503.67
446.079	2581.52
450.838	5569.06
455.594	14753.4
460.347	34335.4
465.099	38005.3
469.847	20294.7
474.594	10899.5
479.338	5472.65
484.079	4040.89
488.819	5573.66
493.555	10576.7
498.29	26907.6
503.022	74895
507.751	130508
512.478	81981.1
517.203	28992.4
521.925	15914.7
526.645	14137
531.363	9488.32
536.078	4431.39
540.79	2794.84
545.5	1714.52
550.208	1695.5
554.913	1221.83
559.616	998.578
564.316	1130.25
569.014	697.531
573.709	566.481
578.402	109.5
583.093	6.37109
587.781	793.438
592.466	1005.72
597.15	255.484
601.83	302.723
606.508	213.684
611.184	203.816
615.857	728.492
620.528	950.707
625.196	1379.16
629.862	942.434
634.525	312.137
639.186	747.504
643.844	322.535
648.5	618.824
653.153	642.062
657.804	851.981
662.452	678.285
667.098	1134.39
671.742	1398.73
676.382	2849.95
681.021	5194.05
685.656	4836.69
690.29	1835.56
694.92	864.031
699.549	415.633
704.174	640.195
708.797	2133.68
713.418	3306.06
718.036	2762.27
722.652	2432.32
727.265	1954.32
731.875	855.164
736.483	319.844
741.089	608.344
745.692	815.094
750.292	1222.69
754.89	875.617
759.485	399.297
764.078	341.781
768.668	118.195
773.256	0.960938
777.841	93.7031
782.423	179.203
787.003	305.586
791.581	257.617
796.156	72.6484
800.728	231.219
805.298	46.3672
809.865	123.75
814.429	148.219
818.991	517.164
823.551	359.25
828.107	555.969
832.662	308.227
837.213	620.57
841.762	585.148
846.309	565.312
850.853	878.461
855.394	699.336
859.933	784.953
864.469	845.305
869.002	313.328
873.533	381.336
878.062	787.305
882.587	541.727
887.11	434.281
891.631	325.719
896.149	539.977
900.664	706.102
905.177	837.75
909.687	1281.91
914.194	1406.37
918.699	1293.07
923.201	1008.74
927.701	1495.86
932.198	1500.1
936.692	1761.79
941.184	1824.51
945.673	2129.74
950.159	1689.67
954.643	1766.76
959.124	1389.28
963.603	1333.44
968.078	1909.9
972.552	3522.8
977.022	7598.12
981.49	17482.9
985.955	21173.9
990.418	11635.3
994.878	8585.99
999.335	6901.09
1003.79	5296.56
1008.24	6092.3
1012.69	9928.66
1017.14	9573.28
1021.58	5374.98
1026.02	3392.3
1030.46	2949.97
1034.9	2700.75
1039.33	1843.77
1043.76	1956.56
1048.19	4245.49
1052.62	7633.89
1057.04	8389.3
1061.46	5038.72
1065.88	2632.66
1070.29	1546.91
1074.7	795.727
1079.11	1017.03
1083.52	726.828
1087.92	489.961
1092.32	420.766
1096.72	54.3516
1101.12	437.516
1105.51	383.969
1109.9	16.4297
1114.29	426.273
1118.67	276.93
1123.06	308.867
1127.43	344.094
1131.81	377.617
1136.18	217.461
1140.56	226.594
1144.93	18.0938
1149.29	16.3281
1153.65	556.336
1158.02	381.219
1162.37	184.398
1166.73	681.68
1171.08	239.961
1175.43	277.219
1179.78	15.7031
1184.12	489.594
1188.46	244.305
1192.8	190.734
1197.14	143.977
1201.47	164.102
1205.8	276.633
1210.13	289.117
1214.45	326.227
1218.78	50.5312
1223.1	480.508
1227.41	343.594
1231.73	50.7969
1236.04	166
1240.35	326.727
1244.65	637.984
1248.96	207.984
1253.26	423.328
1257.55	416.016
1261.85	39.0547
1266.14	695.469
1270.43	538.508
1274.72	1036.06
1279	804.75
1283.28	283.367
1287.56	370.945
1291.84	542.023
1296.11	496.648
1300.38	336.961
1304.64	430.664
1308.91	348.289
1313.17	673.477
1317.43	866.047
1321.68	667.086
1325.94	333.305
1330.19	575.586
1334.44	463.008
1338.68	118.961
1342.92	410.5
1347.16	450.414
1351.4	924.961
1355.63	377.078
1359.86	589.812
1364.09	780.68
1368.32	334.266
1372.54	764.148
1376.76	751.719
1380.98	293.578
1385.19	559.945
1389.4	486.648
1393.61	386.383
1397.82	175.062
1402.02	454
1406.22	312.258
1410.42	405.141
1414.61	307.164
1418.8	289.359
1422.99	384.539
1427.18	567.062
1431.36	656.5
1435.54	405.586
1439.72	56.5703
1443.89	610.297
1448.07	251.484
1452.24	57.3984
1456.4	358
1460.57	309.555
1464.73	97.9766
1468.88	67.0234
1473.04	30.6562
1477.19	228.414
1481.34	449.82
1485.49	516.352
1489.63	646.508
1493.77	369.797
1497.91	515.477
1502.05	585.922
1506.18	554.664
1510.31	141.992
1514.43	666.102
1518.56	321.078
1522.68	632.898
1526.8	727.555
1530.91	661.57
1535.02	588.133
1539.13	361.117
1543.24	56.0312
1547.34	390.727
1551.44	478.805
1555.54	600.523
1559.64	108.961
1563.73	661.039
1567.82	407.227
1571.91	555.672
1575.99	239.641
