Measurement: Raman, 514 nm, ccw, Raman Data Processed
Mineral: Celsian
Rruff sample: R060152
Ideal chemistry: BaAl_2_Si_2_O_8_
Locality: Benallt mine, Lleyn, Wales
Source: Marcus Origlieri
Description: Colorless to white elongated prismatic crystals
Measured chemistry: (Ba_0.98_K_0.02_[box]_0.02_)_Î£=1_Al_2.00_Si_2.00_O_8_
Pin_id: M00486
Orientation: Laser parallel to (1 0 1). Fiducial mark perpendicular to laser is parallel to -b [0 -1 0]
Raman shift (cm-1)	intensity
119.865	0
124.809	370.277
129.75	2438.97
134.689	3826.29
139.624	1926.69
144.557	272.389
149.487	26.6869
154.414	356.117
159.339	2308.96
164.26	5207.44
169.179	6948.32
174.095	4216.24
179.009	1534.86
183.919	743.21
188.827	1645.98
193.732	3373.93
198.634	3850.11
203.534	913.018
208.43	15.1508
213.324	73.0793
218.215	349.846
223.104	633.527
227.99	430.724
232.872	1026.32
237.753	2642.07
242.63	5448.74
247.504	7538
252.376	5776.88
257.245	4214.52
262.112	2294.52
266.975	1197.54
271.836	894.981
276.694	506.273
281.549	377.289
286.402	388.708
291.252	318.551
296.099	967.815
300.943	1806.29
305.785	2832.21
310.624	1774.12
315.46	535.831
320.293	38.0795
325.124	21.839
329.952	45.0796
334.777	68.1664
339.599	44.4891
344.419	185.078
349.236	539.584
354.05	660.003
358.862	742.36
363.67	451.271
368.476	5.82273
373.28	186.598
378.08	66.8668
382.878	422.096
387.673	1101.31
392.466	1412.14
397.255	524.165
402.042	270.41
406.827	38.0297
411.608	149.383
416.387	428.222
421.163	691.756
425.936	1856.95
430.707	2218.57
435.475	1023.09
440.24	132.127
445.003	112.727
449.763	205.799
454.52	1151.82
459.274	2456.68
464.026	3901.56
468.775	3650.05
473.522	2644.84
478.265	1265
483.006	971.379
487.744	1640
492.48	3102.16
497.213	7883.94
501.943	18304.2
506.671	30621
511.395	25204.4
516.117	9256.89
520.837	3922.71
525.554	2107.58
530.268	1551.4
534.979	646.482
539.688	472.732
544.394	561.916
549.097	1394.25
553.798	2204.66
558.496	1373.88
563.191	661.917
567.884	174.139
572.574	94.819
577.261	31.3868
581.945	436.434
586.627	506.068
591.307	568.431
595.983	734.921
600.657	420.019
605.329	307.246
609.997	23.4017
614.663	67.5084
619.326	111.61
623.987	62.4686
628.645	56.5243
633.3	56.9176
637.953	52.3835
642.603	41.9871
647.25	49.2115
651.895	19.3765
656.537	60.4932
661.176	73.8211
665.813	31.8407
670.447	162.028
675.079	746.693
679.708	1987.65
684.334	1985.32
688.957	1094.76
693.578	397.024
698.196	209.049
702.812	0.755585
707.425	793.56
712.035	909.681
716.643	985.946
721.248	952.645
725.85	889.704
730.45	754.767
735.047	556.647
739.642	491.815
744.234	1108.25
748.823	1182.97
753.41	1134.3
757.994	266.476
762.575	113.66
767.154	53.9357
771.73	111.428
776.304	24.6765
780.875	125.499
785.443	27.4451
790.009	33.8025
794.572	217.425
799.132	165.915
803.69	285.339
808.245	197.578
812.798	303.812
817.348	59.1019
821.896	139.69
826.44	216.341
830.983	22.6584
835.522	204.352
840.059	201.605
844.594	13.5265
849.125	136.499
853.655	118.858
858.181	93.244
862.705	23.8361
867.227	165.848
871.746	132.514
876.262	202.175
880.776	194.243
885.287	223.769
889.795	304.591
894.301	249.808
898.804	23.415
903.305	29.0855
907.803	5.45157
912.299	144.234
916.792	78.9615
921.282	202.442
925.77	148.413
930.255	216.003
934.738	23.1027
939.218	146.959
943.695	397.187
948.17	460.411
952.643	982.593
957.112	1403.01
961.58	1722.19
966.044	2156.91
970.506	2747.13
974.966	2141.81
979.423	3009.57
983.877	4252.62
988.329	3664.85
992.778	1842.47
997.225	1758.47
1001.67	2148
1006.11	1541.75
1010.55	1771.31
1014.99	2000.25
1019.42	1474.74
1023.85	325.31
1028.28	86.8282
1032.71	219
1037.13	39.9865
1041.55	113.729
1045.97	307.095
1050.39	614.063
1054.8	578.851
1059.21	503.426
1063.62	411.775
1068.03	362.624
1072.43	233.824
1076.83	11.4786
1081.23	110.716
1085.62	203.096
1090.02	20.5526
1094.41	212.108
1098.8	213.253
1103.18	25.0646
1107.56	145.478
1111.94	120.271
1116.32	84.6679
1120.7	1.58989
1125.07	126.305
1129.44	70.6354
1133.81	114.255
1138.17	76.5246
1142.54	75.1494
1146.9	119.885
1151.26	201.943
1155.61	241.956
1159.96	136.973
1164.32	11.2861
1168.66	223.56
1173.01	59.6675
1177.35	7.68403
1181.69	100.623
1186.03	84.1643
1190.36	1.79316
1194.7	11.9754
1199.03	12.0864
1203.36	59.4287
1207.68	154.158
1212	184.016
1216.32	240.534
1220.64	123.696
1224.96	184.317
1229.27	212.114
1233.58	196.523
1237.89	18.5031
1242.19	236.865
1246.49	88.323
1250.8	214.992
1255.09	248.244
1259.39	213.891
1263.68	174.916
1267.97	66.9915
1272.26	228.023
1276.54	9.18349
1280.83	49.5146
1285.11	224.216
1289.38	12.51
1293.66	116.236
1297.93	188.042
1302.2	10.7554
1306.47	34.9535
1310.74	126.513
1315	211.393
1319.26	58.2283
1323.52	47.2524
1327.78	46.2745
1332.03	46.1008
1336.28	103.77
1340.53	176.153
1344.77	109.991
1349.02	51.7841
1353.26	220.609
1357.49	12.8956
1361.73	187.542
1365.96	25.2644
1370.19	142.812
1374.42	166.322
1378.65	189.686
1382.87	247.037
1387.09	74.1671
1391.31	2.68333
1395.53	91.0715
1399.74	5.13293
1403.95	263.892
1408.16	53.3393
1412.37	147.581
1416.57	18.2659
1420.78	251.537
1424.97	224.847
1429.17	11.3706
1433.37	148.538
1437.56	28.7659
1441.75	33.844
1445.93	162.062
1450.12	2.58953
1454.3	261.58
1458.48	81.5675
1462.66	141
1466.83	85.4953
1471	5.08848
1475.17	76.9694
1479.34	81.5977
1483.51	268.345
1487.67	5.91948
1491.83	8.45998
1495.99	94.0485
1500.14	190.299
1504.29	17.4431
1508.44	98.7946
1512.59	148.842
1516.74	79.2433
1520.88	265.383
1525.02	0.020974
1529.16	52.2858
1533.3	127.238
1537.43	9.93982
1541.56	4.92746
1545.69	98.3162
1549.82	7.76153
1553.94	608.779
1558.06	222.508
1562.18	299.291
1566.3	2.98962
1570.41	214.292
1574.52	419.663
