Measurement: Raman, 514 nm, depolarized, Raman Data Processed
Mineral: Celsian
Rruff sample: R060152
Ideal chemistry: BaAl_2_Si_2_O_8_
Locality: Benallt mine, Lleyn, Wales
Source: Marcus Origlieri
Description: Colorless to white elongated prismatic crystals
Measured chemistry: (Ba_0.98_K_0.02_[box]_0.02_)_Î£=1_Al_2.00_Si_2.00_O_8_
Pin_id: M00168
Orientation: Laser parallel to a* (1 0 0). Fiducial mark perpendicular to laser is parallel to b [0 1 0]
Raman shift (cm-1)	intensity
94.421	0
99.373	8593.77
104.322	13374
109.268	41556.6
114.212	21853.5
119.152	5007.94
124.09	2229.91
129.026	8753.09
133.958	15132.4
138.888	13205.7
143.815	2421.91
148.739	28.4922
153.661	248.598
158.58	122.438
163.496	2128.43
168.409	5797.73
173.32	5587.19
178.228	1506.51
183.133	120.102
188.035	329.047
192.935	702.367
197.832	2855.82
202.727	928.25
207.618	620.098
212.507	437.68
217.393	245.344
222.277	825.465
227.157	582.711
232.035	349.195
236.911	1453.73
241.783	5438.38
246.653	13838.5
251.52	12117.9
256.385	8430.85
261.246	5558.31
266.105	2537.48
270.962	1071.47
275.815	871.086
280.666	592.383
285.514	253.262
290.36	119.406
295.203	339.285
300.043	1177.16
304.88	3307.19
309.715	4555.68
314.547	1387.09
319.376	767.766
324.203	431.59
329.027	135.273
333.848	288.633
338.667	51.418
343.482	137.699
348.296	732.598
353.106	2512.41
357.914	5051.66
362.719	3780.11
367.521	843.773
372.321	106.766
377.118	207.188
381.912	199.644
386.704	416.25
391.493	2656.41
396.279	4036.19
401.063	952.269
405.844	48.5781
410.622	249.121
415.398	464.019
420.171	689.519
424.941	2722.16
429.709	6032.46
434.473	3129.97
439.236	1208.99
443.995	659.863
448.752	1363.47
453.506	2738.96
458.258	6568.95
463.007	15279.2
467.753	14702.1
472.497	11292
477.238	6520.68
481.976	3815.45
486.712	3221.05
491.445	4951.96
496.175	9952.16
500.902	24003.3
505.627	63084.3
510.35	105543
515.069	43596.8
519.786	15340.9
524.501	8423.66
529.213	7034.03
533.922	4204.29
538.628	2222.32
543.332	1497.47
548.033	1692.57
552.731	2925.64
557.427	3746.86
562.121	1547.32
566.811	483.695
571.499	700.148
576.184	436.758
580.867	615.934
585.547	896.492
590.224	2452.98
594.899	4632.46
599.571	2643.01
604.241	1186.89
608.908	1102.21
613.572	1692.05
618.233	2710.76
622.892	1368.64
627.549	1136.01
632.202	214.762
636.853	64.1172
641.502	292.215
646.148	407.094
650.791	0.375
655.432	2.49609
660.069	128.664
664.705	100.844
669.338	320.016
673.968	707.352
678.595	1918.09
683.22	4173.63
687.842	2681.49
692.462	980.242
697.079	670.113
701.694	440.82
706.305	437.5
710.915	1501.35
715.521	1970.62
720.125	1554.04
724.727	1930.86
729.325	2001.09
733.922	816.422
738.515	1144.19
743.106	1600.62
747.695	3208.59
752.28	5695.16
756.864	3666.77
761.444	1591.57
766.022	1125.89
770.598	551.078
775.17	353.555
779.741	541.164
784.308	396.504
788.873	232.457
793.436	159.676
797.996	176.555
802.553	42.9766
807.108	48.918
811.66	75.9453
816.209	101.238
820.756	134.34
825.301	422.465
829.842	184.734
834.382	273.113
838.918	54.7422
843.452	432.301
847.984	308.504
852.513	383.023
857.039	373.941
861.563	526.305
866.084	231.125
870.603	93.4102
875.119	113.125
879.632	10.9062
884.143	267.137
888.651	43.2969
893.157	172.633
897.66	290.977
902.161	264.762
906.659	577.203
911.154	392.258
915.647	559.031
920.138	489.133
924.626	433.789
929.111	704.602
933.594	1040.12
938.074	1186.85
942.551	2011.78
947.026	2108.45
951.499	1832.98
955.969	1506.61
960.436	2385.85
964.901	3063.63
969.363	6620.56
973.823	8945.74
978.28	6830.62
982.735	11561.8
987.187	13783
991.637	7667.44
996.084	6693.94
1000.53	5916.48
1004.97	4578.85
1009.41	5392.6
1013.85	7748.3
1018.28	6849.23
1022.71	3470.05
1027.14	2391.44
1031.57	1761.35
1035.99	1465.02
1040.41	1343.65
1044.83	1049.52
1049.25	1894.81
1053.66	3847.59
1058.08	4481.14
1062.48	2805.49
1066.89	1575.75
1071.3	966.039
1075.7	740.172
1080.1	956.961
1084.49	636.133
1088.89	496.672
1093.28	719.484
1097.67	691.508
1102.05	873.789
1106.44	806.984
1110.82	710.281
1115.2	359.016
1119.57	822.453
1123.95	1012.35
1128.32	549.055
1132.69	455.289
1137.05	144.617
1141.42	292.289
1145.78	99.3359
1150.14	87.6797
1154.49	490.25
1158.85	138
1163.2	351.539
1167.55	81.9688
1171.89	241.102
1176.24	23.3203
1180.58	231.445
1184.92	146.922
1189.25	341.945
1193.59	311.242
1197.92	367.258
1202.25	161.141
1206.57	477.883
1210.9	410.594
1215.22	137.297
1219.54	91.0703
1223.85	271.922
1228.17	144.773
1232.48	96.3359
1236.79	39.3516
1241.09	246.93
1245.4	184.5
1249.7	308.883
1254	328.773
1258.29	427.523
1262.59	325.477
1266.88	579.18
1271.17	449.258
1275.45	508.031
1279.74	345.281
1284.02	321.578
1288.3	326.188
1292.58	633.57
1296.85	161.359
1301.12	514.117
1305.39	256.875
1309.66	652.336
1313.92	160.047
1318.18	209.695
1322.44	1023.17
1326.7	515.453
1330.95	209.031
1335.2	384.375
1339.45	229.836
1343.7	535.492
1347.95	357.32
1352.19	402.352
1356.43	299.602
1360.66	300.328
1364.9	307.031
1369.13	488.258
1373.36	179.695
1377.59	333.195
1381.81	108.641
1386.04	415.492
1390.26	679.508
1394.47	446.344
1398.69	313.43
1402.9	603.969
1407.11	386.992
1411.32	632.422
1415.53	642.359
1419.73	648.852
1423.93	574.531
1428.13	603.625
1432.32	591.086
1436.52	599
1440.71	852.023
1444.89	868.883
1449.08	862.969
1453.26	994.078
1457.44	586.258
1461.62	582.461
1465.8	895.203
1469.97	474.312
1474.14	435.43
1478.31	622.352
1482.48	871.898
1486.64	600.672
1490.81	165.039
1494.96	95
1499.12	197.625
1503.28	201.75
1507.43	216.719
1511.58	248.828
1515.72	661.992
1519.87	78.8906
1524.01	539.156
1528.15	898.891
1532.29	920.125
1536.42	692.023
1540.55	295.234
1544.68	841.844
1548.81	1360.1
1552.94	275.852
1557.06	498.648
1561.18	402.695
1565.3	538.672
1569.41	568.18
1573.53	291.109
1577.64	23.5938
