Measurement: Raman, 514 nm, ccw, Raman Data Processed
Mineral: Celsian
Rruff sample: R060152
Ideal chemistry: BaAl_2_Si_2_O_8_
Locality: Benallt mine, Lleyn, Wales
Source: Marcus Origlieri
Description: Colorless to white elongated prismatic crystals
Measured chemistry: (Ba_0.98_K_0.02_[box]_0.02_)_Î£=1_Al_2.00_Si_2.00_O_8_
Pin_id: M00168
Orientation: Laser parallel to a* (1 0 0). Fiducial mark perpendicular to laser is parallel to b [0 1 0]
Raman shift (cm-1)	intensity
73.346	0
78.309	4519.29
83.27	2063.01
88.228	165.324
93.183	4337.76
98.135	15127.7
103.085	26697.3
108.032	61634.2
112.976	52143.4
117.917	17098.1
122.856	8714.52
127.792	10327.4
132.725	13815.2
137.656	15332
142.583	6048.78
147.508	3662.92
152.431	2038.29
157.35	2191.77
162.267	3493.14
167.181	7145.07
172.092	9904.13
177.001	4125.5
181.907	1938.93
186.81	1233.99
191.711	1916.94
196.608	4763.95
201.503	3477.46
206.395	1062.01
211.285	652.324
216.172	895.481
221.056	1307.98
225.937	1228.5
230.816	466.769
235.692	1093.33
240.565	3461.51
245.436	9374.68
250.304	11223.4
255.169	6463.72
260.031	4891.76
264.891	2321.45
269.748	1123.45
274.602	350.059
279.454	337.379
284.303	239.82
289.149	104.113
293.992	92.5508
298.833	743.617
303.671	1837.98
308.507	3766.56
313.339	1572.73
318.169	351.356
322.996	67.793
327.821	432.652
332.643	471.824
337.462	467.898
342.279	161.191
347.092	158.625
351.904	1764.59
356.712	5194.12
361.518	5993.36
366.321	1971.77
371.121	520.273
375.919	11.2422
380.714	195.168
385.506	466.277
390.296	1567.64
395.083	3018.93
399.867	920.922
404.649	318.434
409.428	198.629
414.204	30.3906
418.978	420.75
423.749	1553.27
428.517	4610.75
433.282	3096.4
438.045	1275.19
442.806	668.586
447.563	937.289
452.318	1450.92
457.07	4034.47
461.82	10292.9
466.567	12959.7
471.311	8926.89
476.053	5854.46
480.792	2641.36
485.528	2210.08
490.262	3205.64
494.992	5987.47
499.721	14555.4
504.446	39461.8
509.169	83585.6
513.89	44688.9
518.607	15120.3
523.322	7505.58
528.035	6144.44
532.745	3999.39
537.452	2121.61
542.156	1810.26
546.858	1786.6
551.557	3891.21
556.254	5289.41
560.947	2413.8
565.639	1256.87
570.327	472.117
575.013	486.508
579.697	452.383
584.377	552.719
589.055	1141.04
593.731	2806.25
598.403	2627.16
603.074	969.758
607.741	1045.06
612.406	2227.59
617.068	4186.44
621.728	2906.91
626.385	1241.05
631.039	360.672
635.691	149.09
640.34	3.02734
644.987	121.085
649.63	55.8008
654.272	104.32
658.91	170.176
663.546	50.2188
668.18	196.742
672.81	302.488
677.439	1201.32
682.064	3106.43
686.687	2982.53
691.307	1547.57
695.925	571.391
700.54	221.039
705.153	508.586
709.763	711.938
714.37	1364.05
718.974	1352.32
723.577	1368.1
728.176	1416.24
732.773	1345.82
737.367	483.894
741.959	1526.69
746.548	2119.15
751.134	3824.8
755.718	3202.98
760.299	1539.53
764.878	1141.27
769.454	235.25
774.028	373.871
778.598	352.668
783.167	258.519
787.732	359.434
792.295	35.6289
796.856	150.367
801.414	26.7695
805.969	33.9297
810.522	180.516
815.072	243.746
819.62	81.7891
824.165	288.594
828.707	42.9766
833.247	118.461
837.784	129.555
842.319	131.844
846.851	265.453
851.381	495.887
855.908	152.168
860.432	69.7227
864.954	52.5586
869.473	287.688
873.99	528.25
878.504	252.18
883.015	361.516
887.524	249.309
892.031	253.336
896.535	3.58984
901.036	16.8867
905.535	519.176
910.031	540.984
914.524	66.8047
919.015	298.547
923.504	261.383
927.99	791.762
932.473	761.219
936.954	1848.88
941.432	1639.91
945.908	2299.76
950.381	1518.89
954.852	1260.1
959.32	1281.69
963.785	2324.69
968.248	4842.05
972.708	7390.45
977.166	5705.29
981.622	8977.4
986.074	12237.6
990.525	7471.88
994.972	6130.41
999.417	5627.28
1003.86	3737.77
1008.3	4001.56
1012.74	6446.88
1017.17	6569.44
1021.61	3582.39
1026.04	1856.74
1030.46	1851.91
1034.89	1304.51
1039.31	989.594
1043.73	775.484
1048.15	1451.18
1052.56	2654.73
1056.97	3192.91
1061.38	2482.47
1065.79	1373.88
1070.19	921.648
1074.6	755.062
1079	737.094
1083.39	443.672
1087.79	350.227
1092.18	692.125
1096.57	1043.91
1100.96	702.305
1105.34	666.844
1109.72	485.484
1114.1	543.305
1118.48	429.656
1122.85	690.211
1127.22	416.844
1131.6	0.710938
1135.96	53.7266
1140.33	197.531
1144.69	108.414
1149.05	149.281
1153.4	20.8203
1157.76	41.6837
1162.11	59.3203
1166.46	246.523
1170.81	82.8125
1175.15	393.758
1179.49	39.8672
1183.83	573.328
1188.17	28.75
1192.5	112.086
1196.84	284.281
1201.16	118.383
1205.49	296.852
1209.82	156.164
1214.14	139.602
1218.46	67.2656
1222.77	263.93
1227.09	301.594
1231.4	490.844
1235.71	413.609
1240.02	373.406
1244.32	218.234
1248.62	163.078
1252.92	81.9453
1257.22	398.203
1261.51	681.18
1265.81	179.109
1270.1	108.141
1274.38	493.203
1278.67	445.633
1282.95	729.594
1287.23	504.281
1291.51	279.539
1295.78	524.461
1300.05	294.641
1304.32	539.969
1308.59	298.195
1312.86	400.586
1317.12	709.469
1321.38	252.859
1325.63	118.711
1329.89	135.594
1334.14	202.305
1338.39	438.273
1342.64	520.539
1346.88	46.6484
1351.13	503.906
1355.37	516.008
1359.61	365.961
1363.84	81.5781
1368.07	142.375
1372.3	667.32
1376.53	422.516
1380.76	117.906
1384.98	548.016
1389.2	489.336
1393.42	368.305
1397.64	526.016
1401.85	957.75
1406.06	614.711
1410.27	650.055
1414.47	437.164
1418.68	1127.93
1422.88	680.625
1427.08	815.43
1431.27	724.898
1435.47	480.594
1439.66	609.398
1443.85	184.312
1448.03	711.305
1452.22	734.742
1456.4	613.602
1460.58	799.492
1464.76	105.047
1468.93	324.031
1473.1	419.133
1477.27	306.43
1481.44	362.602
1485.6	629.562
1489.77	447.047
1493.92	610.016
1498.08	446.5
1502.24	649.531
1506.39	120.234
1510.54	15.4297
1514.69	108.383
1518.83	529
1522.97	129.664
1527.12	590.266
1531.25	735.312
1535.39	263.844
1539.52	777.078
1543.65	535.234
1547.78	752.031
1551.91	625.188
1556.03	631.281
1560.15	553.242
1564.27	502.438
1568.39	492.375
1572.5	260.375
1576.61	1.57031
