Measurement: Raman, 514 nm, ccw, Raman Data RAW
Mineral: Celsian
Rruff sample: R060152
Ideal chemistry: BaAl_2_Si_2_O_8_
Locality: Benallt mine, Lleyn, Wales
Source: Marcus Origlieri
Description: Colorless to white elongated prismatic crystals
Measured chemistry: (Ba_0.98_K_0.02_[box]_0.02_)_Î£=1_Al_2.00_Si_2.00_O_8_
Pin_id: M00288
Orientation: Laser parallel to b* (0 1 0). Fiducial mark perpendicular to laser is parallel to c [0 0 1]
Raman shift (cm-1)	intensity
89.467	8793
94.421	11488
99.373	17630
104.322	25676
109.268	31522
114.212	29403
119.152	19575
124.09	13717
129.026	14393
133.958	15829
138.888	14188
143.815	10621
148.739	10178
153.661	11604
158.58	17733
163.496	34231
168.409	55925
173.32	51874
178.228	30261
183.133	16564
188.035	11466.1
192.935	10452
197.832	10472
202.727	8803
207.618	7951
212.507	8433
217.393	10133
222.277	11801
227.157	10304
232.035	9829
236.911	13227
241.783	21340
246.653	29170
251.52	26575
256.385	21990
261.246	16211
266.105	10975
270.962	8865
275.815	8081.05
280.666	7694.38
285.514	7675.26
290.36	8166
295.203	9685
300.043	13374
304.88	18123
309.715	16557
314.547	10690
319.376	8040
324.203	7220
329.027	6945
333.848	6891.06
338.667	7049
343.482	7672.92
348.296	9145
353.106	12147
357.914	13838
362.719	10553
367.521	8289
372.321	7478
377.118	7452
381.912	8616
386.704	10957
391.493	13170
396.279	10588
401.063	8984
405.844	9916
410.622	11544
415.398	10699
420.171	10229
424.941	12730
429.709	14434
434.473	11255
439.236	9025
443.995	8617
448.752	9361
453.506	11693
458.258	17057
463.007	23238
467.753	20374
472.497	15707
477.238	12036
481.976	10322
486.712	10784
491.445	12539
496.175	18820
500.902	34782
505.627	63653
510.35	69929
515.069	36257
519.786	19094
524.501	14621
529.213	12860
533.922	10745
538.628	9422
543.332	9114
548.033	8858
552.731	9309
557.427	8992
562.121	8561.35
566.811	8247
571.499	8119
576.184	8057
580.867	8193
585.547	8226
590.224	8324
594.899	8407
599.571	8061
604.241	8024
608.908	8150
613.572	8391
618.233	8559
622.892	8428
627.549	8370
632.202	8210
636.853	8226
641.502	8222
646.148	8338
650.791	8438
655.432	8522
660.069	8714
664.705	8871
669.338	9722
673.968	11286
678.595	14385
683.22	16199
687.842	13868
692.462	11173
697.079	10578
701.694	10356
706.305	10962
710.915	12517
715.521	13175
720.125	11873
724.727	11112
729.325	10663
733.922	10014
738.515	10098
743.106	10839
747.695	13290
752.28	14479
756.864	12666.1
761.444	10192
766.022	9614.9
770.598	9127
775.17	9174
779.741	9017
784.308	8910
788.873	8939
793.436	8862
797.996	8917
802.553	9090
807.108	8898
811.66	9093
816.209	9002
820.756	9049
825.301	9213
829.842	9012
834.382	9047
838.918	9223
843.452	9125
847.984	9130
852.513	9259
857.039	9309
861.563	9359
866.084	9343
870.603	9331
875.119	9492
879.632	9466
884.143	9467
888.651	9527
893.157	9510
897.66	9561
902.161	9692
906.659	9831
911.154	9828
915.647	9964
920.138	9872
924.626	10122
929.111	10247
933.594	10503
938.074	10727
942.551	10873
947.026	11034.8
951.499	10984.7
955.969	10992
960.436	11042
964.901	11506
969.363	12346
973.823	13592
978.28	17364
982.735	24206
987.187	25647
991.637	17498
996.084	15605
1000.53	14359
1004.97	14387
1009.41	15554
1013.85	16815
1018.28	15712
1022.71	13856
1027.14	12992
1031.57	13226
1035.99	12919
1040.41	12238
1044.83	12318
1049.25	13445
1053.66	14601
1058.08	14164
1062.48	13075
1066.89	12270
1071.3	11539
1075.7	11383
1080.1	11424
1084.49	11308
1088.89	11277
1093.28	11490
1097.67	11483
1102.05	11421
1106.44	11304
1110.82	11247
1115.2	11252.6
1119.57	11277.6
1123.95	11139
1128.32	11255
1132.69	11239
1137.05	11168.1
1141.42	11198
1145.78	11195
1150.14	11250
1154.49	11246
1158.85	11320
1163.2	11250
1167.55	11291
1171.89	11306
1176.24	11314
1180.58	11380
1184.92	11395
1189.25	11321
1193.59	11446
1197.92	11493
1202.25	11461
1206.57	11468
1210.9	11624
1215.22	11550.8
1219.54	11682.6
1223.85	11729.8
1228.17	11780
1232.48	11695
1236.79	11750
1241.09	11883
1245.4	11687
1249.7	11913
1254	11883.4
1258.29	11967
1262.59	12041
1266.88	12044.2
1271.17	12029.6
1275.45	12078.2
1279.74	12106.4
1284.02	12183.1
1288.3	12185.8
1292.58	12192.8
1296.85	12265
1301.12	12331
1305.39	12283
1309.66	12305.6
1313.92	12382
1318.18	12553
1322.44	12689
1326.7	12378
1330.95	12521
1335.2	12497
1339.45	12367
1343.7	12747
1347.95	12526
1352.19	12615
1356.43	12724
1360.66	12654
1364.9	12692
1369.13	12808
1373.36	12723.2
1377.59	12886
1381.81	12868
1386.04	12880
1390.26	13010
1394.47	12868
1398.69	12893
1402.9	13084
1407.11	13020
1411.32	13236
1415.53	13225
1419.73	13076.4
1423.93	13314
1428.13	13198
1432.32	13145
1436.52	13230
1440.71	13520
1444.89	13816
1449.08	13633
1453.26	13733
1457.44	13792
1461.62	13580.5
1465.8	13682
1469.97	13611
1474.14	13594
1478.31	13691
1482.48	13692
1486.64	13741
1490.81	13638
1494.96	13678
1499.12	13752
1503.28	13751
1507.43	13729
1511.58	13836
1515.72	13851
1519.87	13819
1524.01	13747
1528.15	14036
1532.29	13817
1536.42	13992
1540.55	14015
1544.68	14052
1548.81	14075
1552.94	14286
1557.06	14058
1561.18	14193
1565.3	14212
1569.41	14117
1573.53	14119
