Measurement: Raman, 514 nm, ccw, Raman Data Processed
Mineral: Celsian
Rruff sample: R060152
Ideal chemistry: BaAl_2_Si_2_O_8_
Locality: Benallt mine, Lleyn, Wales
Source: Marcus Origlieri
Description: Colorless to white elongated prismatic crystals
Measured chemistry: (Ba_0.98_K_0.02_[box]_0.02_)_Î£=1_Al_2.00_Si_2.00_O_8_
Pin_id: M00168
Orientation: Laser parallel to a* (1 0 0). Fiducial mark perpendicular to laser is parallel to b [0 1 0]
Raman shift (cm-1)	intensity
96.897	0
101.848	4916.87
106.795	23378.5
111.74	16295.2
116.682	6219.83
121.622	2092.42
126.558	1535.74
131.492	2357.59
136.423	1045.25
141.352	30.6094
146.277	518.027
151.2	421.176
156.121	362.629
161.038	2075.84
165.953	6562.81
170.865	14706.6
175.774	5979.52
180.681	1397.66
185.585	295.269
190.486	177.207
195.384	458.371
200.28	485.938
205.173	75.6992
210.063	394.016
214.95	205.164
219.835	29.457
224.717	356.617
229.597	263.457
234.473	631.777
239.347	2862.14
244.218	8741.98
249.087	11738.7
253.953	7174.19
258.816	5956.53
263.676	2933.54
268.534	1400.93
273.389	676.746
278.241	436.848
283.091	485.227
287.938	405.078
292.782	252.391
297.623	877.543
302.462	2686.6
307.298	6635.95
312.131	4115.23
316.962	750.559
321.79	343.859
326.615	116.098
331.438	43.9805
336.258	65.0781
341.075	76.125
345.889	348.891
350.701	2263.24
355.51	6306.88
360.317	7302.06
365.12	2403.55
369.921	495.223
374.72	82.9766
379.515	249.992
384.309	175.367
389.099	945.043
393.886	2994.46
398.671	1586.99
403.454	225.574
408.233	251.332
413.01	210.387
417.785	469.066
422.556	1115.55
427.325	2982.86
432.091	3363
436.855	1460.79
441.616	1477.82
446.374	2181.88
451.13	3981.02
455.883	9353.23
460.633	23244.5
465.38	39107.9
470.125	21176.6
474.868	12096.6
479.607	5663.35
484.344	3899.68
489.078	4687.27
493.81	7826.52
498.539	18176.5
503.265	46301.3
507.989	113652
512.71	92705.4
517.428	31105.3
522.144	14607.3
526.857	12928.2
531.567	10286.9
536.275	5478.96
540.98	2810.32
545.683	2080.98
550.383	2037.92
555.08	2375.18
559.774	1547.04
564.466	523.262
569.155	498.168
573.842	482.676
578.526	544.562
583.207	310.707
587.886	772.625
592.562	1042.46
597.235	995.519
601.906	175.848
606.574	132.426
611.24	465.277
615.903	640.352
620.563	639.43
625.221	34.4492
629.876	59.3125
634.528	72.0625
639.178	127.098
643.825	9.44141
648.47	191.086
653.112	65.1797
657.751	117.5
662.388	170.617
667.022	315.977
671.653	648.902
676.282	1731.73
680.908	4008.22
685.532	5298.03
690.153	2408.87
694.771	1124.26
699.387	552.656
704	807.566
708.61	1509.23
713.218	3183.12
717.824	3312.66
722.426	2278.8
727.026	1696.27
731.624	1525.81
736.219	537.164
740.811	672.871
745.401	1028.31
749.988	1322.02
754.572	1833.1
759.154	671.812
763.734	652.184
768.31	495.246
772.884	136.5
777.456	285.184
782.025	75.6328
786.591	429.934
791.155	145.414
795.716	224.957
800.275	180.391
804.831	42.375
809.384	372.539
813.935	216.832
818.483	121.582
823.029	90.8438
827.572	167.621
832.112	64.7266
836.65	11.9375
841.186	217.434
845.718	79.8281
850.249	90.043
854.776	138.289
859.301	581.734
863.824	199.797
868.344	143.484
872.861	71.7109
877.376	134.606
881.888	181.277
886.397	282.016
890.904	201.469
895.409	221.566
899.911	324.207
904.41	131.856
908.907	217.789
913.401	334.91
917.893	360.176
922.382	381.195
926.869	857.727
931.353	878.914
935.834	643.824
940.313	1411.04
944.789	1684.17
949.263	1323.96
953.734	946.621
958.203	1164.83
962.669	1271.52
967.133	1492.35
971.594	2560.14
976.052	4327.88
980.508	10868.5
984.961	19012
989.412	12623.9
993.861	7941.85
998.306	6951.03
1002.75	5063.79
1007.19	5459.84
1011.63	8364.42
1016.06	10050.6
1020.5	6878.41
1024.93	3670.24
1029.36	3125.27
1033.78	3204.23
1038.2	2335.53
1042.62	1808.56
1047.04	2687.53
1051.46	5009.66
1055.87	7573.38
1060.28	5710.73
1064.69	2963.55
1069.09	1556.35
1073.5	1111.58
1077.9	455.269
1082.29	729.473
1086.69	432.035
1091.08	340.945
1095.47	406.133
1099.86	574.164
1104.24	699.375
1108.63	404.102
1113.01	593.359
1117.38	709.031
1121.76	674.359
1126.13	668.828
1130.5	468.633
1134.87	72.6328
1139.23	281.125
1143.6	525.789
1147.96	87.1641
1152.32	1464.97
1156.67	907.312
1161.02	774.922
1165.37	379.734
1169.72	7.44531
1174.07	428.383
1178.41	116.375
1182.75	237.086
1187.08	32.0391
1191.42	186.633
1195.75	167.359
1200.08	347.602
1204.41	351.852
1208.73	26.0625
1213.06	245.32
1217.38	321.711
1221.69	124.219
1226.01	139.711
1230.32	287.211
1234.63	215.602
1238.94	370.117
1243.24	100.703
1247.55	231.195
1251.85	9.6875
1256.14	178.016
1260.44	326.344
1264.73	426.344
1269.02	222.578
1273.31	156.875
1277.6	397.898
1281.88	390.195
1286.16	106.516
1290.44	288.82
1294.71	133.625
1298.98	633.172
1303.26	480.195
1307.52	129.555
1311.79	375.203
1316.05	227.734
1320.31	218.516
1324.57	328.5
1328.83	186.648
1333.08	273.945
1337.33	329.484
1341.58	159.797
1345.82	327.016
1350.07	154.055
1354.31	508.117
1358.55	302.773
1362.78	373.727
1367.02	337.711
1371.25	481.016
1375.48	190.203
1379.7	355.578
1383.92	500.664
1388.15	431.164
1392.37	299.844
1396.58	570.625
1400.8	636.672
1405.01	230.938
1409.22	429.516
1413.42	557.367
1417.63	814.32
1421.83	611.633
1426.03	664.461
1430.22	393.25
1434.42	448.469
1438.61	301.453
1442.8	308.672
1446.99	341.359
1451.17	472.477
1455.35	583.367
1459.53	447.828
1463.71	466.062
1467.89	671.781
1472.06	130.828
1476.23	389.562
1480.4	274.344
1484.56	349.93
1488.72	54.9766
1492.88	130.289
1497.04	38.0156
1501.2	514.906
1505.35	323.727
1509.5	763.711
1513.65	347.938
1517.8	667.328
1521.94	297.203
1526.08	239.695
1530.22	193.18
1534.36	332.664
1538.49	215.961
1542.62	493.617
1546.75	266.375
1550.88	397.461
1555	434.25
1559.12	203.641
1563.24	277.781
1567.36	406.094
1571.47	574.242
1575.58	770.164
