Measurement: Raman, 514 nm, ccw, Raman Data Processed
Mineral: Celsian
Rruff sample: R060152
Ideal chemistry: BaAl_2_Si_2_O_8_
Locality: Benallt mine, Lleyn, Wales
Source: Marcus Origlieri
Description: Colorless to white elongated prismatic crystals
Measured chemistry: (Ba_0.98_K_0.02_[box]_0.02_)_Î£=1_Al_2.00_Si_2.00_O_8_
Pin_id: M00288
Orientation: Laser parallel to b* (0 1 0). Fiducial mark perpendicular to laser is parallel to c [0 0 1]
Raman shift (cm-1)	intensity
89.467	0
94.421	90.167
99.373	3375.54
104.322	15402.5
109.268	29839.7
114.212	31909.4
119.152	17588.2
124.09	13686.5
129.026	23096
133.958	36271.1
138.888	28649.2
143.815	9233.46
148.739	6582.43
153.661	6428.21
158.58	15907.5
163.496	44655.7
168.409	88266.6
173.32	121114
178.228	81427.5
183.133	30490.5
188.035	11291.4
192.935	8902.38
197.832	12155.6
202.727	2174.69
207.618	1006.34
212.507	3894.19
217.393	13952.1
222.277	24155
227.157	14578
232.035	9921.1
236.911	25430.7
241.783	60943
246.653	102261
251.52	93626.8
256.385	75764.5
261.246	46052.1
266.105	17220.5
270.962	6973.26
275.815	3624.02
280.666	2234.11
285.514	1555.42
290.36	3571.75
295.203	10116.5
300.043	25628.5
304.88	46052.2
309.715	39431.8
314.547	12572.9
319.376	2576.95
324.203	357.386
329.027	1547.1
333.848	1691.79
338.667	1069.95
343.482	1426.27
348.296	7390.84
353.106	18375.9
357.914	24471.6
362.719	11734.8
367.521	3077.58
372.321	472.127
377.118	160.856
381.912	856.932
386.704	3569.29
391.493	6076.67
396.279	4054.14
401.063	5994.16
405.844	16060.3
410.622	25456.4
415.398	18657
420.171	13263.2
424.941	21442.8
429.709	28910
434.473	15061.7
439.236	5944.73
443.995	3362.17
448.752	3853.77
453.506	6619.08
458.258	13066.4
463.007	21571.3
467.753	20189.1
472.497	17368.8
477.238	10513.8
481.976	6562.6
486.712	7352.9
491.445	12846.6
496.175	28756.1
500.902	67431.8
505.627	135763
510.35	148515
515.069	64032.6
519.786	23268.5
524.501	10889.2
529.213	6094.29
533.922	3765.79
538.628	2236.07
543.332	1975.02
548.033	2406.75
552.731	3607.93
557.427	3001.66
562.121	1276.06
566.811	328.269
571.499	130.823
576.184	191.019
580.867	218.431
585.547	12.0078
590.224	344.643
594.899	349.544
599.571	63.4727
604.241	205.57
608.908	57.2705
613.572	571.225
618.233	737.024
622.892	539.622
627.549	212.748
632.202	29.1582
636.853	55.5596
641.502	178.978
646.148	613.547
650.791	986.352
655.432	1180.48
660.069	1733.67
664.705	3151.61
669.338	5857.35
673.968	12655.1
678.595	25300.5
683.22	34468.2
687.842	23735.4
692.462	12380.7
697.079	8897.56
701.694	8169.21
706.305	11102.3
710.915	17971.5
715.521	20255.4
720.125	13680.6
724.727	10513.4
729.325	8277.12
733.922	6049.19
738.515	6775.57
743.106	12195.3
747.695	23836.4
752.28	30426
756.864	17276.7
761.444	7910.45
766.022	4146.95
770.598	2466.49
775.17	1809.15
779.741	1404.15
784.308	998.695
788.873	668.849
793.436	297.621
797.996	175.007
802.553	260.974
807.108	193.513
811.66	171.618
816.209	177.297
820.756	52.5293
825.301	53.3691
829.842	6.79785
834.382	54.5605
838.918	242.318
843.452	12.6318
847.984	6.95996
852.513	123.504
857.039	89.9785
861.563	114.049
866.084	69.5137
870.603	106.335
875.119	161.026
879.632	6.16797
884.143	93.4893
888.651	90.6758
893.157	3.56055
897.66	149.838
902.161	187.115
906.659	259.297
911.154	292.369
915.647	509.335
920.138	549.331
924.626	663.26
929.111	1152.21
933.594	1229.02
938.074	2385.79
942.551	3301.8
947.026	3585.59
951.499	3645.41
955.969	3750.3
960.436	3750.6
964.901	5054.7
969.363	7549.1
973.823	8605.93
978.28	16115.4
982.735	34991.1
987.187	38165.4
991.637	18273.4
996.084	11498.4
1000.53	8651.15
1004.97	7907.22
1009.41	9906.33
1013.85	12203.7
1018.28	9886.5
1022.71	6990.38
1027.14	6334
1031.57	7348.26
1035.99	6096.43
1040.41	3437.62
1044.83	2767.69
1049.25	3512.19
1053.66	4257.57
1058.08	3987.77
1062.48	2536.2
1066.89	1698.25
1071.3	1185.69
1075.7	1103.64
1080.1	1219.88
1084.49	1152.48
1088.89	1427.73
1093.28	1596.91
1097.67	1959.11
1102.05	1567.8
1106.44	1065.27
1110.82	852.113
1115.2	670.148
1119.57	408.581
1123.95	451.641
1128.32	240.31
1132.69	380.158
1137.05	346.191
1141.42	289.455
1145.78	236.99
1150.14	292.006
1154.49	104.93
1158.85	94.1553
1163.2	75.7022
1167.55	18.8691
1171.89	102.971
1176.24	25.3086
1180.58	147.496
1184.92	29.8496
1189.25	71.4893
1193.59	13.5342
1197.92	99.1894
1202.25	106.377
1206.57	22.7002
1210.9	105.356
1215.22	92.0723
1219.54	187.312
1223.85	63.4199
1228.17	155.325
1232.48	129.914
1236.79	202.594
1241.09	197.887
1245.4	228.03
1249.7	52.0156
1254	167.784
1258.29	223.33
1262.59	94.7061
1266.88	422.519
1271.17	383.582
1275.45	250.484
1279.74	212.217
1284.02	365.784
1288.3	182.202
1292.58	290.212
1296.85	37.2168
1301.12	648.626
1305.39	299.099
1309.66	304.457
1313.92	401.87
1318.18	256.699
1322.44	69.7676
1326.7	173.739
1330.95	356.509
1335.2	153.66
1339.45	75.1406
1343.7	139.9
1347.95	161.325
1352.19	68.5293
1356.43	68.9951
1360.66	174.947
1364.9	98.1221
1369.13	34.2666
1373.36	168.391
1377.59	237.421
1381.81	330.674
1386.04	122.019
1390.26	167.066
1394.47	210.176
1398.69	68.3066
1402.9	167.682
1407.11	241.619
1411.32	247.629
1415.53	178.648
1419.73	165.348
1423.93	183.482
1428.13	247.457
1432.32	338.492
1436.52	414.443
1440.71	528.531
1444.89	676.43
1449.08	669.107
1453.26	756.342
1457.44	736.998
1461.62	575.121
1465.8	594.914
1469.97	463.988
1474.14	559.947
1478.31	424.299
1482.48	383.932
1486.64	381.879
1490.81	11.6797
1494.96	165.658
1499.12	13.3145
1503.28	16.9297
1507.43	67.4863
1511.58	41.7227
1515.72	164.291
1519.87	168.81
1524.01	37.873
1528.15	323.315
1532.29	143.188
1536.42	211.957
1540.55	247.496
1544.68	246.426
1548.81	290.215
1552.94	331.549
1557.06	151.398
1561.18	256.768
1565.3	277.394
1569.41	3.70312
1573.53	82.2891
