Measurement: Raman, 514 nm, ccw, Raman Data Processed
Mineral: Celsian
Rruff sample: R060152
Ideal chemistry: BaAl_2_Si_2_O_8_
Locality: Benallt mine, Lleyn, Wales
Source: Marcus Origlieri
Description: Colorless to white elongated prismatic crystals
Measured chemistry: (Ba_0.98_K_0.02_[box]_0.02_)_Î£=1_Al_2.00_Si_2.00_O_8_
Pin_id: M00288
Orientation: Laser parallel to b* (0 1 0). Fiducial mark perpendicular to laser is parallel to c [0 0 1]
Raman shift (cm-1)	intensity
89.467	0
94.421	1009.14
99.373	4643.71
104.322	13063.9
109.268	12678.2
114.212	5605.49
119.152	3856.34
124.09	2127.16
129.026	1673.18
133.958	1076.3
138.888	268.359
143.815	257.849
148.739	122.69
153.661	930.265
158.58	2796.97
163.496	6971.02
168.409	14478.6
173.32	8540.94
178.228	2508.09
183.133	834.92
188.035	389.559
192.935	74.7568
197.832	1.88525
202.727	146.713
207.618	188.3
212.507	2.68506
217.393	24.8013
222.277	325.019
227.157	248.542
232.035	898.791
236.911	2894.71
241.783	6852.27
246.653	10475.2
251.52	7950.25
256.385	5468.68
261.246	3413.52
266.105	1704.12
270.962	859.492
275.815	436.662
280.666	319.084
285.514	350.009
290.36	559.25
295.203	1356.88
300.043	2769.79
304.88	5535.11
309.715	4858.22
314.547	1741.38
319.376	498.885
324.203	79.3745
329.027	54.5376
333.848	77.5259
338.667	116.063
343.482	580.56
348.296	1953.21
353.106	4742.64
357.914	6713.35
362.719	3197.53
367.521	866.957
372.321	180.207
377.118	30.6069
381.912	56.3623
386.704	742.893
391.493	2082.89
396.279	1874.32
401.063	443.204
405.844	13.4023
410.622	1.57227
415.398	312.246
420.171	664.463
424.941	2019.4
429.709	2960.4
434.473	1805.95
439.236	1339.86
443.995	2087.89
448.752	4028.03
453.506	9105.29
458.258	20319.7
463.007	34755
467.753	25910.8
472.497	14509.7
477.238	7411.81
481.976	4587.81
486.712	4808.93
491.445	7852.59
496.175	17462.7
500.902	42256.3
505.627	90561.6
510.35	103751
515.069	45643.9
519.786	19200.9
524.501	13467.7
529.213	12846.1
533.922	6038.88
538.628	3213.89
543.332	2051.16
548.033	1498.55
552.731	1163.33
557.427	865.539
562.121	665.102
566.811	520.006
571.499	502.293
576.184	430.925
580.867	436.817
585.547	647.96
590.224	887.348
594.899	877.68
599.571	230.822
604.241	77.1143
608.908	7.00977
613.572	73.5019
618.233	71.8027
622.892	104.785
627.549	55.9766
632.202	36.3848
636.853	130.251
641.502	47.3213
646.148	57.9717
650.791	83.2881
655.432	130.196
660.069	265.622
664.705	411.025
669.338	688.261
673.968	1728.65
678.595	3493.86
683.22	4918.35
687.842	3274.33
692.462	1558.95
697.079	908.165
701.694	850.244
706.305	1298.81
710.915	2630.79
715.521	3234.55
720.125	2182.98
724.727	1997.15
729.325	1552.06
733.922	1017.71
738.515	789.184
743.106	577.142
747.695	864.299
752.28	1178.19
756.864	506.414
761.444	184.315
766.022	111.943
770.598	131.081
775.17	0.206055
779.741	46.4043
784.308	64.7353
788.873	0.983398
793.436	38.2432
797.996	0.533203
802.553	100.481
807.108	88.9004
811.66	112.004
816.209	48.8213
820.756	91.3438
825.301	116.58
829.842	22.4697
834.382	104.992
838.918	42.0918
843.452	15.9004
847.984	89.3408
852.513	57.5127
857.039	171.46
861.563	112.192
866.084	242.722
870.603	13.0537
875.119	133.247
879.632	218.284
884.143	92.2305
888.651	48.0293
893.157	150.722
897.66	274.308
902.161	216.753
906.659	238.984
911.154	294.755
915.647	376.606
920.138	442.443
924.626	418.563
929.111	539.519
933.594	677.992
938.074	1034.52
942.551	1202.14
947.026	1005.71
951.499	959.189
955.969	803.736
960.436	1002.72
964.901	1315.32
969.363	2297.78
973.823	4135.48
978.28	8879.58
982.735	15436.8
987.187	13780.9
991.637	7993.24
996.084	6706.8
1000.53	5111.59
1004.97	5227.28
1009.41	7174.48
1013.85	9165.88
1018.28	7215.13
1022.71	4554.67
1027.14	3193.14
1031.57	3032.87
1035.99	2537.65
1040.41	2164.53
1044.83	2672.24
1049.25	4704.79
1053.66	7037.55
1058.08	6211.29
1062.48	4044.97
1066.89	2257.64
1071.3	1607.98
1075.7	960.879
1080.1	855.553
1084.49	729.675
1088.89	724.963
1093.28	498.567
1097.67	380.016
1102.05	377.765
1106.44	456.181
1110.82	286.224
1115.2	236.633
1119.57	184.693
1123.95	125.025
1128.32	104.787
1132.69	112.926
1137.05	36.7031
1141.42	87.4981
1145.78	2.62109
1150.14	147.327
1154.49	4.30664
1158.85	11.2676
1163.2	83.2305
1167.55	45.3184
1171.89	66.2754
1176.24	96.2197
1180.58	22.1562
1184.92	52.0957
1189.25	62.9727
1193.59	23.0635
1197.92	42.5557
1202.25	30.3779
1206.57	59.4512
1210.9	71.6426
1215.22	44.5225
1219.54	126.906
1223.85	123.481
1228.17	72.5439
1232.48	154.542
1236.79	127.381
1241.09	94.0752
1245.4	105.708
1249.7	106.212
1254	55.5391
1258.29	4.18652
1262.59	126.945
1266.88	109.193
1271.17	146.158
1275.45	148.993
1279.74	274.231
1284.02	147.263
1288.3	208.506
1292.58	40.6387
1296.85	121.892
1301.12	286.222
1305.39	77.124
1309.66	145.7
1313.92	167.339
1318.18	77.46
1322.44	199.583
1326.7	187.259
1330.95	119.587
1335.2	277.058
1339.45	173.692
1343.7	98.9394
1347.95	79.4766
1352.19	106.147
1356.43	124.464
1360.66	170.578
1364.9	70.4522
1369.13	186.69
1373.36	163.746
1377.59	154.815
1381.81	80.6865
1386.04	105.368
1390.26	187.803
1394.47	210.262
1398.69	122.951
1402.9	239.134
1407.11	85.4648
1411.32	206.834
1415.53	79.7637
1419.73	184.122
1423.93	64.3037
1428.13	191.638
1432.32	220.81
1436.52	246.823
1440.71	408.397
1444.89	511.312
1449.08	379.726
1453.26	585.81
1457.44	475.43
1461.62	443.465
1465.8	250.809
1469.97	332.891
1474.14	265.18
1478.31	147.566
1482.48	369.116
1486.64	151.763
1490.81	128.351
1494.96	94.1416
1499.12	148.775
1503.28	26.3115
1507.43	165.487
1511.58	277.277
1515.72	30.4307
1519.87	110.906
1524.01	97.8857
1528.15	134.18
1532.29	32.291
1536.42	22.5029
1540.55	212.803
1544.68	12.9141
1548.81	251.42
1552.94	131.137
1557.06	110.985
1561.18	18.3545
1565.3	107.267
1569.41	64.04
1573.53	86.3623
