Measurement: Raman, 514 nm, ccw, Raman Data Processed
Mineral: Celsian
Rruff sample: R060152
Ideal chemistry: BaAl_2_Si_2_O_8_
Locality: Benallt mine, Lleyn, Wales
Source: Marcus Origlieri
Description: Colorless to white elongated prismatic crystals
Measured chemistry: (Ba_0.98_K_0.02_[box]_0.02_)_Î£=1_Al_2.00_Si_2.00_O_8_
Pin_id: M00479
Orientation: Laser parallel to -c* (0 0 -1). Fiducial mark perpendicular to laser is parallel to a [1 0 0]
Raman shift (cm-1)	intensity
92.441	0
97.366	9349.07
102.29	29064.8
107.211	62261.4
112.13	64340.2
117.046	17350.3
121.961	8253.73
126.873	6803.77
131.783	12493.8
136.691	14099.5
141.597	5170.02
146.5	200.125
151.402	539.527
156.301	291.344
161.198	461.273
166.092	2308.52
170.985	3588.69
175.875	1946.79
180.763	18.2852
185.649	779.484
190.532	121.391
195.413	310.762
200.292	567.043
205.169	410.734
210.044	638.231
214.916	211.156
219.786	631.863
224.654	701.426
229.519	316.57
234.382	715.652
239.243	3456.67
244.102	9102.94
248.958	10867.1
253.813	7328.64
258.664	5838.86
263.514	2935.48
268.361	1948.29
273.206	1892.35
278.049	1454.03
282.889	1353.55
287.728	1060.31
292.563	1511.85
297.397	1763.38
302.228	2976.53
307.057	3687.47
311.884	2483.72
316.708	1549.01
321.53	1355.38
326.35	799.047
331.167	545.512
335.982	825.441
340.795	828.91
345.605	1128.62
350.413	2470.33
355.219	6116.38
360.022	6373.65
364.823	3017.38
369.622	615.316
374.418	180.637
379.212	466.797
384.004	327.047
388.793	1911.76
393.58	3127.95
398.364	1059.35
403.146	233.234
407.926	31.7148
412.704	412.231
417.479	51.5156
422.251	1403.81
427.022	3285.13
431.79	2770.71
436.555	683.324
441.319	186.324
446.079	158.047
450.838	664.133
455.594	3158.91
460.347	8334.38
465.099	10578.4
469.847	8015.87
474.594	5314.98
479.338	2346.27
484.079	1517.57
488.819	2692.63
493.555	5626.71
498.29	14783.5
503.022	41695.2
507.751	74110.3
512.478	45583.7
517.203	15668.1
521.925	7105.98
526.645	4912.98
531.363	3247.32
536.078	1729.43
540.79	775.316
545.5	881.473
550.208	2800.93
554.913	3225.72
559.616	1897.5
564.316	496.871
569.014	67.6836
573.709	45.4648
578.402	14.375
583.093	355.496
587.781	1434.61
592.466	3355.51
597.15	2466.88
601.83	1275.28
606.508	1212.18
611.184	2903.67
615.857	5008.87
620.528	3865.86
625.196	1699.45
629.862	526.789
634.525	65.1992
639.186	31.5742
643.844	141.34
648.5	15.3164
653.153	411.922
657.804	90
662.452	190.164
667.098	47.5
671.742	452.086
676.382	1110.36
681.021	2884.81
685.656	2393.47
690.29	691.305
694.92	134.707
699.549	275.973
704.174	427.879
708.797	657.871
713.418	1160.91
718.036	1513.79
722.652	1627.08
727.265	1726.91
731.875	657.133
736.483	546.703
741.089	858.613
745.692	2246.85
750.292	4481.97
754.89	3365.81
759.485	1305.92
764.078	478.266
768.668	292.184
773.256	266.582
777.841	241.449
782.423	204.324
787.003	56.5391
791.581	30.2266
796.156	99.7734
800.728	224.984
805.298	172.031
809.865	254.336
814.429	416.461
818.991	10.1797
823.551	146.238
828.107	316.125
832.662	393.723
837.213	215.055
841.762	471.41
846.309	904.309
850.853	972.445
855.394	634.828
859.933	730.625
864.469	807.988
869.002	699.832
873.533	824.441
878.062	418.434
882.587	440.059
887.11	658.25
891.631	525.801
896.149	705.746
900.664	904.152
905.177	895.359
909.687	973.394
914.194	893.379
918.699	1209.33
923.201	1354.88
927.701	1501.39
932.198	1258.13
936.692	1981.09
941.184	2728.39
945.673	2921.39
950.159	2137.74
954.643	2020.7
959.124	2333.28
963.603	3618.02
968.078	6569.67
972.552	8790.91
977.022	6983.05
981.49	9612.89
985.955	12506.7
990.418	7595.61
994.878	6064.87
999.335	5429.92
1003.79	4149.72
1008.24	4055.45
1012.69	6159.92
1017.14	6428.04
1021.58	4081.66
1026.02	1705.72
1030.46	1418.41
1034.9	1071.69
1039.33	774.727
1043.76	1073
1048.19	1840.51
1052.62	3399.49
1057.04	4107.97
1061.46	2698.3
1065.88	1166.41
1070.29	325.844
1074.7	710.141
1079.11	881.406
1083.52	1070.7
1087.92	1202.41
1092.32	605.656
1096.72	552.219
1101.12	332.273
1105.51	387.484
1109.9	508.055
1114.29	375.844
1118.67	180.852
1123.06	122.891
1127.43	104.344
1131.81	167.594
1136.18	13.5
1140.56	97.1016
1144.93	34.4922
1149.29	120.961
1153.65	43.4453
1158.02	140.148
1162.37	196.008
1166.73	370
1171.08	244.281
1175.43	433.094
1179.78	385.57
1184.12	173.797
1188.46	412.242
1192.8	472.367
1197.14	551.57
1201.47	190.602
1205.8	560.312
1210.13	293.828
1214.45	385.305
1218.78	385.594
1223.1	56.8438
1227.41	545.43
1231.73	32.7656
1236.04	333.375
1240.35	950.906
1244.65	675.938
1248.96	560.484
1253.26	839.539
1257.55	1035.88
1261.85	489.398
1266.14	684.422
1270.43	788.289
1274.72	910.773
1279	718.828
1283.28	566.391
1287.56	642.492
1291.84	892.102
1296.11	928.836
1300.38	805.75
1304.64	1133.08
1308.91	1282.16
1313.17	1450.55
1317.43	1011.67
1321.68	873.031
1325.94	934.938
1330.19	680.391
1334.44	893.375
1338.68	230.906
1342.92	688.008
1347.16	663.688
1351.4	884.945
1355.63	556.641
1359.86	600.938
1364.09	410.133
1368.32	685.039
1372.54	477.75
1376.76	592.664
1380.98	935.477
1385.19	666.984
1389.4	716.156
1393.61	664.055
1397.82	857.328
1402.02	679.133
1406.22	753.328
1410.42	513.633
1414.61	670.773
1418.8	307.539
1422.99	646.305
1427.18	303.898
1431.36	273.695
1435.54	312.867
1439.72	616.172
1443.89	271.922
1448.07	169.273
1452.24	288.125
1456.4	69.0234
1460.57	93.7969
1464.73	413.672
1468.88	255.273
1473.04	237.555
1477.19	61.1797
1481.34	216.742
1485.49	350.562
1489.63	228.039
1493.77	38.8125
1497.91	128.766
1502.05	140.961
1506.18	11.9219
1510.31	61.1875
1514.43	333.422
1518.56	391.695
1522.68	503.852
1526.8	284.508
1530.91	546.781
1535.02	268.062
1539.13	330.203
1543.24	288
1547.34	251.938
1551.44	410.602
1555.54	413.398
1559.64	324.602
1563.73	264.031
1567.82	163.133
1571.91	156.172
1575.99	2.28125
