Measurement: Raman, 514 nm, depolarized, Raman Data Processed
Mineral: Celsian
Rruff sample: R060152
Ideal chemistry: BaAl_2_Si_2_O_8_
Locality: Benallt mine, Lleyn, Wales
Source: Marcus Origlieri
Description: Colorless to white elongated prismatic crystals
Measured chemistry: (Ba_0.98_K_0.02_[box]_0.02_)_Î£=1_Al_2.00_Si_2.00_O_8_
Pin_id: M00486
Orientation: Laser parallel to (1 0 1). Fiducial mark perpendicular to laser is parallel to -b [0 -1 0]
Raman shift (cm-1)	intensity
119.865	0
124.809	824.275
129.75	3412.42
134.689	4638.39
139.624	2379.35
144.557	171.455
149.487	58.6347
154.414	142.542
159.339	1551.91
164.26	3878.73
169.179	5656.05
174.095	3198.93
179.009	1053.36
183.919	512.78
188.827	553.836
193.732	1397.98
198.634	1627.02
203.534	257.647
208.43	77.3418
213.324	91.2558
218.215	322.014
223.104	742.266
227.99	442.197
232.872	1131.1
237.753	2760.45
242.63	5335.55
247.504	6818.65
252.376	5198.19
257.245	3844.5
262.112	2231.37
266.975	1024.59
271.836	828.061
276.694	589.725
281.549	660.652
286.402	284.241
291.252	229.898
296.099	691.653
300.943	1580.34
305.785	2568.21
310.624	1455.23
315.46	462.848
320.293	159.029
325.124	208.307
329.952	26.945
334.777	63.2024
339.599	95.2008
344.419	153.109
349.236	422.296
354.05	407.461
358.862	479.291
363.67	277.976
368.476	112.398
373.28	242.045
378.08	129.477
382.878	305.864
387.673	1242.27
392.466	1702.03
397.255	733.598
402.042	5.50584
406.827	102.157
411.608	174.212
416.387	246.425
421.163	723.122
425.936	1645.55
430.707	1821.37
435.475	668.002
440.24	65.8451
445.003	14.7514
449.763	255.655
454.52	958.23
459.274	2589.83
464.026	3828
468.775	3525.34
473.522	2729.04
478.265	1290.63
483.006	797.881
487.744	1403.25
492.48	3298.2
497.213	7938.12
501.943	18686.7
506.671	30770.3
511.395	24045.8
516.117	9049.07
520.837	3723.36
525.554	2056.92
530.268	1169.05
534.979	510.113
539.688	393.165
544.394	453.526
549.097	755.712
553.798	940.351
558.496	613.264
563.191	23.2141
567.884	88.4688
572.574	41.9965
577.261	62.4497
581.945	211.06
586.627	826.365
591.307	1170.53
595.983	958.931
600.657	716.004
605.329	244.04
609.997	458.046
614.663	163.39
619.326	197.302
623.987	287.841
628.645	84.0023
633.3	297.141
637.953	317.457
642.603	158.293
647.25	277.991
651.895	243.746
656.537	206.828
661.176	123.935
665.813	257.198
670.447	267.485
675.079	983.242
679.708	1567.37
684.334	1811.61
688.957	921.864
693.578	509.991
698.196	165.694
702.812	281.242
707.425	765.867
712.035	879.368
716.643	1028.45
721.248	660.651
725.85	1158.17
730.45	824.059
735.047	789.57
739.642	830.71
744.234	1090.13
748.823	1515.67
753.41	981.509
757.994	170.288
762.575	40.0657
767.154	62.9081
771.73	29.5896
776.304	108.963
780.875	14.2718
785.443	27.0557
790.009	190.19
794.572	175.45
799.132	15.1518
803.69	64.492
808.245	46.8759
812.798	190.043
817.348	94.7892
821.896	164.98
826.44	34.3801
830.983	163.327
835.522	41.1142
840.059	211.232
844.594	25.6997
849.125	44.6868
853.655	111.486
858.181	352.267
862.705	176.666
867.227	231.817
871.746	71.0356
876.262	115.981
880.776	94.558
885.287	231.074
889.795	126.377
894.301	184.363
898.804	38.6546
903.305	192.259
907.803	128.251
912.299	258.268
916.792	171.727
921.282	273.062
925.77	79.1425
930.255	5.58459
934.738	151.891
939.218	251.047
943.695	495.806
948.17	601.594
952.643	1151.05
957.112	1421.18
961.58	2131.99
966.044	2783.52
970.506	3406.62
974.966	2659.14
979.423	3055.3
983.877	4607.32
988.329	3475.68
992.778	2148.3
997.225	2250.63
1001.67	2518.2
1006.11	1489.86
1010.55	813.604
1014.99	933.792
1019.42	912.397
1023.85	171.772
1028.28	62.0211
1032.71	360.049
1037.13	125.126
1041.55	86.8288
1045.97	99.8435
1050.39	76.258
1054.8	53.6794
1059.21	107.417
1063.62	151.925
1068.03	209.31
1072.43	20.9362
1076.83	224.808
1081.23	58.7774
1085.62	124.276
1090.02	130.563
1094.41	31.3652
1098.8	23.8475
1103.18	185.422
1107.56	243.035
1111.94	180.902
1116.32	5.85708
1120.7	127.326
1125.07	2.87607
1129.44	37.4988
1133.81	16.9285
1138.17	177.879
1142.54	239.635
1146.9	54.8311
1151.26	200.216
1155.61	28.525
1159.96	178.115
1164.32	11.6769
1168.66	50.0273
1173.01	94.9946
1177.35	133.185
1181.69	198.183
1186.03	282.792
1190.36	210.47
1194.7	276.972
1199.03	91.6047
1203.36	148.433
1207.68	229.118
1212	153.276
1216.32	211.728
1220.64	11.3074
1224.96	146.529
1229.27	240.663
1233.58	12.2818
1237.89	141.419
1242.19	21.8898
1246.49	136.489
1250.8	112.857
1255.09	7.42495
1259.39	72.3683
1263.68	3.65822
1267.97	21.189
1272.26	238.111
1276.54	3.89293
1280.83	182.648
1285.11	232.451
1289.38	130.871
1293.66	150.657
1297.93	19.4452
1302.2	128.692
1306.47	42.3772
1310.74	161.818
1315	57.8042
1319.26	207.28
1323.52	1.24236
1327.78	5.00995
1332.03	210.751
1336.28	9.26586
1340.53	4.1888
1344.77	33.2979
1349.02	131.136
1353.26	227.592
1357.49	233.671
1361.73	185.603
1365.96	236.393
1370.19	240.053
1374.42	66.7365
1378.65	71.6048
1382.87	6.0815
1387.09	93.2894
1391.31	120.058
1395.53	13.2436
1399.74	68.5359
1403.95	84.8736
1408.16	135.393
1412.37	54.2198
1416.57	127.021
1420.78	189.219
1424.97	187.61
1429.17	191.757
1433.37	14.7989
1437.56	96.9263
1441.75	258.572
1445.93	151.697
1450.12	115.538
1454.3	88.9031
1458.48	2.22457
1462.66	171.668
1466.83	191.316
1471	0.208217
1475.17	31.8978
1479.34	60.578
1483.51	20.8125
1487.67	72.3469
1491.83	6.58911
1495.99	250.082
1500.14	98.6297
1504.29	163.56
1508.44	210.999
1512.59	239.708
1516.74	70.4432
1520.88	100.7
1525.02	228.976
1529.16	236.811
1533.3	18.9004
1537.43	56.204
1541.56	249.772
1545.69	187.657
1549.82	47.976
1553.94	93.2532
1558.06	279.578
1562.18	397.123
1566.3	1.46218
1570.41	574.062
1574.52	361.073
