Measurement: Raman, 514 nm, depolarized, Raman Data Processed
Mineral: Cerussite
Rruff sample: R050011
Ideal chemistry: Pb^2+^CO_3_
Locality: Daoping Lead and Zinc mine, Gongcheng, Guangxi, China
Source: Eugene Schlepp
Description: Colorless hexagonal bipyramidal crystals
Measured chemistry: Pb_1.00_CO_3_ ; CO_2_ not measured but estimated by difference and stoichiometry
Pin_id: L00377
Orientation: Laser parallel to b* (0 1 0). Fiducial mark perpendicular to laser is parallel to -c [0 0 -1]
Raman shift (cm-1)	intensity
46.637	0
50.856	69.5
55.072	199.422
59.287	265.849
63.499	355.39
67.709	219.336
71.917	162.054
76.123	39.19
80.327	8.701
84.529	18.927
88.728	165.293
92.926	616.796
97.121	1939.4
101.314	4307.88
105.505	4641.11
109.694	3271.05
113.881	2756.64
118.066	2704.86
122.249	3193.67
126.43	4035.04
130.608	4610.95
134.785	4451.44
138.959	4153.36
143.131	4229.52
147.301	4246.75
151.469	3905.68
155.635	3110.87
159.799	2429.47
163.961	2095.39
168.121	2038.62
172.278	2046.13
176.434	1989.95
180.587	1854.08
184.739	1656.49
188.888	1521.16
193.035	1476.09
197.18	1567.27
201.324	1679.7
205.465	1848.44
209.603	1999.44
213.74	2047.3
217.875	1883.32
222.008	1574.59
226.139	1311
230.267	1109.22
234.394	1015.34
238.518	906.697
242.641	811.761
246.761	710.413
250.879	649.738
254.996	574.747
259.11	468.651
263.222	414.188
267.332	395.771
271.44	382.932
275.546	362.012
279.65	343.023
283.752	245.262
287.852	275.646
291.95	190.194
296.046	212.924
300.14	198.763
304.231	145.58
308.321	174.705
312.409	204.081
316.495	113.173
320.578	81.839
324.66	109.494
328.739	65.271
332.817	69.168
336.892	54.182
340.966	84.306
345.037	59.631
349.107	39.966
353.174	76.404
357.24	55.299
361.303	39.069
365.365	37.217
369.424	20.339
373.481	8.503
377.537	2.034
381.59	0.947
385.642	33.898
389.691	7.856
393.738	30.756
397.784	49.036
401.827	2.555
405.868	6.232
409.908	26.056
413.945	26.482
417.98	27.4
422.014	21.915
426.045	18.688
430.075	8.738
434.102	9.456
438.127	32.604
442.151	16.682
446.172	0.111
450.192	39.674
454.209	0.984
458.225	13.634
462.238	20.547
466.25	15.795
470.259	17.827
474.267	12.637
478.273	1.98
482.276	36.376
486.278	23.85
490.278	51.279
494.276	32.919
498.271	16.394
502.265	63.876
506.257	41.367
510.247	36.509
514.235	44.993
518.221	28.417
522.205	5.796
526.187	13.155
530.167	20.47
534.145	0.755
538.122	28.892
542.096	7.141
546.068	18.004
550.039	17.502
554.007	35
557.973	1.715
561.938	10.124
565.901	12.603
569.861	59.509
573.82	38.236
577.777	5.786
581.732	9.5
585.685	16.545
589.636	39.987
593.585	47.44
597.532	8.612
601.477	59.151
605.42	65.302
609.361	35.456
613.301	13.356
617.238	69.412
621.174	51.168
625.108	60.116
629.039	31.209
632.969	77.961
636.897	101.638
640.823	88.342
644.747	57.733
648.669	62.359
652.589	41.514
656.508	71.694
660.424	47.31
664.339	80.591
668.251	105.912
672.162	483.176
676.071	381.021
679.978	829.931
683.883	684.69
687.786	160.403
691.687	70.497
695.586	142.44
699.484	39.337
703.379	88.336
707.273	25.556
711.165	15.569
715.055	26.899
718.943	54.164
722.829	65.046
726.713	123.059
730.595	127.952
734.476	26.944
738.354	49.65
742.231	55.205
746.106	0.151
749.978	116.017
753.849	2.829
757.719	45.503
761.586	68.44
765.451	27.244
769.315	56.99
773.177	2.953
777.036	62.575
780.894	79.561
784.75	75.011
788.605	48.342
792.457	50.45
796.307	67.325
800.156	39.25
804.003	38.071
807.848	23.652
811.691	58.344
815.532	37.039
819.371	72.669
823.209	106.082
827.045	124.669
830.878	159.442
834.71	849.212
838.54	1704.8
842.369	483.405
846.195	119.007
850.02	79.6
853.842	97.13
857.663	40.775
861.482	69.887
865.299	6.736
869.115	8.217
872.928	0.425
876.74	7.718
880.55	22.008
884.358	63.718
888.164	90.397
891.969	59.063
895.771	1.448
899.572	26.901
903.371	67.697
907.168	87.14
910.963	52.927
914.757	65.722
918.548	77.485
922.338	74.425
926.126	41.684
929.912	86.305
933.697	43.99
937.479	90.69
941.26	47.377
945.039	70.971
948.816	10.708
952.591	94.618
956.365	43.193
960.136	38.127
963.906	79.022
967.674	28.577
971.441	24.652
975.205	62.923
978.968	113.625
982.729	74.848
986.488	55.052
990.245	64.542
994	78.698
997.754	78.138
1001.51	160.353
1005.26	165.819
1009	144.372
1012.75	92.753
1016.5	75.096
1020.24	98.363
1023.98	226.791
1027.72	114.459
1031.46	398.678
1035.19	174.397
1038.93	346.667
1042.66	447.628
1046.39	935.688
1050.12	4087.66
1053.85	49222.4
1057.57	8588.28
1061.29	1478.93
1065.02	446.634
1068.74	341.349
1072.45	257.552
1076.17	170.754
1079.88	173.175
1083.6	188.346
1087.31	133.213
1091.02	187.044
1094.72	114.523
1098.43	75.98
1102.13	136.379
1105.84	228.833
1109.54	135.594
1113.24	100.655
1116.93	189.815
1120.63	48.37
1124.32	143.272
1128.01	49.193
1131.7	100.525
1135.39	171.849
1139.08	20.205
1142.76	3.227
1146.45	127.394
1150.13	75.57
1153.81	85.467
1157.48	38.259
1161.16	59.944
1164.84	73.507
1168.51	1.06
1172.18	67.845
1175.85	4.896
1179.52	50.927
1183.18	51.635
1186.85	64.209
1190.51	33.648
1194.17	4.929
1197.83	25.065
1201.48	14.935
1205.14	23.904
1208.79	27.639
1212.44	31.265
1216.09	81.795
1219.74	40.244
1223.39	0.618
1227.03	25.915
1230.68	37.154
1234.32	54.341
1237.96	44.454
1241.6	12.53
1245.23	29.757
1248.87	87.02
1252.5	35.71
1256.13	5.688
1259.76	53.751
1263.39	88.893
1267.02	11.75
1270.64	10.967
1274.26	57.668
1277.88	92.001
1281.5	61.134
1285.12	20.465
1288.74	0.95
1292.35	43.477
1295.96	49.187
1299.57	79.641
1303.18	148.694
1306.79	72.124
1310.4	136.25
1314	198.096
1317.6	307.479
1321.2	242.624
1324.8	234.761
1328.4	212.233
1331.99	240.177
1335.59	212.6
1339.18	340.211
1342.77	404.494
1346.36	609.495
1349.95	659.251
1353.53	789.846
1357.12	1138.44
1360.7	1432.23
1364.28	1861.38
1367.86	1989.54
1371.44	2580.31
1375.01	3370.75
1378.59	3347.31
1382.16	2442.9
1385.73	1559.16
1389.3	855.716
1392.87	548.804
1396.43	389.918
1399.99	211.232
1403.56	225.337
1407.12	147.442
1410.68	205.362
1414.23	304.509
1417.79	322.713
1421.34	269.246
1424.9	300.997
1428.45	243.904
1431.99	203.057
1435.54	205.458
1439.09	208.046
1442.63	207.755
1446.17	209.519
1449.71	150.228
1453.26	303.989
1456.79	359.115
1460.33	434.565
1463.86	503.721
1467.39	502.355
1470.92	593.491
1474.45	553.172
1477.98	597.454
1481.51	537.412
1485.03	418.182
1488.56	376.017
1492.08	273.167
1495.6	186.862
1499.11	199.461
1502.63	282.538
1506.14	160.964
1509.66	140.063
1513.17	115.227
1516.68	172.305
1520.19	0
