Measurement: Raman, 514 nm, depolarized, Raman Data Processed
Mineral: Cerussite
Rruff sample: R050023
Ideal chemistry: Pb^2+^CO_3_
Locality: Mammoth - St Anthony mine, Tiger, Pinal County, Arizona, USA
Source: Eugene Schlepp
Description: Prismatic white single crystals
Measured chemistry: Pb_1.00_CO_3_ ; CO_2_ not measured but estimated by difference and stoichiometry
Pin_id: L00220
Orientation: Laser parallel to b* (0 1 0). Fiducial mark perpendicular to laser is parallel to c [0 0 1]
Raman shift (cm-1)	intensity
51.717	0
55.942	70.341
60.165	93.28
64.386	48.111
68.604	34.201
72.82	90.233
77.034	160.009
81.246	285.057
85.455	440.585
89.663	913.155
93.868	2122.58
98.07	4917.49
102.271	8605.49
106.469	6655.31
110.665	3807.81
114.859	2807.84
119.05	2686.45
123.24	3307.91
127.427	4431.64
131.612	5199.98
135.794	4770.59
139.975	4229.29
144.153	4111.84
148.329	4203.2
152.503	3733.52
156.674	2802.85
160.843	1978.18
165.011	1581.52
169.175	1598.86
173.338	1560.18
177.499	1591.83
181.657	1473.05
185.813	1281.84
189.967	1093.22
194.119	1145.82
198.268	1270.79
202.415	1495.05
206.561	1726.44
210.703	2154.75
214.844	2192.61
218.983	1853.35
223.119	1368.53
227.253	1107.03
231.385	880.446
235.515	684.05
239.643	604.947
243.768	531.339
247.891	467.949
252.012	375.138
256.131	285.979
260.248	254.254
264.363	196.154
268.475	177.096
272.585	159.066
276.693	97.949
280.799	80.631
284.903	53.31
289.005	50.802
293.104	41.233
297.201	6.533
301.296	25.841
305.389	6.994
309.48	9.57
313.569	7.731
317.655	10.476
321.74	1.91
325.822	4.457
329.902	33.077
333.98	18.899
338.056	3.085
342.129	21.061
346.201	18.4
350.27	13.775
354.337	17.613
358.402	9.731
362.465	2.378
366.526	8.344
370.585	12.901
374.642	26.414
378.696	2.73
382.748	14.702
386.799	22.711
390.847	6.456
394.893	19.219
398.936	2.452
402.978	35.03
407.018	33.322
411.055	31.556
415.091	34.618
419.124	17.416
423.155	39.01
427.184	49.583
431.211	20.048
435.236	48.261
439.259	63.472
443.28	55.434
447.298	80.877
451.315	78.733
455.329	60.345
459.341	69.825
463.352	56.913
467.36	110.61
471.366	89.235
475.37	50.802
479.372	78.664
483.371	105.494
487.369	61.941
491.365	81.544
495.358	86.589
499.35	57.503
503.339	64.967
507.326	56.612
511.311	50.801
515.295	65.45
519.276	44.873
523.255	52.94
527.232	17.314
531.207	26.569
535.179	23.489
539.15	38.208
543.119	31.332
547.086	4.198
551.05	4.383
555.013	12.226
558.973	1.37
562.932	19.232
566.888	15.2
570.842	28.021
574.795	34.343
578.745	26.936
582.693	12.309
586.639	40.953
590.583	15.416
594.525	17.137
598.465	42.678
602.403	17.265
606.339	1.097
610.273	6.474
614.205	26.925
618.135	32.512
622.063	23.824
625.989	17.302
629.912	55.779
633.834	68.105
637.754	50.557
641.671	26.983
645.587	3.672
649.501	5.836
653.412	17.256
657.322	14.693
661.23	14.187
665.135	16.67
669.039	92.014
672.94	565.463
676.84	378.86
680.738	905.276
684.633	706.479
688.527	73.62
692.418	53.967
696.308	39.23
700.195	0.572
704.081	13.646
707.964	21.966
711.846	2.576
715.726	36.617
719.603	3.955
723.479	29.277
727.352	65.571
731.224	37.023
735.094	34.609
738.961	43.035
742.827	23.128
746.691	32.015
750.552	34.961
754.412	37.299
758.27	13.647
762.125	24.327
765.979	17.63
769.831	25.068
773.681	23.315
777.529	20.147
781.375	27.776
785.219	31.325
789.06	33.81
792.901	43.63
796.739	14.111
800.575	1.556
804.409	10.844
808.241	24.521
812.071	23.952
815.899	18.366
819.726	49.855
823.55	143.343
827.372	97.846
831.193	179.326
835.011	1054.82
838.828	2362.29
842.642	409.767
846.455	130.235
850.266	76.713
854.075	53.139
857.881	13.62
861.686	12.202
865.489	31.593
869.29	18.07
873.089	3.119
876.886	21.722
880.682	31.342
884.475	3.043
888.266	6.609
892.056	4.705
895.843	9.003
899.629	27.607
903.413	27.123
907.194	34.744
910.974	28.332
914.752	24.897
918.528	36.495
922.302	36.062
926.074	2.596
929.844	6.145
933.613	14.671
937.379	36.174
941.144	1.345
944.906	20.112
948.667	20.548
952.426	27.869
956.183	5.262
959.938	14.625
963.691	21.968
967.442	22.285
971.191	25.576
974.939	40.838
978.684	35.134
982.428	21.541
986.169	49.184
989.909	68.737
993.647	50.404
997.383	41.885
1001.12	56.127
1004.85	69.455
1008.58	58.538
1012.31	71.135
1016.03	82.248
1019.76	90.658
1023.48	125.916
1027.2	166.194
1030.92	380.549
1034.64	228.626
1038.36	400.604
1042.07	615.646
1045.78	1279.61
1049.49	5951.09
1053.2	64382.1
1056.9	5722.14
1060.61	1001.53
1064.31	485.874
1068.01	351.182
1071.71	233.385
1075.41	182.098
1079.1	156.873
1082.79	117.78
1086.48	89.729
1090.17	169.75
1093.86	130.719
1097.55	125.548
1101.23	124.673
1104.91	97.331
1108.59	90.843
1112.27	82.463
1115.95	68.029
1119.62	97.472
1123.3	68.921
1126.97	27.3
1130.63	6.63
1134.3	8.911
1137.97	19.136
1141.63	11.306
1145.29	33.411
1148.95	51.46
1152.61	31.445
1156.27	10.322
1159.92	35.107
1163.57	31.19
1167.22	0.627
1170.87	30.853
1174.52	40.262
1178.16	8.576
1181.81	33.793
1185.45	32.132
1189.09	0.208
1192.73	5.507
1196.36	8.379
1200	0.127
1203.63	8.832
1207.26	17.503
1210.89	2.152
1214.52	26.779
1218.14	12.607
1221.77	0.98
1225.39	22.416
1229.01	21.172
1232.62	34.765
1236.24	36.319
1239.86	61.837
1243.47	44.322
1247.08	24.775
1250.69	24.199
1254.3	16.599
1257.9	66.976
1261.5	41.33
1265.11	99.665
1268.71	81.982
1272.3	134.16
1275.9	104.866
1279.49	94.795
1283.09	87.925
1286.68	122.528
1290.27	156.634
1293.86	198.775
1297.44	256.543
1301.03	298.865
1304.61	319.732
1308.19	333.402
1311.77	357.251
1315.34	325.755
1318.92	371.758
1322.49	367.603
1326.06	428.55
1329.63	424.499
1333.2	488.569
1336.77	492.343
1340.33	572.24
1343.89	661.125
1347.46	801.854
1351.02	996.224
1354.57	1503.72
1358.13	1980.5
1361.68	2430.01
1365.23	2930.41
1368.79	3725.73
1372.33	4718.69
1375.88	4272.81
1379.43	2808.11
1382.97	1830.19
1386.51	1116.69
1390.05	736.201
1393.59	524.746
1397.13	377.341
1400.66	387.001
1404.19	387.728
1407.72	416.582
1411.25	425.626
1414.78	403.904
1418.31	364.371
1421.83	373.194
1425.36	284.424
1428.88	337.878
1432.39	225.487
1435.91	247.206
1439.43	198.009
1442.94	163.793
1446.45	210.735
1449.96	214.013
1453.47	245.636
1456.98	240.658
1460.48	254.136
1463.99	317.124
1467.49	321.665
1470.99	334.778
1474.49	423.521
1477.99	371.036
1481.48	322.54
1484.97	289.237
1488.46	176.372
1491.95	131.283
1495.44	73.497
1498.93	38.814
1502.41	5.473
1505.9	4.311
1509.38	43.818
