Measurement: Raman, 514 nm, depolarized, Raman Data Processed
Mineral: Cerussite
Rruff sample: R050023
Ideal chemistry: Pb^2+^CO_3_
Locality: Mammoth - St Anthony mine, Tiger, Pinal County, Arizona, USA
Source: Eugene Schlepp
Description: Prismatic white single crystals
Measured chemistry: Pb_1.00_CO_3_ ; CO_2_ not measured but estimated by difference and stoichiometry
Pin_id: L00263
Orientation: Laser parallel to -c* (0 0 -1). Fiducial mark perpendicular to laser is parallel to a [1 0 0]
Raman shift (cm-1)	intensity
54.275	0
58.48	16.939
62.683	22.978
66.884	4.354
71.083	68.21
75.28	259.816
79.474	303.604
83.667	351.273
87.858	489.887
92.046	799.849
96.233	1161.88
100.418	1607.6
104.6	2098.62
108.781	3012.66
112.959	4570.52
117.136	5825.05
121.31	5653.16
125.482	5228.03
129.653	5067.9
133.821	4330.64
137.987	3063.9
142.152	2206.32
146.314	1722.66
150.474	1430.02
154.633	1175.44
158.789	973.894
162.943	938.389
167.095	890.927
171.246	904.507
175.394	929.122
179.54	907.768
183.684	989.435
187.826	1120.56
191.967	1248.37
196.105	1521.6
200.241	1928.29
204.375	2369.87
208.507	2931.47
212.638	3334.5
216.766	3367.74
220.892	3025.55
225.016	2768.32
229.139	2300.37
233.259	1741.32
237.377	1311.97
241.493	977.581
245.608	799.394
249.72	621.11
253.83	495.391
257.939	387.882
262.045	269.375
266.15	273.769
270.252	191.244
274.353	147.773
278.451	153.293
282.548	111.749
286.642	93.328
290.735	78.693
294.826	60.155
298.914	32.602
303.001	26.017
307.086	16.265
311.168	10.362
315.249	1.322
319.328	7.838
323.405	15.078
327.48	22.411
331.553	15.833
335.624	2.374
339.693	4.979
343.76	0.223
347.826	10.627
351.889	13.544
355.95	14.549
360.01	8.721
364.067	21.083
368.123	4.549
372.176	3.704
376.228	0.162
380.277	5.739
384.325	8.482
388.371	9.72
392.415	9.918
396.457	0.298
400.497	13.625
404.535	14.723
408.571	6.63
412.605	36.468
416.638	26.496
420.668	29.089
424.697	46.493
428.723	40.786
432.748	40.002
436.77	52.085
440.791	58.047
444.81	38.992
448.827	57.66
452.842	48.237
456.855	51.575
460.867	44.793
464.876	47.888
468.883	50.863
472.889	82.718
476.892	82.438
480.894	76.714
484.894	82.053
488.892	73.15
492.888	83.245
496.882	74.602
500.874	62.579
504.865	69.129
508.853	56.348
512.84	43.91
516.824	35.432
520.807	37.911
524.788	21.313
528.767	23.582
532.744	30.052
536.719	24.742
540.693	25.531
544.664	14.832
548.634	4.781
552.601	20.589
556.567	20.52
560.531	18.13
564.493	21.143
568.453	19.922
572.412	0.62
576.368	17.385
580.323	25.087
584.275	16.889
588.226	16.697
592.175	10.433
596.122	26.14
600.068	12.797
604.011	27.357
607.952	10.92
611.892	32.498
615.83	37.926
619.766	44.223
623.7	57.481
627.632	65.788
631.563	67.205
635.491	43.555
639.418	45.909
643.343	23.234
647.266	11.55
651.187	18.839
655.106	9.119
659.024	24.363
662.939	36.719
666.853	309.908
670.765	732.024
674.675	870.097
678.583	140.176
682.49	55.17
686.394	23.136
690.297	2.187
694.198	35.13
698.097	2.148
701.995	2.088
705.89	0.098
709.784	5.526
713.675	15.869
717.565	37.834
721.453	58.913
725.34	86.032
729.224	88.628
733.107	71.674
736.988	35.214
740.867	48.614
744.744	33.106
748.62	16.484
752.493	13.545
756.365	29.647
760.235	18.117
764.103	8.272
767.969	37.002
771.834	23.313
775.697	42.491
779.558	27.652
783.417	22.806
787.274	26.989
791.13	27.163
794.983	28.736
798.835	19.183
802.686	16.042
806.534	15.11
810.38	15.198
814.225	2.165
818.068	21.351
821.909	39.496
825.749	46.613
829.586	78.724
833.422	356.801
837.256	1325.87
841.088	441.928
844.919	125.635
848.748	50.682
852.575	37.663
856.4	13.381
860.223	9.995
864.045	14.403
867.864	12.364
871.682	20.4
875.499	16.448
879.313	10.497
883.126	6.444
886.937	2.393
890.746	7.661
894.553	4.279
898.359	5.77
902.163	2.188
905.965	3.836
909.765	3.148
913.564	0.147
917.361	7.209
921.156	0.237
924.949	16.725
928.74	23.676
932.53	15.613
936.318	22.537
940.104	12.769
943.889	4.34
947.672	26.213
951.453	17.05
955.232	16.86
959.01	2.642
962.785	19.415
966.559	11.126
970.332	6.825
974.102	13.55
977.871	16.259
981.638	19.95
985.404	37.624
989.167	34.28
992.929	48.92
996.689	50.547
1000.45	44.173
1004.2	52.766
1007.96	86.371
1011.71	57.165
1015.46	76.891
1019.21	79.267
1022.96	115.06
1026.71	157.791
1030.45	511.746
1034.19	248.167
1037.94	314.061
1041.68	496.224
1045.41	1040.16
1049.15	3772.59
1052.88	65021.3
1056.62	19159.7
1060.35	2437.64
1064.08	652.023
1067.8	353.151
1071.53	269.077
1075.25	188.448
1078.97	164.68
1082.7	118.838
1086.41	129.973
1090.13	117.047
1093.85	122.07
1097.56	106.742
1101.27	98.915
1104.98	129.714
1108.69	104.667
1112.4	82.567
1116.1	66.516
1119.81	41.325
1123.51	52.217
1127.21	46.088
1130.91	44.935
1134.61	48.792
1138.3	35.632
1141.99	27.459
1145.68	12.268
1149.38	17.059
1153.06	7.832
1156.75	10.588
1160.43	6.325
1164.12	0.037
1167.8	38.715
1171.48	6.651
1175.16	11.93
1178.83	7.524
1182.51	15.026
1186.18	0.569
1189.85	5.162
1193.52	1.195
1197.19	5.466
1200.86	6.297
1204.52	15.857
1208.19	3.593
1211.85	8.664
1215.51	4.915
1219.17	0.15
1222.82	12.38
1226.48	14.615
1230.13	3.859
1233.78	33.115
1237.43	11.369
1241.08	23.617
1244.73	36.864
1248.37	38.116
1252.01	44.367
1255.66	65.614
1259.3	66.859
1262.93	97.102
1266.57	120.344
1270.21	112.585
1273.84	155.827
1277.47	141.072
1281.1	157.32
1284.73	177.575
1288.36	235.839
1291.98	236.112
1295.6	280.386
1299.23	335.675
1302.85	402.984
1306.46	452.037
1310.08	535.993
1313.7	662.784
1317.31	690.25
1320.92	702.064
1324.53	749.392
1328.14	819.789
1331.75	811.465
1335.35	892.748
1338.96	978.645
1342.56	1117.8
1346.16	1369.61
1349.76	1797.11
1353.36	2478.82
1356.95	3526.66
1360.55	4700.34
1364.14	5251.76
1367.73	4382.14
1371.32	3020.9
1374.91	1935.68
1378.49	1342
1382.08	975.488
1385.66	743.999
1389.24	525.532
1392.82	349.091
1396.4	289.676
1399.97	209.29
1403.55	193.935
1407.12	182.614
1410.69	194.326
1414.26	224.081
1417.83	180.914
1421.4	207.875
1424.96	200.986
1428.53	172.275
1432.09	146.714
1435.65	112.29
1439.21	74.983
1442.76	79.783
1446.32	58.625
1449.87	48.472
1453.43	74.446
1456.98	82.591
1460.53	134.93
1464.07	119.49
1467.62	149.306
1471.16	170.41
1474.71	164.823
1478.25	176.563
1481.79	179.666
1485.32	145.212
1488.86	122.314
1492.39	81.081
1495.93	59.648
1499.46	52.251
1502.99	20.026
1506.52	17.54
1510.05	17.37
1513.57	23.225
1517.09	11.291
