Measurement: Raman, 514 nm, depolarized, Raman Data Processed
Mineral: Cerussite
Rruff sample: R050174
Ideal chemistry: Pb^2+^CO_3_
Locality: Tsumeb mine, Tsumeb, Otavi District, Oshikoto, Namibia
Source: Marcus Origlieri
Description: Colorless single crystal
Measured chemistry: Pb_1.00_CO_3_ ; C not measured but estimated by difference and stoichiometry
Pin_id: L01208
Orientation: Laser parallel to c* (0 0 1). Fiducial mark perpendicular to laser is parallel to a [1 0 0]
Raman shift (cm-1)	intensity
51.431	0
56.387	84.8713
61.341	103.502
66.292	3212.83
71.241	8923.09
76.187	8905.76
81.131	5250.43
86.072	3531.5
91.012	3056.93
95.948	3331.67
100.883	3977.67
105.815	4989.52
110.744	6340.78
115.671	7785.82
120.596	8158.94
125.519	6801.34
130.439	5679.14
135.356	4588.19
140.271	3126.44
145.184	2262.18
150.094	1874.46
155.002	1499.23
159.908	1056.25
164.811	870.326
169.711	957.898
174.61	1009.23
179.505	1065.12
184.399	1043.6
189.29	1060.77
194.178	1297.04
199.064	1615.82
203.948	2117.52
208.829	2701.37
213.708	3362.7
218.585	3466.7
223.459	3359.45
228.33	2889.25
233.199	2208.46
238.066	1443.68
242.93	971.849
247.792	666.263
252.651	480.991
257.508	320.692
262.363	141.52
267.215	68.1281
272.064	31.7616
276.912	12.0564
281.756	36.9183
286.598	30.561
291.438	59.3406
296.276	68.0476
301.111	80.5542
305.943	63.6497
310.773	44.4519
315.601	35.7668
320.426	44.1942
325.248	34.7548
330.068	23.3447
334.886	20.1384
339.701	24.0028
344.514	5.98926
349.324	44.7833
354.132	21.2602
358.938	59.6788
363.741	63.3554
368.541	81.6934
373.339	80.8721
378.135	108.329
382.928	132.843
387.718	175.347
392.506	123.981
397.292	189.877
402.075	158.788
406.856	208.922
411.634	212.607
416.41	200.653
421.183	251.514
425.954	241.445
430.722	268.845
435.488	259.369
440.251	250.793
445.012	253.801
449.77	226.095
454.526	229.546
459.28	242.896
464.03	193.453
468.779	211.677
473.525	163.913
478.268	158.887
483.009	156.544
487.747	201.673
492.483	153.369
497.217	166.763
501.948	116.987
506.676	134.493
511.402	143.709
516.125	72.007
520.846	128.604
525.565	91.0514
530.281	62.3967
534.994	109.639
539.705	29.6757
544.413	101.508
549.119	87.1655
553.822	82.3392
558.523	20.0516
563.222	78.3777
567.917	37.1352
572.611	65.3954
577.302	103.076
581.99	71.427
586.676	91.1155
591.359	32.9243
596.04	53.9236
600.718	52.825
605.394	83.9008
610.067	64.15
614.737	72.3466
619.406	46.8854
624.071	126.584
628.734	104.367
633.395	108.27
638.053	70.2977
642.708	39.0029
647.361	74.1689
652.012	2.14014
656.66	15.5657
661.305	92.9128
665.948	301.727
670.588	674.35
675.226	760.558
679.861	210.763
684.494	116.929
689.124	63.432
693.752	91.7853
698.377	70.5664
702.999	3.1615
707.619	30.4778
712.237	40.8977
716.852	50.7869
721.464	108.538
726.074	58.5106
730.681	110.421
735.286	134.002
739.888	90.4341
744.488	80.4902
749.085	63.6915
753.68	13.9773
758.272	49.4037
762.861	37.8817
767.448	61.2685
772.033	4.1062
776.614	36.0389
781.194	36.7555
785.77	45.1537
790.345	76.4099
794.916	34.3293
799.485	28.7656
804.052	12.4854
808.616	22.7124
813.177	15.5709
817.736	8.68872
822.292	42.3368
826.846	99.5046
831.397	303.461
835.945	839.269
840.491	1088.53
845.035	247.048
849.576	63.5603
854.114	30.1735
858.65	62.6769
863.183	73.1711
867.713	33.6759
872.241	1.8446
876.767	31.7021
881.29	32.5079
885.81	63.8376
890.328	24.4023
894.843	12.9383
899.356	38.4036
903.866	46.9823
908.373	0.501221
912.878	40.8982
917.38	39.2126
921.88	61.5376
926.377	44.8275
930.872	22.8707
935.364	112.955
939.853	12.1378
944.34	12.6039
948.824	40.5807
953.306	45.7281
957.785	42.6833
962.261	21.7106
966.735	66.6876
971.207	52.578
975.675	63.4382
980.141	48.2611
984.605	77.0266
989.066	69.7314
993.524	70.3752
997.98	22.958
1002.43	108.436
1006.88	81.8885
1011.33	18.9182
1015.78	62.3643
1020.22	67.0754
1024.66	124.633
1029.1	211.182
1033.53	384.11
1037.97	307.952
1042.4	630.313
1046.82	3074.65
1051.25	26083.1
1055.67	56077.7
1060.09	5982.25
1064.51	680.924
1068.92	336.143
1073.33	173.619
1077.74	143.854
1082.15	103.294
1086.55	110.677
1090.95	104.917
1095.35	84.1057
1099.75	77.1914
1104.14	76.6003
1108.53	94.4358
1112.92	117.971
1117.31	90.4568
1121.69	60.7368
1126.07	114.744
1130.45	84.2454
1134.82	40.3906
1139.19	19.5415
1143.57	30.7331
1147.93	9.96313
1152.3	64.5415
1156.66	3.99878
1161.02	17.3115
1165.38	31.4844
1169.73	19.562
1174.08	37.5986
1178.43	38.6409
1182.78	44.6113
1187.12	39.4727
1191.46	57.2969
1195.8	48.9573
1200.14	16.5962
1204.47	36.0862
1208.8	19.5186
1213.13	7.82153
1217.46	33.1641
1221.78	7.45142
1226.1	29.3311
1230.42	54.8423
1234.73	21.0286
1239.04	39.1914
1243.35	47.3543
1247.66	111.535
1251.97	45.7395
1256.27	34.9724
1260.57	72.2388
1264.86	77.4522
1269.16	126.643
1273.45	178.528
1277.74	141.353
1282.03	171.788
1286.31	204.49
1290.59	224.92
1294.87	276.844
1299.14	329.775
1303.42	377.636
1307.69	510.791
1311.95	574.961
1316.22	697.364
1320.48	707.889
1324.74	931.058
1329	860.206
1333.26	893.797
1337.51	1016.01
1341.76	1230.11
1346	1595.34
1350.25	2136.25
1354.49	3304.32
1358.73	4886.7
1362.96	6109.53
1367.2	5307.34
1371.43	3553.51
1375.66	2237.85
1379.88	1439.38
1384.11	981.112
1388.33	639.033
1392.54	387.16
1396.76	268.748
1400.97	183.816
1405.18	234.089
1409.39	217.685
1413.59	292.194
1417.8	327.043
1421.99	265.238
1426.19	320.006
1430.38	312.675
1434.58	207.636
1438.77	194.921
1442.95	217.765
1447.13	250.808
1451.32	307.109
1455.49	416.835
1459.67	514.932
1463.84	612.496
1468.01	804.475
1472.18	781.854
1476.35	920.592
1480.51	840.695
1484.67	759.172
1488.83	556.984
1492.98	424.082
1497.13	272.499
1501.28	207.263
1505.43	105.206
1509.57	51.4338
1513.71	20.1277
1517.85	37.4939
1521.99	10.5962
1526.12	44.2927
1530.25	66.7944
1534.38	30.1294
1538.5	79.5425
1542.62	25.9648
1546.74	27.7305
1550.86	45.4522
1554.98	19.0815
1559.09	34.418
1563.2	5.13379
1567.31	84.7717
