Measurement: Raman, 514 nm, depolarized, Raman Data Processed
Mineral: Cerussite
Rruff sample: R040069
Ideal chemistry: Pb^2+^CO_3_
Locality: Broken Hill, New South Wales, Australia
Source: University of Arizona Mineral Museum
Description: Reticulated composite of colorless tabular crystals
Measured chemistry: Pb_1.04_C_0.98_O_3_
Pin_id: M00046
Orientation: Laser parallel to -c* (0 0 -1). Fiducial mark perpendicular to laser is parallel to a [1 0 0]
Raman shift (cm-1)	intensity
83.025	0
87.213	22.444
91.398	194.797
95.582	587.588
99.764	886.775
103.943	1389.03
108.121	1884.24
112.297	2921.76
116.47	3919.66
120.642	4163.56
124.811	3380.85
128.979	3205.74
133.144	2944.55
137.307	2157.48
141.469	1298.46
145.628	815.5
149.786	586.747
153.941	473.438
158.094	309.772
162.245	241.665
166.395	245.92
170.542	185.287
174.687	228.441
178.83	365.55
182.972	442.301
187.111	424.966
191.248	553.253
195.383	691.85
199.516	911.336
203.647	1212.75
207.777	1658.16
211.904	2070.32
216.029	2229.74
220.152	2053.79
224.273	1914.58
228.392	1815.53
232.509	1259.95
236.625	1026.71
240.738	810.225
244.849	617.325
248.958	383.204
253.065	385.206
257.171	191.534
261.274	62.004
265.375	182.525
269.475	211.99
273.572	165.68
277.667	80.258
281.76	55.154
285.852	143.964
289.941	114.423
294.029	19.792
298.114	37.331
302.198	85.681
306.279	107.353
310.359	15.965
314.436	7.76
318.512	88.091
322.586	67.733
326.657	19.24
330.727	61.519
334.795	13.521
338.861	84.426
342.924	69.625
346.986	118.26
351.046	191.667
355.104	74.563
359.16	12.215
363.214	25.512
367.267	123.546
371.317	88.394
375.365	66.045
379.411	38.403
383.456	59.897
387.498	66.82
391.539	83.838
395.577	177.55
399.614	247.924
403.649	99.333
407.681	102.629
411.712	123.523
415.741	70.994
419.768	115.172
423.793	144.558
427.816	34.255
431.837	183.54
435.857	91.158
439.874	22.417
443.889	66.223
447.903	143.869
451.914	191.961
455.924	38.208
459.932	51.207
463.938	157.871
467.941	70.58
471.943	109.457
475.944	91.658
479.942	95.306
483.938	130.735
487.932	70.248
491.925	87.481
495.915	32.034
499.904	143.372
503.891	82.297
507.876	23.896
511.859	15.387
515.84	190.805
519.819	176.374
523.796	101.706
527.771	63.913
531.745	88.276
535.716	92.669
539.686	138.59
543.654	80.694
547.62	61.721
551.584	112.491
555.546	157.721
559.506	178.148
563.465	147.271
567.421	62.819
571.376	75.905
575.329	97.448
579.279	24.99
583.228	11.596
587.175	106.723
591.121	250.329
595.064	118.595
599.006	79.958
602.945	177.354
606.883	167.789
610.819	178.991
614.753	122.794
618.685	190.963
622.615	396.599
626.544	427.525
630.471	428.17
634.395	166.154
638.318	173.888
642.239	208.896
646.158	361.197
650.076	475.293
653.991	213.022
657.905	175.011
661.817	195.868
665.726	177.174
669.635	515.365
673.541	712.581
677.445	259.414
681.348	63.312
685.248	4.967
689.147	146.623
693.044	27.991
696.94	48.302
700.833	2.094
704.724	51.758
708.614	99.9
712.502	106.548
716.388	20.779
720.272	39.595
724.155	108.597
728.035	243.055
731.914	128.794
735.791	57.774
739.666	57.316
743.539	206.45
747.41	226.416
751.28	78.874
755.148	9.24
759.014	19.295
762.878	129.999
766.74	225.365
770.601	161.509
774.46	146.601
778.316	5.233
782.172	52.896
786.025	297.006
789.876	153.047
793.726	9.953
797.574	40.987
801.42	42.903
805.264	188.783
809.107	274.653
812.947	141.512
816.786	60.359
820.623	186.411
824.459	223.43
828.292	343.098
832.124	290.88
835.954	676.807
839.782	622.264
843.608	312.605
847.433	317.665
851.255	272.039
855.076	474.341
858.895	430.289
862.713	308.916
866.528	254.996
870.342	257.989
874.154	254.079
877.965	110.229
881.773	146.401
885.58	202.467
889.385	225.024
893.188	231.532
896.989	287.594
900.789	224.188
904.587	200.892
908.383	267.457
912.177	222.972
915.97	59.733
919.76	206.492
923.55	181.185
927.337	65.551
931.122	192.029
934.906	158.96
938.688	245.816
942.468	370.114
946.247	156.229
950.023	250.829
953.798	168.071
957.572	165.385
961.343	172.354
965.113	239.323
968.881	276.299
972.647	163.431
976.411	68.402
980.174	55.169
983.935	7.943
987.694	244.285
991.452	265.513
995.207	176.616
998.961	220.355
1002.71	409.605
1006.46	190.138
1010.21	241.754
1013.96	271.018
1017.71	339.608
1021.45	447.265
1025.19	315.343
1028.93	432.153
1032.67	482.592
1036.41	404.201
1040.14	529.186
1043.87	606.506
1047.61	1379.46
1051.34	8978.34
1055.06	46608.6
1058.79	3867.13
1062.52	827.345
1066.24	487.304
1069.96	334.117
1073.68	201.144
1077.4	267.886
1081.11	404.381
1084.83	430.996
1088.54	427.193
1092.25	293.348
1095.96	299.46
1099.67	45.474
1103.37	31.808
1107.08	157.837
1110.78	283.602
1114.48	249.533
1118.18	365.16
1121.88	160.453
1125.57	142.863
1129.27	26.185
1132.96	68.712
1136.65	49.042
1140.34	176.064
1144.02	257.195
1147.71	101.656
1151.39	13.766
1155.07	49.717
1158.76	5.57
1162.43	78.336
1166.11	101.86
1169.79	145.244
1173.46	198.503
1177.13	191.643
1180.8	114.605
1184.47	102.652
1188.14	59.735
1191.8	22.002
1195.46	214.096
1199.13	295.952
1202.79	187.636
1206.45	209.121
1210.1	29.576
1213.76	71.503
1217.41	22.473
1221.06	183.334
1224.71	154.119
1228.36	414.831
1232.01	165.449
1235.65	235.97
1239.3	286.387
1242.94	146.701
1246.58	46.629
1250.22	96.386
1253.85	206.584
1257.49	316.566
1261.12	459.42
1264.75	288.943
1268.38	388.453
1272.01	296.582
1275.64	155.551
1279.27	57.957
1282.89	67.225
1286.51	46.66
1290.13	313.591
1293.75	325.476
1297.37	349.797
1300.98	292.681
1304.6	169.456
1308.21	217.406
1311.82	164.503
1315.43	312.559
1319.03	449.976
1322.64	507.579
1326.24	622.293
1329.85	708.013
1333.44	475.719
1337.04	603.127
1340.64	475.668
1344.24	611.666
1347.83	866.22
1351.42	1272.54
1355.01	1803.83
1358.6	2721.74
1362.19	3479.61
1365.78	3318.39
1369.36	2250.09
1372.94	1619.37
1376.53	768.293
1380.1	494.885
1383.68	533.055
1387.26	300.552
1390.83	238.261
1394.41	255.94
1397.98	373.664
1401.55	415.736
1405.12	285.098
1408.68	302.201
1412.25	149.473
1415.81	16.938
1419.37	65.236
1422.93	22.641
1426.49	70.895
1430.05	429.413
1433.6	498.28
1437.15	517.479
1440.71	747.045
1444.26	916.676
1447.81	686.236
1451.35	725.905
1454.9	855.767
1458.44	645.398
1461.98	588.016
1465.53	708.475
1469.07	609.672
1472.6	742.541
1476.14	845.294
1479.67	896.815
1483.21	748.631
1486.74	660.803
1490.27	373.402
1493.8	277.572
1497.32	123.689
1500.85	183.367
1504.37	96.213
1507.89	25.803
1511.41	169.977
1514.93	299.592
1518.45	0
