Measurement: Raman, 514 nm, depolarized, Raman Data Processed
Mineral: Cerussite
Rruff sample: R050174
Ideal chemistry: Pb^2+^CO_3_
Locality: Tsumeb mine, Tsumeb, Otavi District, Oshikoto, Namibia
Source: Marcus Origlieri
Description: Colorless single crystal
Measured chemistry: Pb_1.00_CO_3_ ; C not measured but estimated by difference and stoichiometry
Pin_id: L01652
Orientation: Laser parallel to -b* (0 -1 0). Fiducial mark perpendicular to laser is parallel to c [0 0 1]
Raman shift (cm-1)	intensity
51.431	0
56.387	47.3658
61.341	1.24597
66.292	775.617
71.241	2763.73
76.187	5157.88
81.131	4059.96
86.072	3779.93
91.012	4903.18
95.948	6554.36
100.883	8735.23
105.815	11861.4
110.744	7087.83
115.671	3784.03
120.596	3155.06
125.519	3732.46
130.439	5111.11
135.356	6272.84
140.271	5379.23
145.184	4653.23
150.094	4594.76
155.002	3864.91
159.908	2709.6
164.811	1900.72
169.711	1532.04
174.61	1427.97
179.505	1491.87
184.399	1408.74
189.29	1256.48
194.178	1242.21
199.064	1401.74
203.948	1666.29
208.829	1909.72
213.708	2248.88
218.585	2105.67
223.459	1622.33
228.33	1054.94
233.199	765.978
238.066	631.989
242.93	493.22
247.792	372.091
252.651	276.861
257.508	231.449
262.363	204.672
267.215	130.507
272.064	94.3536
276.912	79.1742
281.756	52.9562
286.598	15.8105
291.438	5.21143
296.276	19.5293
301.111	44.3965
305.943	37.0513
310.773	29.8638
315.601	4.60364
320.426	46.9144
325.248	32.8462
330.068	0.48291
334.886	53.4528
339.701	31.2837
344.514	10.2827
349.324	8.70605
354.132	34.3086
358.938	18.7869
363.741	24.3321
368.541	37.8618
373.339	0.761963
378.135	28.2006
382.928	22.4435
387.718	26.4589
392.506	12.8435
397.292	34.5429
402.075	50.5381
406.856	41.8227
411.634	31.4764
416.41	100.613
421.183	51.7582
425.954	76.7048
430.722	59.4558
435.488	135.262
440.251	91.0591
445.012	96.6787
449.77	82.788
454.526	119.105
459.28	128.918
464.03	97.0708
468.779	131.448
473.525	134.186
478.268	140.083
483.009	166.114
487.747	140.935
492.483	87.2028
497.217	115.69
501.948	168.495
506.676	125.632
511.402	75.8423
516.125	66.0974
520.846	70.4977
525.565	56.5772
530.281	51.314
534.994	40.368
539.705	62.7063
544.413	95.1269
549.119	52.6364
553.822	100.698
558.523	44.7493
563.222	43.7025
567.917	34.3628
572.611	28.5161
577.302	98.9857
581.99	43.5472
586.676	74.7738
591.359	53.2782
596.04	69.6133
600.718	55.3478
605.394	61.3557
610.067	47.2299
614.737	87.3967
619.406	36.6242
624.071	102.979
628.734	112.143
633.395	85.1348
638.053	82.779
642.708	46.1227
647.361	29.4452
652.012	10.5957
656.66	18.9205
661.305	49.2626
665.948	94.1962
670.588	143.71
675.226	886.027
679.861	462.233
684.494	1381.71
689.124	149.434
693.752	60.7824
698.377	79.1179
702.999	34.3297
707.619	36.3618
712.237	21.3473
716.852	47.9438
721.464	2.67835
726.074	143.932
730.681	119.547
735.286	67.22
739.888	56.2576
744.488	58.3287
749.085	82.0571
753.68	11.8728
758.272	33.6235
762.861	6.37598
767.448	26.5452
772.033	20.7173
776.614	28.9635
781.194	34.0498
785.77	46.7853
790.345	36.7623
794.916	26.2447
799.485	68.1305
804.052	36.9048
808.616	6.69311
813.177	74.8441
817.736	55.8212
822.292	97.8274
826.846	158.677
831.397	391.537
835.945	867.393
840.491	2472.46
845.035	444.327
849.576	145.674
854.114	109.571
858.65	59.3441
863.183	7.96265
867.713	15.8989
872.241	56.8424
876.767	40.8085
881.29	15.7722
885.81	17.204
890.328	44.7789
894.843	19.5712
899.356	5.55969
903.866	15.358
908.373	23.7447
912.878	5.93494
917.38	36.8904
921.88	7.2594
926.377	6.58276
930.872	12.4166
935.364	49.2145
939.853	49.9934
944.34	50.2295
948.824	44.9874
953.306	7.73682
957.785	43.4288
962.261	0.091675
966.735	57.6931
971.207	31.239
975.675	38.7574
980.141	23.7155
984.605	28.1544
989.066	39.5486
993.524	27.8992
997.98	22.6266
1002.43	19.8936
1006.88	91.0282
1011.33	55.3108
1015.78	53.9413
1020.22	54.8402
1024.66	62.0162
1029.1	142.571
1033.53	241.594
1037.97	243.267
1042.4	422.053
1046.82	1669.8
1051.25	9564.79
1055.67	62873.3
1060.09	6091.64
1064.51	603.812
1068.92	277.323
1073.33	171.251
1077.74	164.265
1082.15	133.167
1086.55	121.198
1090.95	114.997
1095.35	68.037
1099.75	78.9716
1104.14	81.6467
1108.53	67.2362
1112.92	64.7521
1117.31	43.1827
1121.69	95.5546
1126.07	60.5149
1130.45	28.9842
1134.82	53.0627
1139.19	16.0828
1143.57	9.04712
1147.93	6.62036
1152.3	18.1277
1156.66	16.5754
1161.02	15.2598
1165.38	54.2993
1169.73	34.5876
1174.08	5.83032
1178.43	27.0061
1182.78	16.0737
1187.12	31.009
1191.46	3.1311
1195.8	6.66919
1200.14	33.4509
1204.47	13.846
1208.8	8.72583
1213.13	4.73389
1217.46	4.71802
1221.78	78.165
1226.1	0.564453
1230.42	31.9514
1234.73	59.3384
1239.04	48.7288
1243.35	85.6841
1247.66	38.0532
1251.97	78.4851
1256.27	25.928
1260.57	93.9399
1264.86	99.4045
1269.16	99.8611
1273.45	114.582
1277.74	158.222
1282.03	133.343
1286.31	195.738
1290.59	177.529
1294.87	195.422
1299.14	303.062
1303.42	217.01
1307.69	342.765
1311.95	405.606
1316.22	387.539
1320.48	459.651
1324.74	386.809
1329	451.494
1333.26	459.642
1337.51	501.506
1341.76	509.022
1346	601.097
1350.25	820.509
1354.49	1084.2
1358.73	1532.64
1362.96	2205.21
1367.2	2590.92
1371.43	3493.77
1375.66	4538.85
1379.88	4461.34
1384.11	3053.99
1388.33	1689.49
1392.54	1049.17
1396.76	679.115
1400.97	506.196
1405.18	424.584
1409.39	381.208
1413.59	357.051
1417.8	382.109
1421.99	440.41
1426.19	440.01
1430.38	357.057
1434.58	382.748
1438.77	288.357
1442.95	214.814
1447.13	164.365
1451.32	95.9949
1455.49	120.981
1459.67	125.349
1463.84	100.041
1468.01	85.0669
1472.18	46.3745
1476.35	75.9651
1480.51	110.871
1484.67	79.0808
1488.83	52.5908
1492.98	26.3914
1497.13	56.4724
1501.28	3.81323
1505.43	68.3364
1509.57	34.991
1513.71	32.0371
1517.85	7.37402
1521.99	140.765
1526.12	48.4824
1530.25	7.81567
1534.38	102.82
1538.5	86.0938
1542.62	72.6111
1546.74	59.7566
1550.86	7.55786
1554.98	6.06494
1559.09	42.6841
1563.2	1.47632
1567.31	56.2275
