Measurement: Raman, 514 nm, depolarized, Raman Data Processed
Mineral: Cerussite
Rruff sample: R060017
Ideal chemistry: Pb^2+^CO_3_
Locality: Gonessa, Sardinia, Italy
Source: American Museum of Natural History
Description: White reticulated composite
Measured chemistry: Pb_1.00_CO_3_ C not measured but estimated by difference and stoichiometry
Pin_id: M00430
Orientation: Laser parallel to c* (0 0 1). Fiducial mark perpendicular to laser is parallel to a [1 0 0]
Raman shift (cm-1)	intensity
51.431	0
56.387	27.3555
61.341	1381.67
66.292	6926.6
71.241	10369.4
76.187	7348.52
81.131	5462.6
86.072	5664.57
91.012	7895.7
95.948	10349.2
100.883	11711.7
105.815	11183
110.744	10903.2
115.671	10929.5
120.596	9884.86
125.519	8590.67
130.439	7965.83
135.356	6966.72
140.271	6262.98
145.184	5972.11
150.094	5052.98
155.002	3872.42
159.908	3032.49
164.811	2991.88
169.711	3193.19
174.61	3062.46
179.505	2656.55
184.399	2246.2
189.29	2114.09
194.178	2304.3
199.064	2934.09
203.948	3341.06
208.829	4009
213.708	4209.71
218.585	4130.54
223.459	3689.56
228.33	2941.35
233.199	2232.83
238.066	1650.06
242.93	1232.22
247.792	843.236
252.651	434.159
257.508	386.864
262.363	151.891
267.215	1.54688
272.064	28.0444
276.912	16.0523
281.756	91.5342
286.598	88.0325
291.438	119.578
296.276	68.7195
301.111	127.124
305.943	152.792
310.773	62.2065
315.601	156.665
320.426	30.9077
325.248	46.9668
330.068	36.5007
334.886	8.5127
339.701	20.6245
344.514	27.2
349.324	22.7234
354.132	44.5569
358.938	77.7778
363.741	137.48
368.541	76.699
373.339	109.469
378.135	130.463
382.928	188.551
387.718	224.627
392.506	259.685
397.292	200.55
402.075	270.619
406.856	254.37
411.634	245.349
416.41	223.202
421.183	339.031
425.954	297.181
430.722	280.618
435.488	325.779
440.251	309.899
445.012	312.822
449.77	320.193
454.526	265.81
459.28	288.036
464.03	174.547
468.779	213.935
473.525	328.873
478.268	277.523
483.009	281.56
487.747	218.483
492.483	168.477
497.217	227.138
501.948	267.353
506.676	241.243
511.402	193.242
516.125	308.17
520.846	208.817
525.565	125.671
530.281	163.406
534.994	147.312
539.705	108.222
544.413	190.593
549.119	114.873
553.822	147.585
558.523	139.073
563.222	86.7534
567.917	70.2681
572.611	91.1421
577.302	81.5869
581.99	84.5376
586.676	127.606
591.359	166.45
596.04	83.1914
600.718	137.674
605.394	101.58
610.067	104.694
614.737	131.211
619.406	157.44
624.071	154.628
628.734	209.904
633.395	219.688
638.053	173.53
642.708	248.481
647.361	60.4902
652.012	114.574
656.66	67.3198
661.305	351.4
665.948	838.752
670.588	1013.4
675.226	875.949
679.861	758.437
684.494	300.808
689.124	226.013
693.752	265.483
698.377	58.6279
702.999	1.91943
707.619	42.1616
712.237	23.5146
716.852	136.804
721.464	124.569
726.074	43.2017
730.681	84.8799
735.286	96.4243
739.888	133.302
744.488	22.5649
749.085	10.5239
753.68	135.526
758.272	2.07422
762.861	71.2793
767.448	155.801
772.033	59.2598
776.614	55.9644
781.194	101.523
785.77	103.153
790.345	133.982
794.916	62.0698
799.485	54.6523
804.052	82.8374
808.616	42.8091
813.177	16.1157
817.736	80.1025
822.292	90.2549
826.846	210.538
831.397	945.034
835.945	1140.48
840.491	463.925
845.035	141.924
849.576	119.517
854.114	32.3262
858.65	67.3135
863.183	71.3403
867.713	14.3613
872.241	1.2666
876.767	75.0698
881.29	13.5957
885.81	64.9399
890.328	116.481
894.843	17.4863
899.356	60.4087
903.866	49.2402
908.373	61.4985
912.878	58.6382
917.38	67.7002
921.88	1.35059
926.377	170.33
930.872	16.8931
935.364	39.5225
939.853	134.437
944.34	56.7534
948.824	93.3525
953.306	43.5347
957.785	117.554
962.261	0.479492
966.735	130.353
971.207	159.99
975.675	62.6245
980.141	119.294
984.605	47.9253
989.066	254.781
993.524	147.619
997.98	208.279
1002.43	167.195
1006.88	134.456
1011.33	81.4253
1015.78	68.9199
1020.22	194.37
1024.66	234.681
1029.1	434.834
1033.53	350.39
1037.97	564.014
1042.4	1876.62
1046.82	28701
1051.25	50418.5
1055.67	20525.9
1060.09	1387.75
1064.51	490.129
1068.92	220.481
1073.33	230.288
1077.74	260.25
1082.15	279.459
1086.55	240.762
1090.95	215.914
1095.35	257.108
1099.75	187.13
1104.14	84.1738
1108.53	8.78711
1112.92	171.561
1117.31	134.16
1121.69	245.533
1126.07	119.139
1130.45	86.9595
1134.82	14.1514
1139.19	150.393
1143.57	52.3662
1147.93	42.9385
1152.3	28.5811
1156.66	45.001
1161.02	43.1885
1165.38	3.82715
1169.73	34.8984
1174.08	23.4121
1178.43	47.4629
1182.78	112.111
1187.12	57.5527
1191.46	67.8242
1195.8	56.7969
1200.14	35.4111
1204.47	141.158
1208.8	23.5752
1213.13	84.7588
1217.46	51.7812
1221.78	4.69531
1226.1	77.5078
1230.42	80.1875
1234.73	42.4072
1239.04	26.9619
1243.35	98.167
1247.66	50.9209
1251.97	103.264
1256.27	171.457
1260.57	118.678
1264.86	286.513
1269.16	315.682
1273.45	111.037
1277.74	296.731
1282.03	358.824
1286.31	422.353
1290.59	399.379
1294.87	361.91
1299.14	523.014
1303.42	669.878
1307.69	757.82
1311.95	888.465
1316.22	837.731
1320.48	1081.17
1324.74	1118.81
1329	1049.08
1333.26	1140.41
1337.51	1540.78
1341.76	1908.95
1346	2476.62
1350.25	3633.83
1354.49	5260.98
1358.73	6955.61
1362.96	7068.88
1367.2	5902.68
1371.43	4910.53
1375.66	3905.04
1379.88	2621.73
1384.11	1638.59
1388.33	944.127
1392.54	603.144
1396.76	421.815
1400.97	466.902
1405.18	461.327
1409.39	489.978
1413.59	725.002
1417.8	607.936
1421.99	801.158
1426.19	669.645
1430.38	682.273
1434.58	635.062
1438.77	756.505
1442.95	920.871
1447.13	1193.2
1451.32	1338.86
1455.49	1771.27
1459.67	2057.58
1463.84	2470.68
1468.01	2958.64
1472.18	3100.73
1476.35	3206.72
1480.51	2812.6
1484.67	2276.34
1488.83	1649.93
1492.98	1013.38
1497.13	752.657
1501.28	623.61
1505.43	378.943
1509.57	150.753
1513.71	137.677
1517.85	98.2061
1521.99	142.419
1526.12	150.361
1530.25	72.1465
1534.38	145.956
1538.5	51.1172
1542.62	56.2959
1546.74	3.16113
1550.86	13.96
1554.98	10.3848
1559.09	84.4434
1563.2	162.351
1567.31	12.3408
