Measurement: Raman, 514 nm, depolarized, Raman Data Processed
Mineral: Cerussite
Rruff sample: R050298
Ideal chemistry: Pb^2+^CO_3_
Locality: Bunker Hill mine, Shoshone County, Idaho, USA
Source: Eugene Schlepp
Description: Group of colorless tabular crystals
Measured chemistry: Pb_1.00_CO_3_
Pin_id: L01724
Orientation: Laser parallel to c* (0 0 1). Fiducial mark perpendicular to laser is parallel to a [1 0 0]
Raman shift (cm-1)	intensity
51.431	0
56.387	56.5436
61.341	15.4612
66.292	1756.46
71.241	6426.12
76.187	8519.19
81.131	5253.84
86.072	3464.55
91.012	2812.31
95.948	2839.93
100.883	3115.51
105.815	3579.95
110.744	4068.31
115.671	5374.82
120.596	6344.16
125.519	5584.43
130.439	4895.14
135.356	4438.42
140.271	3119.33
145.184	2207.24
150.094	1777.22
155.002	1446.94
159.908	1117.1
164.811	892.678
169.711	907.736
174.61	1084.28
179.505	1093.85
184.399	1012.57
189.29	1005.41
194.178	1120.25
199.064	1414.12
203.948	1768.47
208.829	2346.33
213.708	2849.6
218.585	3030.27
223.459	2791.48
228.33	2502.79
233.199	1937.63
238.066	1304.67
242.93	968.135
247.792	675.489
252.651	462.239
257.508	351.006
262.363	247.258
267.215	76.0142
272.064	77.1338
276.912	43.6125
281.756	6.19849
286.598	34.6724
291.438	14.521
296.276	50.074
301.111	15.6858
305.943	10.5078
310.773	22.8691
315.601	30.0205
320.426	14.6191
325.248	65.8848
330.068	59.5991
334.886	33.196
339.701	11.738
344.514	38.6362
349.324	39.8188
354.132	31.9038
358.938	15.6572
363.741	0.336182
368.541	37.3162
373.339	58.6575
378.135	9.22681
382.928	89.6929
387.718	101.76
392.506	122.383
397.292	91.5055
402.075	109.626
406.856	100.499
411.634	108.915
416.41	76.3376
421.183	140.792
425.954	147.179
430.722	156.983
435.488	164.877
440.251	222.731
445.012	157.474
449.77	113.268
454.526	129.139
459.28	118.026
464.03	180.958
468.779	141.886
473.525	142.618
478.268	144.375
483.009	220.869
487.747	167.413
492.483	129.061
497.217	143.946
501.948	119.089
506.676	166.482
511.402	113.356
516.125	143.652
520.846	139.417
525.565	118.216
530.281	114.252
534.994	107.113
539.705	75.8643
544.413	68.4695
549.119	49.4692
553.822	37.2483
558.523	64.0933
563.222	57.2473
567.917	49.0437
572.611	64.0105
577.302	85.0881
581.99	50.2002
586.676	127.16
591.359	146.554
596.04	103.292
600.718	39.5889
605.394	80.7463
610.067	38.9702
614.737	67.947
619.406	80.7107
624.071	150.923
628.734	129.008
633.395	64.397
638.053	161.849
642.708	54.2378
647.361	72.6436
652.012	40.3511
656.66	71.6877
661.305	93.8731
665.948	218.892
670.588	538.328
675.226	840.848
679.861	250.555
684.494	139.826
689.124	111.851
693.752	95.9878
698.377	92.3018
702.999	60.7212
707.619	7.18921
712.237	5.75073
716.852	30.7593
721.464	35.9731
726.074	144.499
730.681	139.857
735.286	75.7422
739.888	39.5234
744.488	41.0122
749.085	31.4138
753.68	11.4492
758.272	2.48755
762.861	21.4744
767.448	32.3301
772.033	40.3227
776.614	43.0388
781.194	89.084
785.77	94.0437
790.345	1.50195
794.916	109.365
799.485	62.063
804.052	18.0588
808.616	97.6501
813.177	52.8599
817.736	70.0574
822.292	95.0923
826.846	106.183
831.397	195.246
835.945	500.541
840.491	1195.22
845.035	274.021
849.576	103.645
854.114	63.8586
858.65	17.908
863.183	12.5867
867.713	27.6406
872.241	45.6284
876.767	38.3196
881.29	27.7363
885.81	106.742
890.328	13.6716
894.843	76.75
899.356	33.3367
903.866	76.5381
908.373	48.4168
912.878	96.1626
917.38	23.9002
921.88	47.6348
926.377	2.625
930.872	124.053
935.364	51.7036
939.853	26.2278
944.34	30.8498
948.824	4.57422
953.306	103.813
957.785	10.3374
962.261	18.8274
966.735	1.27148
971.207	53.6614
975.675	35.0154
980.141	134.325
984.605	90.0596
989.066	96.2095
993.524	87.2795
997.98	70.4348
1002.43	143.794
1006.88	41.0718
1011.33	121.018
1015.78	123.506
1020.22	119.68
1024.66	122.243
1029.1	166.328
1033.53	409.995
1037.97	210.83
1042.4	353.545
1046.82	1385.59
1051.25	10974.4
1055.67	59224.2
1060.09	6757.93
1064.51	817.052
1068.92	317.106
1073.33	148.856
1077.74	79.5657
1082.15	221.586
1086.55	85.3186
1090.95	89.001
1095.35	171.607
1099.75	208.954
1104.14	53.9094
1108.53	104.343
1112.92	132.708
1117.31	69.1064
1121.69	72.8084
1126.07	144.825
1130.45	36.5957
1134.82	25.5901
1139.19	54.5647
1143.57	13.4231
1147.93	29.0452
1152.3	21.6914
1156.66	32.2954
1161.02	23.8579
1165.38	8.29126
1169.73	36.6174
1174.08	1.11011
1178.43	4.85644
1182.78	2.64941
1187.12	12.4697
1191.46	10.5234
1195.8	45.5002
1200.14	33.5149
1204.47	55.5122
1208.8	100.33
1213.13	17.1116
1217.46	8.14282
1221.78	31.4734
1226.1	40.0867
1230.42	44.7144
1234.73	2.35449
1239.04	43.0051
1243.35	25.6824
1247.66	60.9207
1251.97	84.7078
1256.27	13.5356
1260.57	63.415
1264.86	120.831
1269.16	58.4358
1273.45	127.367
1277.74	129.877
1282.03	93.1128
1286.31	87.429
1290.59	137.379
1294.87	195.582
1299.14	315.178
1303.42	346.253
1307.69	461.543
1311.95	444.149
1316.22	481.069
1320.48	585.953
1324.74	613.273
1329	712.687
1333.26	754.08
1337.51	817.687
1341.76	933.515
1346	1124.45
1350.25	1515.69
1354.49	2390.85
1358.73	3632.12
1362.96	4596.13
1367.2	4293.76
1371.43	3014.55
1375.66	1983.51
1379.88	1218.65
1384.11	830.966
1388.33	510.286
1392.54	292.982
1396.76	281.521
1400.97	193.779
1405.18	105.221
1409.39	225.897
1413.59	199.819
1417.8	204.016
1421.99	327.09
1426.19	222.958
1430.38	161.892
1434.58	146.366
1438.77	184.856
1442.95	130.014
1447.13	224.296
1451.32	292.039
1455.49	351.129
1459.67	434.699
1463.84	464.734
1468.01	591.09
1472.18	688.779
1476.35	663.795
1480.51	706.148
1484.67	571.833
1488.83	527.736
1492.98	365.957
1497.13	186.482
1501.28	142.168
1505.43	80.0669
1509.57	41.2349
1513.71	65.9277
1517.85	12.2256
1521.99	101.127
1526.12	81.6553
1530.25	22.852
1534.38	36.7964
1538.5	81.6211
1542.62	96.5532
1546.74	87.4185
1550.86	67.8252
1554.98	30.165
1559.09	148.097
1563.2	131.211
1567.31	8.21338
