Measurement: Raman, 514 nm, depolarized, Raman Data Processed
Mineral: Cerussite
Rruff sample: R060017
Ideal chemistry: Pb^2+^CO_3_
Locality: Gonessa, Sardinia, Italy
Source: American Museum of Natural History
Description: White reticulated composite
Measured chemistry: Pb_1.00_CO_3_ C not measured but estimated by difference and stoichiometry
Pin_id: M00261
Orientation: Laser parallel to a* (1 0 0). Fiducial mark perpendicular to laser is parallel to b [0 1 0]
Raman shift (cm-1)	intensity
51.431	0
56.387	62.2955
61.341	392.449
66.292	2822.22
71.241	5453.74
76.187	4731.22
81.131	4533.18
86.072	5683.82
91.012	8390.68
95.948	11219.2
100.883	13410.5
105.815	11955.8
110.744	9627.99
115.671	10311.5
120.596	10560.1
125.519	10340.8
130.439	10433.6
135.356	9661.66
140.271	9074.22
145.184	9122.93
150.094	8604.96
155.002	7195.98
159.908	5804.41
164.811	5368.55
169.711	5640.14
174.61	5611.84
179.505	4975.41
184.399	3759.39
189.29	3159.82
194.178	2796.17
199.064	2768.86
203.948	3011.54
208.829	3039.18
213.708	3097.39
218.585	3204.52
223.459	3013.57
228.33	2678.79
233.199	2307.47
238.066	1988.86
242.93	1677.29
247.792	1305.34
252.651	926.242
257.508	847.722
262.363	462.331
267.215	309.511
272.064	254.365
276.912	187.212
281.756	189.536
286.598	130.255
291.438	43.1812
296.276	57.1548
301.111	51.748
305.943	8.3706
310.773	44.7134
315.601	46.8037
320.426	32.0918
325.248	108.309
330.068	43.4453
334.886	123.229
339.701	42.5464
344.514	120.624
349.324	5.22168
354.132	29.1064
358.938	59.9834
363.741	45.4722
368.541	48.084
373.339	38.8618
378.135	77.3633
382.928	47.1606
387.718	42.4609
392.506	37.3179
397.292	72.7075
402.075	105.666
406.856	35.5176
411.634	28.4331
416.41	78.2485
421.183	106.447
425.954	6.93506
430.722	144.094
435.488	83.2344
440.251	85.0371
445.012	177.406
449.77	194.697
454.526	280.754
459.28	196.961
464.03	148.095
468.779	266.625
473.525	170.458
478.268	236.601
483.009	254.565
487.747	258.823
492.483	261.492
497.217	205.738
501.948	261.6
506.676	176.566
511.402	265.379
516.125	223.274
520.846	359.121
525.565	181.241
530.281	214.197
534.994	179.341
539.705	217.765
544.413	212.509
549.119	206.207
553.822	221.356
558.523	153.453
563.222	178.275
567.917	241.999
572.611	141.134
577.302	241.056
581.99	105.963
586.676	265.845
591.359	110.006
596.04	283.748
600.718	151.566
605.394	118.093
610.067	287.903
614.737	249.953
619.406	320.541
624.071	305.28
628.734	357.914
633.395	198.221
638.053	191.685
642.708	256.568
647.361	170.762
652.012	177.91
656.66	264.629
661.305	206.43
665.948	438.851
670.588	775.962
675.226	932.425
679.861	930.449
684.494	472.662
689.124	375.951
693.752	527.41
698.377	163.974
702.999	21.2275
707.619	22.1035
712.237	47.8691
716.852	59.5596
721.464	122.384
726.074	103.611
730.681	100.884
735.286	126.566
739.888	181.985
744.488	150.879
749.085	148.694
753.68	42.9707
758.272	27.0762
762.861	176.224
767.448	52.0107
772.033	132.409
776.614	50.8477
781.194	163.395
785.77	211.608
790.345	157.231
794.916	48.0478
799.485	103.891
804.052	239.634
808.616	179.86
813.177	151.208
817.736	226.301
822.292	232.228
826.846	402.668
831.397	1195.62
835.945	2254.15
840.491	994.065
845.035	275.994
849.576	219.159
854.114	249.699
858.65	283.932
863.183	90.7314
867.713	108.057
872.241	105.939
876.767	138.869
881.29	159.829
885.81	152.731
890.328	39.4512
894.843	93.3193
899.356	17.9795
903.866	73.7344
908.373	128.974
912.878	43.5088
917.38	222.702
921.88	172.825
926.377	155.404
930.872	85.9336
935.364	13.8887
939.853	106.967
944.34	54.0391
948.824	139.742
953.306	113.417
957.785	183.961
962.261	104.99
966.735	125.355
971.207	105.67
975.675	36.0225
980.141	73.1826
984.605	42.3193
989.066	302.318
993.524	269.181
997.98	347.935
1002.43	222.399
1006.88	243.378
1011.33	279.953
1015.78	65.7412
1020.22	308.467
1024.66	327.413
1029.1	445.184
1033.53	543.764
1037.97	529.798
1042.4	1342.66
1046.82	11442.9
1051.25	42211.1
1055.67	26240.2
1060.09	1500.51
1064.51	564.739
1068.92	292.535
1073.33	289.285
1077.74	331.342
1082.15	232.92
1086.55	284.166
1090.95	68.5352
1095.35	319.078
1099.75	244.484
1104.14	194.417
1108.53	353.237
1112.92	198.143
1117.31	393.202
1121.69	545.152
1126.07	329.816
1130.45	187.94
1134.82	86.9697
1139.19	160.519
1143.57	27.0107
1147.93	42.5176
1152.3	43.0469
1156.66	11.9775
1161.02	27.5488
1165.38	15.4521
1169.73	130.802
1174.08	29.7822
1178.43	20.4189
1182.78	102.727
1187.12	67.6201
1191.46	22.9326
1195.8	21.1123
1200.14	73.5811
1204.47	27.916
1208.8	93.3682
1213.13	108.588
1217.46	37.7119
1221.78	44.1221
1226.1	82.9111
1230.42	111.57
1234.73	40.9385
1239.04	73.4356
1243.35	51.8145
1247.66	42.1895
1251.97	70.5879
1256.27	36.9727
1260.57	116.457
1264.86	147.033
1269.16	112.153
1273.45	229.347
1277.74	120.145
1282.03	141.832
1286.31	164.217
1290.59	167.716
1294.87	174.044
1299.14	286.956
1303.42	365.188
1307.69	440.901
1311.95	542.172
1316.22	453.423
1320.48	534.724
1324.74	575.27
1329	597.101
1333.26	744.519
1337.51	695.884
1341.76	830.611
1346	1136.73
1350.25	1871.99
1354.49	2865.69
1358.73	3944.16
1362.96	4617.34
1367.2	4496.58
1371.43	4461.24
1375.66	4250.86
1379.88	3043.07
1384.11	1694.14
1388.33	853.568
1392.54	703.713
1396.76	429.642
1400.97	360.33
1405.18	566.876
1409.39	733.365
1413.59	869.856
1417.8	976.422
1421.99	984.328
1426.19	1119.33
1430.38	959.921
1434.58	1194.74
1438.77	1387.88
1442.95	1753.87
1447.13	2144.85
1451.32	2889.4
1455.49	3471.11
1459.67	4133.83
1463.84	4946.79
1468.01	5492.08
1472.18	6069.7
1476.35	6720.52
1480.51	5566.6
1484.67	4364.98
1488.83	3367.65
1492.98	2443.6
1497.13	1622.8
1501.28	1042.09
1505.43	629.144
1509.57	378.728
1513.71	378.793
1517.85	168.188
1521.99	182.035
1526.12	24.4785
1530.25	203.728
1534.38	96.0703
1538.5	145.006
1542.62	175.762
1546.74	28.0977
1550.86	194.297
1554.98	68.8398
1559.09	131.359
1563.2	254.236
1567.31	227.914
