Measurement: Raman, 514 nm, depolarized, Raman Data Processed
Mineral: Cerussite
Rruff sample: R050298
Ideal chemistry: Pb^2+^CO_3_
Locality: Bunker Hill mine, Shoshone County, Idaho, USA
Source: Eugene Schlepp
Description: Group of colorless tabular crystals
Measured chemistry: Pb_1.00_CO_3_
Pin_id: L01888
Orientation: Laser parallel to b* (0 1 0). Fiducial mark perpendicular to laser is parallel to -c [0 0 -1]
Raman shift (cm-1)	intensity
51.431	0
56.387	71.4244
61.341	30.1987
66.292	416.009
71.241	1961.46
76.187	3650.58
81.131	2996.84
86.072	2745.71
91.012	3285.31
95.948	4261.98
100.883	6952.04
105.815	10600.5
110.744	6493.68
115.671	3547.93
120.596	2832.09
125.519	3205.82
130.439	4525.69
135.356	5507.32
140.271	4490.62
145.184	3999.86
150.094	3974.08
155.002	3407.79
159.908	2451.18
164.811	1770.11
169.711	1468.39
174.61	1435.93
179.505	1497.67
184.399	1407.75
189.29	1208.14
194.178	1175.54
199.064	1287.83
203.948	1506.89
208.829	1719.49
213.708	2054.59
218.585	2109.18
223.459	1636.78
228.33	1126.17
233.199	822.764
238.066	647.747
242.93	474.764
247.792	450.832
252.651	379.832
257.508	343.772
262.363	224.268
267.215	226.322
272.064	158.753
276.912	94.754
281.756	110.961
286.598	119.353
291.438	44.912
296.276	26.625
301.111	10.2205
305.943	48.7858
310.773	43.8422
315.601	16.5813
320.426	28.6605
325.248	35.978
330.068	15.6923
334.886	24.1061
339.701	32.4036
344.514	11.3525
349.324	78.5541
354.132	19.9076
358.938	36.3752
363.741	9.43408
368.541	15.1403
373.339	19.8481
378.135	1.55542
382.928	16.2496
387.718	47.7895
392.506	46.5026
397.292	46.5918
402.075	38.2612
406.856	3.63831
411.634	8.70361
416.41	80.9655
421.183	53.5824
425.954	58.7866
430.722	42.6648
435.488	97.8023
440.251	78.6951
445.012	89.6282
449.77	44.2048
454.526	104.896
459.28	33.2517
464.03	88.5945
468.779	94.7747
473.525	107.828
478.268	132.391
483.009	111.004
487.747	103.977
492.483	128.661
497.217	99.4412
501.948	111.575
506.676	120.842
511.402	64.6377
516.125	115.242
520.846	102.257
525.565	49.8042
530.281	89.2729
534.994	67.9258
539.705	52.2832
544.413	75.5051
549.119	104.518
553.822	63.3
558.523	75.7568
563.222	64.1572
567.917	94.6594
572.611	42.9219
577.302	75.7602
581.99	88.9831
586.676	97.2295
591.359	31.3464
596.04	42.1521
600.718	55.3633
605.394	101.902
610.067	14.4573
614.737	106.3
619.406	9.51611
624.071	126.023
628.734	101.327
633.395	88.4753
638.053	98.5942
642.708	85.7649
647.361	9.26123
652.012	110.067
656.66	56.113
661.305	15.813
665.948	64.1096
670.588	157.281
675.226	698.286
679.861	336.748
684.494	1245.64
689.124	113.644
693.752	33.1802
698.377	92.9385
702.999	2.63892
707.619	7.65771
712.237	20.677
716.852	11.3152
721.464	84.6111
726.074	96.2656
730.681	119.007
735.286	61.844
739.888	3.81201
744.488	16.4963
749.085	10.4397
753.68	34.0935
758.272	63.5435
762.861	29.7786
767.448	87.8186
772.033	5.95312
776.614	7.17188
781.194	47.6538
785.77	56.521
790.345	34.7991
794.916	61.0544
799.485	89.957
804.052	60.852
808.616	27.9546
813.177	14.4229
817.736	41.5195
822.292	99.6523
826.846	111.742
831.397	165.802
835.945	660.003
840.491	2135.46
845.035	334.3
849.576	152.299
854.114	96.6648
858.65	65.7898
863.183	23.9331
867.713	78.4885
872.241	41.6528
876.767	20.5505
881.29	2.9165
885.81	57.0393
890.328	13.8442
894.843	1.39746
899.356	9.63574
903.866	28.7669
908.373	50.9441
912.878	9.89697
917.38	55.2195
921.88	8.41699
926.377	8.65283
930.872	56.8887
935.364	30.1057
939.853	74.3096
944.34	16.5283
948.824	61.7998
953.306	17.9898
957.785	27.1543
962.261	32.2871
966.735	11.147
971.207	17.887
975.675	90.9277
980.141	103.469
984.605	43.3965
989.066	25.251
993.524	34.7417
997.98	13.7534
1002.43	61.4795
1006.88	90.7976
1011.33	87.1877
1015.78	73.0591
1020.22	81.8374
1024.66	125.034
1029.1	82.177
1033.53	342.496
1037.97	171.774
1042.4	313.01
1046.82	684.304
1051.25	4278.77
1055.67	58538.8
1060.09	4778.38
1064.51	675.804
1068.92	222.604
1073.33	155.819
1077.74	103.094
1082.15	110.301
1086.55	205.844
1090.95	155.554
1095.35	49.6201
1099.75	101.543
1104.14	71.6467
1108.53	95.0422
1112.92	94.0417
1117.31	43.8179
1121.69	99.6497
1126.07	17.3892
1130.45	75.9912
1134.82	15.2134
1139.19	51.675
1143.57	9.98755
1147.93	65.1338
1152.3	15.1638
1156.66	67.1228
1161.02	29.9702
1165.38	59.7139
1169.73	39.4036
1174.08	45.0408
1178.43	63.6375
1182.78	11.8269
1187.12	52.3994
1191.46	39.8679
1195.8	21.0745
1200.14	34.7566
1204.47	21.3018
1208.8	6.29346
1213.13	0.160889
1217.46	6.94678
1221.78	0.91748
1226.1	21.2378
1230.42	78.0872
1234.73	11.8196
1239.04	30.4502
1243.35	29.6055
1247.66	67.2227
1251.97	44.9228
1256.27	94.8486
1260.57	75.4834
1264.86	58.1245
1269.16	139.427
1273.45	70.1479
1277.74	56.5312
1282.03	110.125
1286.31	170.84
1290.59	168.92
1294.87	137.116
1299.14	193.395
1303.42	205.755
1307.69	274.241
1311.95	294.402
1316.22	353.565
1320.48	328.106
1324.74	257.395
1329	351.138
1333.26	428.938
1337.51	433.494
1341.76	414.736
1346	436.815
1350.25	678.326
1354.49	926.286
1358.73	1314.61
1362.96	1734.11
1367.2	2104.9
1371.43	2678.15
1375.66	3678.55
1379.88	3709.11
1384.11	2509.87
1388.33	1353.78
1392.54	831.875
1396.76	506.743
1400.97	375.297
1405.18	299.615
1409.39	314.687
1413.59	335.002
1417.8	351.615
1421.99	325.502
1426.19	296.622
1430.38	369.682
1434.58	284.892
1438.77	168.16
1442.95	201.687
1447.13	154.802
1451.32	115.89
1455.49	135.323
1459.67	98.085
1463.84	208.138
1468.01	145.637
1472.18	171.582
1476.35	227.851
1480.51	161.441
1484.67	158.351
1488.83	135.557
1492.98	68.0654
1497.13	116.513
1501.28	70.9351
1505.43	1.85059
1509.57	51.5547
1513.71	59.4312
1517.85	0.916992
1521.99	45.0303
1526.12	21.2202
1530.25	95.208
1534.38	65.3906
1538.5	40.4019
1542.62	46.5791
1546.74	35.2739
1550.86	70.8247
1554.98	99.3164
1559.09	89.5796
1563.2	91.6016
1567.31	86.0405
