Measurement: Raman, 514 nm, depolarized, Raman Data Processed
Mineral: Cerussite
Rruff sample: R050011
Ideal chemistry: Pb^2+^CO_3_
Locality: Daoping Lead and Zinc mine, Gongcheng, Guangxi, China
Source: Eugene Schlepp
Description: Colorless hexagonal bipyramidal crystals
Measured chemistry: Pb_1.00_CO_3_ ; CO_2_ not measured but estimated by difference and stoichiometry
Pin_id: L00082
Orientation: Laser parallel to -a* (-1 0 0). Fiducial mark perpendicular to laser is parallel to -b [0 -1 0]
Raman shift (cm-1)	intensity
94.324	0
98.519	960.301
102.712	2918.39
106.902	2413.91
111.09	1773.67
115.277	2164.55
119.461	2882.54
123.643	2651.53
127.823	2402.3
132.001	2909.42
136.176	2481.44
140.35	1710.12
144.521	1424.89
148.691	1634.12
152.858	1428.13
157.024	775.56
161.187	362.54
165.348	353.721
169.507	401.1
173.664	343.722
177.819	474.843
181.971	439.434
186.122	72.331
190.271	50.713
194.417	145.027
198.562	208.158
202.704	217.668
206.844	311.62
210.983	613.17
215.119	537.918
219.253	473.77
223.385	784.968
227.515	990.859
231.643	608.696
235.769	464.989
239.893	513.552
244.014	379.319
248.134	110.234
252.252	17.754
256.367	227.972
260.481	70.642
264.592	145.055
268.702	153.889
272.809	75.333
276.915	51.863
281.018	221.295
285.119	39.952
289.218	44.792
293.316	131.468
297.411	206.943
301.504	25.392
305.595	132.278
309.684	150.385
313.771	3.672
317.856	102.562
321.939	91.01
326.02	13.179
330.099	13.913
334.176	267.777
338.251	184.767
342.323	80.399
346.394	170.514
350.463	356.57
354.53	335.548
358.594	131.988
362.657	231.642
366.718	412.136
370.777	374.193
374.833	175.912
378.888	237.531
382.941	442.961
386.992	358.534
391.04	255.264
395.087	156.782
399.132	278.916
403.174	409.634
407.215	236.105
411.254	387.351
415.29	396.039
419.325	478.818
423.358	191.796
427.389	270.525
431.417	417.185
435.444	589.432
439.469	288.496
443.492	210.283
447.512	334.477
451.531	521.049
455.548	411.53
459.563	149.265
463.576	287.337
467.587	545.489
471.596	290.323
475.603	200.858
479.608	205.477
483.611	579.973
487.612	496.839
491.611	230.168
495.608	62.964
499.603	395.744
503.596	508.692
507.587	326.094
511.577	100.853
515.564	235.951
519.549	508.781
523.533	483.169
527.514	145.245
531.493	118.237
535.471	229.77
539.447	372.998
543.42	203.964
547.392	91.611
551.362	123.441
555.329	293.139
559.295	363.39
563.259	64.207
567.221	80.029
571.181	200.789
575.139	328.922
579.095	258.496
583.049	53.088
587.002	132.01
590.952	290.533
594.9	510.703
598.847	258.24
602.792	24.629
606.734	197.274
610.675	417.258
614.614	323.801
618.55	160.712
622.485	49.673
626.418	422.214
630.349	510.967
634.279	389.215
638.206	52.726
642.131	149.169
646.055	420.16
649.976	546.363
653.896	245.686
657.814	110.339
661.729	38.284
665.643	383.802
669.555	662.618
673.465	490.51
677.373	107.621
681.28	604.34
685.184	589.52
689.087	355.416
692.987	312.019
696.886	48.254
700.783	63.879
704.677	206.795
708.57	362.025
712.462	165.568
716.351	51.636
720.238	82.692
724.124	471.828
728.007	467.603
731.889	432.704
735.769	176.86
739.647	50.936
743.523	285.82
747.397	389.259
751.269	314.354
755.139	218.967
759.008	59.775
762.875	135.088
766.739	355.197
770.602	399.837
774.463	142.827
778.323	123.493
782.18	210.669
786.035	324.128
789.889	597.795
793.741	421.076
797.591	55.352
801.439	47.623
805.285	220.454
809.129	453.522
812.971	445.061
816.812	318.307
820.651	56.488
824.488	37.212
828.323	430.966
832.156	564.282
835.987	1009.01
839.817	1192.91
843.644	318.058
847.47	240.821
851.294	443.696
855.116	636.468
858.936	315.503
862.755	117.966
866.571	40.433
870.386	272.69
874.199	570.231
878.01	592.865
881.82	145.811
885.627	89.184
889.433	251.865
893.236	304.428
897.038	647.348
900.838	400.395
904.637	232.531
908.433	75.094
912.228	204.449
916.021	267.352
919.812	627.338
923.601	540.143
927.388	362.859
931.174	88.035
934.958	101.367
938.739	493.754
942.52	616.252
946.298	483.705
950.074	374.504
953.849	167.135
957.622	130.533
961.393	369.643
965.162	642.881
968.93	707.717
972.696	367.402
976.459	20.027
980.222	52.852
983.982	145.742
987.74	429.258
991.497	472.549
995.252	437.951
999.005	80.463
1002.76	113.404
1006.51	216.148
1010.25	368.287
1014	680.48
1017.74	780.006
1021.49	653.975
1025.23	125.996
1028.96	358.891
1032.7	355.293
1036.44	818.35
1040.17	1040.82
1043.9	932.59
1047.63	1269.54
1051.36	5104.37
1055.09	40986.7
1058.81	3017.67
1062.54	1429.81
1066.26	1291.29
1069.97	1102.62
1073.69	623.514
1077.41	284.744
1081.12	137.783
1084.84	648.225
1088.55	898.449
1092.25	1082.58
1095.96	987.523
1099.67	578.232
1103.37	154.469
1107.07	224.598
1110.77	255.514
1114.47	326.312
1118.16	544.9
1121.86	871.332
1125.55	574.336
1129.24	174.297
1132.93	13.604
1136.62	191.746
1140.31	431.646
1143.99	1062
1147.67	962.383
1151.35	739.434
1155.03	317.182
1158.71	214.727
1162.39	74.035
1166.06	190.83
1169.73	565.686
1173.4	781.076
1177.07	785.607
1180.74	600.828
1184.4	214.266
1188.07	18.674
1191.73	34.883
1195.39	347.908
1199.05	618.57
1202.7	778.93
1206.36	988.584
1210.01	728.117
1213.66	246.641
1217.31	264.77
1220.96	412.518
1224.6	389.906
1228.25	676.479
1231.89	903.094
1235.53	1199.21
1239.17	804.963
1242.81	390.297
1246.44	55.656
1250.08	109.533
1253.71	128.398
1257.34	583.363
1260.97	666.541
1264.6	897.867
1268.22	959.613
1271.85	501.648
1275.47	142.098
1279.09	11.684
1282.71	11.615
1286.33	18.23
1289.94	648.188
1293.56	935.662
1297.17	952.697
1300.78	930.289
1304.39	667.467
1307.99	497.012
1311.6	172.074
1315.2	46.504
1318.8	269.219
1322.4	482.598
1326	851.131
1329.6	1102.5
1333.19	993.133
1336.79	909.592
1340.38	860.5
1343.97	278.133
1347.56	347.322
1351.14	277.418
1354.73	986.045
1358.31	1644.21
1361.89	2654.77
1365.47	3065.78
1369.05	2796.77
1372.63	2525.77
1376.2	2386.51
1379.78	1896.3
1383.35	1353.9
1386.92	627.537
1390.49	659.412
1394.05	863.318
1397.62	1271.29
1401.18	1223.86
1404.74	1225.4
1408.3	1050.06
1411.86	669.936
1415.42	184.986
1418.97	251.873
1422.53	232.09
1426.08	11.078
1429.63	517.174
1433.18	733.32
1436.72	1020.88
1440.27	1328.16
1443.81	1385.04
1447.36	1231.61
1450.89	1027.88
1454.43	590.74
1457.97	497.982
1461.51	651.924
1465.04	451.822
1468.57	1304.92
1472.1	1677.59
1475.63	2408.11
1479.16	2290.78
1482.68	2276.33
1486.21	2072.8
1489.73	1662.09
1493.25	1041.02
1496.77	544.779
1500.29	11.789
1503.8	138.824
1507.32	74.494
1510.83	3.381
