Measurement: Raman, 514 nm, depolarized, Raman Data Processed
Mineral: Cerussite
Rruff sample: R050174
Ideal chemistry: Pb^2+^CO_3_
Locality: Tsumeb mine, Tsumeb, Otavi District, Oshikoto, Namibia
Source: Marcus Origlieri
Description: Colorless single crystal
Measured chemistry: Pb_1.00_CO_3_ ; C not measured but estimated by difference and stoichiometry
Pin_id: L00917
Orientation: Laser parallel to a* (1 0 0). Fiducial mark perpendicular to laser is parallel to -b [0 -1 0]
Raman shift (cm-1)	intensity
51.431	0
56.387	41.3417
61.341	27.2453
66.292	296.245
71.241	1528.86
76.187	2942.72
81.131	2373.01
86.072	1974.21
91.012	2088.2
95.948	2161.28
100.883	2460.54
105.815	2821.79
110.744	2469.24
115.671	2591.4
120.596	3172.25
125.519	3675.81
130.439	4709.47
135.356	5581.61
140.271	4475.46
145.184	3491.78
150.094	3497.16
155.002	3544.57
159.908	2792.81
164.811	2084.8
169.711	2160.47
174.61	2620.74
179.505	2657.06
184.399	2179.24
189.29	1599.66
194.178	1243.23
199.064	1157.76
203.948	1165.89
208.829	1241.36
213.708	1446.25
218.585	1448.47
223.459	1268.93
228.33	1193.66
233.199	1030.56
238.066	900.091
242.93	865.102
247.792	800.389
252.651	606.023
257.508	392.242
262.363	287.66
267.215	183.932
272.064	143.076
276.912	131.641
281.756	29.6643
286.598	18.7634
291.438	22.0282
296.276	36.3881
301.111	1.34656
305.943	12.5741
310.773	35.7738
315.601	15.9961
320.426	18.2869
325.248	18.6381
330.068	14.8883
334.886	22.4388
339.701	44.2633
344.514	20.4109
349.324	34.5435
354.132	17.6482
358.938	8.2298
363.741	13.2313
368.541	27.2646
373.339	26.424
378.135	2.85107
382.928	27.4243
387.718	8.05902
392.506	17.303
397.292	29.3763
402.075	74.0854
406.856	87.3986
411.634	53.4194
416.41	44.5377
421.183	47.6367
425.954	72.0632
430.722	57.4998
435.488	83.1939
440.251	78.9094
445.012	88.7072
449.77	66.8351
454.526	64.4701
459.28	83.7331
464.03	66.8651
468.779	84.6486
473.525	65.5645
478.268	89.6511
483.009	93.1686
487.747	107.758
492.483	80.6751
497.217	132.813
501.948	85.1368
506.676	69.9512
511.402	71.8785
516.125	58.2773
520.846	51.7923
525.565	34.1122
530.281	54.799
534.994	62.5786
539.705	29.6597
544.413	42.6189
549.119	35.8204
553.822	10.3153
558.523	14.9444
563.222	70.3219
567.917	21.4426
572.611	36.3862
577.302	28.7473
581.99	93.51
586.676	37.3561
591.359	51.4602
596.04	12.8217
600.718	29.1399
605.394	45.3242
610.067	44.6141
614.737	62.5237
619.406	25.7651
624.071	80.0488
628.734	62.4202
633.395	45.7827
638.053	83.156
642.708	71.573
647.361	9.86194
652.012	12.0908
656.66	19.9869
661.305	13.4251
665.948	58.8186
670.588	161.982
675.226	568.805
679.861	126.264
684.494	177.57
689.124	51.2705
693.752	143.747
698.377	369.505
702.999	5.25586
707.619	6.66675
712.237	18.0377
716.852	46.3695
721.464	25.6045
726.074	56.4194
730.681	69.5912
735.286	43.7399
739.888	20.7631
744.488	46.0772
749.085	16.1556
753.68	21.6802
758.272	28.5598
762.861	40.0751
767.448	84.7283
772.033	18.5779
776.614	29.6959
781.194	31.4447
785.77	62.834
790.345	23.233
794.916	30.2302
799.485	35.3849
804.052	52.8461
808.616	31.3141
813.177	46.7877
817.736	39.2959
822.292	57.8272
826.846	103.451
831.397	141.01
835.945	579.589
840.491	1723.16
845.035	229.795
849.576	130.616
854.114	72.7748
858.65	65.5013
863.183	38.2199
867.713	30.9139
872.241	28.6233
876.767	2.34668
881.29	3.03296
885.81	24.728
890.328	39.4137
894.843	26.0547
899.356	59.6804
903.866	38.3168
908.373	26.9667
912.878	34.6144
917.38	38.233
921.88	13.8591
926.377	12.5016
930.872	47.1277
935.364	53.7668
939.853	50.4235
944.34	71.0906
948.824	62.2162
953.306	28.9353
957.785	16.623
962.261	36.2972
966.735	43.0249
971.207	74.6422
975.675	62.2592
980.141	40.8787
984.605	45.4705
989.066	23.7811
993.524	51.6558
997.98	50.4236
1002.43	46.0581
1006.88	82.6318
1011.33	64.3124
1015.78	45.4336
1020.22	59.9209
1024.66	40.896
1029.1	108.76
1033.53	328.804
1037.97	145.684
1042.4	275.717
1046.82	763.804
1051.25	4911.15
1055.67	58292.9
1060.09	4814.19
1064.51	550.08
1068.92	201.604
1073.33	156.255
1077.74	80.8192
1082.15	130.485
1086.55	95.3041
1090.95	70.1484
1095.35	78.4086
1099.75	91.5406
1104.14	127.943
1108.53	46.4843
1112.92	92.8512
1117.31	12.7712
1121.69	83.7153
1126.07	81.4448
1130.45	77.0518
1134.82	25.5888
1139.19	16.2554
1143.57	70.4935
1147.93	39.6187
1152.3	55.6354
1156.66	96.5706
1161.02	14.3619
1165.38	38.9978
1169.73	7.55652
1174.08	15.7267
1178.43	2.08789
1182.78	15.0719
1187.12	6.19299
1191.46	33.5579
1195.8	4.2229
1200.14	6.2616
1204.47	41.0923
1208.8	50.3468
1213.13	2.44958
1217.46	29.3914
1221.78	29.7136
1226.1	42.082
1230.42	24.7521
1234.73	39.5371
1239.04	39.0181
1243.35	10.5363
1247.66	37.4513
1251.97	1.27673
1256.27	30.8164
1260.57	3.04431
1264.86	14.9314
1269.16	32.0961
1273.45	50.5358
1277.74	79.0461
1282.03	70.6663
1286.31	63.3417
1290.59	82.4672
1294.87	29.3683
1299.14	101.825
1303.42	105.367
1307.69	148.753
1311.95	196.265
1316.22	258.943
1320.48	183.55
1324.74	206.404
1329	212.314
1333.26	256.368
1337.51	257.864
1341.76	256.276
1346	360.553
1350.25	626.191
1354.49	886.709
1358.73	1455.84
1362.96	1897.79
1367.2	1765.63
1371.43	1210.72
1375.66	923.17
1379.88	699.882
1384.11	489.866
1388.33	267.046
1392.54	155.235
1396.76	94.9778
1400.97	151.011
1405.18	205.346
1409.39	288.001
1413.59	482.961
1417.8	558.35
1421.99	567.898
1426.19	594.848
1430.38	673.661
1434.58	669.045
1438.77	752.69
1442.95	898.857
1447.13	1064.08
1451.32	1409.78
1455.49	1725.95
1459.67	2268.66
1463.84	2897.83
1468.01	3320.45
1472.18	3821.66
1476.35	4112.34
1480.51	4175.49
1484.67	3746.12
1488.83	2962.22
1492.98	2199.8
1497.13	1430.81
1501.28	1004.13
1505.43	708.742
1509.57	481.12
1513.71	306.085
1517.85	277.438
1521.99	208.708
1526.12	147.931
1530.25	154.173
1534.38	99.5312
1538.5	53.1949
1542.62	4.47314
1546.74	19.8973
1550.86	37.6891
1554.98	61.5256
1559.09	75.7053
1563.2	1.3645
1567.31	2.56751
