Measurement: Raman, 514 nm, depolarized, Raman Data Processed
Mineral: Cerussite
Rruff sample: R040069
Ideal chemistry: Pb^2+^CO_3_
Locality: Broken Hill, New South Wales, Australia
Source: University of Arizona Mineral Museum
Description: Reticulated composite of colorless tabular crystals
Measured chemistry: Pb_1.04_C_0.98_O_3_
Pin_id: M00419
Orientation: Laser parallel to -b* (0 -1 0). Fiducial mark perpendicular to laser is parallel to c [0 0 1]
Raman shift (cm-1)	intensity
50.85	0
55.054	2.557
59.255	209.465
63.454	41.647
67.652	820.99
71.847	3570.41
76.04	5443.66
80.232	3711.53
84.421	2663.68
88.608	2159.53
92.793	1724.44
96.976	1713.57
101.157	2089.23
105.336	2274.05
109.513	2599.87
113.688	3711.99
117.861	5121.9
122.032	4603.51
126.201	3775.22
130.367	3640.35
134.532	3137.37
138.695	2113.97
142.856	1487.1
147.014	1135.99
151.171	879.752
155.325	720.432
159.478	620.063
163.629	421.5
167.777	389.27
171.924	417.489
176.068	516.098
180.211	460.138
184.351	489.041
188.49	548.177
192.626	597.533
196.761	738.528
200.893	988.949
205.024	1320.25
209.152	1545.03
213.279	1880.35
217.403	2177.45
221.526	1999.92
225.646	1839.49
229.765	1609.68
233.881	1277.65
237.996	879.146
242.108	598.838
246.219	486.591
250.328	320.522
254.434	242.586
258.539	122.54
262.641	51.591
266.742	26.658
270.84	4.408
274.937	11.226
279.032	0.276
283.125	4.683
287.215	8.18
291.304	0.144
295.391	10.284
299.476	0.572
303.558	23.149
307.639	20.986
311.718	29.928
315.795	8.233
319.87	27.855
323.943	7.783
328.014	7.012
332.083	29.339
336.15	21.06
340.215	17.191
344.279	9.534
348.34	10.118
352.399	22.189
356.457	6.25
360.512	16.484
364.565	31.282
368.617	32.016
372.666	14.523
376.714	28.516
380.76	36.412
384.803	52.283
388.845	34.846
392.885	54.356
396.923	55.826
400.959	41.768
404.993	70.531
409.025	69.312
413.055	83.887
417.084	101.152
421.11	72.075
425.134	97.774
429.157	125.263
433.177	75.311
437.196	120.094
441.213	85.576
445.227	90.907
449.24	106.311
453.251	111.876
457.26	102.382
461.267	103.528
465.272	125.976
469.276	71.746
473.277	105.248
477.276	114.63
481.274	87.825
485.27	115.304
489.263	82.142
493.255	88.923
497.245	89.233
501.233	46.932
505.219	56.031
509.203	42.767
513.186	44.232
517.166	34.01
521.145	57.039
525.121	23.564
529.096	37.233
533.069	41.675
537.04	46.541
541.009	29.836
544.976	52.808
548.941	8.798
552.905	33.908
556.866	55.429
560.826	45.72
564.784	23.257
568.74	29.707
572.694	24.111
576.646	39.409
580.596	48.598
584.544	40.838
588.491	64.171
592.435	31.175
596.378	34.368
600.319	14.411
604.258	17.325
608.195	30.211
612.131	28.347
616.064	31.295
619.995	40.195
623.925	42.282
627.853	46.073
631.779	63.118
635.703	51.138
639.625	34.958
643.546	47.222
647.464	30.438
651.381	5.587
655.296	17.819
659.209	4.013
663.12	49.113
667.029	99.16
670.937	370.287
674.842	825.489
678.746	95.692
682.648	99.768
686.548	19.828
690.447	19.172
694.343	40.117
698.238	33.205
702.13	8.69
706.021	2.731
709.91	31.402
713.798	7.459
717.683	31.754
721.567	17.899
725.448	72.017
729.328	52.086
733.206	71.116
737.083	51.384
740.957	41.633
744.83	12.514
748.701	18.156
752.57	22.414
756.437	18.669
760.302	33.422
764.166	0.377
768.027	33.474
771.887	35.816
775.745	36.153
779.602	40.478
783.456	20.822
787.309	11.171
791.16	5.489
795.009	3.909
798.856	22.794
802.702	40.087
806.545	9.35
810.387	10.729
814.227	47.278
818.065	47.408
821.902	31.773
825.737	61.682
829.569	40.052
833.401	109.384
837.23	862.717
841.057	474.051
844.883	114.532
848.707	40.88
852.529	51.235
856.35	21.954
860.168	38.005
863.985	28.084
867.8	33.397
871.613	6.727
875.425	1.097
879.234	1.478
883.042	1.118
886.848	12.299
890.653	25.708
894.455	8.868
898.256	7.346
902.055	19.765
905.852	14.184
909.648	8.572
913.442	16.97
917.233	8.739
921.024	11.594
924.812	56.945
928.599	17.287
932.384	28.555
936.167	29.888
939.948	59.169
943.728	3.188
947.506	39.95
951.282	5.221
955.056	41.461
958.829	3.699
962.6	25.922
966.369	35.139
970.136	10.351
973.902	20.568
977.666	14.74
981.428	18.961
985.188	43.239
988.947	44.353
992.704	46.5
996.459	70.574
1000.21	68.687
1003.96	95.787
1007.71	66.826
1011.46	91.893
1015.21	60.589
1018.95	73.823
1022.7	92.715
1026.44	126.033
1030.18	328.845
1033.91	229.952
1037.65	233.155
1041.39	381.681
1045.12	656.954
1048.85	1727.67
1052.58	26282.5
1056.31	23688.3
1060.03	1673
1063.76	520.932
1067.48	299.009
1071.2	242.599
1074.92	171.76
1078.63	139.477
1082.35	119.564
1086.06	103.317
1089.78	97.708
1093.49	109.038
1097.19	130.335
1100.9	85.994
1104.61	124.266
1108.31	87.444
1112.01	88.628
1115.71	70.733
1119.41	23.805
1123.11	86.9
1126.8	49.371
1130.5	44.375
1134.19	45.365
1137.88	32.318
1141.57	30.236
1145.25	22.881
1148.94	28.919
1152.62	24.683
1156.3	15.413
1159.98	19.109
1163.66	35.763
1167.34	33.37
1171.01	3.928
1174.68	2.567
1178.36	18.134
1182.02	3.806
1185.69	3.443
1189.36	0.368
1193.02	21.757
1196.69	3.165
1200.35	5.851
1204.01	18.832
1207.66	8.789
1211.32	63.7
1214.98	52.585
1218.63	8.541
1222.28	35.3
1225.93	9.87
1229.58	5.07
1233.22	12.717
1236.87	15.497
1240.51	31.245
1244.15	52.956
1247.79	13.649
1251.43	74.32
1255.07	51.97
1258.7	54.6
1262.33	52.21
1265.96	80.763
1269.59	94.337
1273.22	84.9
1276.85	131.373
1280.47	121.758
1284.1	122.278
1287.72	108.737
1291.34	195.282
1294.95	140.709
1298.57	164.146
1302.19	210.602
1305.8	241.115
1309.41	303.97
1313.02	419.157
1316.63	476.419
1320.23	472.185
1323.84	437.793
1327.44	462.897
1331.05	517.866
1334.64	542.637
1338.24	584.616
1341.84	667.858
1345.43	869.549
1349.03	1139.36
1352.62	1565.12
1356.21	2238.2
1359.8	2907.31
1363.39	3448.89
1366.97	3053.47
1370.56	2111.21
1374.14	1441.75
1377.72	1066.97
1381.3	796.488
1384.87	577.018
1388.45	402.518
1392.02	259.036
1395.6	145.557
1399.17	90.086
1402.74	85.627
1406.3	74.192
1409.87	94.826
1413.43	99.479
1417	183.18
1420.56	184.963
1424.12	131.934
1427.67	101.112
1431.23	101.445
1434.79	68.924
1438.34	26.505
1441.89	56.193
1445.44	5.06
1448.99	87.719
1452.54	66.593
1456.08	124.659
1459.62	176.917
1463.17	208.399
1466.71	237.138
1470.24	234.178
1473.78	249.546
1477.32	237.261
1480.85	271.361
1484.38	209.775
1487.91	130.906
1491.44	108.741
1494.97	71.435
1498.5	56.195
1502.02	41.356
1505.54	38.447
1509.07	81.275
1512.59	35.417
1516.1	32.898
