Measurement: Raman, 514 nm, depolarized, Raman Data Processed
Mineral: Cerussite
Rruff sample: R050298
Ideal chemistry: Pb^2+^CO_3_
Locality: Bunker Hill mine, Shoshone County, Idaho, USA
Source: Eugene Schlepp
Description: Group of colorless tabular crystals
Measured chemistry: Pb_1.00_CO_3_
Pin_id: L00742
Orientation: Laser parallel to -a* (-1 0 0). Fiducial mark perpendicular to laser is parallel to b [0 1 0]
Raman shift (cm-1)	intensity
51.431	0
56.387	28.2369
61.341	1.41547
66.292	429.607
71.241	1742.82
76.187	3413.6
81.131	2744.39
86.072	2240.83
91.012	2080.84
95.948	1911.58
100.883	1741.77
105.815	1553.72
110.744	1508.88
115.671	1459.81
120.596	1725.35
125.519	2481.45
130.439	3977.5
135.356	5256.04
140.271	4445.62
145.184	3306.33
150.094	3218.26
155.002	3514.38
159.908	2970.59
164.811	2181.66
169.711	2180.48
174.61	2664.02
179.505	2767.11
184.399	2333.38
189.29	1790.49
194.178	1392.19
199.064	1323.37
203.948	1259.28
208.829	1395.57
213.708	1608.36
218.585	1612.01
223.459	1259.2
228.33	932.669
233.199	750.218
238.066	751.835
242.93	741.546
247.792	729.736
252.651	623.377
257.508	457.84
262.363	295.63
267.215	240.913
272.064	133.898
276.912	79.8651
281.756	49.8062
286.598	78.9812
291.438	55.4045
296.276	55.7046
301.111	6.36145
305.943	16.5986
310.773	27.6282
315.601	12.9906
320.426	3.40759
325.248	18.2913
330.068	19.9115
334.886	13.1193
339.701	14.178
344.514	0.260376
349.324	23.0189
354.132	27.756
358.938	17.6597
363.741	10.6632
368.541	20.2133
373.339	10.0922
378.135	0.007935
382.928	3.8186
387.718	12.8911
392.506	19.7625
397.292	2.95398
402.075	11.1694
406.856	65.8848
411.634	25.0689
416.41	70.9542
421.183	42.7455
425.954	53.3162
430.722	46.8909
435.488	39.3579
440.251	60.6787
445.012	51.9656
449.77	38.6202
454.526	96.0228
459.28	72.015
464.03	61.5194
468.779	80.0774
473.525	43.4238
478.268	88.5316
483.009	99.8339
487.747	84.8907
492.483	48.2034
497.217	118.605
501.948	55.2474
506.676	73.2587
511.402	74.24
516.125	53.2234
520.846	56.8679
525.565	84.5038
530.281	89.2541
534.994	58.989
539.705	41.5336
544.413	22.0966
549.119	43.9337
553.822	65.3735
558.523	74.6132
563.222	3.68738
567.917	71.636
572.611	60.287
577.302	72.593
581.99	57.3227
586.676	36.9923
591.359	26.1639
596.04	58.2487
600.718	40.2325
605.394	26.2749
610.067	76.571
614.737	57.9784
619.406	60.1796
624.071	100.624
628.734	98.4584
633.395	54.1705
638.053	54.4329
642.708	55.5829
647.361	74.7898
652.012	36.51
656.66	35.5904
661.305	33.7418
665.948	28.7176
670.588	65.8069
675.226	607.048
679.861	158.574
684.494	70.1039
689.124	8.76611
693.752	173.898
698.377	402.141
702.999	23.4967
707.619	17.3639
712.237	11.2504
716.852	4.1969
721.464	77.8901
726.074	58.7502
730.681	66.2852
735.286	97.2875
739.888	38.2993
744.488	45.7732
749.085	26.6873
753.68	21.7861
758.272	28.7994
762.861	4.91333
767.448	10.7378
772.033	25.7323
776.614	43.8286
781.194	22.5504
785.77	20.5309
790.345	67.6796
794.916	43.4486
799.485	57.3029
804.052	52.228
808.616	77.2871
813.177	7.24597
817.736	5.26697
822.292	58.907
826.846	156.757
831.397	154.499
835.945	432.419
840.491	1956.34
845.035	352.439
849.576	98.9622
854.114	7.05481
858.65	66.9042
863.183	44.7585
867.713	59.6852
872.241	75.5452
876.767	3.57971
881.29	36.9786
885.81	7.25085
890.328	3.13977
894.843	7.98645
899.356	29.6267
903.866	27.8528
908.373	0.690918
912.878	12.5623
917.38	28.4112
921.88	3.83044
926.377	49.5147
930.872	18.788
935.364	17.1124
939.853	26.9337
944.34	57.7523
948.824	11.4818
953.306	43.2208
957.785	13.9999
962.261	46.7552
966.735	26.4764
971.207	33.1857
975.675	33.8719
980.141	62.5222
984.605	48.2269
989.066	27.7842
993.524	106.337
997.98	58.0617
1002.43	56.5598
1006.88	68.0024
1011.33	63.3424
1015.78	52.2809
1020.22	109.43
1024.66	45.4756
1029.1	102.748
1033.53	336.822
1037.97	153.115
1042.4	280.138
1046.82	700.926
1051.25	3772.28
1055.67	55870.1
1060.09	6002.33
1064.51	598.145
1068.92	224.577
1073.33	138.296
1077.74	110.737
1082.15	105.665
1086.55	120.991
1090.95	93.9575
1095.35	83.8688
1099.75	104.765
1104.14	124.947
1108.53	108.31
1112.92	85.6977
1117.31	79.0117
1121.69	107.495
1126.07	3.46484
1130.45	43.4237
1134.82	29.05
1139.19	28.5911
1143.57	21.322
1147.93	1.99915
1152.3	88.6301
1156.66	12.0627
1161.02	18.9209
1165.38	5.62622
1169.73	43.1616
1174.08	6.66052
1178.43	30.7045
1182.78	25.7694
1187.12	1.28735
1191.46	23.5084
1195.8	7.20606
1200.14	17.2162
1204.47	12.1698
1208.8	10.4352
1213.13	28.4088
1217.46	24.585
1221.78	51.4941
1226.1	46.3451
1230.42	9.13745
1234.73	12.8267
1239.04	25.4539
1243.35	18.052
1247.66	11.4652
1251.97	36.0538
1256.27	37.3457
1260.57	12.7806
1264.86	34.1035
1269.16	47.5317
1273.45	63.6952
1277.74	38.7623
1282.03	62.2554
1286.31	53.3848
1290.59	42.5453
1294.87	89.1313
1299.14	13.2393
1303.42	52.7451
1307.69	82.5781
1311.95	104.185
1316.22	140.142
1320.48	169.468
1324.74	223.387
1329	183.428
1333.26	199.897
1337.51	209.085
1341.76	250.907
1346	307.266
1350.25	403.374
1354.49	694.309
1358.73	1134.35
1362.96	1491.12
1367.2	1348.76
1371.43	833.453
1375.66	453.127
1379.88	236.132
1384.11	227.985
1388.33	129.001
1392.54	10.8477
1396.76	51.9646
1400.97	105.981
1405.18	189.203
1409.39	297.192
1413.59	468.498
1417.8	611.174
1421.99	666.332
1426.19	637.97
1430.38	669.043
1434.58	734.025
1438.77	795.402
1442.95	888.407
1447.13	1256.03
1451.32	1478.04
1455.49	1900.53
1459.67	2457.48
1463.84	3068.87
1468.01	3716.71
1472.18	4185.98
1476.35	4588.72
1480.51	4527.95
1484.67	4206.68
1488.83	3285.87
1492.98	2376.54
1497.13	1595.65
1501.28	1075.16
1505.43	800.978
1509.57	545.928
1513.71	422.442
1517.85	279.821
1521.99	161.107
1526.12	143.362
1530.25	112.656
1534.38	138.094
1538.5	62.8603
1542.62	70.3354
1546.74	22.9509
1550.86	22.1597
1554.98	10.2976
1559.09	73.991
1563.2	5.29858
1567.31	30.9202
