Measurement: Raman, 514 nm, depolarized, Raman Data Processed
Mineral: Cerussite
Rruff sample: R050023
Ideal chemistry: Pb^2+^CO_3_
Locality: Mammoth - St Anthony mine, Tiger, Pinal County, Arizona, USA
Source: Eugene Schlepp
Description: Prismatic white single crystals
Measured chemistry: Pb_1.00_CO_3_ ; CO_2_ not measured but estimated by difference and stoichiometry
Pin_id: L00207
Orientation: Laser parallel to a* (1 0 0). Fiducial mark perpendicular to laser is parallel to b [0 1 0]
Raman shift (cm-1)	intensity
54.275	0
58.48	20.139
62.683	63.527
66.884	9.059
71.083	10.508
75.28	59.182
79.474	91.664
83.667	137.045
87.858	245.672
92.046	510.109
96.233	953.074
100.418	1727.34
104.6	2035.64
108.781	2245.76
112.959	2390.59
117.136	2521.02
121.31	2880.98
125.482	3587.5
129.653	4304.59
133.821	4255.12
137.987	3572.3
142.152	3315.73
146.314	3422.17
150.474	3537.68
154.633	3004.33
158.789	2402.11
162.943	2101.02
167.095	2251.05
171.246	2597.24
175.394	2709.54
179.54	2345.96
183.684	1909.46
187.826	1518.33
191.967	1284.57
196.105	1246.68
200.241	1282.55
204.375	1357.38
208.507	1509.42
212.638	1612.34
216.766	1557.26
220.892	1387.93
225.016	1274.02
229.139	1089.9
233.259	1004.33
237.377	956.781
241.493	948.135
245.608	845.059
249.72	690.544
253.83	511.949
257.939	392.455
262.045	281.345
266.15	228.463
270.252	154.342
274.353	175.798
278.451	130.008
282.548	100.48
286.642	124.993
290.735	87.18
294.826	42.182
298.914	56.43
303.001	52.561
307.086	62.898
311.168	36.034
315.249	27.215
319.328	10.666
323.405	15.441
327.48	2.532
331.553	24.299
335.624	24.214
339.693	1.782
343.76	7.25
347.826	1.202
351.889	0.2
355.95	4.848
360.01	6.173
364.067	16.364
368.123	7.626
372.176	10.61
376.228	0.987
380.277	15.225
384.325	0.071
388.371	15.331
392.415	19.769
396.457	19.553
400.497	0.864
404.535	41.957
408.571	21.817
412.605	16.863
416.638	5.131
420.668	41.775
424.697	7.557
428.723	26.336
432.748	5.084
436.77	20.74
440.791	27.408
444.81	30.827
448.827	34.711
452.842	30.1
456.855	36.53
460.867	44.722
464.876	26.792
468.883	41.796
472.889	52.735
476.892	74.61
480.894	45.177
484.894	46.926
488.892	65.1
492.888	38.716
496.882	61.355
500.874	53.899
504.865	35.177
508.853	53.522
512.84	19.688
516.824	42.912
520.807	59.749
524.788	36.482
528.767	51.879
532.744	36.705
536.719	10.467
540.693	34.57
544.664	22.164
548.634	11.751
552.601	12.638
556.567	6.239
560.531	31.631
564.493	3.684
568.453	22.93
572.412	20.769
576.368	27.959
580.323	32.965
584.275	33.464
588.226	15.322
592.175	10.199
596.122	29.956
600.068	35.574
604.011	17.189
607.952	18.496
611.892	2.084
615.83	51.073
619.766	52.594
623.7	92.113
627.632	51.537
631.563	53.042
635.491	68.45
639.418	57.181
643.343	39.59
647.266	48.952
651.187	40.207
655.106	14.707
659.024	42.312
662.939	48.555
666.853	111.733
670.765	277.669
674.675	416.832
678.583	213.837
682.49	234.872
686.394	39.741
690.297	89.703
694.198	474.492
698.097	108.465
701.995	1.68
705.89	9.485
709.784	0.102
713.675	13.386
717.565	36.2
721.453	64.842
725.34	27.427
729.224	47.443
733.107	68.423
736.988	47.474
740.867	20.502
744.744	34.441
748.62	6.01
752.493	29.063
756.365	20.995
760.235	24.6
764.103	27.161
767.969	4.038
771.834	13.203
775.697	34.237
779.558	40.374
783.417	27.418
787.274	30.462
791.13	8.507
794.983	32.549
798.835	13.588
802.686	37.666
806.534	5.29
810.38	8.17
814.225	30.086
818.068	33.12
821.909	120.237
825.749	98.329
829.586	119.388
833.422	498.526
837.256	1785.65
841.088	501.73
844.919	135.818
848.748	42.915
852.575	24.026
856.4	17.078
860.223	56.596
864.045	39.711
867.864	33.785
871.682	16.041
875.499	6.113
879.313	23.369
883.126	9.662
886.937	7.973
890.746	19.329
894.553	2.691
898.359	16.912
902.163	15.044
905.965	25.467
909.765	35.916
913.564	24.109
917.361	30.572
921.156	9.871
924.949	21.328
928.74	43.805
932.53	33.298
936.318	35.791
940.104	21.327
943.889	47.85
947.672	38.104
951.453	61.651
955.232	16.207
959.01	5.495
962.785	2.281
966.559	9.223
970.332	6.708
974.102	33.423
977.871	29.138
981.638	49.915
985.404	19.562
989.167	44.985
992.929	56.646
996.689	66.251
1000.45	94.937
1004.2	109.889
1007.96	71.339
1011.71	42.446
1015.46	82.876
1019.21	96.973
1022.96	121.632
1026.71	157.055
1030.45	437.871
1034.19	239.504
1037.94	287.514
1041.68	435.291
1045.41	838.062
1049.15	2948.85
1052.88	52606.8
1056.62	12545
1060.35	1646.3
1064.08	520.865
1067.8	326.937
1071.53	234.838
1075.25	233.109
1078.97	195.651
1082.7	190.826
1086.41	131.553
1090.13	142.783
1093.85	145.958
1097.56	147.178
1101.27	171.841
1104.98	151.892
1108.69	136.109
1112.4	131.218
1116.1	97.541
1119.81	45.944
1123.51	110.393
1127.21	89.817
1130.91	77.001
1134.61	94.925
1138.3	46.838
1141.99	50.055
1145.68	49.145
1149.38	21.637
1153.06	63.977
1156.75	48.178
1160.43	63.226
1164.12	38.125
1167.8	36.884
1171.48	31.514
1175.16	12.139
1178.83	2.969
1182.51	5.007
1186.18	21.781
1189.85	34.35
1193.52	1.735
1197.19	14.92
1200.86	7.07
1204.52	23.245
1208.19	3.623
1211.85	15.838
1215.51	20.146
1219.17	46.3
1222.82	13.669
1226.48	9.208
1230.13	36.059
1233.78	0.492
1237.43	10.024
1241.08	7.245
1244.73	14.322
1248.37	31.216
1252.01	12.297
1255.66	1.956
1259.3	19.852
1262.93	36.427
1266.57	21.506
1270.21	2.472
1273.84	23.18
1277.47	29.599
1281.1	20.127
1284.73	3.481
1288.36	5.303
1291.98	23.81
1295.6	40.366
1299.23	97.355
1302.85	103.224
1306.46	145.485
1310.08	162.121
1313.7	212.711
1317.31	217.415
1320.92	188.575
1324.53	190.785
1328.14	160.007
1331.75	147.916
1335.35	190.603
1338.96	259.189
1342.56	274.547
1346.16	423.804
1349.76	572.813
1353.36	836.998
1356.95	1252.15
1360.55	1817.74
1364.14	2070.8
1367.73	1650.96
1371.32	1270.56
1374.91	1076.89
1378.49	845.408
1382.08	613.222
1385.66	331.655
1389.24	160.901
1392.82	51.25
1396.4	25.409
1399.97	82.237
1403.55	55.779
1407.12	28.56
1410.69	110.989
1414.26	287.446
1417.83	331.948
1421.4	366.583
1424.96	415.485
1428.53	384.666
1432.09	373.141
1435.65	421.925
1439.21	426.067
1442.76	549.481
1446.32	764.112
1449.87	988.959
1453.43	1321.02
1456.98	1690.81
1460.53	2126.07
1464.07	2561.25
1467.62	3018.68
1471.16	3434.74
1474.71	3713.55
1478.25	3810.16
1481.79	3674.68
1485.32	3198.24
1488.86	2600.07
1492.39	1889.63
1495.93	1347.72
1499.46	869.529
1502.99	533.466
1506.52	344.004
1510.05	150.45
1513.57	69.68
1517.09	9.4
1520.62	0
