Measurement: Raman, 514 nm, depolarized, Raman Data Processed
Mineral: Cerussite
Rruff sample: R060017
Ideal chemistry: Pb^2+^CO_3_
Locality: Gonessa, Sardinia, Italy
Source: American Museum of Natural History
Description: White reticulated composite
Measured chemistry: Pb_1.00_CO_3_ C not measured but estimated by difference and stoichiometry
Pin_id: M00240
Orientation: Laser parallel to b* (0 1 0). Fiducial mark perpendicular to laser is parallel to c [0 0 1]
Raman shift (cm-1)	intensity
51.431	0
56.387	60.4971
61.341	495.98
66.292	3533.11
71.241	6054.93
76.187	5159.13
81.131	4993.62
86.072	7255.73
91.012	12318.3
95.948	15734.5
100.883	16843.5
105.815	13923.9
110.744	11752.2
115.671	11865.5
120.596	11690.8
125.519	10790.9
130.439	10309.1
135.356	9605.55
140.271	9347.95
145.184	9077.16
150.094	8095.49
155.002	6184.55
159.908	5135.02
164.811	4785.7
169.711	4958.99
174.61	4629.69
179.505	3903.43
184.399	3105.65
189.29	2494.48
194.178	2618.45
199.064	2703.88
203.948	2880.66
208.829	3253.06
213.708	3480.93
218.585	3430.14
223.459	3167.98
228.33	2886.4
233.199	2254.61
238.066	1822.65
242.93	1452.98
247.792	1034.52
252.651	743.604
257.508	556.981
262.363	291.101
267.215	191.831
272.064	106.264
276.912	20.3926
281.756	20.7564
286.598	5.41162
291.438	86.8838
296.276	37.206
301.111	100.844
305.943	166.358
310.773	102.939
315.601	70.2412
320.426	44.2685
325.248	113.828
330.068	80.7856
334.886	73.0772
339.701	38.02
344.514	0.742188
349.324	7.89453
354.132	23.3496
358.938	7.76269
363.741	26.8223
368.541	5.95312
373.339	97.0024
378.135	46.6128
382.928	61.5498
387.718	68.4771
392.506	85.0244
397.292	230.081
402.075	205.765
406.856	107.982
411.634	133.232
416.41	217.835
421.183	133.379
425.954	158.059
430.722	140.686
435.488	198.579
440.251	199.783
445.012	242.649
449.77	213.009
454.526	285.798
459.28	225.837
464.03	299.506
468.779	204.431
473.525	238.023
478.268	344.733
483.009	357.131
487.747	275.917
492.483	239.317
497.217	157.072
501.948	177.477
506.676	131.283
511.402	147.773
516.125	221.082
520.846	133.05
525.565	211.083
530.281	42.6777
534.994	131.135
539.705	182.772
544.413	160.793
549.119	212.297
553.822	157.048
558.523	45.3198
563.222	69.2393
567.917	138.257
572.611	182.033
577.302	153.546
581.99	112.052
586.676	135.034
591.359	80.0571
596.04	68.21
600.718	6.19971
605.394	55.8589
610.067	38.3501
614.737	182.709
619.406	175.353
624.071	194.065
628.734	192.467
633.395	213.274
638.053	83.311
642.708	170.01
647.361	22.3999
652.012	82.3247
656.66	38.8223
661.305	294.455
665.948	576.349
670.588	893.11
675.226	982.653
679.861	1251.7
684.494	601.173
689.124	289.745
693.752	341.518
698.377	52.9746
702.999	158.111
707.619	162.58
712.237	68.0278
716.852	16.2188
721.464	195.477
726.074	84.3227
730.681	167.117
735.286	103.797
739.888	226.391
744.488	14.9404
749.085	105.187
753.68	144.537
758.272	11.7246
762.861	121.983
767.448	121.241
772.033	103.603
776.614	152.09
781.194	6.7085
785.77	35.4922
790.345	144.249
794.916	61.5996
799.485	101.653
804.052	128.592
808.616	104.61
813.177	145.098
817.736	161.487
822.292	102.751
826.846	481.879
831.397	1683.33
835.945	2071.31
840.491	806.313
845.035	190.691
849.576	51.9863
854.114	135.916
858.65	77.6797
863.183	24.3848
867.713	19.1846
872.241	14.4946
876.767	130.88
881.29	85.1128
885.81	93.6269
890.328	106.069
894.843	73.0757
899.356	138.268
903.866	74.6597
908.373	61.52
912.878	16.6401
917.38	113.842
921.88	157.551
926.377	72.7861
930.872	119.005
935.364	29.2773
939.853	58.4658
944.34	24.5127
948.824	34.4336
953.306	115.239
957.785	176.935
962.261	71.6641
966.735	104.977
971.207	201.888
975.675	40.1445
980.141	46.626
984.605	252.289
989.066	209.847
993.524	30.8301
997.98	188.653
1002.43	226.015
1006.88	143.393
1011.33	123.34
1015.78	33.1426
1020.22	213.814
1024.66	312.277
1029.1	486.425
1033.53	465.34
1037.97	747.877
1042.4	1994.65
1046.82	28582.3
1051.25	50405.8
1055.67	23293.2
1060.09	1684.03
1064.51	617.783
1068.92	302.947
1073.33	398.587
1077.74	339.988
1082.15	141.974
1086.55	129.137
1090.95	228.923
1095.35	146.477
1099.75	348.438
1104.14	107.564
1108.53	216.004
1112.92	237.213
1117.31	216.516
1121.69	219.865
1126.07	288.187
1130.45	103.523
1134.82	115.527
1139.19	29.7559
1143.57	83.0723
1147.93	63.582
1152.3	12.0215
1156.66	18.084
1161.02	79.4863
1165.38	30.2295
1169.73	141.552
1174.08	29.3809
1178.43	6.04004
1182.78	200.372
1187.12	108.296
1191.46	67.0312
1195.8	8.18262
1200.14	29.9971
1204.47	16.333
1208.8	22.1797
1213.13	164.546
1217.46	19.1387
1221.78	100.991
1226.1	138.909
1230.42	93.0439
1234.73	71.0508
1239.04	12.2002
1243.35	21.3486
1247.66	42.2578
1251.97	130.801
1256.27	52.8623
1260.57	141.969
1264.86	232.509
1269.16	6.32519
1273.45	291.733
1277.74	59.7852
1282.03	255.983
1286.31	133.08
1290.59	172.268
1294.87	430.056
1299.14	391.886
1303.42	452.446
1307.69	687.019
1311.95	712.635
1316.22	600.627
1320.48	707.736
1324.74	762.932
1329	840.164
1333.26	917.844
1337.51	1042.83
1341.76	1299.25
1346	1752.75
1350.25	2432.64
1354.49	3730.95
1358.73	5154.69
1362.96	5849.82
1367.2	5843.5
1371.43	6501.35
1375.66	5906.33
1379.88	4116.98
1384.11	2400.75
1388.33	1299.08
1392.54	830.043
1396.76	708.681
1400.97	660.058
1405.18	735.194
1409.39	791.194
1413.59	1076.06
1417.8	891.876
1421.99	1067.56
1426.19	1044.78
1430.38	1079.95
1434.58	1072.43
1438.77	1135.41
1442.95	1298.62
1447.13	1608.53
1451.32	1954.71
1455.49	2667.9
1459.67	3187.05
1463.84	3733.12
1468.01	4295.14
1472.18	4611.68
1476.35	4547.24
1480.51	4326.47
1484.67	3462.77
1488.83	2594.14
1492.98	1820.55
1497.13	1039.93
1501.28	866.021
1505.43	593.64
1509.57	428.874
1513.71	282.409
1517.85	210.527
1521.99	74.9814
1526.12	42.2051
1530.25	67.5127
1534.38	78.0615
1538.5	15.1924
1542.62	25.5938
1546.74	41.9219
1550.86	237.807
1554.98	0.999023
1559.09	120.179
1563.2	105.834
1567.31	5.56152
