Measurement: Raman, 514 nm, depolarized, Raman Data Processed
Mineral: Cerussite
Rruff sample: R050011
Ideal chemistry: Pb^2+^CO_3_
Locality: Daoping Lead and Zinc mine, Gongcheng, Guangxi, China
Source: Eugene Schlepp
Description: Colorless hexagonal bipyramidal crystals
Measured chemistry: Pb_1.00_CO_3_ ; CO_2_ not measured but estimated by difference and stoichiometry
Pin_id: L00519
Orientation: Laser parallel to -c* (0 0 -1). Fiducial mark perpendicular to laser is parallel to a [1 0 0]
Raman shift (cm-1)	intensity
46.637	0
50.856	56.093
55.072	190.49
59.287	308.565
63.499	407.941
67.709	158.35
71.917	102.565
76.123	73.71
80.327	59.751
84.529	94.82
88.728	233.17
92.926	713.134
97.121	1522.5
101.314	2205.95
105.505	2598.31
109.694	3578.54
113.881	5296.6
118.066	6332.45
122.249	5674.06
126.43	5133.4
130.608	4954.46
134.785	4190.43
138.959	3211.04
143.131	2755.86
147.301	2281.6
151.469	2037.97
155.635	1919.67
159.799	1762.77
163.961	1498.28
168.121	1521.18
172.278	1624.54
176.434	1501.37
180.587	1445.62
184.739	1537.22
188.888	1454.2
193.035	1509.57
197.18	1682.33
201.324	1996.46
205.465	2101.94
209.603	2499.95
213.74	2920.8
217.875	2992.11
222.008	2679.7
226.139	2602.64
230.267	2399.75
234.394	1864.16
238.518	1419.73
242.641	1197.81
246.761	1083.96
250.879	862.603
254.996	746.241
259.11	671.19
263.222	637.316
267.332	572.73
271.44	451.606
275.546	424.601
279.65	453.882
283.752	332.411
287.852	315.204
291.95	357.007
296.046	324.322
300.14	198.731
304.231	195.438
308.321	200.213
312.409	283.165
316.495	139.299
320.578	151.615
324.66	194.167
328.739	161.531
332.817	165.269
336.892	77.915
340.966	133.093
345.037	118.358
349.107	88.824
353.174	145.499
357.24	140.216
361.303	114.05
365.365	35.644
369.424	13.745
373.481	67.025
377.537	90.253
381.59	44.826
385.642	9.588
389.691	80.15
393.738	11.876
397.784	12.414
401.827	18.821
405.868	139.89
409.908	80.419
413.945	45.79
417.98	15.005
422.014	64.311
426.045	18.273
430.075	31.265
434.102	66.497
438.127	148.701
442.151	72.662
446.172	0.202
450.192	47.214
454.209	29.214
458.225	15.564
462.238	132.2
466.25	9.288
470.259	10.333
474.267	88.493
478.273	78.712
482.276	0.804
486.278	48.306
490.278	38.382
494.276	140.256
498.271	65.426
502.265	1.365
506.257	49.137
510.247	109.108
514.235	105.984
518.221	36.804
522.205	10.587
526.187	139.287
530.167	65.892
534.145	85.431
538.122	62.915
542.096	7.822
546.068	173.487
550.039	55.603
554.007	35.632
557.973	26.472
561.938	63.307
565.901	118.902
569.861	99.964
573.82	51.644
577.777	26.503
581.732	142.419
585.685	79.55
589.636	10.626
593.585	3.128
597.532	139.689
601.477	131.375
605.42	127.697
609.361	21.391
613.301	68.559
617.238	141.519
621.174	186.605
625.108	188
629.039	97.812
632.969	127.545
636.897	226.16
640.823	184.536
644.747	128.666
648.669	23.86
652.589	196.063
656.508	219.843
660.424	163.096
664.339	101.045
668.251	230.43
672.162	607.593
676.071	819.728
679.978	231.638
683.883	79.045
687.786	96.324
691.687	127.433
695.586	220.064
699.484	84.454
703.379	22.578
707.273	74.445
711.165	12.298
715.055	55.404
718.943	131.752
722.829	77.734
726.713	158.025
730.595	94.396
734.476	163.718
738.354	123.63
742.231	117.746
746.106	112.295
749.978	53.402
753.849	125.246
757.719	151.131
761.586	24.478
765.451	76.325
769.315	26.312
773.177	95.688
777.036	124.63
780.894	139.107
784.75	139.596
788.605	60.315
792.457	116.576
796.307	141.684
800.156	214.315
804.003	115.684
807.848	21.577
811.691	66.123
815.532	229.81
819.371	111.235
823.209	119.69
827.045	100.509
830.878	91.364
834.71	261.548
838.54	1203.29
842.369	429.229
846.195	204.212
850.02	89.727
853.842	87.926
857.663	235.998
861.482	235.52
865.299	82.439
869.115	169.008
872.928	3.28
876.74	19.348
880.55	115.079
884.358	188.765
888.164	215.488
891.969	21.203
895.771	40.775
899.572	75.619
903.371	153.371
907.168	191.047
910.963	212.606
914.757	53.178
918.548	50.667
922.338	140.334
926.126	176.167
929.912	311.655
933.697	154.596
937.479	34.899
941.26	28.514
945.039	71.004
948.816	194.552
952.591	238.334
956.365	151.959
960.136	74.051
963.906	27.841
967.674	2.282
971.441	222.371
975.205	116.162
978.968	164.217
982.729	138.327
986.488	47.392
990.245	20.204
994	24.271
997.754	158.344
1001.51	355.409
1005.26	202.077
1009	65.701
1012.75	169.407
1016.5	125.791
1020.24	289.996
1023.98	303.924
1027.72	382.145
1031.46	634.206
1035.19	280.414
1038.93	374.312
1042.66	528.801
1046.39	1079.05
1050.12	3083.89
1053.85	53007.2
1057.57	9671.86
1061.29	1235.68
1065.02	438.606
1068.74	441.361
1072.45	523.862
1076.17	506.763
1079.88	449.797
1083.6	342.649
1087.31	163.398
1091.02	300.436
1094.72	304.588
1098.43	371.316
1102.13	454.473
1105.84	426.675
1109.54	249.194
1113.24	61.932
1116.93	44.266
1120.63	129.318
1124.32	279.246
1128.01	330.771
1131.7	322.921
1135.39	341.263
1139.08	116.219
1142.76	28.295
1146.45	40.681
1150.13	221.579
1153.81	312.544
1157.48	273.256
1161.16	333.646
1164.84	83.519
1168.51	13.388
1172.18	56.886
1175.85	122.599
1179.52	151.962
1183.18	231.163
1186.85	220.172
1190.51	229.021
1194.17	2.404
1197.83	75.927
1201.48	5.894
1205.14	52.102
1208.79	209.938
1212.44	287.623
1216.09	325.164
1219.74	252.574
1223.39	79.858
1227.03	66.986
1230.68	153.954
1234.32	110.791
1237.96	77.415
1241.6	243.821
1245.23	290.059
1248.87	206.084
1252.5	191.966
1256.13	7.892
1259.76	43.594
1263.39	30.624
1267.02	226.225
1270.64	212.953
1274.26	504.244
1277.88	420.438
1281.5	304.682
1285.12	103.697
1288.74	67.244
1292.35	1.676
1295.96	71.113
1299.57	262.077
1303.18	365.922
1306.79	399.583
1310.4	510.112
1314	682.617
1317.6	551.387
1321.2	474.363
1324.8	436.145
1328.4	415.87
1331.99	407.829
1335.59	578.611
1339.18	942.047
1342.77	1033.13
1346.36	1303.19
1349.95	1454.09
1353.53	1754.94
1357.12	2385.91
1360.7	3077.17
1364.28	3620.16
1367.86	2880.62
1371.44	1970.22
1375.01	1712.34
1378.59	1398.02
1382.16	995.438
1385.73	787.66
1389.3	378.525
1392.87	227.001
1396.43	107.805
1399.99	44.917
1403.56	254.281
1407.12	203.012
1410.68	413.637
1414.23	494.979
1417.79	456.303
1421.34	417.635
1424.9	389.009
1428.45	200.649
1431.99	82.415
1435.54	115.724
1439.09	136.181
1442.63	218.071
1446.17	280.107
1449.71	452.589
1453.26	725.331
1456.79	787.884
1460.33	747.193
1463.86	611.28
1467.39	527.11
1470.92	341.463
1474.45	191.282
1477.98	317.615
1481.51	303.271
1485.03	297.765
1488.56	490.211
1492.08	541.439
1495.6	506.723
1499.11	515.832
1502.63	496.445
1506.14	504.467
1509.66	142.633
1513.17	0
