Measurement: Raman, 514 nm, depolarized, Raman Data Processed
Mineral: Chabazite-Ca
Rruff sample: R050014
Ideal chemistry: Ca_2_Al_4_Si_8_O_24_13H_2_O
Locality: Tablo Mountain, Baja California, Mexico
Source: University of Arizona Mineral Museum
Description: Light tan colored rhombohedral single crystals
Measured chemistry: (Ca_0.72_Mg_0.11_K_0.09_Sr_0.06_Na_0.01_)_Σ=1_(Si_4.12_Al_1.88_)O_12_·6H_2_O
Pin_id: M00242
Orientation: Laser parallel to (-1 1 0). Fiducial mark perpendicular to laser is parallel to [1 1 1]
Raman shift (cm-1)	intensity
105.815	0
110.744	489.562
115.671	2512.22
120.596	2628.18
125.519	3794.88
130.439	6984.2
135.356	13021.9
140.271	28741.2
145.184	21328.4
150.094	10260.1
155.002	6430.49
159.908	4797.5
164.811	4599.41
169.711	4626.19
174.61	4698.62
179.505	4577.69
184.399	4424.67
189.29	3969.24
194.178	4252.1
199.064	3588.62
203.948	2427.33
208.829	989.09
213.708	826.754
218.585	339.881
223.459	53.2617
228.33	329.068
233.199	313.623
238.066	296.334
242.93	252.879
247.792	229.137
252.651	76.7578
257.508	129.891
262.363	267.631
267.215	501.734
272.064	1101.47
276.912	1807.91
281.756	2087.58
286.598	1872.43
291.438	1998.66
296.276	2257.73
301.111	2491.14
305.943	2655.27
310.773	2925.67
315.601	3675.08
320.426	4132.13
325.248	4653.35
330.068	4888.73
334.886	4393.06
339.701	3992.43
344.514	3219.48
349.324	2968.2
354.132	2540.68
358.938	2466.7
363.741	2363.05
368.541	2143.77
373.339	1944.42
378.135	1993.18
382.928	2340.67
387.718	2549.67
392.506	2887.29
397.292	2880.35
402.075	2342.15
406.856	2471.7
411.634	2192.58
416.41	2787.43
421.183	3572.01
425.954	4560.07
430.722	6515.25
435.488	8413.78
440.251	11312.1
445.012	14340.4
449.77	17230.3
454.526	19076.9
459.28	19729.2
464.03	20364.5
468.779	21563
473.525	22961.3
478.268	22439.8
483.009	19265.2
487.747	15179
492.483	11185.3
497.217	7770.27
501.948	5776.21
506.676	4560.39
511.402	3414.51
516.125	2934.33
520.846	2311.78
525.565	1514.26
530.281	1092.18
534.994	804.176
539.705	707.519
544.413	487.75
549.119	202.713
553.822	187.891
558.523	121.916
563.222	135.893
567.917	124.258
572.611	113.397
577.302	82.9727
581.99	62.2227
586.676	142.043
591.359	125.01
596.04	240.443
600.718	56.4219
605.394	118.574
610.067	148.994
614.737	148.219
619.406	251.576
624.071	1293.12
628.734	1765.91
633.395	2413.03
638.053	2634.32
642.708	2009.69
647.361	1484.13
652.012	872.607
656.66	599.061
661.305	470.002
665.948	502.897
670.588	375.107
675.226	462.785
679.861	217.848
684.494	428.934
689.124	352.426
693.752	280.867
698.377	262.262
702.999	488.154
707.619	589.494
712.237	1053.96
716.852	835.35
721.464	593.152
726.074	400.383
730.681	758.473
735.286	429.574
739.888	370.086
744.488	510.523
749.085	444.273
753.68	689.043
758.272	569.848
762.861	1004.96
767.448	1315.58
772.033	960.613
776.614	904.934
781.194	2057.89
785.77	919.57
790.345	687.758
794.916	634.398
799.485	443.688
804.052	213.106
808.616	537.539
813.177	65.3125
817.736	8.78906
822.292	423.262
826.846	98.043
831.397	66.4688
835.945	70.0352
840.491	37.6914
845.035	61.2422
849.576	72.1016
854.114	29.2773
858.65	227.859
863.183	226.598
867.713	54.8008
872.241	5.17578
876.767	75.7344
881.29	70.0273
885.81	15.7109
890.328	90.832
894.843	135.672
899.356	285.195
903.866	41.7734
908.373	25.2852
912.878	110.941
917.38	61.0625
921.88	232.082
926.377	178.035
930.872	338.008
935.364	261.336
939.853	443.82
944.34	148.051
948.824	283.527
953.306	284.227
957.785	606.254
962.261	640.934
966.735	564.543
971.207	817.246
975.675	657.309
980.141	686.805
984.605	1045.69
989.066	1666.05
993.524	1048.76
997.98	1238.79
1002.43	1415.36
1006.88	1338.65
1011.33	1668.52
1015.78	1640.86
1020.22	1585.35
1024.66	1331.96
1029.1	1664.32
1033.53	1687.98
1037.97	1595.02
1042.4	1619.62
1046.82	1973.22
1051.25	1705.06
1055.67	2113.9
1060.09	1950.07
1064.51	2700.48
1068.92	2355.11
1073.33	2646.63
1077.74	2713.27
1082.15	2812.17
1086.55	3099.29
1090.95	3170.89
1095.35	3056.12
1099.75	3077.22
1104.14	2653.34
1108.53	2654.65
1112.92	2268.91
1117.31	2144.82
1121.69	2419.79
1126.07	2119.46
1130.45	1931.52
1134.82	2100.62
1139.19	1797.21
1143.57	1862.24
1147.93	1530.34
1152.3	1244.64
1156.66	1095.68
1161.02	1114.64
1165.38	858.93
1169.73	870.59
1174.08	655.504
1178.43	437.477
1182.78	32.6445
1187.12	235.098
1191.46	318.465
1195.8	281.891
1200.14	258.281
1204.47	58.4219
1208.8	163.672
1213.13	111.449
1217.46	281.09
1221.78	158.676
1226.1	347.25
1230.42	460.812
1234.73	71.8438
1239.04	229.613
1243.35	117.785
1247.66	143.891
1251.97	60.3164
1256.27	173.059
1260.57	160.484
1264.86	277.238
1269.16	114.293
1273.45	132.039
1277.74	181.801
1282.03	75.3359
1286.31	49.4922
1290.59	221.391
1294.87	327.484
1299.14	416.633
1303.42	49.0156
1307.69	423.25
1311.95	67.3789
1316.22	515.758
1320.48	243.281
1324.74	280.484
1329	420.859
1333.26	284.84
1337.51	595.215
1341.76	188.414
1346	408.269
1350.25	276.418
1354.49	433.394
1358.73	378.055
1362.96	395.836
1367.2	261.227
1371.43	590.309
1375.66	362.34
1379.88	75.8711
1384.11	312.258
1388.33	327.297
1392.54	162.672
1396.76	345.113
1400.97	175.227
1405.18	235.93
1409.39	92.0078
1413.59	135.356
1417.8	383.949
1421.99	16.7617
1426.19	478.684
1430.38	610.836
1434.58	827.039
1438.77	861.648
1442.95	541.606
1447.13	673.695
1451.32	618
1455.49	474.152
1459.67	587.93
1463.84	497.324
1468.01	159.352
1472.18	708.719
1476.35	347.348
1480.51	182.199
1484.67	293.746
1488.83	279.715
1492.98	188.387
1497.13	78.6094
1501.28	270.363
1505.43	467.762
1509.57	357.551
1513.71	191.754
1517.85	201.746
1521.99	327.609
1526.12	393.492
1530.25	326.434
1534.38	410.516
1538.5	239.434
1542.62	227.91
1546.74	62.957
1550.86	387.164
1554.98	550.738
1559.09	486.434
1563.2	254.441
1567.31	333.484
1571.41	1.98047
