Measurement: Raman, 514 nm, ccw, Raman Data Processed
Mineral: Chabazite-Ca
Rruff sample: R050075
Ideal chemistry: Ca_2_Al_4_Si_8_O_24_13H_2_O
Locality: Victoria, Australia
Source: Rock Currier
Description: White pseudohexagonal crystals
Measured chemistry: (Ca_0.79_Na_0.22_K_0.14_)_Σ=1.15_(Si_4.08_Al_1.92_)O_12_·6H_2_O
Pin_id: M00950
Orientation: Laser parallel to (1 1 1). Fiducial mark perpendicular to laser is parallel to [-1 1 0]
Raman shift (cm-1)	intensity
201.491	0
206.38	465.977
211.267	919.078
216.151	1096.44
221.032	1456.66
225.911	1112.5
230.787	495.66
235.66	230.152
240.531	199.301
245.4	230.773
250.266	183.879
255.129	91.3125
259.99	127.719
264.848	31.3281
269.703	346.391
274.556	889.625
279.407	1213.79
284.255	1527.39
289.1	2874.89
293.942	4107.12
298.783	5431.47
303.62	6448.9
308.455	8208.63
313.288	10853.9
318.117	13677.6
322.945	17202.9
327.769	20389.4
332.591	21692.1
337.411	20945.3
342.228	17879.5
347.042	13665
351.854	10235.7
356.663	7687.02
361.47	5893.05
366.274	4396.23
371.075	3697.11
375.874	2776.5
380.67	2232.09
385.464	2549.1
390.255	2411.52
395.043	2695.31
399.829	2791.87
404.613	3338.66
409.393	4864.58
414.172	7565.39
418.947	11363.8
423.72	16643.5
428.49	24700.1
433.258	35839.6
438.024	50542.1
442.786	69420.4
447.546	90016.7
452.304	109046
457.059	120131
461.811	122048
466.56	118862
471.308	117870
476.052	121301
480.794	122746
485.533	114810
490.27	95274.4
495.004	72364.1
499.736	51980.7
504.465	35998.5
509.191	24960
513.915	17024.2
518.636	11614.8
523.354	7935.28
528.07	5063.48
532.784	3244.45
537.494	1995.11
542.203	1621.34
546.908	930.519
551.611	544.273
556.311	220.551
561.009	304.484
565.704	369.871
570.397	438.324
575.087	425.762
579.774	511.016
584.459	521.894
589.141	518.414
593.821	287.582
598.498	26.1211
603.172	170.254
607.844	142.555
612.513	227.805
617.18	348
621.844	351.481
626.505	211.594
631.164	314.75
635.82	360.723
640.473	602.34
645.124	824.676
649.773	1423.81
654.418	1337.73
659.062	1351.36
663.702	998.57
668.34	833.176
672.975	553.273
677.608	464.535
682.238	643.879
686.866	786.203
691.49	1078.84
696.113	1389.96
700.732	1682.3
705.349	1970.16
709.964	2437.71
714.576	2564.91
719.185	2884.77
723.792	3074.77
728.396	3230.58
732.997	3492.61
737.596	3698.3
742.192	3961.26
746.785	4373.57
751.376	5310.32
755.965	6034.24
760.551	7044.08
765.134	7081.35
769.714	7077.95
774.292	6865.11
778.867	6473.53
783.44	6071.97
788.01	5332
792.578	4340.06
797.142	3427.31
801.705	2344.72
806.264	1507.51
810.821	893.314
815.376	538.322
819.927	291.596
824.476	98.1426
829.023	43.7441
833.567	79.1602
838.108	58.3426
842.647	51.3965
847.183	114.129
851.716	91.5254
856.247	2.24219
860.776	74.6699
865.301	160.754
869.824	60.0215
874.345	52.4395
878.862	191.94
883.377	115.322
887.89	65.3301
892.4	172.847
896.907	59.043
901.412	82.6543
905.914	399.881
910.413	520.33
914.91	685.301
919.404	547.797
923.896	846.133
928.385	664.09
932.871	976.326
937.355	1131.16
941.836	741.473
946.315	1600.2
950.79	1583.91
955.264	1781.76
959.734	2323.75
964.202	2619.03
968.668	2707.36
973.131	2832.15
977.591	3385.39
982.048	3404.7
986.503	3921.4
990.955	4393.44
995.405	5085.15
999.852	5232.07
1004.3	5811.01
1008.74	6370.58
1013.18	6291.78
1017.61	6593.76
1022.05	7053.28
1026.48	7303.43
1030.91	7661.52
1035.33	7838.62
1039.76	7798.05
1044.18	8210.25
1048.6	9089.6
1053.01	9919.62
1057.42	10797.5
1061.84	12458.4
1066.24	13728
1070.65	14679.3
1075.05	16262.2
1079.45	16730.2
1083.85	17569.2
1088.24	17761.7
1092.63	18106.7
1097.02	17780.6
1101.41	17758.9
1105.8	17307.1
1110.18	16642.3
1114.56	15803.1
1118.93	15410.1
1123.31	14815.2
1127.68	13909.5
1132.04	12978.4
1136.41	11497.7
1140.77	10469.4
1145.13	9524.57
1149.49	8204.1
1153.85	7471.05
1158.2	6541.18
1162.55	5591.43
1166.9	4712.61
1171.24	3836.98
1175.58	3195.91
1179.92	2747.36
1184.26	1988.25
1188.6	1451.56
1192.93	873.793
1197.26	757.738
1201.58	404.758
1205.9	27.5469
1210.23	188.684
1214.55	5.9513
1218.86	190.336
1223.17	9.70703
1227.48	149.219
1231.79	605.617
1236.1	92.5
1240.4	29.7969
1244.7	199.914
1249	34.5273
1253.29	133.641
1257.59	13.3477
1261.88	23.5156
1266.16	267.738
1270.45	99.8672
1274.73	90.6875
1279.01	28.1289
1283.28	41.4102
1287.56	287.117
1291.83	330.215
1296.1	419.883
1300.36	210.039
1304.63	439.168
1308.89	187.234
1313.15	286.898
1317.4	309.508
1321.65	274.984
1325.9	419.18
1330.15	278.246
1334.4	86.9414
1338.64	393.199
1342.88	220.328
1347.12	146.965
1351.35	450.066
1355.58	266.945
1359.81	350.168
1364.04	289.734
1368.26	117.406
1372.48	151.004
1376.7	228.129
1380.92	432.844
1385.13	266.418
1389.34	296.617
1393.55	179.168
1397.76	294.711
1401.96	390.957
1406.16	174.617
1410.36	49.8438
1414.55	315.465
1418.75	464.062
1422.94	589.305
1427.12	74.1914
1431.31	352.219
1435.49	952.18
1439.67	878.305
1443.85	1413.58
1448.02	1248.11
1452.19	1076.12
1456.36	949.902
1460.53	1057.82
1464.69	885.121
1468.85	365.914
1473.01	489.211
1477.17	309.281
1481.32	433.422
1485.47	380.262
1489.62	320.457
1493.76	351.43
1497.91	239.16
1502.05	85.2852
1506.18	6.01953
1510.32	338.953
1514.45	200.367
1518.58	60.6914
1522.71	119.832
1526.83	164.023
1530.95	578.356
1535.07	167.57
1539.19	459.312
1543.3	152.984
1547.41	428.055
1551.52	240.438
1555.63	809.305
1559.73	368.965
1563.83	475.461
1567.93	248.055
1572.03	491.117
1576.12	415.707
1580.21	0
