Measurement: Raman, 514 nm, ccw, Raman Data Processed
Mineral: Chabazite-Ca
Rruff sample: R050075
Ideal chemistry: Ca_2_Al_4_Si_8_O_24_13H_2_O
Locality: Victoria, Australia
Source: Rock Currier
Description: White pseudohexagonal crystals
Measured chemistry: (Ca_0.79_Na_0.22_K_0.14_)_Σ=1.15_(Si_4.08_Al_1.92_)O_12_·6H_2_O
Pin_id: M00950
Orientation: Laser parallel to (1 1 1). Fiducial mark perpendicular to laser is parallel to [-1 1 0]
Raman shift (cm-1)	intensity
208.824	0
213.709	494.547
218.592	803.301
223.472	982.59
228.349	1032.6
233.224	694.727
238.096	453.055
242.966	102.457
247.833	131.246
252.698	292.269
257.56	42.4297
262.419	37.457
267.276	228.586
272.13	374.441
276.982	421.168
281.831	1150.17
286.677	1578.57
291.521	2386.17
296.363	3325.64
301.202	4340.51
306.038	5859.66
310.872	7618.78
315.703	10514.6
320.531	14104.6
325.357	17982.9
330.181	20508.2
335.001	21222.8
339.82	19304.9
344.635	16227.2
349.448	11562.1
354.259	9018.34
359.067	6812.67
363.872	5139.91
368.675	4033.74
373.475	2994.4
378.272	2711.72
383.067	2543.26
387.86	2200.56
392.649	2399.19
397.437	2526.59
402.221	3099.3
407.003	4447.52
411.783	6813.83
416.56	10198.5
421.334	15594.1
426.106	22496
430.875	32229.7
435.641	46173.4
440.405	65461.2
445.167	87616.1
449.925	109828
454.681	127456
459.435	133644
464.186	131613
468.934	127351
473.68	126458
478.423	130369
483.164	126364
487.902	111418
492.637	88060.1
497.37	65182
502.1	45940.6
506.828	31644.7
511.553	21780.1
516.276	14415.2
520.995	10070.5
525.713	6399.82
530.427	4265.26
535.139	2737.09
539.849	1596.74
544.556	1008.97
549.26	939.051
553.962	432.602
558.661	150.289
563.357	318.402
568.051	489.754
572.742	409.199
577.431	582.684
582.117	481.998
586.801	1039.75
591.481	398.699
596.16	169.059
600.835	189.877
605.508	300.418
610.179	373.178
614.847	216.164
619.512	241.998
624.175	270.65
628.835	5.94531
633.492	157.746
638.147	489.953
642.799	775.832
647.449	1222.47
652.096	1416.93
656.74	1443.09
661.382	992.867
666.021	691.119
670.658	578.488
675.292	499.338
679.923	380.273
684.552	755.023
689.178	908.832
693.802	1130.42
698.423	1465.4
703.041	1990.94
707.657	2093.63
712.27	2950.8
716.881	3123.02
721.489	3286.1
726.094	3543.65
730.697	3507.84
735.297	3525.33
739.894	3977.6
744.489	4056.71
749.081	4671.28
753.671	5576.94
758.258	5983.95
762.842	6574.85
767.424	6684.9
772.003	6440.9
776.58	6151.74
781.154	5599
785.725	5190.68
790.294	4772.15
794.86	3681.69
799.424	2705.27
803.985	1540.85
808.543	737.088
813.099	667.273
817.652	72.0742
822.202	88.3457
826.75	54.1816
831.295	51.8809
835.838	25.1211
840.378	36.6172
844.915	63.0918
849.45	93.418
853.982	92.2676
858.512	76.6289
863.039	74.125
867.563	60.6777
872.085	88.7559
876.604	10
881.12	239.637
885.634	45.3926
890.145	252.963
894.654	66.8711
899.16	171.992
903.663	170.457
908.164	250.203
912.662	343.188
917.158	614.457
921.651	445.088
926.141	745.186
930.628	604.811
935.113	964.373
939.596	999.688
944.076	1106
948.553	1287.89
953.027	1636.07
957.499	1881.7
961.969	2004.13
966.435	2396.88
970.899	2673.82
975.361	3241.57
979.82	3630.99
984.276	4200.57
988.73	4454.24
993.181	5096.55
997.629	5376.58
1002.08	5843.44
1006.52	6205.32
1010.96	6756.9
1015.4	7061.66
1019.83	7524.92
1024.26	7862.45
1028.69	7980.02
1033.12	8279.89
1037.55	8738.08
1041.97	8862.5
1046.39	9536.68
1050.81	9928.3
1055.22	11235.7
1059.63	12784.7
1064.04	13970.2
1068.45	15404.6
1072.85	17047.7
1077.25	17854.9
1081.65	18788.2
1086.05	19501
1090.44	19982.1
1094.83	19915.8
1099.22	19841.7
1103.6	19550.6
1107.99	18641.8
1112.37	17975.7
1116.74	17159.6
1121.12	16454.8
1125.49	15203.3
1129.86	14142.4
1134.23	13036.5
1138.59	11781.7
1142.95	10612.1
1147.31	9360.53
1151.67	8441
1156.02	7572.23
1160.38	6223.9
1164.72	5146.56
1169.07	4449.1
1173.41	3542.48
1177.75	3139.66
1182.09	2490.57
1186.43	1944.48
1190.76	1546.48
1195.09	974.41
1199.42	560.736
1203.74	367.234
1208.07	119.881
1212.39	15.5605
1216.7	35.043
1221.02	3.41992
1225.33	119.506
1229.64	70.0918
1233.95	12.8633
1238.25	185.662
1242.55	85.7656
1246.85	49.5195
1251.15	77.541
1255.44	38.8438
1259.73	178.008
1264.02	23.1445
1268.31	60.2207
1272.59	105.438
1276.87	286.004
1281.15	304.344
1285.42	616.211
1289.69	501.051
1293.96	647.143
1298.23	528.562
1302.5	380.008
1306.76	294.809
1311.02	317.529
1315.27	472.055
1319.53	401.744
1323.78	380.441
1328.03	287.08
1332.28	205.424
1336.52	209.152
1340.76	165.435
1345	366.07
1349.23	317.014
1353.47	182.019
1357.7	149.727
1361.93	199.195
1366.15	230.717
1370.37	559.719
1374.59	341.732
1378.81	492.18
1383.03	263.621
1387.24	160.334
1391.45	275.973
1395.65	55.3145
1399.86	88.7969
1404.06	346.682
1408.26	230.205
1412.46	381.184
1416.65	369.277
1420.84	352.023
1425.03	375.65
1429.22	327.486
1433.4	793.756
1437.58	709.602
1441.76	1140.78
1445.93	1333.47
1450.11	1097.88
1454.28	1094.3
1458.44	838.424
1462.61	779.684
1466.77	854.658
1470.93	584.695
1475.09	540.658
1479.24	401.268
1483.39	575.4
1487.54	364.236
1491.69	313.777
1495.84	332.783
1499.98	250.756
1504.12	264.035
1508.25	32.1641
1512.38	10.2422
1516.52	198.572
1520.64	226.853
1524.77	103.744
1528.89	197.152
1533.01	475.336
1537.13	338.006
1541.25	213.906
1545.36	322.758
1549.47	323.59
1553.58	478.869
1557.68	460.393
1561.78	197.185
1565.88	100.629
1569.98	97.0918
1574.07	475.17
1578.16	319.914
