Measurement: Raman, 514 nm, depolarized, Raman Data Processed
Mineral: Chabazite-Ca
Rruff sample: R050075
Ideal chemistry: Ca_2_Al_4_Si_8_O_24_13H_2_O
Locality: Victoria, Australia
Source: Rock Currier
Description: White pseudohexagonal crystals
Measured chemistry: (Ca_0.79_Na_0.22_K_0.14_)_Σ=1.15_(Si_4.08_Al_1.92_)O_12_·6H_2_O
Pin_id: L00465
Orientation: Laser parallel to a* (1 0 0). Fiducial mark perpendicular to laser is parallel to c [0 0 1]
Raman shift (cm-1)	intensity
235.063	0
237.805	437.465
240.545	404.926
243.286	142.328
246.025	71.787
248.763	74.695
251.501	318.49
254.237	379.051
256.973	419.758
259.708	211.65
262.442	136.893
265.175	155.789
267.907	36.566
270.639	82.404
273.369	410.967
276.099	390.984
278.828	229.312
281.556	293.799
284.283	337.283
287.009	522.613
289.734	864.76
292.459	795.775
295.183	1025.7
297.905	908.488
300.627	969.072
303.348	1256.37
306.069	1508.33
308.788	2029.89
311.507	2195.01
314.224	2319.65
316.941	2816.77
319.657	3257.29
322.372	4029.09
325.086	4726.1
327.8	5068.26
330.512	5804.48
333.224	5275.54
335.935	5172.68
338.645	5099.14
341.354	4663.21
344.062	4040.05
346.769	3392.89
349.476	2766.61
352.182	2408.94
354.887	2338.71
357.591	2128.69
360.294	1933.81
362.996	1487.03
365.698	1120.32
368.398	969.691
371.098	1126.13
373.797	1125.67
376.495	1103.31
379.192	1004.09
381.889	953.719
384.584	973.018
387.279	1181.11
389.973	1237.27
392.666	1412.5
395.358	1224.8
398.049	1270.76
400.74	1341.01
403.429	1827.51
406.118	2122.54
408.806	2214.91
411.493	2365.89
414.179	2762.76
416.865	3451.05
419.549	4357.97
422.233	5070.71
424.916	5891.85
427.598	6883.84
430.279	8423.35
432.959	10186
435.639	12811.8
438.318	15162.9
440.996	17606.2
443.673	20434
446.349	23417.2
449.024	27047.9
451.699	30142
454.372	32426.2
457.045	33429.4
459.717	33515.3
462.388	33981.9
465.059	34340.9
467.728	34824.3
470.397	35706.8
473.065	35671.5
475.732	37169
478.398	38874
481.063	39199.5
483.728	36476.5
486.391	33274.1
489.054	29336.3
491.716	24876.2
494.377	21031.1
497.038	17874.1
499.697	14467
502.356	11624
505.014	9547.8
507.671	8108.2
510.327	6676.82
512.982	5576.94
515.637	4431.02
518.291	3522.83
520.944	3285.05
523.596	2575.99
526.247	2253.89
528.897	1840.74
531.547	1614.44
534.196	1305.96
536.844	1227.66
539.491	1197.29
542.137	1026.93
544.783	627.82
547.427	621.564
550.071	483.371
552.714	494.146
555.356	465.936
557.998	359.76
560.638	75.531
563.278	176.283
565.917	261.016
568.555	428.744
571.192	289.475
573.829	103.203
576.464	165.881
579.099	188.516
581.733	243.107
584.366	254.664
586.999	143.207
589.63	15.258
592.261	99.193
594.891	185.555
597.52	112.797
600.148	44.814
602.776	175.35
605.402	98.156
608.028	126.535
610.653	90.277
613.277	55.295
615.901	172.223
618.523	48.588
621.145	87.715
623.766	151.713
626.386	19.379
629.006	34.221
631.624	107.949
634.242	92.928
636.859	264.699
639.475	366.287
642.09	135.709
644.705	244.947
647.318	465.016
649.931	469.912
652.543	515.213
655.155	461.959
657.765	382.467
660.375	192.199
662.984	352.344
665.592	285.051
668.199	216.256
670.805	73.738
673.411	192.574
676.016	338.662
678.62	282.693
681.223	128.764
683.825	144.672
686.427	376.24
689.028	453.957
691.628	468.16
694.227	479.76
696.825	491.828
699.423	583.457
702.02	897.287
704.616	549.789
707.211	545.227
709.805	794.869
712.399	870.877
714.992	875.393
717.584	1032.14
720.175	904.969
722.765	814.484
725.355	842.457
727.944	1079.96
730.532	976.002
733.119	1025.23
735.705	987.887
738.291	918.408
740.876	989.549
743.46	1029.03
746.043	1091.22
748.626	1115.44
751.207	1353.43
753.788	1438.05
756.368	1538.77
758.947	1421.54
761.526	1525.61
764.104	1798.14
766.68	1501.32
769.257	1578.54
771.832	1390.01
774.406	1358.51
776.98	1396.36
779.553	1531.07
782.125	1435.27
784.697	1474.01
787.267	1495.5
789.837	1543.51
792.406	1301.69
794.974	1123.62
797.542	964.816
800.108	863.459
802.674	752.109
805.239	517.559
807.804	273.736
810.367	288.635
812.93	396.248
815.492	266.939
818.053	168.922
820.613	44.008
823.173	14.432
825.732	36.902
828.29	23.156
830.847	99.604
833.403	116.125
835.959	62.154
838.514	98.203
841.068	60.729
843.621	33.719
846.174	158.088
848.726	50.154
851.277	43.494
853.827	65.732
856.376	140.652
858.925	198.588
861.473	107.471
864.02	157.99
866.566	39.088
869.112	74.814
871.656	30.246
874.2	17.633
876.744	36.848
879.286	55.422
881.828	189.631
884.369	170.408
886.909	77.945
889.448	157.234
891.987	112.855
894.524	127.105
897.061	159.695
899.598	212.08
902.133	32.262
904.668	154.244
907.202	211.094
909.735	224.816
912.267	311.414
914.799	253.908
917.33	118.359
919.86	245.83
922.389	270.256
924.918	313.635
927.445	273.986
929.972	318.275
932.499	339.533
935.024	354.746
937.549	371.852
940.073	469.85
942.596	296.74
945.118	413.523
947.64	488.184
950.161	477.727
952.681	585.156
955.2	796.469
957.719	620.67
960.236	820.416
962.753	813.277
965.27	825.484
967.785	937.209
970.3	955.381
972.814	1128.9
975.327	1190.97
977.84	1265.93
980.351	1126.09
982.862	1155.68
985.372	1476.45
987.882	1735.31
990.39	1648.92
992.898	1701.89
995.405	1978.65
997.912	1893.98
1000.42	2186.21
1002.92	2208.77
1005.43	2172.68
1007.93	2292.54
1010.43	2388.05
1012.93	2590.83
1015.43	2388.74
1017.93	2620.14
1020.43	2636.7
1022.93	2807.82
1025.43	2772.48
1027.93	2809.7
1030.42	2709.43
1032.92	2881.8
1035.42	2858.59
1037.91	2981.87
1040.4	2895.27
1042.9	3031.05
1045.39	3012.83
1047.88	3101.8
1050.37	3166.18
1052.86	3394.22
1055.35	3455.84
1057.84	3483.26
1060.33	3818.84
1062.81	4213.54
1065.3	4298.85
1067.78	4544.15
1070.27	4680.56
1072.75	5039.66
1075.23	5278.26
1077.72	5295.23
1080.2	5313.15
1082.68	5507.38
1085.16	5659.74
1087.64	5856.98
1090.12	5484.6
1092.59	5794.3
1095.07	5961.05
1097.55	5881.06
1100.02	5603.03
1102.5	5366.11
1104.97	5689.26
1107.44	5559.89
1109.92	5200.42
1112.39	5020.2
1114.86	5020.6
1117.33	4921.14
1119.8	4580.02
1122.27	4879.61
1124.74	4700.36
1127.2	4393.56
1129.67	4152.12
1132.14	3827.96
1134.6	4025.43
1137.07	3830.38
1139.53	3523.95
1141.99	3004.95
1144.45	3117.39
1146.92	3007.18
1149.38	2947.46
1151.84	3277.12
1154.3	2358.06
1156.76	2399.28
1159.21	1974.74
1161.67	1739.44
1164.13	1639.37
1166.58	1826.45
1169.04	1546.73
1171.49	1020.24
1173.94	1214.91
1176.4	1354.75
1178.85	905.791
1181.3	636.043
1183.75	806.514
1186.2	781.211
1188.65	511.123
1191.1	59.238
1193.54	325.594
1195.99	330.541
1198.44	389.098
1200.88	92.73
1203.33	273.037
1205.77	298.381
1208.21	140.297
1210.65	124.219
1213.1	302.852
1215.54	326.539
1217.98	94.895
1220.42	31.023
1222.86	156.859
1225.29	378.631
1227.73	160.404
1230.17	260.773
1232.6	394.734
1235.04	465.195
1237.47	144.779
1239.91	65.443
1242.34	166.764
1244.77	269.764
1247.2	58.219
1249.63	144.979
1252.06	211.461
1254.49	359.223
1256.92	143.535
1259.35	80.117
1261.78	506.27
1264.2	0
