Measurement: Raman, 514 nm, depolarized, Raman Data Processed
Mineral: Chabazite-Ca
Rruff sample: R050075
Ideal chemistry: Ca_2_Al_4_Si_8_O_24_13H_2_O
Locality: Victoria, Australia
Source: Rock Currier
Description: White pseudohexagonal crystals
Measured chemistry: (Ca_0.79_Na_0.22_K_0.14_)_Σ=1.15_(Si_4.08_Al_1.92_)O_12_·6H_2_O
Pin_id: L00209
Orientation: Laser parallel to c* (0 0 1). Fiducial mark perpendicular to laser is parallel to b [0 1 0]
Raman shift (cm-1)	intensity
241.916	0
244.655	207.064
247.394	470.354
250.132	565.062
252.869	284.24
255.605	130.82
258.34	219.551
261.075	132.463
263.808	453.012
266.541	379.217
269.273	303.564
272.004	91.326
274.734	24.752
277.463	117.025
280.192	643.785
282.919	1057.33
285.646	928.5
288.372	932.098
291.097	883.926
293.821	1135.85
296.544	1421.84
299.266	1948.93
301.988	1963.05
304.709	1807.11
307.428	1609.02
310.147	1878.72
312.865	2055.14
315.583	2817.23
318.299	3335.96
321.015	3527.28
323.729	3326.23
326.443	3565.81
329.156	4208.68
331.868	4633.78
334.579	4750.02
337.29	4375.2
339.999	3909.59
342.708	3350.39
345.416	3280.74
348.123	2974.86
350.829	2642
353.534	2228.79
356.239	1610.09
358.942	1265.56
361.645	1311.25
364.347	1461.12
367.048	1534.12
369.748	1106.24
372.448	743.475
375.146	811.832
377.844	1129.35
380.54	1307.06
383.236	1498.97
385.932	1340.1
388.626	1285.39
391.319	1029.81
394.012	1638.35
396.704	1820.99
399.394	1898.74
402.084	1747.57
404.774	1660.19
407.462	1771.13
410.15	2295.19
412.836	2745.36
415.522	3102.26
418.207	3117.36
420.891	3581.14
423.575	4617.52
426.257	5862.1
428.939	7106.29
431.619	8203.18
434.299	9505.31
436.978	11410.7
439.657	13938.1
442.334	17067.6
445.011	19918.6
447.687	22516.3
450.361	24478.1
453.036	26408
455.709	28445.8
458.381	30523
461.053	30819.4
463.724	29973
466.394	29582.5
469.063	30425.5
471.731	31845.9
474.398	33634.5
477.065	34280
479.731	34051.7
482.396	32609.9
485.06	31232.4
487.723	28236.2
490.385	24411.7
493.047	20431.2
495.708	16370.8
498.368	13326.6
501.027	11651.8
503.685	9670.59
506.342	7836.77
508.999	6215
511.655	4909.33
514.31	4250.47
516.964	4033.07
519.617	3578.05
522.27	2621.77
524.921	2218.11
527.572	1674.28
530.222	2016.01
532.871	1839.13
535.52	1643.86
538.167	1032.15
540.814	778.426
543.46	1013.22
546.105	844.576
548.749	747.635
551.393	384.906
554.035	171.777
556.677	170.65
559.318	377.658
561.958	662.512
564.597	270.273
567.236	97.973
569.874	120.305
572.511	176.381
575.147	526.16
577.782	413.885
580.416	49.535
583.05	32.857
585.683	287.676
588.315	423.219
590.946	270.684
593.576	157.033
596.206	103.676
598.834	1.582
601.462	257.393
604.089	203.143
606.715	30.328
609.341	417.959
611.965	180.166
614.589	5.277
617.212	111.432
619.834	99.701
622.456	130.117
625.076	63.166
627.696	333.301
630.315	371.281
632.933	239.094
635.551	5.262
638.167	83.184
640.783	247.465
643.398	699.582
646.012	497.531
648.625	396.324
651.237	453.953
653.849	453.406
656.46	756.48
659.07	607.166
661.679	259.062
664.288	44.271
666.895	396.088
669.502	402.77
672.108	328.09
674.713	47.404
677.318	6.668
679.921	218.9
682.524	560.299
685.126	511.467
687.727	303.52
690.328	207.084
692.927	376.812
695.526	834.879
698.124	628.988
700.721	364.311
703.318	474.945
705.913	599.623
708.508	987.848
711.102	1003.24
713.695	488.361
716.288	627.594
718.879	854.307
721.47	1073.45
724.06	1169.76
726.649	729.23
729.238	632.457
731.825	892.035
734.412	1178.43
736.998	1124.54
739.584	711.127
742.168	831.428
744.752	1330.74
747.334	1364.58
749.916	1221.77
752.498	1134.48
755.078	1231.69
757.658	1599.92
760.237	1580.7
762.815	1515.38
765.392	1357.02
767.969	1552.69
770.544	1758.85
773.119	1761.46
775.693	1329.77
778.267	1288.14
780.839	1473.01
783.411	1832.56
785.982	1667.9
788.552	1266.48
791.122	1176.92
793.69	1308.76
796.258	1380.02
798.825	1090.35
801.391	678.973
803.957	525.674
806.522	563.119
809.085	610.299
811.649	350.141
814.211	38.773
816.772	192.133
819.333	249.746
821.893	303.352
824.452	124.201
827.011	98.191
829.568	63.051
832.125	389.123
834.681	115.367
837.236	167.693
839.791	66.834
842.345	176.549
844.898	420.234
847.45	170.111
850.001	78.152
852.552	82.182
855.102	245.346
857.651	346.848
860.199	102.115
862.746	129.268
865.293	23.322
867.839	294.457
870.384	66.443
872.928	81.895
875.472	52.432
878.015	233.443
880.557	372.115
883.098	67.582
885.639	5.309
888.178	120.02
890.717	386.525
893.256	177.846
895.793	107.975
898.33	93.92
900.865	427.695
903.401	613.318
905.935	159.756
908.468	60.059
911.001	71.215
913.533	464.375
916.064	304.396
918.595	164.436
921.124	130.547
923.653	325.643
926.182	645.754
928.709	425.795
931.236	53.799
933.761	453.73
936.286	571.559
938.811	510.301
941.334	393.959
943.857	362.531
946.379	768.016
948.9	1036.4
951.421	776.672
953.94	646.805
956.459	776.805
958.978	1029.67
961.495	1111.42
964.012	854.693
966.527	1020.24
969.043	1108.43
971.557	1289.52
974.071	1132.7
976.583	1070.62
979.095	1322.82
981.607	1652.36
984.117	1684.83
986.627	1327.66
989.136	1478.71
991.644	1874.82
994.152	1748.98
996.659	1835.77
999.165	1760.1
1001.67	2542.97
1004.17	2697.36
1006.68	2263.81
1009.18	2084.78
1011.68	2557.97
1014.18	2855.31
1016.68	2587.76
1019.18	2537.63
1021.68	2795.39
1024.18	3121.77
1026.68	2948.52
1029.18	2552.4
1031.67	2765.76
1034.17	3023.3
1036.66	3128.09
1039.16	3008.72
1041.65	2854.58
1044.14	3157.85
1046.63	3370.54
1049.12	3146.37
1051.62	3242.73
1054.11	3184.44
1056.59	3829.39
1059.08	3651.36
1061.57	3566.35
1064.06	3905.28
1066.54	4384.6
1069.03	4618.23
1071.51	4466.43
1073.99	4637.81
1076.47	5177.67
1078.96	5438.11
1081.44	4890.55
1083.92	4771.69
1086.4	5399.15
1088.88	5798.1
1091.36	5266.54
1093.83	5126.81
1096.31	5369.77
1098.79	5721
1101.26	5503.27
1103.73	4867.5
1106.21	5202.73
1108.68	5250.1
1111.15	5104.66
1113.62	4337.54
1116.1	4393.79
1118.57	4595.6
1121.04	4657.99
1123.5	4147.93
1125.97	3877.39
1128.44	4309.44
1130.9	4241.92
1133.37	3508.84
1135.83	3263.31
1138.3	3675.38
1140.76	3506.22
1143.22	3060.55
1145.69	2953.2
1148.15	2938.17
1150.61	2934.56
1153.07	2386.3
1155.53	2132.22
1157.98	2424.26
1160.44	2446.34
1162.9	1723.67
1165.35	1448.23
1167.81	1671.02
1170.26	1687.07
1172.72	1220.51
1175.17	770.633
1177.62	1200.54
1180.07	1169.28
1182.52	832.881
1184.97	339.352
1187.42	764.701
1189.87	914.943
1192.32	390.098
1194.77	38.846
1197.21	328.156
1199.66	582.168
1202.1	480.293
1204.55	171.697
1206.99	444.572
1209.43	682.135
1211.88	198.566
1214.32	127.979
1216.76	679.688
1219.2	807.809
1221.64	396.209
1224.07	224.938
1226.51	461.195
1228.95	749.26
1231.38	344.861
1233.82	7.068
1236.26	567.045
1238.69	604.592
1241.12	247.752
1243.56	0
