Measurement: Raman, 514 nm, depolarized, Raman Data Processed
Mineral: Chabazite-Ca
Rruff sample: R050075
Ideal chemistry: Ca_2_Al_4_Si_8_O_24_13H_2_O
Locality: Victoria, Australia
Source: Rock Currier
Description: White pseudohexagonal crystals
Measured chemistry: (Ca_0.79_Na_0.22_K_0.14_)_Σ=1.15_(Si_4.08_Al_1.92_)O_12_·6H_2_O
Pin_id: M01326
Orientation: Laser parallel to (-1 1 0). Fiducial mark perpendicular to laser is parallel to [1 1 1]
Raman shift (cm-1)	intensity
213.707	0
218.573	393.953
223.438	814.75
228.3	783.133
233.16	654.883
238.017	991.773
242.872	931.75
247.725	653.031
252.575	50.3438
257.424	136.578
262.269	189.094
267.113	315.867
271.954	249.266
276.793	275.727
281.63	1800.84
286.464	3103.52
291.296	4595.33
296.125	6516.62
300.952	7265.54
305.777	8282.6
310.6	10050
315.42	13344.3
320.237	17743
325.053	21954
329.866	25369.2
334.676	26584.9
339.485	24712.6
344.291	20757.6
349.094	16436.7
353.895	11888.4
358.694	8628.65
363.491	6736.77
368.285	4250.29
373.076	3405.25
377.866	3233.12
382.653	3154.85
387.437	3743.62
392.219	4024.86
396.999	4962.7
401.776	6253.5
406.551	7368.66
411.324	9582.64
416.094	13669
420.861	18604
425.627	27072
430.389	37864.9
435.15	53970.6
439.908	74743.9
444.664	100691
449.417	130382
454.167	154871
458.916	173205
463.662	180645
468.405	187480
473.146	198485
477.885	211212
482.621	211500
487.355	188871
492.086	150838
496.815	110584
501.541	77500
506.265	53797.3
510.987	37704.8
515.706	26061.9
520.422	17973.3
525.136	13011.9
529.848	9267.66
534.557	6825.32
539.264	5311.6
543.968	3815.78
548.67	3258.21
553.369	1810.84
558.066	808.578
562.76	584.543
567.452	428.691
572.141	244.68
576.828	396.879
581.513	523.996
586.194	366.379
590.874	216
595.551	129.375
600.225	402.356
604.897	478.891
609.567	292.356
614.233	448.121
618.898	354.766
623.56	174.465
628.219	351.312
632.876	992.414
637.53	906.746
642.182	1649.26
646.832	2307.1
651.478	2687.25
656.123	2594.61
660.764	2754
665.404	2040.29
670.04	1645.32
674.675	1410.86
679.306	1336.82
683.935	1516.19
688.562	1733.94
693.186	2163.02
697.807	2784.95
702.426	3383.06
707.043	3776.77
711.657	4232.94
716.268	4496.01
720.877	4411.09
725.483	4240.92
730.086	4266.13
734.688	3960.69
739.286	4266.26
743.882	3974.36
748.475	4704.75
753.066	5186.47
757.654	5845.26
762.24	6581.36
766.823	7130.66
771.404	7146.17
775.982	6978.48
780.557	7310.85
785.13	7516.19
789.7	7952.79
794.268	7374.4
798.833	6239.97
803.395	4847.58
807.955	3448.66
812.513	2103.27
817.067	1425.34
821.619	849.043
826.169	490.387
830.716	207.426
835.26	5.62305
839.802	124.9
844.341	67.3047
848.877	98.8672
853.411	32.1562
857.943	25.6465
862.471	271.775
866.997	126.885
871.521	47.0703
876.042	29.6914
880.56	319.812
885.075	106.176
889.588	185.299
894.099	135.914
898.606	119.258
903.111	77.6172
907.614	661.83
912.114	30.4629
916.611	430.779
921.105	406.721
925.597	482.486
930.087	672.277
934.573	852.352
939.057	1122.89
943.538	1187.12
948.017	1594.91
952.493	2128.22
956.967	2577.89
961.437	3042.35
965.905	3557.47
970.371	4093.49
974.834	4529.05
979.294	5003.91
983.751	5916.48
988.206	6899.66
992.658	7661.86
997.108	9287.82
1001.55	9900.88
1006	10851.7
1010.44	11126.8
1014.88	11472.7
1019.32	12125.8
1023.75	12954.2
1028.18	13194.5
1032.61	13540.8
1037.03	13328.8
1041.45	13813.3
1045.88	14090.8
1050.29	14545
1054.71	15551.7
1059.12	17049.9
1063.53	18593.9
1067.93	20237.5
1072.34	22147.6
1076.74	23108.1
1081.14	24740.8
1085.53	25626.3
1089.93	26175
1094.32	26680.4
1098.7	26508.3
1103.09	26356.1
1107.47	25501
1111.85	24863.8
1116.23	23750.4
1120.6	22824.9
1124.97	22033
1129.34	20808.3
1133.71	19468
1138.07	18075.9
1142.43	16713.7
1146.79	15627.3
1151.15	13731
1155.5	12113.2
1159.85	10561.9
1164.19	9338.16
1168.54	7762.8
1172.88	6716.74
1177.22	5714.43
1181.56	3933
1185.89	3443.02
1190.22	2393.98
1194.55	1826.63
1198.87	1177.02
1203.19	881.33
1207.51	334.119
1211.83	671.356
1216.14	261.627
1220.46	124.137
1224.77	8.01367
1229.07	335.062
1233.37	304.025
1237.67	269.06
1241.97	128.572
1246.27	18.6035
1250.56	147.559
1254.85	328.769
1259.13	20.5195
1263.42	172.412
1267.7	194.486
1271.98	257.33
1276.25	33.3691
1280.53	153.678
1284.8	102.404
1289.06	325.699
1293.33	27.5938
1297.59	311.01
1301.85	237.266
1306.11	551.322
1310.36	502.791
1314.61	289.766
1318.86	608.338
1323.1	373.473
1327.34	465.029
1331.58	244.756
1335.82	219.352
1340.05	315.986
1344.29	143.016
1348.51	331.051
1352.74	486.463
1356.96	88.5391
1361.18	133.857
1365.4	419.481
1369.61	436.117
1373.82	559.904
1378.03	420.383
1382.24	450.924
1386.44	683.584
1390.64	394.404
1394.84	600.531
1399.04	397.074
1403.23	350.547
1407.42	271.779
1411.6	306.293
1415.79	279.701
1419.97	255.842
1424.14	222.57
1428.32	288.572
1432.49	253.856
1436.66	581.08
1440.83	998.594
1444.99	1345.1
1449.15	1581.85
1453.31	1463.58
1457.47	1351.01
1461.62	1045.9
1465.77	683.787
1469.91	714.279
1474.06	721.779
1478.2	348.875
1482.34	316.156
1486.47	53.4434
1490.61	25.041
1494.74	145.4
1498.86	101.857
1502.99	116.703
1507.11	210.057
1511.23	58.5176
1515.34	274.033
1519.46	88.5332
1523.57	344.051
1527.67	331.375
1531.78	399.606
1535.88	223.828
1539.98	463.486
1544.07	349.383
1548.17	389.592
1552.26	300.836
1556.34	458.273
1560.43	218.69
1564.51	114.83
1568.59	202.316
1572.66	216.228
1576.74	0.785156
