Measurement: Raman, 514 nm, depolarized, Raman Data Processed
Mineral: Chabazite-Ca
Rruff sample: R050075
Ideal chemistry: Ca_2_Al_4_Si_8_O_24_13H_2_O
Locality: Victoria, Australia
Source: Rock Currier
Description: White pseudohexagonal crystals
Measured chemistry: (Ca_0.79_Na_0.22_K_0.14_)_Σ=1.15_(Si_4.08_Al_1.92_)O_12_·6H_2_O
Pin_id: M00950
Orientation: Laser parallel to (1 1 1). Fiducial mark perpendicular to laser is parallel to [-1 1 0]
Raman shift (cm-1)	intensity
211.267	0
216.151	495.957
221.032	538.613
225.911	758.43
230.787	530.328
235.66	267.449
240.531	168.914
245.4	119.344
250.266	223.516
255.129	112.258
259.99	40.9297
264.848	130.492
269.703	513.555
274.556	436.109
279.407	661.516
284.255	1585.39
289.1	2186.93
293.942	3400.06
298.783	4662.08
303.62	5690.29
308.455	7459.23
313.288	9623.44
318.117	12673.3
322.945	16316.3
327.769	19602
332.591	21805
337.411	21914.6
342.228	19493.1
347.042	14989.5
351.854	11264.8
356.663	7899.18
361.47	5956.75
366.274	4838.54
371.075	3481.61
375.874	2635.69
380.67	2381.11
385.464	2424.12
390.255	2182.18
395.043	2733.79
399.829	2357.07
404.613	3021.13
409.393	4823.08
414.172	7518.27
418.947	11194.5
423.72	16457.5
428.49	24489.4
433.258	35710.8
438.024	51407.6
442.786	70795.9
447.546	93571.9
452.304	114488
457.059	129521
461.811	134071
466.56	131102
471.308	126956
476.052	129078
480.794	131505
485.533	124282
490.27	106766
495.004	82563.6
499.736	60114.3
504.465	41670.7
509.191	28919.5
513.915	19776.3
518.636	13429.2
523.354	8686.62
528.07	6049.75
532.784	3952.2
537.494	2821.32
542.203	1591.36
546.908	1011.95
551.611	439.223
556.311	668.379
561.009	483.805
565.704	197.535
570.397	485.234
575.087	733.894
579.774	548.547
584.459	804.703
589.141	570.578
593.821	348.449
598.498	211.805
603.172	18.7656
607.844	224.766
612.513	337.086
617.18	372.029
621.844	389.754
626.505	148.342
631.164	105.754
635.82	286.219
640.473	818.106
645.124	1247.56
649.773	1205.64
654.418	1442.06
659.062	1238.91
663.702	1065.64
668.34	861.629
672.975	794.438
677.608	896.047
682.238	1184.04
686.866	1000.89
691.49	1099.98
696.113	1445.6
700.732	1868.23
705.349	2170.97
709.964	2439.72
714.576	3187.68
719.185	3259.4
723.792	3542.36
728.396	3676.6
732.997	3501.38
737.596	3772.31
742.192	4006.36
746.785	4582.59
751.376	5159.16
755.965	6318.5
760.551	6783.77
765.134	7417.82
769.714	7357.15
774.292	7051.14
778.867	6516.28
783.44	6161.03
788.01	5518.17
792.578	4844.05
797.142	3664.41
801.705	2479.03
806.264	1501.66
810.821	1030.4
815.376	423.518
819.927	330.885
824.476	264.869
829.023	26.3594
833.567	32.041
838.108	93.125
842.647	94.4512
847.183	54.4512
851.716	16.5566
856.247	34.502
860.776	7.32617
865.301	20.5781
869.824	145.967
874.345	60.0723
878.862	38.9238
883.377	275.307
887.89	6.83789
892.4	137.947
896.907	91.7129
901.412	3.24805
905.914	234.178
910.413	311.092
914.91	179.06
919.404	462.123
923.896	681.432
928.385	863.137
932.871	914.365
937.355	1019.24
941.836	1219.51
946.315	1349.69
950.79	1533.57
955.264	1869.89
959.734	2126.37
964.202	2514.8
968.668	2758.9
973.131	3043.74
977.591	3444.55
982.048	3649.55
986.503	4116.87
990.955	4810.27
995.405	5354.55
999.852	5729.24
1004.3	6008.51
1008.74	6472.13
1013.18	6885.64
1017.61	7234.7
1022.05	7573.6
1026.48	8091.97
1030.91	8562.56
1035.33	8610.87
1039.76	8933.48
1044.18	9174.57
1048.6	9622.09
1053.01	10584.4
1057.42	11815.6
1061.84	13251.7
1066.24	14550.3
1070.65	15662.6
1075.05	16934.6
1079.45	18325.4
1083.85	18795.6
1088.24	19515.3
1092.63	19630.3
1097.02	19867.6
1101.41	19464
1105.8	19078.7
1110.18	18392.8
1114.56	17595.8
1118.93	16928.4
1123.31	16081.5
1127.68	15063.1
1132.04	13932
1136.41	12836.6
1140.77	11586
1145.13	10394.8
1149.49	9276.06
1153.85	8142.92
1158.2	7031.07
1162.55	6147.43
1166.9	5162.8
1171.24	4234.04
1175.58	3731.46
1179.92	2863.74
1184.26	2151.21
1188.6	1840.28
1192.93	1375.7
1197.26	893.106
1201.58	440.353
1205.9	390.842
1210.23	128.952
1214.55	66.6582
1218.86	137.857
1223.17	74.3223
1227.48	20.5332
1231.79	46.0664
1236.1	54.1113
1240.4	104.078
1244.7	298.617
1249	49.5117
1253.29	76.0391
1257.59	126.699
1261.88	227.273
1266.16	39.9668
1270.45	111.859
1274.73	63.7168
1279.01	317.473
1283.28	409.315
1287.56	475.703
1291.83	568.365
1296.1	517.434
1300.36	415.023
1304.63	396.906
1308.89	411.705
1313.15	330.565
1317.4	423.527
1321.65	322.307
1325.9	171.074
1330.15	336.598
1334.4	259.949
1338.64	239.15
1342.88	192.176
1347.12	171.352
1351.35	343.242
1355.58	209.522
1359.81	488.736
1364.04	261.359
1368.26	400.973
1372.48	287.928
1376.7	256.734
1380.92	108.662
1385.13	174.572
1389.34	271.162
1393.55	407.309
1397.76	123.242
1401.96	197.338
1406.16	179.25
1410.36	261.527
1414.55	237.072
1418.75	241.402
1422.94	252.117
1427.12	176.322
1431.31	702.094
1435.49	640.047
1439.67	1110.24
1443.85	1283.06
1448.02	1453.34
1452.19	1219.16
1456.36	1184.38
1460.53	1234.81
1464.69	725.268
1468.85	524.941
1473.01	524.686
1477.17	543.039
1481.32	581.955
1485.47	463.328
1489.62	360.988
1493.76	167.861
1497.91	358.18
1502.05	132.598
1506.18	262.328
1510.32	141.127
1514.45	47.4585
1518.58	123.359
1522.71	236.641
1526.83	386.389
1530.95	502.236
1535.07	334.873
1539.19	413.016
1543.3	358.699
1547.41	281.43
1551.52	327.58
1555.63	492.94
1559.73	130.834
1563.83	232.059
1567.93	114.397
1572.03	200.551
1576.12	179.016
1580.21	0
