Measurement: Raman, 514 nm, ccw, Raman Data Processed
Mineral: Chabazite-Ca
Rruff sample: R050075
Ideal chemistry: Ca_2_Al_4_Si_8_O_24_13H_2_O
Locality: Victoria, Australia
Source: Rock Currier
Description: White pseudohexagonal crystals
Measured chemistry: (Ca_0.79_Na_0.22_K_0.14_)_Σ=1.15_(Si_4.08_Al_1.92_)O_12_·6H_2_O
Pin_id: M01326
Orientation: Laser parallel to (-1 1 0). Fiducial mark perpendicular to laser is parallel to [1 1 1]
Raman shift (cm-1)	intensity
203.967	0
208.838	749.781
213.707	767.195
218.573	1215.96
223.438	1438.98
228.3	1895
233.16	1067.74
238.017	1152.95
242.872	1401.72
247.725	119.203
252.575	14.0234
257.424	61.3516
262.269	411.016
267.113	294.977
271.954	130.148
276.793	1103.59
281.63	1906.44
286.464	3303.34
291.296	5172.67
296.125	6912.78
300.952	8313.38
305.777	9455.02
310.6	11825.7
315.42	14549.5
320.237	18731.5
325.053	23226.8
329.866	26822.5
334.676	27889.6
339.485	25982.4
344.291	21949.9
349.094	17446.6
353.895	13076.8
358.694	9875.04
363.491	7627.96
368.285	5806.81
373.076	5121.5
377.866	4788.9
382.653	4850.16
387.437	5471.59
392.219	6575.36
396.999	7019.18
401.776	8031.06
406.551	8447
411.324	11328.2
416.094	14505.9
420.861	19750.9
425.627	27295.3
430.389	38717.8
435.15	54381.4
439.908	75832.7
444.664	102279
449.417	131217
454.167	156551
458.916	172535
463.662	178774
468.405	183108
473.146	192514
477.885	203734
482.621	203803
487.355	179787
492.086	144501
496.815	105082
501.541	74346.3
506.265	51877.5
510.987	36066.6
515.706	25175.1
520.422	18052.6
525.136	13410.1
529.848	9945.44
534.557	7706.7
539.264	5679.16
543.968	4716.88
548.67	3215.57
553.369	2286.47
558.066	1480.04
562.76	1250.61
567.452	489.254
572.141	482.512
576.828	592.266
581.513	575.848
586.194	589.481
590.874	236.742
595.551	40.3359
600.225	358.883
604.897	411.59
609.567	633.633
614.233	663.668
618.898	32.8828
623.56	179.891
628.219	698.902
632.876	630.34
637.53	992.113
642.182	1908.06
646.832	2208.45
651.478	2488.19
656.123	2474.12
660.764	2277.14
665.404	1455.08
670.04	1400.69
674.675	1289.91
679.306	1476.13
683.935	1405.68
688.562	1675.48
693.186	1861.23
697.807	2498.13
702.426	3095.23
707.043	3702.19
711.657	4202.27
716.268	4484.14
720.877	4581.25
725.483	4597.46
730.086	4638.08
734.688	4859.66
739.286	4678.16
743.882	5092.1
748.475	5453.7
753.066	6127.27
757.654	7101.44
762.24	7860.9
766.823	8140.95
771.404	8204.55
775.982	8091.21
780.557	7785.48
785.13	7771.28
789.7	7567.21
794.268	7081.2
798.833	5531.68
803.395	3907.01
807.955	2676.14
812.513	1557.23
817.067	968.326
821.619	595.57
826.169	717.449
830.716	184.266
835.26	389.385
839.802	171.908
844.341	75.2109
848.877	256.594
853.411	98.3848
857.943	284.463
862.471	135.885
866.997	40.8965
871.521	197.049
876.042	44.0098
880.56	39.3906
885.075	159.025
889.588	94.7598
894.099	54.1465
898.606	29.7949
903.111	121.978
907.614	80.25
912.114	303.982
916.611	107.158
921.105	389.283
925.597	633.635
930.087	724.436
934.573	994.869
939.057	1076.15
943.538	1224.51
948.017	1593.87
952.493	2116.55
956.967	2631.65
961.437	3098.23
965.905	3507.15
970.371	3890.83
974.834	4621.54
979.294	4807.72
983.751	5839.43
988.206	6823.29
992.658	7819.68
997.108	8711.87
1001.55	9852.58
1006	10753.7
1010.44	10749.5
1014.88	11578.8
1019.32	11924
1023.75	12560.3
1028.18	13199.5
1032.61	12904.7
1037.03	13155
1041.45	13257.3
1045.88	13832.7
1050.29	14747.5
1054.71	15822.4
1059.12	17276.2
1063.53	18858.1
1067.93	20445.3
1072.34	22008.4
1076.74	23836.9
1081.14	25088.8
1085.53	26460.3
1089.93	26879.4
1094.32	26931.4
1098.7	26931.9
1103.09	26583
1107.47	25853.5
1111.85	25510.3
1116.23	24478.5
1120.6	23041.4
1124.97	22492.2
1129.34	21204.1
1133.71	19352.3
1138.07	18350.8
1142.43	16814.5
1146.79	15237
1151.15	13828.5
1155.5	11878.2
1159.85	10476.1
1164.19	9233.57
1168.54	7404.13
1172.88	6268.17
1177.22	5209.69
1181.56	4332.16
1185.89	2721.44
1190.22	2836.49
1194.55	1223.09
1198.87	1137.19
1203.19	442.269
1207.51	197.67
1211.83	186.15
1216.14	82.3281
1220.46	75.418
1224.77	23.0156
1229.07	44.8516
1233.37	210.221
1237.67	113.227
1241.97	21.7051
1246.27	159.143
1250.56	7.94141
1254.85	21.3438
1259.13	122.051
1263.42	13.3398
1267.7	23.8418
1271.98	43.3301
1276.25	69.5488
1280.53	65.3965
1284.8	147.574
1289.06	7.53906
1293.33	63.9297
1297.59	128.574
1301.85	43.7363
1306.11	170.475
1310.36	43.4727
1314.61	105.09
1318.86	115.668
1323.1	14.0469
1327.34	6.74805
1331.58	100.469
1335.82	311.742
1340.05	56.6973
1344.29	433.83
1348.51	518.264
1352.74	395.918
1356.96	362.51
1361.18	490.438
1365.4	422.012
1369.61	603.008
1373.82	676.51
1378.03	776.043
1382.24	585.393
1386.44	701.828
1390.64	523.84
1394.84	519.785
1399.04	538.949
1403.23	535.773
1407.42	624.271
1411.6	617.787
1415.79	563.111
1419.97	651.82
1424.14	495.4
1428.32	730.545
1432.49	792.059
1436.66	803.414
1440.83	1308.28
1444.99	1396.22
1449.15	1803.86
1453.31	1782.64
1457.47	1700.7
1461.62	1603.46
1465.77	1299.47
1469.91	1155.01
1474.06	583.82
1478.2	699.238
1482.34	715.596
1486.47	404.443
1490.61	348.273
1494.74	54.543
1498.86	216.856
1502.99	28.5039
1507.11	194.065
1511.23	623.258
1515.34	87.6758
1519.46	254.207
1523.57	366.707
1527.67	56.5039
1531.78	406.602
1535.88	365.902
1539.98	437.049
1544.07	383.582
1548.17	303.088
1552.26	570.596
1556.34	290.348
1560.43	271.611
1564.51	109.228
1568.59	193.955
1572.66	11.1797
1576.74	152.062
