Measurement: Raman, 514 nm, ccw, Raman Data Processed
Mineral: Chabazite-Ca
Rruff sample: R050075
Ideal chemistry: Ca_2_Al_4_Si_8_O_24_13H_2_O
Locality: Victoria, Australia
Source: Rock Currier
Description: White pseudohexagonal crystals
Measured chemistry: (Ca_0.79_Na_0.22_K_0.14_)_Σ=1.15_(Si_4.08_Al_1.92_)O_12_·6H_2_O
Pin_id: M01326
Orientation: Laser parallel to (-1 1 0). Fiducial mark perpendicular to laser is parallel to [1 1 1]
Raman shift (cm-1)	intensity
206.402	0
211.273	916.992
216.14	1404.58
221.006	1738.73
225.869	1909.22
230.73	1110.6
235.589	897.797
240.445	6.53125
245.299	203.852
250.151	124.766
255	109.625
259.847	12.3984
264.692	271.445
269.534	810.148
274.374	1150.02
279.212	1782.59
284.047	3411.7
288.88	4982.21
293.711	6535.66
298.539	8219.48
303.365	10112.8
308.189	11888.5
313.01	14124
317.829	17911.5
322.645	22362.4
327.46	26676.5
332.271	28787.5
337.081	28292.8
341.888	25113.4
346.693	19707.8
351.495	14307.5
356.295	10515.2
361.093	7503.53
365.888	4962.35
370.681	3812.77
375.471	2849.5
380.259	2636.87
385.045	2977.09
389.828	3098.22
394.609	3234.45
399.388	3650.78
404.164	4455.27
408.938	6655.09
413.709	9582.75
418.478	14410.2
423.244	21329.7
428.008	31131.2
432.77	45413.6
437.529	65525.6
442.286	91058.5
447.04	121286
451.792	149781
456.542	170894
461.289	177737
466.034	175437
470.776	173416
475.516	177302
480.253	181613
484.988	173099
489.721	146414
494.451	111848
499.178	80867.1
503.903	56495.2
508.626	39003.5
513.346	26783.9
518.064	18434.9
522.779	12681.4
527.492	8946.43
532.203	6473.17
536.911	4740.89
541.616	3367.57
546.319	2439.3
551.02	1732.25
555.718	1191.25
560.413	642.828
565.106	412.035
569.797	492.891
574.485	692.945
579.171	921.902
583.854	593.328
588.534	741.531
593.213	288.062
597.888	254.535
602.561	120.383
607.232	280.016
611.9	874.051
616.566	301.945
621.229	364.879
625.89	8.96484
630.548	330.414
635.204	715.43
639.857	1160.2
644.507	1450.98
649.155	2074.68
653.801	2213.88
658.444	2013.92
663.084	1796.82
667.722	1486.01
672.358	1146.06
676.991	1182.96
681.621	1187.35
686.249	1320.86
690.874	1800.48
695.497	2043.35
700.117	2667.64
704.735	3129.14
709.35	3695.97
713.963	4116.9
718.573	4569.11
723.18	4704.15
727.785	4911.71
732.387	5056.1
736.987	5059.11
741.584	5564.74
746.179	6438.57
750.771	7351.78
755.361	8520.56
759.948	9764.7
764.532	10551.7
769.114	10420.2
773.693	10283.6
778.27	9413.23
782.844	8648.77
787.415	7861.25
791.984	7100.37
796.551	5503.97
801.115	3823.25
805.676	2308.24
810.234	1568.99
814.79	930.639
819.344	247.031
823.895	515.269
828.443	98.8691
832.988	149.315
837.531	87.2383
842.072	209.938
846.61	85.5527
851.145	265.512
855.677	31.4375
860.207	165.188
864.735	280.627
869.259	315.357
873.782	43.3438
878.301	49.582
882.818	361.027
887.332	181.043
891.844	372.912
896.353	117.76
900.859	248.828
905.363	177.654
909.864	300.904
914.363	276.176
918.858	622.523
923.352	463.094
927.842	585.973
932.33	1422.4
936.815	1122.57
941.298	1370.77
945.778	1267.78
950.256	1742.51
954.73	2479.53
959.202	2834.26
963.672	3402.03
968.138	3899.03
972.603	4377.7
977.064	4452.69
981.523	5333.86
985.979	6059.44
990.432	6787.32
994.883	7393.27
999.331	8586.34
1003.78	9727.15
1008.22	9731.39
1012.66	10260.3
1017.1	10776.5
1021.53	11594.1
1025.96	11637
1030.39	12052.8
1034.82	12247.5
1039.24	12554.4
1043.66	12816.2
1048.08	13094.6
1052.5	14289.4
1056.91	15697.2
1061.32	17765.6
1065.73	19834.5
1070.14	21554.2
1074.54	23385
1078.94	24873.1
1083.34	26267.8
1087.73	27222.5
1092.12	27378.1
1096.51	27471.4
1100.9	27131.3
1105.28	26292.3
1109.66	26040.8
1114.04	25056.1
1118.42	24325
1122.79	22788.6
1127.16	21681.1
1131.53	20467.2
1135.89	19084.8
1140.25	17708.8
1144.61	15729
1148.97	14304.2
1153.32	12490.5
1157.67	11148.6
1162.02	9678.09
1166.37	8143.86
1170.71	6939.02
1175.05	5890.77
1179.39	4692.18
1183.72	3394.53
1188.06	2831.12
1192.38	1876.56
1196.71	1196.86
1201.03	874.729
1205.36	558.162
1209.67	177.297
1213.99	268.838
1218.3	77.5625
1222.61	2.31445
1226.92	174.758
1231.22	82.1406
1235.53	271.467
1239.82	162.594
1244.12	68.3691
1248.41	96.9727
1252.7	84.9062
1256.99	61.5996
1261.28	27.877
1265.56	145.301
1269.84	61.9824
1274.12	197.465
1278.39	124.305
1282.66	202.24
1286.93	34.5039
1291.2	173.732
1295.46	397.885
1299.72	150.463
1303.98	180.289
1308.23	478.572
1312.48	364.242
1316.73	361.414
1320.98	489.027
1325.22	386.996
1329.46	246.219
1333.7	266.33
1337.94	145.051
1342.17	96.4043
1346.4	430.07
1350.63	427.695
1354.85	484.258
1359.07	251.775
1363.29	354.541
1367.51	342.731
1371.72	276.615
1375.93	810.461
1380.14	597.42
1384.34	625.799
1388.54	578.176
1392.74	204.918
1396.94	728.021
1401.13	138.602
1405.32	435.988
1409.51	274.41
1413.69	443.207
1417.88	445.266
1422.06	416.982
1426.23	275.973
1430.41	766.518
1434.58	613.029
1438.74	1268.71
1442.91	1592.83
1447.07	1515.04
1451.23	2073.79
1455.39	1764.78
1459.54	1918.55
1463.69	1267.96
1467.84	881.465
1471.99	719.646
1476.13	579.881
1480.27	624.998
1484.41	349.769
1488.54	241.781
1492.67	6.5293
1496.8	117.314
1500.93	91.7031
1505.05	201.406
1509.17	105.238
1513.29	118.211
1517.4	56.6504
1521.51	199.664
1525.62	72.8594
1529.73	264.994
1533.83	339.055
1537.93	554.606
1542.03	519.791
1546.12	536.484
1550.21	267.18
1554.3	424.055
1558.39	129.025
1562.47	162.094
1566.55	127.734
1570.63	21.9297
1574.7	65.5371
1578.77	0
