Measurement: Raman, 514 nm, ccw, Raman Data Processed
Mineral: Chabazite-Ca
Rruff sample: R050075
Ideal chemistry: Ca_2_Al_4_Si_8_O_24_13H_2_O
Locality: Victoria, Australia
Source: Rock Currier
Description: White pseudohexagonal crystals
Measured chemistry: (Ca_0.79_Na_0.22_K_0.14_)_Σ=1.15_(Si_4.08_Al_1.92_)O_12_·6H_2_O
Pin_id: M00950
Orientation: Laser parallel to (1 1 1). Fiducial mark perpendicular to laser is parallel to [-1 1 0]
Raman shift (cm-1)	intensity
207.602	0
212.488	526.336
217.371	646.242
222.252	803.34
227.13	988.977
232.005	904.621
236.878	449.176
241.749	18.5625
246.616	79.6875
251.482	214.652
256.344	103.547
261.204	268.629
266.062	206.586
270.917	244.129
275.769	462.469
280.619	1092.15
285.466	1622.54
290.311	2621.1
295.153	3727.26
299.992	4622.35
304.829	5670.13
309.663	6988.71
314.495	9098.91
319.324	11087.8
324.151	14082.7
328.975	16398.5
333.796	17718.6
338.615	16905.5
343.432	15167.8
348.245	11063.2
353.056	8028.38
357.865	6170.93
362.671	4857.16
367.474	4023.14
372.275	2990.01
377.073	2616.42
381.869	2367.02
386.662	2566.61
391.452	2340.05
396.24	2646.76
401.025	2749.25
405.808	3067.78
410.588	4387.75
415.366	6366.57
420.141	9914.06
424.913	15318
429.683	22495.1
434.45	32682.7
439.214	46790.4
443.976	65227.5
448.736	83865.1
453.493	100542
458.247	110634
462.998	111776
467.747	108240
472.494	106060
477.238	108368
481.979	108129
486.718	99130.9
491.454	81846.3
496.187	61840.4
500.918	44290.3
505.646	30915.3
510.372	20875.9
515.095	14250.4
519.816	9566.73
524.534	6291.16
529.249	3947.04
533.962	2903.48
538.672	1652.8
543.379	840.906
548.084	512.1
552.786	394.199
557.486	372.746
562.183	227.391
566.878	191.152
571.57	315.228
576.259	686.156
580.946	809.146
585.63	1061.57
590.311	716.385
594.99	558.637
599.667	394.332
604.34	75.5039
609.012	38.5703
613.68	527.644
618.346	362.381
623.009	390.789
627.67	79.8438
632.328	90.7481
636.984	111.785
641.636	488.353
646.287	887.65
650.934	1032.75
655.579	1172.62
660.222	827.188
664.862	743.305
669.499	485.016
674.134	637.934
678.766	513.139
683.395	440.842
688.022	804.582
692.646	1067.01
697.268	1172.42
701.887	1663.13
706.503	1855.98
711.117	1865.1
715.728	2538.48
720.337	2796.46
724.943	2859.31
729.546	2968.88
734.147	3049.3
738.745	3378.67
743.341	3523.68
747.933	4020.9
752.524	4573.77
757.111	5308.95
761.697	5873.03
766.279	6224.73
770.859	5935.71
775.436	5616.33
780.011	5559.56
784.583	5171
789.152	4575.41
793.719	3561.32
798.283	2545.55
802.845	1933.56
807.404	1015.18
811.96	667.758
816.514	184.441
821.065	207.541
825.613	65.6641
830.159	15.2539
834.703	34.9902
839.243	254.238
843.781	65.0469
848.317	19.9805
852.849	77.3301
857.38	148.008
861.907	157.041
866.432	146.322
870.954	7.50195
875.474	214.631
879.991	167.103
884.506	120.129
889.018	43.959
893.527	52.168
898.034	125.098
902.538	131.779
907.039	311.746
911.538	419.234
916.034	531.461
920.528	385.481
925.018	1099.81
929.507	796.769
933.992	944.459
938.476	948.002
942.956	1122.34
947.434	1262.12
951.909	1623.29
956.382	1724.72
960.852	1963.77
965.319	2385.1
969.784	2644.2
974.246	2639.21
978.705	3239.12
983.162	3402.14
987.616	3929.89
992.068	4423.18
996.517	4705.72
1000.96	5099.44
1005.41	5456.22
1009.85	5873.75
1014.29	6152.4
1018.72	6554.48
1023.16	7020.32
1027.59	7181.03
1032.02	7482.01
1036.44	7969.43
1040.86	7990.01
1045.28	8303.36
1049.7	8771.65
1054.12	9519.12
1058.53	10570.6
1062.94	11720.8
1067.35	13097.6
1071.75	14436
1076.15	15835.1
1080.55	16628.7
1084.95	17227.5
1089.34	17754.4
1093.73	17789.7
1098.12	17623.2
1102.51	17318.3
1106.89	17131.4
1111.27	16316.1
1115.65	15932.3
1120.03	15044.7
1124.4	14360.6
1128.77	13397.7
1133.14	12435.6
1137.5	11157.6
1141.86	10000.4
1146.22	9248.58
1150.58	8170.39
1154.93	6942.73
1159.29	6182.2
1163.64	5367.05
1167.98	4380.99
1172.33	3882.08
1176.67	2946.86
1181.01	2287.28
1185.34	1871.27
1189.68	1500.78
1194.01	1035.73
1198.34	754.17
1202.66	343.504
1206.99	301.375
1211.31	80.6426
1215.62	33.1309
1219.94	38.9141
1224.25	223.369
1228.56	56.3672
1232.87	51.8574
1237.17	28.2852
1241.48	77.7793
1245.78	247.043
1250.07	89.4629
1254.37	134.102
1258.66	85.0059
1262.95	34.875
1267.23	78.5762
1271.52	184.881
1275.8	230.924
1280.08	332.822
1284.35	331.166
1288.63	528.469
1292.9	596.729
1297.16	644.201
1301.43	639.006
1305.69	496.842
1309.95	500.893
1314.21	491.117
1318.46	374.492
1322.72	454.935
1326.97	313.385
1331.21	344.949
1335.46	323.08
1339.7	233.566
1343.94	318.758
1348.18	332.121
1352.41	323.527
1356.64	237.598
1360.87	229.941
1365.1	6.00781
1369.32	412.053
1373.54	266.984
1377.76	126.836
1381.97	215.91
1386.19	197.789
1390.4	138.217
1394.6	261.945
1398.81	71.4316
1403.01	154.088
1407.21	87.1211
1411.41	44.8574
1415.6	153.773
1419.79	260.644
1423.98	354.93
1428.17	582.287
1432.35	644.631
1436.54	1031.57
1440.71	1479.18
1444.89	1766.99
1449.06	1763.17
1453.23	1805.49
1457.4	1629.24
1461.57	1407.53
1465.73	1262.65
1469.89	1086.36
1474.05	796.881
1478.2	746.822
1482.36	518.445
1486.51	437.928
1490.65	236.68
1494.8	312.113
1498.94	54.7598
1503.08	220.685
1507.22	184.836
1511.35	36.4512
1515.48	10.4941
1519.61	216.803
1523.74	138.594
1527.86	241.435
1531.98	47.2422
1536.1	469.357
1540.22	353.842
1544.33	138.189
1548.44	0.375
1552.55	273.217
1556.65	611.977
1560.76	162.035
1564.86	22.418
1568.95	273.889
1573.05	2.25977
1577.14	5.04102
