Measurement: Raman, 514 nm, ccw, Raman Data Processed
Mineral: Chabazite-Ca
Rruff sample: R050075
Ideal chemistry: Ca_2_Al_4_Si_8_O_24_13H_2_O
Locality: Victoria, Australia
Source: Rock Currier
Description: White pseudohexagonal crystals
Measured chemistry: (Ca_0.79_Na_0.22_K_0.14_)_Σ=1.15_(Si_4.08_Al_1.92_)O_12_·6H_2_O
Pin_id: M01326
Orientation: Laser parallel to (-1 1 0). Fiducial mark perpendicular to laser is parallel to [1 1 1]
Raman shift (cm-1)	intensity
206.402	0
211.273	628.078
216.14	901.758
221.006	1006.91
225.869	1091.65
230.73	1292.1
235.589	1579.91
240.445	1353.23
245.299	524.328
250.151	347.016
255	83.7734
259.847	319.992
264.692	391.156
269.534	134.164
274.374	676.305
279.212	1297.7
284.047	2788.73
288.88	3971.62
293.711	5059.94
298.539	6144.26
303.365	6473.54
308.189	7888.55
313.01	10427.4
317.829	14029.7
322.645	18066.7
327.46	21435.1
332.271	22775.2
337.081	21696
341.888	19084
346.693	14835
351.495	11276.8
356.295	8653.48
361.093	6010.42
365.888	5325.49
370.681	3648.64
375.471	3152.64
380.259	2971.36
385.045	3358.52
389.828	3925.32
394.609	4317.94
399.388	5233.96
404.164	6749.45
408.938	8805.87
413.709	11832.2
418.478	16558.1
423.244	22619.8
428.008	31899.5
432.77	44208.7
437.529	61982.4
442.286	83255.5
447.04	107763
451.792	132940
456.542	154036
461.289	169749
466.034	186302
470.776	206970
475.516	228627
480.253	237592
484.988	220208
489.721	178699
494.451	132343
499.178	92911.3
503.903	64266.2
508.626	44005.5
513.346	30783.4
518.064	20976.1
522.779	14521.2
527.492	10555.3
532.203	7428.1
536.911	5556.02
541.616	3873.52
546.319	2643.23
551.02	1486.34
555.718	729.965
560.413	427.144
565.106	32.8945
569.797	78.3789
574.485	520.738
579.171	361.777
583.854	111.82
588.534	113.984
593.213	16.125
597.888	148.863
602.561	396.328
607.232	213.832
611.9	333.512
616.566	304.848
621.229	112.484
625.89	735.785
630.548	854.266
635.204	919.633
639.857	1487.79
644.507	2439.68
649.155	2979.2
653.801	3019.28
658.444	2838.79
663.084	2553.58
667.722	2271.47
672.358	1650.25
676.991	1918.34
681.621	1904.94
686.249	2200.1
690.874	2568.47
695.497	3155.81
700.117	3729.72
704.735	4002.75
709.35	4382.68
713.963	4481.39
718.573	3840.21
723.18	3529.35
727.785	2798.45
732.387	2467.79
736.987	2029.79
741.584	2145.49
746.179	1974.69
750.771	2124.34
755.361	2335.35
759.948	2497.68
764.532	2932.58
769.114	3159.28
773.693	3685.25
778.27	4572.03
782.844	6277.21
787.415	8146.88
791.984	9213.91
796.551	9143.87
801.115	7266.19
805.676	5804.96
810.234	3731.92
814.79	2600.11
819.344	1602.93
823.895	946.133
828.443	597.398
832.988	317.371
837.531	74.4844
842.072	75.3281
846.61	89.6719
851.145	158.602
855.677	76.2715
860.207	109.422
864.735	150.168
869.259	147.572
873.782	229.547
878.301	210.84
882.818	113.873
887.332	403.881
891.844	192.508
896.353	0.953125
900.859	83.1387
905.363	90.5156
909.864	90.5098
914.363	178.297
918.858	371.047
923.352	511.99
927.842	504.234
932.33	705.941
936.815	793.34
941.298	1073.66
945.778	1252.86
950.256	1904.01
954.73	2193.36
959.202	2875.33
963.672	3526.45
968.138	3905.35
972.603	4541.51
977.064	5055.7
981.523	6100.46
985.979	6966.09
990.432	8081.84
994.883	8915.47
999.331	9973.18
1003.78	11277.6
1008.22	11860.6
1012.66	12562
1017.1	13115.5
1021.53	13671.9
1025.96	14042.5
1030.39	14477.8
1034.82	14603.4
1039.24	14732.9
1043.66	15100.7
1048.08	15317.3
1052.5	15469.8
1056.91	16525.4
1061.32	17763.9
1065.73	19186.3
1070.14	20591.8
1074.54	22004.7
1078.94	23129.1
1083.34	23930.2
1087.73	24831
1092.12	24857.7
1096.51	25285.9
1100.9	25158.6
1105.28	24690.6
1109.66	23533.2
1114.04	22889.9
1118.42	22266.3
1122.79	21367.1
1127.16	20391.6
1131.53	19090.1
1135.89	17975.9
1140.25	16519
1144.61	14841.4
1148.97	13561.3
1153.32	12002.7
1157.67	10984.1
1162.02	9311.48
1166.37	8004.51
1170.71	6868.12
1175.05	5526.6
1179.39	4372.59
1183.72	3349.48
1188.06	2552.22
1192.38	1835.84
1196.71	1293.27
1201.03	518.566
1205.36	759.262
1209.67	153.465
1213.99	136.568
1218.3	44.0547
1222.61	39.0332
1226.92	246.394
1231.22	235.752
1235.53	47.457
1239.82	120.356
1244.12	220.332
1248.41	81.7168
1252.7	64.2188
1256.99	76.0684
1261.28	225.818
1265.56	113.897
1269.84	18.4355
1274.12	77.1465
1278.39	91.5019
1282.66	69.2539
1286.93	44.5352
1291.2	117.873
1295.46	272.201
1299.72	188.299
1303.98	424.94
1308.23	166.404
1312.48	515.182
1316.73	306.764
1320.98	398.174
1325.22	287
1329.46	190.455
1333.7	107.955
1337.94	264.193
1342.17	126.664
1346.4	265.44
1350.63	395.094
1354.85	270.961
1359.07	41.2422
1363.29	188.889
1367.51	483.125
1371.72	429.234
1375.93	506.143
1380.14	424.191
1384.34	469.809
1388.54	423.961
1392.74	526.777
1396.94	367.379
1401.13	499.478
1405.32	613.481
1409.51	468.494
1413.69	643.523
1417.88	671.32
1422.06	540.266
1426.23	673.016
1430.41	772.102
1434.58	657.535
1438.74	865.609
1442.91	1429.61
1447.07	1453.89
1451.23	1715.65
1455.39	1678.94
1459.54	1487.65
1463.69	1074.15
1467.84	882.41
1471.99	589.613
1476.13	364.586
1480.27	328.863
1484.41	411.699
1488.54	357.926
1492.67	337.394
1496.8	115.266
1500.93	273.641
1505.05	218.859
1509.17	91.4609
1513.29	249.172
1517.4	299.848
1521.51	71.1328
1525.62	149.117
1529.73	686.047
1533.83	352.703
1537.93	465.543
1542.03	353.121
1546.12	246.734
1550.21	453.422
1554.3	767.117
1558.39	173.449
1562.47	381.832
1566.55	100.473
1570.63	86.9453
1574.7	444.531
1578.77	0
