Measurement: Raman, 514 nm, depolarized, Raman Data Processed
Mineral: Chabazite-Ca
Rruff sample: R050014
Ideal chemistry: Ca_2_Al_4_Si_8_O_24_13H_2_O
Locality: Tablo Mountain, Baja California, Mexico
Source: University of Arizona Mineral Museum
Description: Light tan colored rhombohedral single crystals
Measured chemistry: (Ca_0.72_Mg_0.11_K_0.09_Sr_0.06_Na_0.01_)_Σ=1_(Si_4.12_Al_1.88_)O_12_·6H_2_O
Pin_id: M00165
Orientation: Laser parallel to (-1 -1 -1). Fiducial mark perpendicular to laser is parallel to [-1 1 0]
Raman shift (cm-1)	intensity
105.815	0
110.744	240.522
115.671	1042.07
120.596	1338.47
125.519	1820.04
130.439	3152.96
135.356	4346.57
140.271	6085.73
145.184	7155.79
150.094	4818.55
155.002	3677.98
159.908	3197.95
164.811	3329.26
169.711	3605.67
174.61	3537.43
179.505	3680.9
184.399	3749.23
189.29	3356.86
194.178	2964.78
199.064	2559.96
203.948	1981.63
208.829	986.006
213.708	799.996
218.585	250.607
223.459	214.705
228.33	89.1875
233.199	220.316
238.066	396.69
242.93	219.018
247.792	327.844
252.651	270.451
257.508	162.195
262.363	14.3379
267.215	285.502
272.064	146.15
276.912	674.752
281.756	1135
286.598	1150.39
291.438	1435.65
296.276	1806.74
301.111	2077.73
305.943	2446.24
310.773	2840.63
315.601	3473.34
320.426	4011.84
325.248	4071.86
330.068	4273.33
334.886	4145.96
339.701	3830.5
344.514	3290.1
349.324	2806.13
354.132	2558.35
358.938	2340.2
363.741	2058.38
368.541	1994.12
373.339	1939.44
378.135	1737.17
382.928	1894.41
387.718	1974.81
392.506	1808.78
397.292	1613.02
402.075	1761.02
406.856	1834.71
411.634	2046.48
416.41	2568.56
421.183	3171.97
425.954	4001.5
430.722	6004.93
435.488	7375.03
440.251	9794.34
445.012	12295.9
449.77	14730.8
454.526	16118.1
459.28	17185.3
464.03	17365.6
468.779	18388.3
473.525	19781.7
478.268	20065.8
483.009	18410.5
487.747	14857
492.483	11048.4
497.217	7901.07
501.948	5790.48
506.676	4033.79
511.402	3168.2
516.125	2316.04
520.846	1541.52
525.565	1204.5
530.281	1002.43
534.994	755.67
539.705	540.883
544.413	367.414
549.119	299.348
553.822	65.5488
558.523	66.5644
563.222	70.8555
567.917	4.84375
572.611	211.609
577.302	327.676
581.99	46.0605
586.676	155.834
591.359	66.5625
596.04	24.8125
600.718	17.9785
605.394	114.967
610.067	186.414
614.737	109.297
619.406	183.551
624.071	28.3418
628.734	194.053
633.395	560.08
638.053	488.268
642.708	629.67
647.361	362.26
652.012	337.041
656.66	133.934
661.305	374.982
665.948	197.635
670.588	171.397
675.226	140.168
679.861	156.789
684.494	66.2617
689.124	290.049
693.752	253.312
698.377	443.078
702.999	323.818
707.619	487.394
712.237	529.332
716.852	498.148
721.464	508.522
726.074	664.758
730.681	467.41
735.286	480.393
739.888	390.539
744.488	301.685
749.085	599.074
753.68	466.723
758.272	714.508
762.861	599.26
767.448	624.309
772.033	567.736
776.614	614.988
781.194	743.477
785.77	762.609
790.345	720.291
794.916	756.377
799.485	599.877
804.052	429.022
808.616	226.504
813.177	177.781
817.736	99.6504
822.292	67.543
826.846	98.7969
831.397	82.7891
835.945	25.5977
840.491	171.234
845.035	106.207
849.576	82.3359
854.114	158.789
858.65	207.742
863.183	97.1133
867.713	236.137
872.241	102.344
876.767	42.543
881.29	179.707
885.81	92.0664
890.328	281.516
894.843	80
899.356	16.6641
903.866	196.457
908.373	117.504
912.878	156.672
917.38	121.816
921.88	19.0391
926.377	46.3281
930.872	345.82
935.364	348.402
939.853	244.668
944.34	238.609
948.824	361.144
953.306	598.352
957.785	656.031
962.261	608.992
966.735	544.777
971.207	823.734
975.675	845.121
980.141	1102.5
984.605	1435.99
989.066	1207.92
993.524	1311.35
997.98	1326.52
1002.43	1242.16
1006.88	1582.21
1011.33	1480.91
1015.78	1283.11
1020.22	1592.38
1024.66	1637.77
1029.1	1450.56
1033.53	1701.81
1037.97	1716.41
1042.4	1489.37
1046.82	1794.34
1051.25	1825.86
1055.67	2530.39
1060.09	1976.36
1064.51	2209.65
1068.92	2340.78
1073.33	2644.31
1077.74	2590.65
1082.15	2721.38
1086.55	3136.63
1090.95	2471.5
1095.35	2387.18
1099.75	2404.87
1104.14	2235.92
1108.53	2084.18
1112.92	2381.03
1117.31	2227.12
1121.69	2050.91
1126.07	2080.89
1130.45	1912.84
1134.82	1744.74
1139.19	1625.68
1143.57	1636.26
1147.93	1245.46
1152.3	1348.44
1156.66	930.965
1161.02	1197.49
1165.38	861.551
1169.73	617.133
1174.08	345.598
1178.43	399.606
1182.78	101.754
1187.12	325.906
1191.46	384.504
1195.8	91.207
1200.14	61.4141
1204.47	27.5781
1208.8	44.832
1213.13	91.5234
1217.46	190.254
1221.78	98.7109
1226.1	205.566
1230.42	186.106
1234.73	12.3164
1239.04	241.25
1243.35	45.2109
1247.66	13.7773
1251.97	195.031
1256.27	55.8438
1260.57	61.9922
1264.86	27.6758
1269.16	120.262
1273.45	24.8828
1277.74	118.312
1282.03	183.574
1286.31	48.7383
1290.59	79.1484
1294.87	97.3477
1299.14	156.547
1303.42	453.648
1307.69	417.633
1311.95	187.309
1316.22	252.606
1320.48	436.523
1324.74	185.777
1329	338.453
1333.26	296.094
1337.51	462.578
1341.76	179.301
1346	234.578
1350.25	207.019
1354.49	148.461
1358.73	452.727
1362.96	161.301
1367.2	267.801
1371.43	392.051
1375.66	297.035
1379.88	387.449
1384.11	471.984
1388.33	136.215
1392.54	408.047
1396.76	258.633
1400.97	33.9766
1405.18	310.363
1409.39	160.84
1413.59	370.809
1417.8	221.375
1421.99	232.051
1426.19	255.543
1430.38	394.152
1434.58	351.535
1438.77	316.551
1442.95	275.406
1447.13	564.117
1451.32	286.43
1455.49	476.281
1459.67	254.309
1463.84	697.688
1468.01	256.859
1472.18	261.883
1476.35	359.609
1480.51	393.008
1484.67	114.438
1488.83	299.246
1492.98	476.508
1497.13	69.9805
1501.28	225.75
1505.43	1.02734
1509.57	297.801
1513.71	93.4844
1517.85	93.3672
1521.99	542.848
1526.12	207.398
1530.25	265.098
1534.38	437.539
1538.5	284.422
1542.62	353.465
1546.74	578.606
1550.86	147.508
1554.98	220.113
1559.09	270.574
1563.2	384.195
1567.31	416.777
1571.41	0.945313
