Measurement: Raman, 514 nm, ccw, Raman Data Processed
Mineral: Chalcopyrite
Rruff sample: R050222
Ideal chemistry: Cu^1+^Fe^3+^S^2-^_2_
Locality: Iron Cap mine, Landsman Camp, Graham County, Arizona, USA
Source: Bob Downs
Description: Group of brass yellow metallic tetrahedra, dark streaks represent alteration by bacteria where S is left behind
Measured chemistry: Cu_1.00_Fe_1.00_S_2.00_
Pin_id: L01086
Orientation: Laser parallel to -c* (0 0 -1). Fiducial mark perpendicular to laser is parallel to -a [-1 0 0]
Raman shift (cm-1)	intensity
90.77	0
95.722	601.621
100.67	895.975
105.616	3625
110.559	427.258
115.499	1092.31
120.437	480.379
125.371	77.7854
130.303	575.083
135.232	413.473
140.159	1031.65
145.082	331.003
150.003	237.343
154.921	199.074
159.837	371.545
164.749	529.24
169.659	803.984
174.566	893.75
179.471	548.849
184.372	338.711
189.271	499.044
194.167	566.619
199.061	768.629
203.951	1010.66
208.839	220.124
213.724	115.104
218.607	141.345
223.486	145.061
228.363	58.4456
233.237	173.814
238.109	310.041
242.977	442.256
247.843	738.005
252.707	1355.63
257.567	2971.46
262.425	2568.71
267.28	2981.72
272.132	3136.78
276.982	3105.08
281.829	5079.41
286.673	12894.6
291.514	37834.5
296.353	24566.9
301.189	4463.92
306.022	1597.18
310.852	943.092
315.68	1132.13
320.505	2619.53
325.328	2842.65
330.147	1368.93
334.964	644.705
339.779	593.25
344.59	821.811
349.399	2068.78
354.205	3941.23
359.009	2052
363.809	837.324
368.607	895.043
373.403	1228.47
378.195	2221.63
382.985	4715.56
387.772	2048.53
392.557	410.657
397.339	47.4519
402.118	51.6693
406.894	37.645
411.668	101.883
416.439	77.7936
421.208	54.4119
425.973	102.249
430.736	123.828
435.497	18.0362
440.254	129.873
445.009	111.431
449.761	110.14
454.511	150.721
459.258	72.0261
464.002	19.8328
468.744	2.32495
473.483	24.9696
478.219	28.3585
482.952	17.189
487.683	21.4856
492.411	29.8119
497.137	11.8732
501.86	62.6457
506.58	54.6497
511.298	57.1409
516.013	82.5895
520.725	60.9885
525.434	179.637
530.141	130.323
534.845	122.9
539.547	89.1736
544.246	121.187
548.942	110.215
553.636	62.4205
558.327	81.01
563.015	119.091
567.701	206.463
572.384	222.492
577.064	185.964
581.742	139.504
586.417	43.1239
591.09	54.2034
595.759	37.3135
600.427	63.8054
605.091	31.8491
609.753	56.4692
614.412	78.0533
619.069	101.87
623.723	102.162
628.374	96.5994
633.023	97.0118
637.669	33.4984
642.312	23.3934
646.953	32.8419
651.591	129.475
656.227	194.965
660.86	130.358
665.49	120.966
670.118	97.4819
674.743	112.137
679.366	44.402
683.985	38.1352
688.603	91.8341
693.217	130.386
697.829	193.052
702.439	196.445
707.045	263.986
711.65	255.12
716.251	229.281
720.85	98.5525
725.446	130.024
730.04	111.311
734.631	96.0225
739.22	77.9623
743.806	12.2538
748.389	41.9569
752.97	31.6027
757.548	92.1376
762.123	38.8899
766.696	44.9965
771.267	31.8978
775.835	64.1624
780.4	11.6412
784.962	11.5045
789.522	4.35644
794.08	37.0275
798.634	9.5332
803.187	5.55859
807.736	6.42969
812.283	12.068
816.828	8.61182
821.37	23.5617
825.909	3.24744
830.446	15.7577
834.98	8.95923
839.511	47.6891
844.04	16.6162
848.567	32.4094
853.091	6.31934
857.612	34.3104
862.131	48.5087
866.647	35.082
871.16	43.8603
875.671	40.5715
880.18	25.977
884.686	30.6754
889.189	76.6687
893.69	78.3391
898.188	67.4198
902.683	78.1379
907.177	102.138
911.667	55.464
916.155	107.153
920.64	148.752
925.123	86.2398
929.604	94.3383
934.081	114.041
938.557	58.9562
943.029	71.6667
947.499	126.082
951.967	134.463
956.432	153.027
960.894	104.623
965.354	154.911
969.812	98.8507
974.266	123.674
978.719	128.786
983.168	135.046
987.616	199.952
992.06	141.405
996.503	175.246
1000.94	173.528
1005.38	195.062
1009.81	186.02
1014.25	215.963
1018.67	157.255
1023.1	191.476
1027.53	223.558
1031.95	176.419
1036.37	237.541
1040.79	243.56
1045.2	194.897
1049.61	235.037
1054.02	233.536
1058.43	228.706
1062.83	210.238
1067.23	152.938
1071.63	214.32
1076.03	223.58
1080.42	170.876
1084.82	176.904
1089.2	165.225
1093.59	198.852
1097.98	161.426
1102.36	170.944
1106.74	123.181
1111.11	152.444
1115.49	145.5
1119.86	115.902
1124.23	161.517
1128.6	110.384
1132.96	117.359
1137.32	103.751
1141.68	132.532
1146.04	95.9774
1150.39	62.1702
1154.74	89.7289
1159.09	47.7288
1163.44	33.29
1167.78	85.7905
1172.12	51.2817
1176.46	75.7425
1180.8	6.19604
1185.13	24.6392
1189.47	44.8177
1193.8	14.6008
1198.12	1.91565
1202.45	34.7602
1206.77	31.2993
1211.09	10.6946
1215.41	12.2455
1219.72	16.6188
1224.03	83.1736
1228.34	50.9152
1232.65	19.3815
1236.95	48.3087
1241.26	79.9102
1245.56	33.5364
1249.85	25.2446
1254.15	50.2565
1258.44	32.413
1262.73	29.7826
1267.02	55.0677
1271.3	19.1733
1275.58	28.2133
1279.86	23.1885
1284.14	25.8388
1288.42	24.2404
1292.69	37.4639
1296.96	87.7106
1301.23	97.5598
1305.49	117.397
1309.76	73.6492
1314.02	70.6605
1318.27	50.7017
1322.53	36.1018
1326.78	61.3865
1331.03	80.7194
1335.28	53.8722
1339.53	95.6654
1343.77	20.377
1348.01	104.355
1352.25	80.8226
1356.48	49.6141
1360.72	28.3945
1364.95	51.5204
1369.18	59.7824
1373.4	103.201
1377.63	110.486
1381.85	124.711
1386.07	74.299
1390.28	51.3195
1394.5	31.8939
1398.71	129.523
1402.92	85.9959
1407.13	96.702
1411.33	89.5895
1415.53	125.083
1419.73	96.079
1423.93	48.1698
1428.12	40.0404
1432.32	128.832
1436.51	52.3801
1440.69	64.8201
1444.88	15.0729
1449.06	46.2333
1453.24	106.23
1457.42	23.6471
1461.59	76.1704
1465.77	58.4249
1469.94	0.977783
1474.11	50.3234
1478.27	54.7894
1482.43	28.2151
1486.6	23.4711
1490.76	94.9932
1494.91	54.481
1499.06	15.0501
1503.22	33.4714
1507.37	11.1502
1511.51	38.679
1515.66	101.306
1519.8	80.4373
1523.94	11.6133
1528.07	94.2017
1532.21	40.4407
1536.34	87.1421
1540.47	74.3513
1544.6	118.541
1548.72	75.7644
1552.85	85.7534
1556.97	70.4255
1561.08	104.551
1565.2	73.4695
1569.31	86.3267
1573.42	0.704346
1577.53	0
