Measurement: Raman, 514 nm, ccw, Raman Data Processed
Mineral: Chalcopyrite
Rruff sample: R050222
Ideal chemistry: Cu^1+^Fe^3+^S^2-^_2_
Locality: Iron Cap mine, Landsman Camp, Graham County, Arizona, USA
Source: Bob Downs
Description: Group of brass yellow metallic tetrahedra, dark streaks represent alteration by bacteria where S is left behind
Measured chemistry: Cu_1.00_Fe_1.00_S_2.00_
Pin_id: L01086
Orientation: Laser parallel to -c* (0 0 -1). Fiducial mark perpendicular to laser is parallel to -a [-1 0 0]
Raman shift (cm-1)	intensity
89.532	0
94.484	670.561
99.433	522.98
104.38	4165.62
109.323	1394.74
114.264	798.455
119.203	816.124
124.138	924.029
129.071	375.132
134	368.304
138.927	842.507
143.852	362.957
148.773	365.842
153.692	332.993
158.608	524.702
163.522	712.17
168.432	913.274
173.34	1068.62
178.245	830.909
183.147	716.436
188.047	860.948
192.943	988.394
197.838	851.527
202.729	1178.85
207.617	560.488
212.503	6.44238
217.386	117.736
222.267	59.9763
227.144	43.0261
232.019	155.792
236.891	295.269
241.76	398.028
246.627	446.129
251.491	889.13
256.352	2381.26
261.211	1804.83
266.066	2124.07
270.919	2431.25
275.77	2671.47
280.617	4052.74
285.462	9540.38
290.304	30774.6
295.143	35734.4
299.98	7054.42
304.814	2342.49
309.645	1104.5
314.474	1520.14
319.299	3011.05
324.122	2989.32
328.943	1741.69
333.76	1570.89
338.575	1442.05
343.388	1122.68
348.197	1682.84
353.004	2971.07
357.808	1957.17
362.609	1051.17
367.408	665.89
372.204	747.575
376.997	822.442
381.788	1011.9
386.576	532.339
391.361	84.7028
396.144	10.0818
400.923	12.3977
405.7	5.14636
410.475	27.8715
415.247	21.3197
420.016	64.906
424.782	58.9608
429.546	53.4945
434.307	75.5266
439.065	102.102
443.821	109.304
448.574	168.139
453.324	132.15
458.071	109.578
462.816	112.428
467.559	44.3695
472.298	7.76917
477.035	68.1581
481.769	6.26367
486.501	6.09595
491.23	24
495.956	42.0638
500.679	52.7876
505.4	73.9885
510.119	64.8662
514.834	88.2178
519.547	99.8511
524.257	81.4688
528.965	109.981
533.67	96.054
538.372	96.2222
543.072	152.743
547.768	85.9376
552.463	91.7178
557.154	139.718
561.843	148.731
566.53	91.3748
571.213	91.195
575.894	140.007
580.573	55.5577
585.249	57.7039
589.922	3.3009
594.592	23.3069
599.26	26.1041
603.925	19.7939
608.588	33.5751
613.248	50.6621
617.905	67.6626
622.56	26.8098
627.212	68.7778
631.861	127.835
636.508	131.909
641.152	107.727
645.793	162.011
650.432	187.714
655.068	220.9
659.702	145.954
664.333	91.2922
668.961	52.0264
673.587	38.2644
678.21	55.2109
682.831	46.8545
687.449	12.8671
692.064	40.3657
696.676	152.069
701.287	191.873
705.894	274.88
710.499	187.554
715.101	196.2
719.701	143.296
724.298	130.266
728.892	101
733.484	42.9249
738.073	62.1895
742.66	7.77979
747.244	83.9242
751.825	15.2302
756.404	33.3492
760.98	75.0964
765.553	27.8765
770.124	12.4794
774.693	11.906
779.259	63.3298
783.822	5.37634
788.382	18.8032
792.94	24.7656
797.496	0.063965
802.049	65.1558
806.599	50.5096
811.147	31.1332
815.692	5.2045
820.234	14.9797
824.774	51.652
829.312	55.9847
833.846	58.6799
838.379	2.2157
842.908	68.6094
847.435	28.124
851.96	51.9414
856.482	44.8929
861.001	35.7341
865.518	50.4688
870.032	71.037
874.544	69.576
879.053	77.9165
883.559	57.1512
888.063	52.0156
892.565	124.607
897.064	76.5837
901.56	48.1962
906.054	138.389
910.545	86.2672
915.033	88.2109
919.519	118.73
924.003	105.13
928.484	109.856
932.962	120.478
937.438	108.308
941.911	109.014
946.382	84.5839
950.85	91.5918
955.316	34.8241
959.779	81.14
964.239	127.108
968.697	84.231
973.153	127.956
977.606	170.29
982.056	136.658
986.504	205.097
990.949	171.778
995.392	187.075
999.833	179.167
1004.27	142.783
1008.71	184.444
1013.14	145.472
1017.57	129.58
1022	170.628
1026.42	136.718
1030.84	165.091
1035.26	166.728
1039.68	157.487
1044.1	166.998
1048.51	159.794
1052.92	214.399
1057.33	127.391
1061.73	218.787
1066.13	177.355
1070.53	252.318
1074.93	184.311
1079.33	216.381
1083.72	182.558
1088.11	209.843
1092.49	178.455
1096.88	157.941
1101.26	139.358
1105.64	119.997
1110.02	113.821
1114.39	178.971
1118.77	110.967
1123.14	103.305
1127.5	132.545
1131.87	120.638
1136.23	122.997
1140.59	116.603
1144.95	67.2399
1149.3	55.8118
1153.65	37.5172
1158.01	1.64587
1162.35	24.9155
1166.7	44.4576
1171.04	43.9453
1175.38	44.4755
1179.72	24.9429
1184.05	61.3905
1188.38	30.7747
1192.71	1.96069
1197.04	103.059
1201.37	63.8141
1205.69	79.6787
1210.01	77.7756
1214.33	118.27
1218.64	81.9988
1222.95	22.1173
1227.27	12.2198
1231.57	54.5635
1235.88	22.5497
1240.18	19.1769
1244.48	38.0785
1248.78	7.71631
1253.07	9.45252
1257.37	110.874
1261.66	54.9137
1265.94	85.1476
1270.23	115.344
1274.51	74.8628
1278.79	103.85
1283.07	9.73877
1287.35	80.6099
1291.62	75.3495
1295.89	42.7808
1300.16	120.103
1304.43	87.2956
1308.69	69.7896
1312.95	145.077
1317.21	77.3501
1321.46	30.8127
1325.72	99.7231
1329.97	61.0315
1334.22	77.3005
1338.46	60.5281
1342.71	22.7065
1346.95	75.843
1351.19	8.6814
1355.43	12.918
1359.66	54.5354
1363.89	52.011
1368.12	61.3528
1372.35	83.5161
1376.57	37.3079
1380.79	47.0859
1385.01	40.6519
1389.23	75.0107
1393.44	14.3149
1397.66	44.5238
1401.87	31.9519
1406.08	72.3879
1410.28	33.772
1414.48	50.2983
1418.68	49.0825
1422.88	90.154
1427.08	66.4546
1431.27	22.1733
1435.46	70.5242
1439.65	57.8115
1443.83	99.3979
1448.02	107.979
1452.2	153.718
1456.38	159.12
1460.55	124.268
1464.72	85.5039
1468.89	152.476
1473.06	75.8906
1477.23	86.0422
1481.39	94.0781
1485.56	47.6397
1489.71	59.616
1493.87	9.48047
1498.03	6.44263
1502.18	48.4148
1506.33	14.4661
1510.47	66.5691
1514.62	4.146
1518.76	24.123
1522.9	24.4866
1527.04	84.9414
1531.17	33.4023
1535.31	47.8218
1539.44	57.9497
1543.57	99.9265
1547.69	99.7993
1551.82	115.019
1555.94	60.6877
1560.05	102.982
1564.17	44.5491
1568.28	3.21362
1572.4	4.16919
