Measurement: Raman, 514 nm, ccw, Raman Data Processed
Mineral: Chalcopyrite
Rruff sample: R050222
Ideal chemistry: Cu^1+^Fe^3+^S^2-^_2_
Locality: Iron Cap mine, Landsman Camp, Graham County, Arizona, USA
Source: Bob Downs
Description: Group of brass yellow metallic tetrahedra, dark streaks represent alteration by bacteria where S is left behind
Measured chemistry: Cu_1.00_Fe_1.00_S_2.00_
Pin_id: L01086
Orientation: Laser parallel to -c* (0 0 -1). Fiducial mark perpendicular to laser is parallel to -a [-1 0 0]
Raman shift (cm-1)	intensity
97.328	0
102.256	1009.29
107.181	3169.95
112.105	49.2976
117.025	2434.54
121.943	976.788
126.859	7.34741
131.773	547.392
136.684	151.868
141.592	485.048
146.499	344.866
151.402	54.708
156.304	151.791
161.203	320.792
166.099	546.671
170.993	850.419
175.885	819.929
180.774	550.186
185.661	587.002
190.545	641.495
195.427	770.317
200.307	821.109
205.184	1078.42
210.059	110.182
214.931	34.5093
219.801	94.6155
224.668	49.1592
229.533	7.29663
234.396	62.9126
239.256	164.042
244.114	250.977
248.969	481.977
253.822	1281.46
258.672	1658.48
263.52	1467.67
268.365	1855.94
273.208	1746.57
278.049	1808.15
282.887	3583.91
287.723	8264.31
292.556	24877
297.387	9359.31
302.215	2312.93
307.041	1104.78
311.865	965.609
316.686	2214.13
321.504	4458.97
326.32	2182.2
331.134	1182.41
335.945	992.562
340.754	926.233
345.56	1031.26
350.364	2599.74
355.165	3485.34
359.964	993.263
364.76	596.586
369.554	434.458
374.346	480.898
379.135	622.871
383.921	444.744
388.705	85.4646
393.487	21.3077
398.266	0.078247
403.043	0.963379
407.817	29.572
412.589	28.269
417.358	6.62939
422.125	87.5819
426.889	64.1445
431.651	41.3357
436.41	67.1765
441.167	63.7057
445.921	122.079
450.673	112.49
455.423	156.009
460.17	138.406
464.914	151.947
469.656	9.24011
474.396	3.30115
479.133	49.1578
483.867	28.8178
488.599	23.3075
493.329	16.9116
498.056	61.1935
502.78	42.6777
507.502	97.6096
512.222	97.1875
516.939	108.287
521.654	95.5066
526.366	130.519
531.075	164.714
535.782	155.148
540.487	114.517
545.189	116.905
549.889	139.586
554.586	94.574
559.28	74.9834
563.973	107.513
568.662	126.692
573.349	136.872
578.034	102.618
582.716	89.3772
587.396	17.462
592.073	14.1404
596.747	4.52417
601.419	22.2551
606.089	34.4933
610.756	77.4042
615.42	85.9517
620.082	53.4976
624.742	78.1039
629.399	26.9139
634.053	25.5005
638.705	7.29724
643.355	5.20984
648.002	47.1328
652.646	135.066
657.288	139.498
661.927	82.0289
666.564	4.77979
671.199	23.1877
675.831	51.1375
680.46	25.6508
685.087	2.11585
689.711	50.2102
694.333	92.611
698.952	109.817
703.569	116.036
708.183	162.113
712.794	163.321
717.403	134.236
722.01	113.713
726.614	89.5759
731.216	59.281
735.815	47.4153
740.411	30.2988
745.005	41.4579
749.596	28.5153
754.185	47.4775
758.772	8.32349
763.355	15.0818
767.937	21.0724
772.515	14.2378
777.091	28.7952
781.665	8.38818
786.236	58.3497
790.805	39.1349
795.371	5.72571
799.934	25.1189
804.495	62.257
809.054	26.2781
813.61	7.89673
818.163	30.5745
822.714	25.7467
827.262	3.42871
831.808	34.8496
836.351	16.2413
840.891	4.98144
845.429	24.2687
849.965	18.474
854.498	55.7849
859.028	10.9307
863.556	27.9645
868.082	33.9419
872.604	5.80066
877.125	68.3942
881.642	48.0732
886.157	44.4335
890.67	51.9296
895.18	62.721
899.687	85.7645
904.192	110.882
908.695	71.1479
913.194	115.219
917.692	72.027
922.186	104.094
926.678	107.018
931.168	106.684
935.655	92.6527
940.139	94.7097
944.621	99.8016
949.101	142.428
953.577	95.4441
958.052	131.417
962.523	74.1857
966.992	89.9544
971.459	159.756
975.923	97.116
980.384	130.492
984.843	202.07
989.299	157.797
993.753	155.271
998.204	129.633
1002.65	173.86
1007.1	136.258
1011.54	194.868
1015.98	137.522
1020.42	179.23
1024.86	130.982
1029.29	102.793
1033.72	117.228
1038.15	174.132
1042.57	143.135
1047	159.225
1051.42	178.396
1055.84	151.586
1060.25	216.317
1064.66	137.688
1069.07	217.806
1073.48	157.873
1077.88	190.018
1082.29	229.658
1086.69	186.473
1091.08	186.833
1095.48	172.247
1099.87	161.6
1104.26	159.199
1108.65	188.693
1113.03	183.703
1117.41	187.211
1121.79	137.419
1126.17	166.896
1130.54	116.574
1134.91	124.531
1139.28	117.234
1143.65	100.371
1148.01	93.3323
1152.37	78.9188
1156.73	44.2253
1161.09	57.644
1165.44	79.0272
1169.79	48.4759
1174.14	71.8304
1178.48	71.1903
1182.83	25.5225
1187.17	66.5627
1191.51	1.14685
1195.84	27.1027
1200.17	1.75293
1204.5	4.69897
1208.83	5.72546
1213.15	26.1703
1217.48	9.96985
1221.8	26.7665
1226.11	30.8538
1230.43	66.7201
1234.74	68.5297
1239.05	78.2617
1243.36	34.4721
1247.66	68.8784
1251.96	18.0439
1256.26	14.3037
1260.56	26.5072
1264.85	24.7408
1269.14	46.735
1273.43	106.651
1277.71	33.4851
1282	16.2399
1286.28	36.9456
1290.56	44.7835
1294.83	68.7124
1299.11	89.181
1303.38	6.41821
1307.64	74.8778
1311.91	36.0709
1316.17	62.2101
1320.43	75.7648
1324.69	81.8389
1328.94	54.6942
1333.19	68.1127
1337.44	36.3552
1341.69	81.0974
1345.93	55.748
1350.18	80.3879
1354.41	90.9766
1358.65	50.5804
1362.89	79.0482
1367.12	84.7506
1371.35	105.736
1375.57	96.0869
1379.8	42.1034
1384.02	39.4105
1388.23	27.5392
1392.45	119.997
1396.66	44.1895
1400.87	94.4855
1405.08	71.4257
1409.29	25.1134
1413.49	52.4449
1417.69	72.4471
1421.89	92.0919
1426.08	77.4943
1430.27	37.8508
1434.46	94.5483
1438.65	32.5592
1442.83	62.9609
1447.02	60.8479
1451.19	68.613
1455.37	25.0312
1459.55	61.3158
1463.72	13.7556
1467.88	30.5551
1472.05	34.4377
1476.21	30.2549
1480.38	59.3332
1484.53	65.3319
1488.69	58.9179
1492.84	1.97754
1496.99	33.0654
1501.14	13.1591
1505.29	6.32556
1509.43	29.1818
1513.57	13.0988
1517.71	17.6801
1521.84	66.5139
1525.97	28.9023
1530.1	39.4639
1534.23	36.2688
1538.35	69.2966
1542.47	32.332
1546.59	49.6597
1550.71	22.1191
1554.82	52.2561
1558.94	33.918
1563.04	69.1365
1567.15	33.533
1571.25	44.532
1575.35	0
