Measurement: Raman, 514 nm, depolarized, Raman Data Processed
Mineral: Chalcopyrite
Rruff sample: R050222
Ideal chemistry: Cu^1+^Fe^3+^S^2-^_2_
Locality: Iron Cap mine, Landsman Camp, Graham County, Arizona, USA
Source: Bob Downs
Description: Group of brass yellow metallic tetrahedra, dark streaks represent alteration by bacteria where S is left behind
Measured chemistry: Cu_1.00_Fe_1.00_S_2.00_
Raman shift (cm-1)	intensity
110.082	0
114.254	191.85
118.424	155.752
122.592	55.718
126.758	400.029
130.922	1135.26
135.083	2264.63
139.243	3425.76
143.401	4060.08
147.557	4610.29
151.711	5067.7
155.863	5560.1
160.013	6162
164.161	6922.56
168.308	7811.19
172.452	8882.28
176.594	9369.67
180.734	8790.57
184.872	7646.9
189.008	6839.1
193.143	6036.28
197.275	5504.12
201.405	5246.5
205.534	6021.54
209.66	7450.72
213.784	9278.86
217.907	9752.11
222.027	8362.43
226.146	6443.51
230.263	5313.01
234.377	4612.34
238.49	3414.25
242.601	1570.85
246.709	540.603
250.816	54.005
254.921	213.386
259.024	311.115
263.125	313.337
267.224	51.375
271.321	354.132
275.416	676.438
279.51	1009.95
283.601	1917.39
287.69	4277.15
291.778	9646.1
295.863	17426.7
299.947	20684.6
304.029	15793.4
308.108	11059.4
312.186	7253.81
316.262	3675.42
320.336	3291.36
324.408	7107.44
328.478	12905.3
332.546	14302.8
336.612	12742.6
340.677	15514.4
344.739	33714.9
348.799	56288.8
352.858	40673.8
356.915	16665.3
360.969	9548.8
365.022	7751.55
369.073	6888.14
373.122	6458.84
377.169	6426.29
381.215	6347.9
385.258	6414.47
389.299	6682.1
393.339	6909.22
397.376	6751.57
401.412	6072.11
405.446	5116.45
409.478	4733.5
413.508	4921.52
417.536	5339.35
421.562	5504.19
425.586	5167.36
429.609	4461.15
433.629	3708.17
437.648	3330.36
441.665	3309.22
445.68	3501.7
449.693	3169.74
453.704	1939.31
457.713	653.388
461.721	180.955
465.726	39.131
469.73	41.196
473.731	104.307
477.731	25.501
481.729	52.406
485.725	30.62
489.72	90.267
493.712	70.14
497.703	170.463
501.691	177.211
505.678	256.398
509.663	402.074
513.646	518.358
517.627	617.283
521.607	448.829
525.584	330.02
529.56	169.802
533.534	58.863
537.506	26.836
541.476	55.072
545.444	131.83
549.41	8.551
553.375	60.101
557.337	104.278
561.298	158.01
565.257	190.345
569.214	286.295
573.17	464.056
577.123	521.928
581.075	690.692
585.024	946.931
588.972	1155.62
592.918	1488.2
596.863	1941.72
600.805	2410.49
604.746	2987.17
608.685	3420.38
612.621	3625.47
616.557	3478.33
620.49	2472.43
624.421	1924.05
628.351	1705.19
632.279	2202.77
636.205	2703.7
640.129	2558.97
644.051	1895.04
647.972	1482.14
651.89	1740.71
655.807	2475.3
659.722	3887.05
663.636	6063.4
667.547	7405.17
671.457	6776.72
675.365	5419.26
679.271	4730.96
683.175	4240.59
687.077	3823.64
690.978	3400.48
694.877	2961.7
698.774	2171.85
702.669	1186.86
706.562	730.435
710.454	461.855
714.344	364.786
718.232	239.085
722.118	188.325
726.002	204.849
729.885	173.094
733.766	148.629
737.645	98.172
741.522	58.996
745.397	42.188
749.271	21.14
753.143	27.649
757.013	70.747
760.881	14.659
764.748	20.708
768.613	23.633
772.476	22.732
776.337	29.609
780.196	28.376
784.054	56.16
787.91	16.007
791.764	30.198
795.616	4.469
799.467	37.871
803.316	13.544
807.163	28.803
811.008	0.086
814.851	9.852
818.693	63.632
822.533	55.232
826.371	2.592
830.208	0.754
834.042	24.716
837.875	7.471
841.706	13.071
845.536	0.533
849.363	13.09
853.189	13.217
857.013	39.618
860.836	9.896
864.656	11.487
868.475	70.804
872.292	14.033
876.108	5.075
879.922	5.327
883.733	52.137
887.544	27.526
891.352	39.347
895.159	74.287
898.964	73.21
902.767	62.781
906.568	112.454
910.368	74.354
914.166	127.48
917.962	150.082
921.757	128.878
925.55	125.658
929.341	161.5
933.13	135.015
936.918	244.531
940.703	180.655
944.488	218.899
948.27	141.181
952.051	174.819
955.83	131.186
959.607	192.693
963.383	153.46
967.156	125.669
970.928	216.075
974.699	220.723
978.468	195.949
982.234	247.312
986	277.286
989.763	257.375
993.525	193.363
997.285	245.488
1001.04	233.329
1004.8	311.301
1008.55	223.588
1012.31	256.884
1016.06	260.763
1019.81	253.405
1023.56	232.766
1027.31	225.336
1031.05	210.581
1034.79	144.888
1038.53	240.141
1042.27	162.113
1046.01	162.541
1049.75	135.008
1053.48	133.212
1057.22	175.145
1060.95	83.234
1064.68	91.639
1068.4	86.301
1072.13	113.833
1075.86	78.127
1079.58	55.191
1083.3	120.389
1087.02	99.231
1090.74	69.226
1094.45	78.579
1098.17	62.544
1101.88	81.916
1105.59	101.272
1109.3	102.931
1113.01	74.003
1116.71	50.783
1120.42	149.194
1124.12	281.685
1127.82	74.954
1131.52	77.923
1135.22	26.026
1138.91	58.851
1142.61	65.799
1146.3	25.687
1149.99	11.254
1153.68	0.579
1157.37	0.723
1161.06	5.938
1164.74	16.008
1168.42	16.73
1172.1	19.802
1175.78	48.49
1179.46	54.057
1183.14	82.192
1186.81	69.636
1190.48	43.796
1194.15	56.598
1197.83	98.758
1201.49	32.43
1205.16	47.792
1208.82	30.404
1212.49	7.724
1216.15	8.751
1219.81	49.295
1223.46	58.283
1227.12	62.735
1230.78	88.1
1234.43	39.543
1238.08	26.45
1241.73	39.665
1245.38	8.899
1249.03	71.439
1252.67	63.667
1256.31	5.505
1259.95	13.365
1263.6	70.692
1267.23	83.465
1270.87	22.238
1274.51	76.792
1278.14	22.945
1281.77	53.708
1285.4	49.279
1289.03	25.233
1292.66	62.953
1296.28	25.159
1299.91	87.686
1303.53	69.911
1307.15	80.441
1310.77	79.657
1314.38	52.679
1318	69.879
1321.61	37.994
1325.23	102.3
1328.84	54.132
1332.45	35.829
1336.06	70.415
1339.66	89.894
1343.27	109.164
1346.87	99.054
1350.47	63.686
1354.07	61.802
1357.67	55.93
1361.26	12.977
1364.86	13.426
1368.45	78.698
1372.04	83.824
1375.63	18.971
1379.22	80.901
1382.81	11.176
1386.39	3.465
1389.98	57.836
1393.56	84.16
1397.14	73.073
1400.72	16.079
1404.3	31.853
1407.87	10.836
1411.45	36.41
1415.02	82.521
1418.59	51.214
1422.16	62.713
1425.73	81.134
1429.29	59.316
1432.86	44.55
1436.42	54.19
1439.98	175.302
1443.54	111.346
1447.1	37.976
1450.66	63.427
1454.21	52.928
1457.77	82.019
1461.32	64.136
1464.87	47.097
1468.42	46.785
1471.96	62.434
1475.51	86.382
1479.06	21.859
1482.6	45.148
1486.14	45.176
1489.68	39.013
1493.22	120.167
1496.75	6.446
1500.29	73.535
1503.82	55.087
1507.35	17.316
1510.88	125.811
1514.41	31.109
1517.94	56.105
1521.46	78.201
