Measurement: Raman, 514 nm, depolarized, Raman Data Processed
Mineral: Chalcopyrite
Rruff sample: R050222
Ideal chemistry: Cu^1+^Fe^3+^S^2-^_2_
Locality: Iron Cap mine, Landsman Camp, Graham County, Arizona, USA
Source: Bob Downs
Description: Group of brass yellow metallic tetrahedra, dark streaks represent alteration by bacteria where S is left behind
Measured chemistry: Cu_1.00_Fe_1.00_S_2.00_
Pin_id: L01086
Orientation: Laser parallel to -c* (0 0 -1). Fiducial mark perpendicular to laser is parallel to -a [-1 0 0]
Raman shift (cm-1)	intensity
93.246	0
98.196	19.0781
103.143	1742.81
108.088	3160.55
113.029	1144.8
117.968	1584.38
122.904	753.746
127.838	123.251
132.768	542.154
137.696	377.554
142.621	432.225
147.543	262.795
152.463	136.119
157.379	232.123
162.293	492.187
167.205	545.885
172.113	874.064
177.019	615.572
181.922	389.96
186.822	510.414
191.72	777.352
196.614	656.411
201.506	757.042
206.395	782.132
211.282	147.16
216.166	4.37793
221.047	176.962
225.925	94.029
230.8	100.835
235.673	119.424
240.543	232.383
245.411	373.299
250.275	695.159
255.137	1899.72
259.996	1623.27
264.853	2083.67
269.706	2394.96
274.557	2521.05
279.405	3267.59
284.251	6927.6
289.094	23480.2
293.934	38787.2
298.771	10193.6
303.606	2491.47
308.438	1110.59
313.267	848.851
318.093	1410.09
322.917	2017.32
327.738	1175.72
332.556	737.592
337.372	765.514
342.185	738.505
346.995	831.832
351.802	1888.93
356.607	1547.59
361.409	658.353
366.209	380.369
371.005	675.398
375.799	1011.13
380.591	2962.05
385.379	3114.68
390.165	598.707
394.948	174.693
399.729	5.63708
404.506	41.5612
409.282	51.8872
414.054	31.8723
418.824	17.2125
423.591	42.0813
428.355	110.505
433.117	116.522
437.876	100.149
442.632	27.4246
447.386	54.4125
452.137	91.2051
456.885	87.749
461.63	14.7539
466.373	3.64197
471.114	18.7278
475.851	37.3513
480.586	12.527
485.318	28.0405
490.048	44.1141
494.775	42.9131
499.499	43.8296
504.22	49.8732
508.939	20.5872
513.655	92.5359
518.369	115.747
523.08	111.517
527.788	170.3
532.494	130.619
537.197	145.844
541.897	140.35
546.594	186.148
551.289	136.188
555.982	116.242
560.671	101.177
565.358	187.84
570.043	150.128
574.724	209.986
579.403	149.495
584.08	148.847
588.754	56.1039
593.425	83.3634
598.093	49.9685
602.759	8.08435
607.422	79.4373
612.083	71.3934
616.741	137.839
621.396	65.5333
626.049	54.1273
630.699	79.4371
635.346	15.3353
639.991	57.748
644.633	80.4563
649.273	142.577
653.91	206.156
658.544	166.137
663.175	140.088
667.804	100.866
672.431	85.4513
677.055	18.3013
681.676	26.9311
686.294	9.55737
690.91	45.724
695.524	143.823
700.134	161.575
704.742	184.014
709.348	258.093
713.951	238.371
718.551	156.55
723.149	115.048
727.744	69.1021
732.336	73.0217
736.926	113.701
741.513	51.9228
746.098	50.218
750.68	50.6119
755.259	34.8503
759.836	15.1711
764.41	33.3602
768.982	27.4084
773.551	23.2445
778.117	54.8315
782.681	9.09741
787.243	17.3784
791.801	23.6748
796.357	31.7978
800.911	20.766
805.462	18.391
810.01	11.1168
814.556	13.2964
819.099	58.7616
823.64	11.6759
828.178	27.453
832.713	43.9049
837.246	6.06067
841.776	12.7279
846.304	46.3645
850.829	3.21118
855.352	14.7565
859.872	54.0697
864.389	63.0487
868.904	79.359
873.416	48.7075
877.926	86.3953
882.433	59.0693
886.938	37.2222
891.44	63.0826
895.939	55.148
900.436	51.6843
904.93	59.6832
909.422	76.465
913.911	54.6852
918.398	87.2267
922.882	88.6462
927.364	65.9268
931.843	101.301
936.319	77.6577
940.793	116.107
945.265	87.7231
949.733	100.852
954.2	103.157
958.663	136.587
963.125	58.1046
967.583	145.482
972.039	119.9
976.493	142.849
980.944	104.956
985.392	119.258
989.838	163.355
994.282	177.273
998.723	198.602
1003.16	212.907
1007.6	167.933
1012.03	186.532
1016.46	203.644
1020.89	166.638
1025.32	210.291
1029.74	149.436
1034.16	208.935
1038.58	149.964
1042.99	168.342
1047.41	147.314
1051.82	202.955
1056.22	277.716
1060.63	181.336
1065.03	196.815
1069.43	195.744
1073.83	180.97
1078.23	131.163
1082.62	212.161
1087.01	248.784
1091.4	165.348
1095.78	154.771
1100.17	144.631
1104.55	169.063
1108.92	120.277
1113.3	141.085
1117.67	120.79
1122.04	113.759
1126.41	83.5908
1130.78	100.522
1135.14	73.7766
1139.5	56.7394
1143.86	51.4681
1148.21	96.3136
1152.57	44.3272
1156.92	36.5052
1161.27	27.2549
1165.61	15.1967
1169.95	77.058
1174.3	29.0177
1178.63	33.828
1182.97	13.2775
1187.3	34.4797
1191.63	6.22815
1195.96	22.8887
1200.29	3.48804
1204.61	44.1
1208.93	28.3395
1213.25	19.9135
1217.56	2.60205
1221.88	44.6215
1226.19	20.2145
1230.5	11.2291
1234.8	61.6267
1239.11	39.0212
1243.41	14.2349
1247.7	6.99292
1252	0.779297
1256.29	4.49951
1260.59	27.1577
1264.87	10.3618
1269.16	37.2877
1273.44	11.7506
1277.72	70.4116
1282	3.4657
1286.28	37.7041
1290.55	14.555
1294.83	48.3347
1299.09	31.462
1303.36	38.0483
1307.62	74.5193
1311.89	79.705
1316.14	91.2007
1320.4	56.0301
1324.66	88.5417
1328.91	47.7955
1333.16	62.3429
1337.4	63.0926
1341.65	53.4512
1345.89	74.9304
1350.13	74.1024
1354.37	60.6129
1358.6	45.8381
1362.83	31.2273
1367.06	36.567
1371.29	98.1819
1375.52	55.1726
1379.74	69.8245
1383.96	83.0031
1388.18	42.1526
1392.39	74.0425
1396.61	69.267
1400.82	27.0303
1405.02	45.6016
1409.23	33.8644
1413.43	21.4477
1417.63	9.09461
1421.83	51.7683
1426.03	67.9226
1430.22	4.43152
1434.41	62.1072
1438.6	39.6669
1442.79	57.9477
1446.97	63.1914
1451.15	99.8738
1455.33	63.6761
1459.51	58.2835
1463.68	80.8492
1467.85	73.2396
1472.02	73.2322
1476.19	26.3876
1480.35	12.1459
1484.52	3.74353
1488.68	23.3585
1492.83	11.0132
1496.99	27.731
1501.14	12.3556
1505.29	36.1466
1509.44	45.0924
1513.58	82.1311
1517.73	88.9532
1521.87	103.138
1526.01	70.4387
1530.14	106.112
1534.28	66.1907
1538.41	75.2012
1542.53	64.6672
1546.66	58.6248
1550.78	80.0833
1554.91	80.0542
1559.03	66.9006
1563.14	59.363
1567.26	23.8413
1571.37	28.0518
1575.48	38.5266
