Measurement: Raman, 514 nm, depolarized, Raman Data Processed
Mineral: Chenevixite
Rruff sample: R040166
Ideal chemistry: Cu^2+^Fe^3+^(As^5+^O_4_)(OH)_2_
Locality: Volcanic Sunnyside mine, Santa Cruz County, Arizona, USA
Source: Andy Anderson
Description: Green earthy massive
Measured chemistry: Cu_2.00_(Fe^3+^_1.98_[box]_0.02_)_Σ=2_((As_0.94_S_0.06_)O_4_)_2_(OH)_4_·1.49H_2_O
Pin_id: L00378
Raman shift (cm-1)	intensity
95.723	0
99.917	272.352
104.109	1455.02
108.298	2216.23
112.486	3617.22
116.672	3440.3
120.855	2400.51
125.036	2019.53
129.216	2339.66
133.393	2596.48
137.568	2315
141.741	2133.81
145.911	1961.96
150.08	968.417
154.247	77.863
158.411	458.233
162.574	563.084
166.734	102.39
170.893	1363.86
175.049	3995.64
179.203	6752.88
183.355	7825.12
187.505	7772
191.653	8172.84
195.799	9236.97
199.943	9023.42
204.084	8052.16
208.224	7403.38
212.362	6933.73
216.497	7632.64
220.631	9235
224.762	9491.08
228.891	6590.89
233.018	3374.42
237.144	2211.63
241.267	2452.48
245.388	4036.88
249.507	5594.77
253.624	6376.04
257.739	5930.6
261.852	4998.45
265.962	3817.43
270.071	2569.61
274.178	1431.91
278.283	1313.65
282.385	1753.37
286.486	2742.26
290.584	3931.06
294.681	4663.65
298.775	4791.32
302.868	4922.1
306.958	5466.17
311.047	5393.54
315.133	4614.18
319.217	4492.6
323.299	4585.71
327.38	4627.92
331.458	4021.5
335.534	3336.99
339.608	2965.25
343.681	4026.23
347.751	7039.83
351.819	9055.95
355.885	10134.6
359.949	10895.6
364.011	10398.9
368.071	8294.33
372.129	6051.91
376.185	4341.47
380.239	3452.94
384.291	2986.24
388.341	2641.29
392.389	2277.99
396.435	2386.27
400.479	3286.06
404.521	4277.29
408.561	5309.9
412.599	5753.82
416.636	6999
420.67	9845.38
424.702	15502.9
428.732	24101.6
432.76	30051.4
436.786	28642.3
440.81	21924.3
444.832	16807.3
448.852	14051.8
452.87	11848.3
456.887	9211.27
460.901	7125.58
464.913	5816.08
468.923	5036.85
472.931	4708.68
476.938	4620.49
480.942	4929.96
484.944	5514.8
488.945	6231.04
492.943	6509.66
496.94	6486.89
500.934	5934.37
504.927	4869.05
508.917	3679.75
512.906	2736.1
516.892	2427.19
520.877	1994.44
524.86	1492.51
528.841	1074.97
532.82	868.577
536.796	659.431
540.771	676.258
544.744	544.442
548.715	560.452
552.684	709.986
556.652	891.303
560.617	1094.25
564.58	1037.72
568.541	968.653
572.501	908.979
576.458	785.756
580.414	726.952
584.367	566.531
588.319	498.985
592.268	438.71
596.216	315.244
600.162	220.031
604.106	54.042
608.048	36.233
611.988	84.452
615.926	76.35
619.862	112.643
623.797	168.648
627.729	244.698
631.659	235.086
635.588	201.509
639.515	158.038
643.439	227.455
647.362	210.257
651.283	211.483
655.202	176.122
659.119	154.201
663.034	137.753
666.947	119.699
670.859	65.065
674.768	90.837
678.676	14.057
682.581	9.106
686.485	17.668
690.387	138.497
694.287	174.645
698.185	166.247
702.081	260.372
705.975	365.107
709.868	410.514
713.758	574.615
717.647	644.448
721.533	618.042
725.418	773.418
729.301	920.59
733.182	1066.57
737.061	1156.36
740.939	1300.97
744.814	1579.42
748.688	1770.72
752.559	1974.87
756.429	2455.9
760.297	2776.8
764.163	3440.98
768.027	4164.63
771.89	5153.39
775.75	6332.28
779.609	7993.43
783.465	10058.6
787.32	12487.4
791.173	14953.1
795.024	17912
798.873	21199
802.721	24511.3
806.566	26808.9
810.41	26364.5
814.252	23586.8
818.092	20961.5
821.93	17670
825.766	15935
829.601	15040.1
833.433	15196.9
837.264	16724.7
841.093	19254.9
844.92	24645.4
848.745	32392
852.568	39899.2
856.39	44090.6
860.209	39754.1
864.027	29918.4
867.843	20764.3
871.657	14660.8
875.47	11038.3
879.28	8606.14
883.089	6984.16
886.896	6162.33
890.701	5340.67
894.504	4949.14
898.305	4347.73
902.105	3826.49
905.902	3211.43
909.698	2296.51
913.492	1778.8
917.285	1363.3
921.075	1022.04
924.864	718.227
928.65	616.901
932.435	520.287
936.218	466.53
940	364.756
943.779	421.153
947.557	469.336
951.333	442.718
955.107	507.902
958.879	466.983
962.65	386.987
966.418	323.229
970.185	380.323
973.95	546.253
977.714	708.171
981.475	876.062
985.235	936.983
988.993	1142.71
992.749	1368.04
996.503	1518.29
1000.26	1708.18
1004.01	1968.88
1007.75	2248.92
1011.5	2573.38
1015.25	2890.47
1018.99	3015.35
1022.73	2969.03
1026.47	2903.09
1030.21	2513.69
1033.95	2257.73
1037.68	2124.65
1041.41	2014.72
1045.15	1866.68
1048.88	1771.64
1052.6	1591.58
1056.33	1319.03
1060.05	985.498
1063.78	768.616
1067.5	510.234
1071.21	409.044
1074.93	274.222
1078.65	198.477
1082.36	108.719
1086.07	83.339
1089.78	127.143
1093.49	2.308
1097.2	14.891
1100.9	19.263
1104.6	4.144
1108.3	28.648
1112	13.646
1115.7	5.334
1119.4	72.102
1123.09	437.428
1126.78	193.948
1130.47	46.158
1134.16	53.749
1137.85	29.726
1141.54	30.808
1145.22	13.723
1148.9	8.207
1152.58	66.77
1156.26	63.553
1159.94	73.519
1163.61	60.348
1167.28	90.792
1170.95	42.64
1174.62	24.655
1178.29	9.273
1181.96	30.105
1185.62	5.146
1189.29	29.609
1192.95	20.457
1196.61	0.011
1200.26	8.719
1203.92	125.035
1207.57	120.262
1211.23	89.832
1214.88	101.062
1218.53	176.842
1222.17	217.244
1225.82	92.292
1229.46	177.947
1233.11	116.212
1236.74	183.075
1240.38	196.404
1244.02	169.476
1247.66	163.863
1251.29	215.973
1254.92	156.851
1258.55	224.133
1262.18	222.982
1265.81	230.496
1269.43	201.572
1273.06	177.171
1276.68	190.303
1280.3	128.037
1283.91	230.918
1287.53	188.531
1291.15	157.898
1294.76	207.058
1298.37	183.596
1301.98	153.222
1305.59	169.676
1309.19	92.02
1312.8	96.853
1316.4	49.845
1320	58.559
1323.6	68.708
1327.2	130.358
1330.8	99.132
1334.39	129.628
1337.98	159.854
1341.58	144.396
1345.16	179.605
1348.75	87.027
1352.34	134.338
1355.92	200.767
1359.51	139.343
1363.09	151.471
1366.67	772.225
1370.24	1012.14
1373.82	275.671
1377.39	140.604
1380.97	172.705
1384.54	185.175
1388.11	114.989
1391.68	156.617
1395.24	122.492
1398.81	187.288
1402.37	188.245
1405.93	199.222
1409.49	250.573
1413.05	136.322
1416.6	147.156
1420.16	150.674
1423.71	166.503
1427.26	175.448
1430.81	148.519
1434.36	175.374
1437.91	167.515
1441.45	178.646
1444.99	152.292
1448.54	205.92
1452.08	201.767
1455.61	161.29
1459.15	180.707
1462.68	130.961
1466.22	89.397
1469.75	69.304
1473.28	105.811
1476.81	69.855
1480.33	68.144
1483.86	52.58
1487.38	91.197
1490.9	92.125
1494.42	25.572
1497.94	76.712
1501.46	54.547
1504.97	22.813
1508.49	7.562
1512	34.515
1515.51	26.647
1519.02	92.517
1522.52	46.181
