Measurement: Raman, 514 nm, depolarized, Raman Data Processed
Mineral: Chloritoid
Rruff sample: R050334
Ideal chemistry: Fe^2+^Al_2_OSiO_4_(OH)_2_
Locality: Selçuk, Mugla Province, Turkey
Source: George Rossman
Description: Dark greenish-black foliated cleavage fragments
Measured chemistry: (Fe^2+^_1.84_Mg_0.12_Mn_0.04_)_Σ=2_(Al_3.95_Fe^3+^_0.05_)_Σ=4_Si_2.00_O_10_(OH)_4_ ; H not measured but estimated by difference and stoichiometry
Pin_id: M00341
Orientation: Laser parallel to b* (0 1 0). Fiducial mark perpendicular to laser is parallel to -c [0 0 -1]
Raman shift (cm-1)	intensity
89.777	0
94.714	14.8662
99.649	526.474
104.582	3522.98
109.512	4406.85
114.44	3904.76
119.365	1567.8
124.288	1264.38
129.209	738.641
134.127	632.384
139.043	684.334
143.956	733.348
148.867	1712.69
153.775	109.747
158.681	202.047
163.585	219.394
168.486	492.546
173.385	182.182
178.282	254.487
183.176	537.031
188.067	894.376
192.956	1703.83
197.843	2969.56
202.727	3316.7
207.609	3522
212.489	3618.51
217.366	2707.32
222.24	1917.69
227.112	1588.18
231.982	1523.37
236.849	2663.68
241.714	5523.45
246.577	8592.79
251.437	9031.73
256.294	5206.27
261.149	2013.78
266.002	1295.19
270.852	2647.19
275.7	4186.41
280.545	5258.62
285.388	3781.89
290.229	1884.27
295.067	1271.98
299.902	1048.54
304.735	1194.61
309.566	999.587
314.394	785.196
319.22	785.331
324.043	1670.26
328.864	2538.23
333.682	2886.93
338.498	1362.74
343.311	507.643
348.122	238.691
352.931	87.2441
357.737	158.647
362.54	20.4717
367.341	93.6377
372.14	44.0376
376.936	335.295
381.73	562.749
386.521	961.195
391.31	747.641
396.096	390.172
400.88	247.262
405.661	309.902
410.44	348.129
415.216	321.005
419.99	168.394
424.761	128.933
429.53	100.532
434.297	72.8599
439.061	42.5684
443.822	148.92
448.581	340.975
453.337	555.688
458.091	717.429
462.843	1007.17
467.592	1701.92
472.338	2327.64
477.082	2730.31
481.824	2787.92
486.563	3521.45
491.3	5263.93
496.034	6725.69
500.765	7073.57
505.494	6728.14
510.221	7136.61
514.945	6563.87
519.666	8011.19
524.385	12125.8
529.102	15514.3
533.816	13614
538.527	14392.1
543.236	30359.3
547.943	48181
552.647	51647.9
557.348	20011
562.047	6031.3
566.744	3235.73
571.438	2254.23
576.129	2520.49
580.818	5435.37
585.504	23165.8
590.188	37182.2
594.87	42984.1
599.549	13180.5
604.225	4102.47
608.899	2510.93
613.57	1234.91
618.239	780.78
622.905	570.362
627.569	450.827
632.23	339.776
636.889	216.197
641.545	150.148
646.198	58.75
650.849	15.7573
655.498	90.2056
660.144	293.772
664.787	466.848
669.428	620.684
674.067	105.897
678.703	119.253
683.336	17.667
687.967	50.0625
692.595	141.217
697.221	11.7363
701.844	150.509
706.465	289.675
711.083	598.314
715.698	1277.33
720.311	2034.23
724.922	3189.54
729.53	4222.36
734.135	4511.72
738.738	3981.63
743.338	2871.11
747.936	1765.17
752.531	985.828
757.124	495.108
761.714	269.028
766.302	102.606
770.887	22.0996
775.469	57.6289
780.049	33.3364
784.626	0.79834
789.201	105.243
793.773	105.901
798.343	69.4092
802.91	139.276
807.475	90.0044
812.037	267.529
816.596	394.764
821.153	767.519
825.707	1232.18
830.259	2151.84
834.808	2903.61
839.355	3611.67
843.899	4003
848.441	4480.61
852.98	5175.53
857.516	6646.79
862.05	8799.41
866.581	13403.4
871.11	20791.8
875.636	27421.7
880.159	25744
884.68	17864.9
889.199	10578.3
893.714	7082.17
898.228	6225.67
902.738	6117.75
907.246	4906.45
911.752	3144.05
916.255	1989.21
920.755	1060.65
925.253	412.506
929.748	106.017
934.241	107.493
938.731	135.508
943.218	31.4966
947.703	235.509
952.186	391.813
956.665	602.74
961.142	470.925
965.617	668.732
970.089	533.093
974.558	299.565
979.025	417.969
983.489	244.172
987.951	258.872
992.41	341.341
996.866	352.323
1001.32	382.193
1005.77	367.856
1010.22	280.334
1014.67	246.809
1019.11	204.238
1023.55	296.609
1027.99	308.769
1032.42	297.56
1036.86	302.966
1041.29	495.22
1045.72	276.231
1050.14	495.501
1054.56	570.493
1058.98	594.083
1063.4	662.638
1067.82	747.973
1072.23	917.705
1076.64	1205.73
1081.05	1349.52
1085.45	2031.86
1089.85	2334.91
1094.25	2028.16
1098.65	1273.01
1103.04	668.619
1107.43	522.366
1111.82	359.862
1116.21	587.166
1120.59	580.75
1124.97	417.542
1129.35	234.389
1133.73	199.247
1138.1	190.101
1142.47	71.6689
1146.84	105.522
1151.21	181.001
1155.57	223.504
1159.93	78.4473
1164.29	132.128
1168.64	155.105
1172.99	26.4136
1177.34	8.81543
1181.69	19.7495
1186.04	60.9766
1190.38	11.7583
1194.72	118.855
1199.05	39.0869
1203.39	73.543
1207.72	60.0435
1212.05	72.3203
1216.37	52.187
1220.7	71.7075
1225.02	23.9175
1229.34	128.362
1233.65	53.1167
1237.97	88.9126
1242.28	193.365
1246.59	173.015
1250.89	84.0464
1255.19	70.0708
1259.49	78.1294
1263.79	109.988
1268.09	4.18604
1272.38	144.052
1276.67	65.8213
1280.95	165.575
1285.24	40.1709
1289.52	234.418
1293.8	100.576
1298.08	165.443
1302.35	114.815
1306.62	164.626
1310.89	159.725
1315.15	200.105
1319.42	168.37
1323.68	142.962
1327.94	181.818
1332.19	65.7026
1336.44	157.533
1340.69	190.91
1344.94	115.602
1349.19	144.943
1353.43	153.085
1357.67	163.088
1361.9	12.7168
1366.14	180.446
1370.37	105.048
1374.6	148.35
1378.83	232.444
1383.05	104.608
1387.27	181.751
1391.49	229.475
1395.7	139.886
1399.92	168.669
1404.13	77.5718
1408.34	129.638
1412.54	109.315
1416.74	131.973
1420.94	210.175
1425.14	100.906
1429.34	198.161
1433.53	197.019
1437.72	150.453
1441.9	244.238
1446.09	109.885
1450.27	90.0669
1454.45	190.452
1458.63	159.064
1462.8	140.688
1466.97	181.086
1471.14	226.106
1475.31	239.071
1479.47	279.469
1483.63	142.84
1487.79	185.664
1491.94	60.5225
1496.09	121.126
1500.24	65.6348
1504.39	89.5781
1508.54	0.703125
1512.68	71.6255
1516.82	71.5439
1520.95	114.425
1525.09	31.2529
1529.22	44.7871
1533.35	39.0088
1537.47	110.644
1541.6	81.5132
1545.72	16.0523
1549.83	82.4795
1553.95	93.3872
1558.06	111.876
1562.17	4.68018
1566.28	150.204
1570.38	0
