Measurement: Raman, 514 nm, depolarized, Raman Data Processed
Mineral: Chloritoid
Rruff sample: R060292
Ideal chemistry: Fe^2+^Al_2_OSiO_4_(OH)_2_
Locality: Pech, Kunar Province, Afghanistan
Source: Herb Obodda
Description: Black tabular crystal
Measured chemistry: (Fe^2+^_1.55_Mg_0.43_Mn_0.02_)_Σ=2_(Al_3.93_Fe^3+^_0.07_)_Σ=4_Si_2.00_O_10_(OH)_4_
Pin_id: M00166
Orientation: Laser parallel to a* (1 0 0). Fiducial mark perpendicular to laser is parallel to b [0 1 0]
Raman shift (cm-1)	intensity
51.431	0
56.387	87.1911
61.341	80.527
66.292	171.041
71.241	162.879
76.187	197.446
81.131	775.452
86.072	673.23
91.012	1168.08
95.948	1209.46
100.883	2247
105.815	4750.91
110.744	3277.98
115.671	2603.74
120.596	1537.11
125.519	747.672
130.439	588.429
135.356	664.832
140.271	559.21
145.184	504.863
150.094	619.929
155.002	328.375
159.908	290.862
164.811	576.718
169.711	574.989
174.61	513.097
179.505	549.668
184.399	710.362
189.29	984.168
194.178	1300.06
199.064	1703.93
203.948	1110.19
208.829	1114.73
213.708	1067.96
218.585	1146.83
223.459	1051.77
228.33	1186.52
233.199	1726.89
238.066	2928.74
242.93	4558.94
247.792	5362.4
252.651	5701.95
257.508	4674.72
262.363	3163.48
267.215	4328.24
272.064	9226.95
276.912	12412.6
281.756	14131.1
286.598	10088.2
291.438	4658.33
296.276	2862.04
301.111	2364.51
305.943	2233.18
310.773	2301.56
315.601	2240.64
320.426	2609.39
325.248	3304.74
330.068	3050.67
334.886	2328.16
339.701	675.841
344.514	83.7942
349.324	149.973
354.132	34.6067
358.938	165.262
363.741	180.007
368.541	104.682
373.339	305.225
378.135	1468.46
382.928	1356.29
387.718	780.675
392.506	70.5972
397.292	190.131
402.075	288.383
406.856	1260.17
411.634	1426.44
416.41	1095.91
421.183	482.381
425.954	55.4424
430.722	51.208
435.488	214.15
440.251	14.0239
445.012	413.891
449.77	613.043
454.526	728.408
459.28	946.965
464.03	1650.69
468.779	2786.56
473.525	3567.56
478.268	3822.66
483.009	4014.84
487.747	6136.09
492.483	10141
497.217	12045
501.948	12338.4
506.676	9162.56
511.402	6425.87
516.125	4517.69
520.846	4466.07
525.565	5486.23
530.281	6654.22
534.994	7393.03
539.705	13204.8
544.413	38259.1
549.119	52066.6
553.822	58160.1
558.523	24099.3
563.222	7093.49
567.917	3659.74
572.611	2809.8
577.302	3519.32
581.99	9064.18
586.676	45626.5
591.359	53311.3
596.04	47815.5
600.718	14000.2
605.394	4146.36
610.067	2129.93
614.737	1279.91
619.406	825.303
624.071	538.092
628.734	489.744
633.395	253.953
638.053	183.361
642.708	92.1565
647.361	67.9138
652.012	74.3779
656.66	251.226
661.305	710.129
665.948	880.428
670.588	896.234
675.226	112.546
679.861	96.8386
684.494	59.9524
689.124	149.531
693.752	86.7961
698.377	36.1746
702.999	75.1062
707.619	275.805
712.237	537.311
716.852	1153.63
721.464	2143.99
726.074	3628.92
730.681	4590.33
735.286	4574.24
739.888	3597.66
744.488	2551.61
749.085	1516.11
753.68	863.187
758.272	468.856
762.861	234.141
767.448	126.065
772.033	84.6226
776.614	94.5061
781.194	43.0117
785.77	10.9753
790.345	22.677
794.916	123.69
799.485	244.756
804.052	382.486
808.616	562.016
813.177	663.622
817.736	1023.5
822.292	1472.32
826.846	2265.83
831.397	3592.68
835.945	5025.03
840.491	5848.5
845.035	6159.89
849.576	6591.6
854.114	7397.7
858.65	9180.2
863.183	12361.1
867.713	18416.5
872.241	27539.4
876.767	33411.8
881.29	29607.7
885.81	19006.1
890.328	11032.2
894.843	8064.86
899.356	8280.18
903.866	8394.16
908.373	6291.83
912.878	3944.23
917.38	2302.44
921.88	1240.88
926.377	543.976
930.872	241.29
935.364	63.394
939.853	102.27
944.34	142.484
948.824	52.98
953.306	343.711
957.785	729.221
962.261	1288.65
966.735	1470.09
971.207	1360.18
975.675	1053.82
980.141	921.595
984.605	875.375
989.066	738.868
993.524	716.901
997.98	593.645
1002.43	629.378
1006.88	502.086
1011.33	493.812
1015.78	376.572
1020.22	419.346
1024.66	496.151
1029.1	454.964
1033.53	510.761
1037.97	608.547
1042.4	702.415
1046.82	689.296
1051.25	763.167
1055.67	633.556
1060.09	738.941
1064.51	823.459
1068.92	885.916
1073.33	895.609
1077.74	1215.62
1082.15	1560.55
1086.55	2055.61
1090.95	1911.59
1095.35	1511.62
1099.75	1066.42
1104.14	698.521
1108.53	547.884
1112.92	473.675
1117.31	402.162
1121.69	490.844
1126.07	428.647
1130.45	300.615
1134.82	312.18
1139.19	242.656
1143.57	175.828
1147.93	155.009
1152.3	109.31
1156.66	155.561
1161.02	172.513
1165.38	208.592
1169.73	158.39
1174.08	65.0034
1178.43	27.28
1182.78	11.8728
1187.12	5.71533
1191.46	24.3555
1195.8	66.5115
1200.14	9.44141
1204.47	37.8013
1208.8	39.8093
1213.13	32.9941
1217.46	47.8618
1221.78	19.9861
1226.1	43.3101
1230.42	104.733
1234.73	5.02783
1239.04	34.4768
1243.35	7.13574
1247.66	63.6985
1251.97	72.2373
1256.27	72.4421
1260.57	52.6589
1264.86	92.3926
1269.16	112.797
1273.45	38.5964
1277.74	51.5957
1282.03	118.935
1286.31	5.12793
1290.59	68.6856
1294.87	126.903
1299.14	45.5542
1303.42	17.3572
1307.69	101.624
1311.95	97.2473
1316.22	97.446
1320.48	111.661
1324.74	64.657
1329	142.22
1333.26	131.477
1337.51	95.1118
1341.76	74.9356
1346	68.8313
1350.25	102.168
1354.49	145.762
1358.73	117.85
1362.96	76.6602
1367.2	38.4495
1371.43	108.029
1375.66	148.527
1379.88	150.01
1384.11	151.957
1388.33	148.453
1392.54	177.833
1396.76	158.197
1400.97	71.03
1405.18	171.122
1409.39	144.845
1413.59	138.411
1417.8	62.4341
1421.99	118.785
1426.19	96.4775
1430.38	76.2822
1434.58	131.351
1438.77	48.2505
1442.95	15.5408
1447.13	134.488
1451.32	59.8415
1455.49	96.4131
1459.67	90.3979
1463.84	61.5486
1468.01	28.5647
1472.18	19.7778
1476.35	2.56958
1480.51	74.8108
1484.67	9.93213
1488.83	87.2312
1492.98	23.6858
1497.13	53.5925
1501.28	23.2669
1505.43	72.7483
1509.57	59.9714
1513.71	110.951
1517.85	47.092
1521.99	51.5691
1526.12	33.9399
1530.25	12.0901
1534.38	6.28198
1538.5	23.6692
1542.62	20.8799
1546.74	112.809
1550.86	391.471
1554.98	140.142
1559.09	37.9434
1563.2	101.041
1567.31	100.996
