Measurement: Raman, 514 nm, depolarized, Raman Data Processed
Mineral: Chloritoid
Rruff sample: R050334
Ideal chemistry: Fe^2+^Al_2_OSiO_4_(OH)_2_
Locality: Selçuk, Mugla Province, Turkey
Source: George Rossman
Description: Dark greenish-black foliated cleavage fragments
Measured chemistry: (Fe^2+^_1.84_Mg_0.12_Mn_0.04_)_Σ=2_(Al_3.95_Fe^3+^_0.05_)_Σ=4_Si_2.00_O_10_(OH)_4_ ; H not measured but estimated by difference and stoichiometry
Pin_id: M01684
Orientation: Laser parallel to c* (0 0 1). Fiducial mark perpendicular to laser is parallel to a [1 0 0]
Raman shift (cm-1)	intensity
147.485	0
152.408	339.529
157.328	16.8359
162.246	140.859
167.16	211.062
172.073	254.079
176.982	300.752
181.888	277.148
186.792	359.508
191.694	753.57
196.592	766.931
201.488	945.446
206.381	673.821
211.271	631.521
216.159	470.776
221.044	533.835
225.926	244.273
230.806	150.538
235.683	85.5967
240.557	81.7139
245.429	260.402
250.298	609.467
255.164	641.242
260.027	1509.29
264.888	362.51
269.746	248.287
274.601	756.51
279.454	1881.2
284.304	1347.38
289.151	613.088
293.996	258.734
298.838	528.908
303.677	547.238
308.514	197.168
313.348	41.2637
318.179	7.74023
323.008	45.9404
327.834	289.838
332.657	908.708
337.478	239.331
342.295	175.064
347.111	109.039
351.923	60.7676
356.733	46.6123
361.54	12.6758
366.345	252.359
371.147	110.503
375.946	67.6416
380.743	384.364
385.537	374.791
390.328	298.187
395.116	877.393
399.902	877.539
404.686	861.203
409.466	1259.41
414.244	1330.34
419.019	854.466
423.792	753.415
428.562	641.735
433.329	491.457
438.094	268.488
442.856	286.767
447.616	310.308
452.372	521.122
457.126	506.653
461.878	731.267
466.627	690.435
471.373	956.556
476.116	1050.73
480.857	930.551
485.596	1245.17
490.331	1613.2
495.064	2754.27
499.795	2959.31
504.522	2321.85
509.247	1669.6
513.97	1267.86
518.69	1223.35
523.407	1267.79
528.121	1700.1
532.833	1549.63
537.543	793.006
542.249	779.068
546.953	1231.8
551.655	2240
556.354	1211.87
561.05	592.922
565.743	427.496
570.434	416.906
575.123	826.262
579.808	1248.45
584.491	3495.62
589.172	14325.8
593.85	46008.8
598.525	13820.9
603.197	3855.08
607.868	1788.3
612.535	972.445
617.2	380.494
621.862	430.65
626.522	376.022
631.178	304.725
635.833	128.363
640.485	172.111
645.134	130.168
649.78	250.482
654.424	117.885
659.066	68.3418
663.704	107.15
668.341	51.3047
672.974	109.373
677.605	37.1621
682.234	102.043
686.859	16.6875
691.483	97.6602
696.103	19.5625
700.721	54.3379
705.337	86.459
709.949	270.103
714.56	116.299
719.167	238.148
723.772	744.648
728.375	945.805
732.975	1107.62
737.572	1063.73
742.167	849.205
746.759	401.977
751.349	222.998
755.936	60.207
760.52	160.191
765.102	74.5957
769.681	49.9219
774.258	131.08
778.832	69.166
783.404	3.3125
787.973	8.39062
792.539	18.6582
797.103	118.043
801.665	203.305
806.223	312.342
810.779	187.111
815.333	163.127
819.884	60.7832
824.433	280.525
828.979	691.357
833.522	1170.56
838.063	1488.48
842.601	1551.15
847.137	1506.84
851.67	1314.42
856.2	1182.09
860.729	1365.73
865.254	1547.58
869.777	2323.92
874.297	3878.59
878.815	5268.26
883.33	4958
887.843	3057.88
892.353	2219.21
896.861	1666.17
901.366	1440.19
905.869	1294.66
910.369	997.231
914.866	1023.69
919.361	885.029
923.854	716.783
928.344	848.75
932.831	961.182
937.316	908.037
941.798	1009.14
946.278	1269.7
950.755	1173.6
955.23	1377.1
959.702	1093.13
964.171	758.832
968.638	703.861
973.103	686.527
977.565	560.6
982.025	121.064
986.482	505.85
990.936	343.943
995.388	85.3457
999.837	267.066
1004.28	296.113
1008.73	39.8711
1013.17	291.305
1017.61	134.629
1022.05	494.113
1026.48	229.182
1030.91	203.572
1035.34	183.369
1039.77	32.2578
1044.19	138.941
1048.62	69.6914
1053.03	77.3594
1057.45	141.463
1061.87	196.201
1066.28	84.9277
1070.69	62.791
1075.09	60.4316
1079.5	69.9824
1083.9	110.656
1088.3	233.547
1092.69	291.818
1097.09	152.955
1101.48	312.391
1105.87	321.002
1110.26	60.248
1114.64	307.166
1119.02	429.887
1123.4	312.652
1127.78	208.102
1132.15	203.334
1136.53	52.5078
1140.89	149.861
1145.26	149.481
1149.63	72.0039
1153.99	92.3535
1158.35	206.205
1162.7	151.662
1167.06	297.16
1171.41	186.555
1175.76	79.8984
1180.11	49.8047
1184.45	152.691
1188.79	133.023
1193.13	54.3008
1197.47	180.443
1201.81	249.539
1206.14	40.4883
1210.47	188.328
1214.79	114.91
1219.12	155.559
1223.44	124.539
1227.76	84.5801
1232.08	108.676
1236.39	35.75
1240.7	283.746
1245.02	115.654
1249.32	257.523
1253.63	41.3301
1257.93	18.0625
1262.23	25.8125
1266.53	260.935
1270.82	57.4609
1275.12	306.498
1279.41	209.773
1283.69	128.299
1287.98	268.356
1292.26	376.33
1296.54	440.246
1300.82	408.414
1305.1	409.15
1309.37	253.799
1313.64	410.414
1317.91	378.94
1322.17	507.106
1326.44	494.478
1330.7	514.117
1334.96	320.685
1339.21	475.846
1343.47	551.016
1347.72	260.008
1351.97	535.062
1356.21	459.793
1360.46	258.273
1364.7	339.168
1368.94	384.266
1373.17	372.033
1377.41	301.889
1381.64	470.019
1385.87	19.2715
1390.1	160.582
1394.32	155.734
1398.54	246.514
1402.76	243.824
1406.98	265.617
1411.19	128.268
1415.41	223.361
1419.62	112.152
1423.82	76.4531
1428.03	367.822
1432.23	258.898
1436.43	118.144
1440.63	59.9492
1444.82	131.881
1449.02	167.162
1453.21	315.459
1457.4	438.951
1461.58	301.637
1465.77	363.033
1469.95	166.416
1474.12	220.912
1478.3	238.961
1482.47	50.3477
1486.64	136.641
1490.81	42.8379
1494.98	278.213
1499.14	136.906
1503.31	20.6055
1507.47	33.8555
1511.62	74.7441
1515.78	116.123
1519.93	390.178
1524.08	20.7344
1528.23	171.199
1532.37	364.826
1536.51	83.8242
1540.65	116.096
1544.79	253.389
1548.93	201.881
1553.06	441.223
1557.19	165.648
1561.32	0.875
