Measurement: Raman, 514 nm, depolarized, Raman Data Processed
Mineral: Chloritoid
Rruff sample: R050334
Ideal chemistry: Fe^2+^Al_2_OSiO_4_(OH)_2_
Locality: Selçuk, Mugla Province, Turkey
Source: George Rossman
Description: Dark greenish-black foliated cleavage fragments
Measured chemistry: (Fe^2+^_1.84_Mg_0.12_Mn_0.04_)_Σ=2_(Al_3.95_Fe^3+^_0.05_)_Σ=4_Si_2.00_O_10_(OH)_4_ ; H not measured but estimated by difference and stoichiometry
Pin_id: M01491
Orientation: Laser parallel to (1 0 1). Fiducial mark perpendicular to laser is parallel to b [0 1 0]
Raman shift (cm-1)	intensity
172.073	0
176.982	61.5488
181.888	79.0606
186.792	373.729
191.694	624.346
196.592	1063.06
201.488	1663.85
206.381	989.876
211.271	794.837
216.159	619.791
221.044	467.221
225.926	268.862
230.806	42.3047
235.683	2.40137
240.557	326.522
245.429	1157.28
250.298	2211.53
255.164	2326.08
260.027	2587.26
264.888	1522.19
269.746	1405.48
274.601	2549.91
279.454	3627.58
284.304	3821.58
289.151	2008.43
293.996	1016.16
298.838	829.822
303.677	883.46
308.514	481.078
313.348	104.658
318.179	77.9639
323.008	147.373
327.834	474.81
332.657	968.203
337.478	862.631
342.295	71.165
347.111	4.7041
351.923	251.116
356.733	94.2607
361.54	355.866
366.345	641.545
371.147	523.559
375.946	478.39
380.743	951.785
385.537	1506.38
390.328	1804.68
395.116	1567.62
399.902	1769.4
404.686	2168.1
409.466	2203.08
414.244	2324.87
419.019	3956.26
423.792	1423.38
428.562	1199.2
433.329	954.616
438.094	695.591
442.856	735.105
447.616	948.138
452.372	1159.67
457.126	1388.68
461.878	1424.19
466.627	1671.03
471.373	1856.06
476.116	2258.38
480.857	2365.01
485.596	2742.97
490.331	6135.31
495.064	6575.06
499.795	8103.85
504.522	6672.95
509.247	5600.83
513.97	4953.03
518.69	2836.44
523.407	2594.56
528.121	2705.11
532.833	2964.49
537.543	2102.04
542.249	2898.82
546.953	5285.42
551.655	7714.49
556.354	6133.09
561.05	2079.02
565.743	1106.88
570.434	877.955
575.123	1369.84
579.808	2818.5
584.491	10769
589.172	31084.3
593.85	48159.5
598.525	33828.4
603.197	7300.09
607.868	2733.95
612.535	1649.64
617.2	867.023
621.862	544.219
626.522	548.738
631.178	140.486
635.833	26.5137
640.485	84.0293
645.134	125.1
649.78	55.4082
654.424	118.932
659.066	246.279
663.704	140.873
668.341	201.252
672.974	38.5293
677.605	17.8066
682.234	129.141
686.859	144.807
691.483	67.7305
696.103	95.7363
700.721	32.6484
705.337	257.875
709.949	276.232
714.56	447.853
719.167	833.76
723.772	1560.96
728.375	2202.44
732.975	2520.22
737.572	2535.3
742.167	1930.67
746.759	1107.34
751.349	440.318
755.936	158.606
760.52	115.188
765.102	10.9727
769.681	15.2676
774.258	47.0332
778.832	88.8965
783.404	274.654
787.973	177.728
792.539	1094.48
797.103	608.416
801.665	17.2578
806.223	201.156
810.779	221.65
815.333	244.941
819.884	463.375
824.433	805.949
828.979	1507.69
833.522	2468.17
838.063	3283.64
842.601	3527.24
847.137	3036.45
851.67	2784.64
856.2	2436.84
860.729	2744.98
865.254	3628.08
869.777	5577.15
874.297	8843.25
878.815	11229.4
883.33	10230.7
887.843	7208.13
892.353	4898.44
896.861	4234.07
901.366	3789.97
905.869	3275.49
910.369	2949.83
914.866	2543.1
919.361	2133.49
923.854	1543.11
928.344	1135.74
932.831	1278.54
937.316	1262.84
941.798	1223.82
946.278	1449.4
950.755	1862.73
955.23	1710.9
959.702	1724.44
964.171	1515.12
968.638	1235.94
973.103	945.996
977.565	716.469
982.025	627.529
986.482	347.117
990.936	551.234
995.388	550.877
999.837	448.053
1004.28	322.762
1008.73	399.641
1013.17	472.053
1017.61	271.764
1022.05	303.693
1026.48	247.406
1030.91	47.1387
1035.34	188.309
1039.77	20.498
1044.19	17.9824
1048.62	222.967
1053.03	173.15
1057.45	274.002
1061.87	199.584
1066.28	388.728
1070.69	178.488
1075.09	376.815
1079.5	342.123
1083.9	494.1
1088.3	496.002
1092.69	859.582
1097.09	606.881
1101.48	249.842
1105.87	419.728
1110.26	125.492
1114.64	280.928
1119.02	963.49
1123.4	395.166
1127.78	254.947
1132.15	201.818
1136.53	5.76953
1140.89	149.748
1145.26	57.3086
1149.63	84.5566
1153.99	123.367
1158.35	9.88867
1162.7	196.43
1167.06	231.529
1171.41	63.5
1175.76	44.8555
1180.11	102.467
1184.45	2.92188
1188.79	93.8906
1193.13	64.3809
1197.47	155.234
1201.81	98.2031
1206.14	158.94
1210.47	109.467
1214.79	62.7539
1219.12	180.666
1223.44	106.398
1227.76	118.731
1232.08	369.779
1236.39	99.6309
1240.7	99.2773
1245.02	207.779
1249.32	294.963
1253.63	104.113
1257.93	111.141
1262.23	198.043
1266.53	588.354
1270.82	350.144
1275.12	384.818
1279.41	408.893
1283.69	325.658
1287.98	365.291
1292.26	509.522
1296.54	441.053
1300.82	503.025
1305.1	517.801
1309.37	735.553
1313.64	938.894
1317.91	688.924
1322.17	793.326
1326.44	715.639
1330.7	961.561
1334.96	716.381
1339.21	702.488
1343.47	548.131
1347.72	529.338
1351.97	727.252
1356.21	641.252
1360.46	299.764
1364.7	395.25
1368.94	308.504
1373.17	385.981
1377.41	645.277
1381.64	404.025
1385.87	257.904
1390.1	335.9
1394.32	360.66
1398.54	433.514
1402.76	240.418
1406.98	460.143
1411.19	455.328
1415.41	197.658
1419.62	277.291
1423.82	60.6895
1428.03	353.955
1432.23	354.424
1436.43	281.246
1440.63	424.359
1444.82	350.648
1449.02	506.078
1453.21	304.709
1457.4	341.676
1461.58	204.912
1465.77	221.432
1469.95	68.1719
1474.12	233.703
1478.3	233.988
1482.47	245.541
1486.64	239.24
1490.81	280.26
1494.98	169.74
1499.14	161.809
1503.31	98.9844
1507.47	17.416
1511.62	74.3906
1515.78	87.3301
1519.93	185.035
1524.08	141.025
1528.23	206.481
1532.37	109.717
1536.51	172.467
1540.65	13.2637
1544.79	170.783
1548.93	21.8711
1553.06	13.5742
1557.19	29.8242
1561.32	136.102
