Measurement: Raman, 514 nm, depolarized, Raman Data Processed
Mineral: Chloritoid
Rruff sample: R060292
Ideal chemistry: Fe^2+^Al_2_OSiO_4_(OH)_2_
Locality: Pech, Kunar Province, Afghanistan
Source: Herb Obodda
Description: Black tabular crystal
Measured chemistry: (Fe^2+^_1.55_Mg_0.43_Mn_0.02_)_Σ=2_(Al_3.93_Fe^3+^_0.07_)_Σ=4_Si_2.00_O_10_(OH)_4_
Pin_id: M00356
Orientation: Laser parallel to b* (0 1 0). Fiducial mark perpendicular to laser is parallel to -c [0 0 -1]
Raman shift (cm-1)	intensity
89.777	0
94.714	59.4707
99.649	204.282
104.582	2191.17
109.512	1209.43
114.44	1819.08
119.365	834.829
124.288	346.862
129.209	228.095
134.127	197.902
139.043	120.078
143.956	47.1196
148.867	248.632
153.775	26.4443
158.681	18.3105
163.585	156.762
168.486	455.386
173.385	375.759
178.282	295.89
183.176	402.697
188.067	631.135
192.956	876.133
197.843	1278.56
202.727	1015.32
207.609	1053.97
212.489	1205.52
217.366	1337.98
222.24	1207.48
227.112	1231.79
231.982	1722.1
236.849	2482.3
241.714	4056.91
246.577	5428.81
251.437	9494.76
256.294	6091.3
261.149	1692.42
266.002	1355.04
270.852	2184.8
275.7	2942.87
280.545	3935.89
285.388	4680.13
290.229	2422.86
295.067	1493.22
299.902	1025.11
304.735	1103.67
309.566	1257.92
314.394	1442.22
319.22	1797.46
324.043	2464.65
328.864	2757.78
333.682	3974.87
338.498	2005.92
343.311	675.944
348.122	518.954
352.931	35.9546
357.737	6.88574
362.54	129.481
367.341	25.2822
372.14	24.6543
376.936	24.9106
381.73	104.608
386.521	272.062
391.31	324.534
396.096	514.014
400.88	602.543
405.661	213.191
410.44	161.006
415.216	310.04
419.99	175.178
424.761	140.37
429.53	129.612
434.297	111.92
439.061	29.6582
443.822	72.7773
448.581	68.4463
453.337	182.256
458.091	318.111
462.843	484.187
467.592	941.962
472.338	1262.95
477.082	1833
481.824	2130.09
486.563	2376.22
491.3	3297.72
496.034	3850.59
500.765	4715.18
505.494	3179.8
510.221	2901.05
514.945	3428.35
519.666	5343.67
524.385	8235.18
529.102	13183.8
533.816	13080.5
538.527	9998.18
543.236	16887.1
547.943	27122.1
552.647	51640.2
557.348	34864.3
562.047	8996.34
566.744	3875.4
571.438	2315.48
576.129	2066.57
580.818	3607.62
585.504	14374.1
590.188	20221.2
594.87	42647.3
599.549	21990.4
604.225	4797.51
608.899	2388.56
613.57	1246.59
618.239	814.589
622.905	554.562
627.569	353.499
632.23	236.894
636.889	130.524
641.545	38.3047
646.198	51.6504
650.849	5.05176
655.498	1.56445
660.144	131.242
664.787	116.591
669.428	428.5
674.067	303.449
678.703	35.9853
683.336	13.7393
687.967	93.0752
692.595	30.4502
697.221	169.3
701.844	224.925
706.465	254.381
711.083	599.668
715.698	1224.79
720.311	2081.75
724.922	3307.57
729.53	4720.25
734.135	5237.77
738.738	4707.14
743.338	3451.37
747.936	2226.45
752.531	1117.41
757.124	695.231
761.714	435.931
766.302	98.5166
770.887	0.263672
775.469	49.9268
780.049	5.68848
784.626	100.385
789.201	51.7822
793.773	55.874
798.343	61.6065
802.91	24.6934
807.475	0.220703
812.037	127.837
816.596	102.293
821.153	296.874
825.707	472.938
830.259	869.088
834.808	1174.12
839.355	1830.48
843.899	2202.97
848.441	3033.6
852.98	4066.33
857.516	5332.34
862.05	7174.48
866.581	10390.8
871.11	15716.4
875.636	22475.2
880.159	25388.2
884.68	19349.5
889.199	10926.1
893.714	5922.02
898.228	3481.22
902.738	2366.75
907.246	1777.64
911.752	1212.29
916.255	965.398
920.755	501.779
925.253	544.197
929.748	165.46
934.241	198.638
938.731	126.399
943.218	52.8477
947.703	87.749
952.186	171.263
956.665	381.415
961.142	567.394
965.617	688.23
970.089	544.913
974.558	573.428
979.025	364.587
983.489	486.508
987.951	503.098
992.41	325.34
996.866	308.236
1001.32	345.815
1005.77	379.07
1010.22	289.068
1014.67	321.78
1019.11	227.159
1023.55	254.231
1027.99	450.01
1032.42	259.458
1036.86	404.58
1041.29	368.519
1045.72	408.329
1050.14	475.718
1054.56	492.442
1058.98	494.06
1063.4	741.356
1067.82	755.487
1072.23	786.779
1076.64	984.801
1081.05	1233.48
1085.45	1625.74
1089.85	1943.81
1094.25	1686.3
1098.65	1067.63
1103.04	918.665
1107.43	514.414
1111.82	418.055
1116.21	325.201
1120.59	254.459
1124.97	340.35
1129.35	317.431
1133.73	84.9102
1138.1	281.442
1142.47	315.751
1146.84	122.294
1151.21	106.766
1155.57	150.239
1159.93	153.972
1164.29	61.7324
1168.64	125.697
1172.99	53.5557
1177.34	157.241
1181.69	86.4922
1186.04	121.222
1190.38	69.6856
1194.72	15.5947
1199.05	18.7354
1203.39	65.1191
1207.72	45.8213
1212.05	133.178
1216.37	109.517
1220.7	7.30762
1225.02	38.5117
1229.34	126.471
1233.65	88.8076
1237.97	10.5254
1242.28	14.5801
1246.59	39.6084
1250.89	28.7266
1255.19	203.648
1259.49	5.11231
1263.79	179.43
1268.09	18.7363
1272.38	102.56
1276.67	78.6162
1280.95	29.1514
1285.24	94.3613
1289.52	199.242
1293.8	84.9072
1298.08	69.1807
1302.35	146.917
1306.62	111.606
1310.89	186.951
1315.15	154.966
1319.42	251.32
1323.68	198.238
1327.94	154.256
1332.19	48.1934
1336.44	141.055
1340.69	45.5283
1344.94	91.7607
1349.19	252.308
1353.43	122.057
1357.67	147.56
1361.9	108.209
1366.14	19.0635
1370.37	210.906
1374.6	108.33
1378.83	119.243
1383.05	34.0879
1387.27	95.832
1391.49	190.181
1395.7	146.586
1399.92	227.459
1404.13	113.163
1408.34	74.3086
1412.54	40.2988
1416.74	145.134
1420.94	171.312
1425.14	85.9619
1429.34	134.459
1433.53	28.8906
1437.72	236.375
1441.9	116.384
1446.09	36.4375
1450.27	105.841
1454.45	77.4268
1458.63	147.356
1462.8	189.531
1466.97	173.197
1471.14	78.0283
1475.31	184.122
1479.47	79.1973
1483.63	240.032
1487.79	16.4395
1491.94	75.9268
1496.09	277.052
1500.24	350.667
1504.39	184.408
1508.54	134.736
1512.68	118.632
1516.82	114.641
1520.95	160.014
1525.09	104.009
1529.22	196.692
1533.35	114.522
1537.47	216.564
1541.6	140.34
1545.72	17.4004
1549.83	391.08
1553.95	288.279
1558.06	173.581
1562.17	273.366
1566.28	3.07227
1570.38	0
