Measurement: Raman, 514 nm, depolarized, Raman Data Processed
Mineral: Chloritoid
Rruff sample: R050334
Ideal chemistry: Fe^2+^Al_2_OSiO_4_(OH)_2_
Locality: Selçuk, Mugla Province, Turkey
Source: George Rossman
Description: Dark greenish-black foliated cleavage fragments
Measured chemistry: (Fe^2+^_1.84_Mg_0.12_Mn_0.04_)_Σ=2_(Al_3.95_Fe^3+^_0.05_)_Σ=4_Si_2.00_O_10_(OH)_4_ ; H not measured but estimated by difference and stoichiometry
Pin_id: M00213
Orientation: Laser parallel to a* (1 0 0). Fiducial mark perpendicular to laser is parallel to -b [0 -1 0]
Raman shift (cm-1)	intensity
89.777	0
94.714	8.03027
99.649	965.051
104.582	4877.43
109.512	5861.24
114.44	1823.29
119.365	647.23
124.288	275.445
129.209	259.446
134.127	199.521
139.043	135.155
143.956	45.3406
148.867	131.347
153.775	82.7725
158.681	38.3499
163.585	225.741
168.486	290.05
173.385	115.978
178.282	149.144
183.176	421.172
188.067	719.703
192.956	1444.63
197.843	2563.6
202.727	2733.55
207.609	2479.78
212.489	2333.32
217.366	1662.54
222.24	1314.5
227.112	1160.92
231.982	1417.16
236.849	3180.86
241.714	6685.81
246.577	7013.89
251.437	5862.78
256.294	3185.98
261.149	1340.5
266.002	1175.49
270.852	2483.7
275.7	3877.41
280.545	3564.52
285.388	2390.61
290.229	1188.88
295.067	842.489
299.902	907.854
304.735	905.928
309.566	785.471
314.394	687.505
319.22	1030.19
324.043	2116.59
328.864	2115.37
333.682	1541.39
338.498	705.682
343.311	129.251
348.122	167.903
352.931	245.253
357.737	132.935
362.54	14.2788
367.341	174.982
372.14	309.275
376.936	953.52
381.73	1537.14
386.521	1433.96
391.31	1156.97
396.096	1122.25
400.88	1197.97
405.661	1489.21
410.44	1374.1
415.216	1056.51
419.99	763.441
424.761	512.783
429.53	363.47
434.297	236.579
439.061	249.064
443.822	559.907
448.581	593.537
453.337	588.641
458.091	733.007
462.843	990.633
467.592	1596.51
472.338	2055.62
477.082	2034.96
481.824	2308.52
486.563	3307.29
491.3	4740.15
496.034	5439.08
500.765	6290.61
505.494	7111.57
510.221	5895.76
514.945	5143.56
519.666	7988.44
524.385	11195.2
529.102	10899.8
533.816	9599.13
538.527	13139.8
543.236	32105.4
547.943	38103.3
552.647	27987.8
557.348	10712.9
562.047	3912.02
566.744	2247.21
571.438	1912.32
576.129	2658.34
580.818	7071.26
585.504	33378.1
590.188	41221.7
594.87	22801.2
599.549	6966.56
604.225	2479.7
608.899	1277.65
613.57	716.382
618.239	374.478
622.905	189.16
627.569	93.2485
632.23	64.0791
636.889	18.5947
641.545	122.007
646.198	17.1567
650.849	0.158203
655.498	96.4795
660.144	189.557
664.787	194.446
669.428	162.905
674.067	82.9009
678.703	7.73291
683.336	44.2764
687.967	38.956
692.595	1.271
697.221	17.5923
701.844	168.183
706.465	288.306
711.083	531.981
715.698	986.209
720.311	1661.99
724.922	2467.34
729.53	2840.25
734.135	2792.72
738.738	2259.77
743.338	1498.4
747.936	905.616
752.531	514.423
757.124	178.832
761.714	69.8486
766.302	46.48
770.887	42.8467
775.469	91.9853
780.049	4.59961
784.626	58.2695
789.201	33.794
793.773	7.4585
798.343	94.6338
802.91	80.6255
807.475	190.741
812.037	268.699
816.596	536.25
821.153	672.337
825.707	1272.58
830.259	1837.88
834.808	2420.02
839.355	3006.37
843.899	3256.39
848.441	3845.44
852.98	4492.54
857.516	5769.7
862.05	8057.96
866.581	12453.3
871.11	18902.8
875.636	22362.4
880.159	19155.2
884.68	12884.2
889.199	8248.38
893.714	6625.78
898.228	7080.42
902.738	6472.22
907.246	4587.94
911.752	2719.26
916.255	1710.37
920.755	1037.53
925.253	607.64
929.748	503.056
934.241	288.768
938.731	237.616
943.218	299.082
947.703	470.002
952.186	533.975
956.665	707.611
961.142	692.185
965.617	736.582
970.089	546.767
974.558	371.618
979.025	308.067
983.489	252.075
987.951	313.681
992.41	238.886
996.866	276.7
1001.32	340.133
1005.77	192.139
1010.22	338.783
1014.67	150.036
1019.11	118.885
1023.55	148.321
1027.99	196.332
1032.42	129.921
1036.86	132.246
1041.29	164.028
1045.72	276.107
1050.14	163.925
1054.56	382.502
1058.98	360.038
1063.4	436.364
1067.82	526.758
1072.23	577.476
1076.64	860.515
1081.05	1221.49
1085.45	1619.1
1089.85	1668.99
1094.25	1430.71
1098.65	776.25
1103.04	400.947
1107.43	339.381
1111.82	273.642
1116.21	306.19
1120.59	249.591
1124.97	296.731
1129.35	153.567
1133.73	26.1143
1138.1	60.6128
1142.47	39.082
1146.84	75.5132
1151.21	21.1426
1155.57	34.6065
1159.93	55.2022
1164.29	81.8525
1168.64	7.68457
1172.99	44.604
1177.34	29.5669
1181.69	28.6084
1186.04	102.973
1190.38	21.7373
1194.72	1.24365
1199.05	21.0493
1203.39	6.28076
1207.72	20.3921
1212.05	45.7144
1216.37	8.0918
1220.7	47.9258
1225.02	21.665
1229.34	61.8403
1233.65	72.8779
1237.97	139.976
1242.28	124.704
1246.59	10.7695
1250.89	18.5244
1255.19	18.6055
1259.49	76.5835
1263.79	215.317
1268.09	5.24756
1272.38	125.85
1276.67	51.5947
1280.95	194.714
1285.24	203.141
1289.52	155.981
1293.8	151.496
1298.08	235.282
1302.35	293.177
1306.62	210.458
1310.89	301.513
1315.15	312.885
1319.42	138.216
1323.68	202.486
1327.94	139.849
1332.19	220.767
1336.44	232.522
1340.69	229.715
1344.94	259.35
1349.19	231.327
1353.43	106.719
1357.67	207.03
1361.9	29.0029
1366.14	54.248
1370.37	117.836
1374.6	122.197
1378.83	104.356
1383.05	130.504
1387.27	69.1479
1391.49	61.6016
1395.7	95.5435
1399.92	63.7075
1404.13	14.0386
1408.34	71.3872
1412.54	60.3682
1416.74	117.767
1420.94	78.645
1425.14	116.199
1429.34	71.999
1433.53	53.8154
1437.72	12.4473
1441.9	57.3442
1446.09	70.625
1450.27	104.876
1454.45	79.4688
1458.63	5.81689
1462.8	71.9531
1466.97	143.632
1471.14	74.188
1475.31	186.635
1479.47	45.4214
1483.63	102.341
1487.79	70.8071
1491.94	115.856
1496.09	68.8081
1500.24	74.0176
1504.39	136.814
1508.54	90.3623
1512.68	25.9321
1516.82	44.0962
1520.95	74.916
1525.09	117.393
1529.22	127.044
1533.35	143.602
1537.47	166.228
1541.6	44.7886
1545.72	118.19
1549.83	370.74
1553.95	345.06
1558.06	19.7666
1562.17	29.665
1566.28	179.612
1570.38	0
