Measurement: Raman, 514 nm, depolarized, Raman Data Processed
Mineral: Chloritoid
Rruff sample: R060292
Ideal chemistry: Fe^2+^Al_2_OSiO_4_(OH)_2_
Locality: Pech, Kunar Province, Afghanistan
Source: Herb Obodda
Description: Black tabular crystal
Measured chemistry: (Fe^2+^_1.55_Mg_0.43_Mn_0.02_)_Σ=2_(Al_3.93_Fe^3+^_0.07_)_Σ=4_Si_2.00_O_10_(OH)_4_
Pin_id: M00313
Orientation: Laser parallel to (1 0 1). Fiducial mark perpendicular to laser is parallel to b [0 1 0]
Raman shift (cm-1)	intensity
51.431	0
56.387	25.9398
61.341	34.3418
66.292	59.3298
71.241	17.1008
76.187	110.242
81.131	575.887
86.072	375.189
91.012	784.002
95.948	799.289
100.883	1123.22
105.815	2939.24
110.744	3727.81
115.671	2143.95
120.596	1040.64
125.519	683.581
130.439	639.571
135.356	576.385
140.271	396.142
145.184	432.735
150.094	507.263
155.002	301.775
159.908	452.289
164.811	610.807
169.711	643.325
174.61	610.726
179.505	542.777
184.399	477.669
189.29	532.28
194.178	722.594
199.064	980.774
203.948	630.028
208.829	733
213.708	795.83
218.585	779.532
223.459	730.817
228.33	845.336
233.199	1058.96
238.066	1901.48
242.93	3782.12
247.792	6402.51
252.651	3881.69
257.508	2910.62
262.363	1515.27
267.215	1578.58
272.064	2618.05
276.912	5010.11
281.756	5222.27
286.598	2717.21
291.438	1446.11
296.276	875.237
301.111	724.912
305.943	742.71
310.773	714.964
315.601	752.658
320.426	1120.77
325.248	1992.25
330.068	3075.08
334.886	1429.24
339.701	915.72
344.514	858.528
349.324	73.0796
354.132	106.489
358.938	80.8706
363.741	131.967
368.541	67.4541
373.339	59.5845
378.135	321.216
382.928	955.23
387.718	830.608
392.506	783.339
397.292	699.562
402.075	171.352
406.856	212.726
411.634	438.545
416.41	204.704
421.183	161.119
425.954	189.775
430.722	13.3557
435.488	64.5669
440.251	154.506
445.012	35.7566
449.77	265.002
454.526	275.411
459.28	279.972
464.03	422.673
468.779	841.506
473.525	1282.46
478.268	1387.52
483.009	1314.47
487.747	1797.95
492.483	3565.29
497.217	5955.29
501.948	4763.36
506.676	5130.27
511.402	4826.19
516.125	3493.82
520.846	4872.6
525.565	8408.09
530.281	7993.57
534.994	5093.34
539.705	5233.51
544.413	11777.1
549.119	25604
553.822	19202.2
558.523	6099.56
563.222	2130.34
567.917	1283.97
572.611	1166.06
577.302	1659.96
581.99	3882.55
586.676	16278.3
591.359	55739.2
596.04	31597.8
600.718	7888.4
605.394	3213.78
610.067	1757.01
614.737	954.062
619.406	516.945
624.071	328.648
628.734	214.293
633.395	96.5015
638.053	79.8418
642.708	52.7478
647.361	64.5063
652.012	17.6431
656.66	82.0584
661.305	217.266
665.948	444.989
670.588	185.739
675.226	54.8032
679.861	19.0381
684.494	6.93335
689.124	14.1623
693.752	67.846
698.377	135.199
702.999	317.313
707.619	537.191
712.237	1022.86
716.852	1652.52
721.464	2935.51
726.074	4854.66
730.681	6671.66
735.286	6660.46
739.888	5475.06
744.488	3747.49
749.085	2130.73
753.68	1198.8
758.272	757.642
762.861	446.465
767.448	254.073
772.033	53.5442
776.614	6.74854
781.194	45.3567
785.77	0.955811
790.345	51.1804
794.916	73.8564
799.485	52.2659
804.052	21.2956
808.616	54.2871
813.177	190.518
817.736	268.03
822.292	412.423
826.846	745.407
831.397	1358.02
835.945	2132.34
840.491	2702.79
845.035	2822.94
849.576	3023.12
854.114	3251.03
858.65	3975.11
863.183	5363.36
867.713	8121.8
872.241	12751.4
876.767	17614.3
881.29	16544.3
885.81	10701.7
890.328	6659.23
894.843	4840.09
899.356	4763.16
903.866	5373.53
908.373	4369.2
912.878	2766.63
917.38	1949.15
921.88	1227.7
926.377	761.735
930.872	614.983
935.364	588.688
939.853	546.981
944.34	663.447
948.824	674.438
953.306	901.197
957.785	953.743
962.261	951.018
966.735	836.956
971.207	683.389
975.675	331.848
980.141	206.747
984.605	129.617
989.066	23.9407
993.524	90.7214
997.98	79.9526
1002.43	40.6638
1006.88	61.8313
1011.33	48.46
1015.78	18.5508
1020.22	15.1057
1024.66	7.87329
1029.1	38.8381
1033.53	108.207
1037.97	90.1948
1042.4	126.403
1046.82	94.6614
1051.25	155.516
1055.67	119.027
1060.09	146.812
1064.51	207.004
1068.92	257.618
1073.33	271.48
1077.74	396.996
1082.15	619.034
1086.55	849.934
1090.95	907.359
1095.35	660.38
1099.75	510.205
1104.14	252.57
1108.53	189.335
1112.92	153.53
1117.31	174.347
1121.69	61.2722
1126.07	222.166
1130.45	130.363
1134.82	18.5476
1139.19	19.8972
1143.57	55.3147
1147.93	44.7334
1152.3	23.1763
1156.66	35.844
1161.02	26.7678
1165.38	63.8357
1169.73	47.7534
1174.08	4.70654
1178.43	20.752
1182.78	12.5874
1187.12	12.8372
1191.46	12.9978
1195.8	13.9324
1200.14	2.52832
1204.47	1.58423
1208.8	5.20093
1213.13	2.91284
1217.46	75.0366
1221.78	38.2388
1226.1	21.8557
1230.42	16.7476
1234.73	14.2856
1239.04	27.5647
1243.35	88.9224
1247.66	76.2751
1251.97	31.3245
1256.27	60.9839
1260.57	7.45142
1264.86	121.669
1269.16	19.7622
1273.45	84.9036
1277.74	81.0154
1282.03	11.4251
1286.31	82.27
1290.59	62.9949
1294.87	30.8208
1299.14	62.3904
1303.42	54.0972
1307.69	90.8481
1311.95	26.6787
1316.22	34.335
1320.48	95.4941
1324.74	132.761
1329	98.5811
1333.26	102.629
1337.51	86.1936
1341.76	49.9175
1346	80.8665
1350.25	107.741
1354.49	52.0825
1358.73	63.489
1362.96	69.4119
1367.2	37.4827
1371.43	32.9104
1375.66	49.7656
1379.88	126.46
1384.11	100.355
1388.33	80.6809
1392.54	73.2876
1396.76	53.6519
1400.97	38.8191
1405.18	59.3904
1409.39	55.0298
1413.59	63.9946
1417.8	96.8464
1421.99	44.4265
1426.19	42.4116
1430.38	83.7559
1434.58	68.6489
1438.77	86.9763
1442.95	56.8748
1447.13	40.5793
1451.32	56.3757
1455.49	67.2161
1459.67	36.0388
1463.84	14.574
1468.01	101.929
1472.18	95.6282
1476.35	90.239
1480.51	51.919
1484.67	51.6121
1488.83	135.976
1492.98	83.5215
1497.13	18.0781
1501.28	88.7432
1505.43	43.4895
1509.57	23.335
1513.71	96.3037
1517.85	31.0913
1521.99	16.0237
1526.12	72.971
1530.25	98.9829
1534.38	19.7673
1538.5	51.2205
1542.62	85.2061
1546.74	168.084
1550.86	167.576
1554.98	92.1699
1559.09	58.8855
1563.2	76.6716
1567.31	35.2119
