Measurement: Raman, 514 nm, depolarized, Raman Data Processed
Mineral: Chloritoid
Rruff sample: R060292
Ideal chemistry: Fe^2+^Al_2_OSiO_4_(OH)_2_
Locality: Pech, Kunar Province, Afghanistan
Source: Herb Obodda
Description: Black tabular crystal
Measured chemistry: (Fe^2+^_1.55_Mg_0.43_Mn_0.02_)_Σ=2_(Al_3.93_Fe^3+^_0.07_)_Σ=4_Si_2.00_O_10_(OH)_4_
Pin_id: M00413
Orientation: Laser parallel to c* (0 0 1). Fiducial mark perpendicular to laser is parallel to a [1 0 0]
Raman shift (cm-1)	intensity
89.777	0
94.714	17.7275
99.649	6.71631
104.582	959.134
109.512	547.414
114.44	692.518
119.365	171.075
124.288	82.1323
129.209	106.466
134.127	18.0491
139.043	71.4211
143.956	20.6567
148.867	182.809
153.775	14.9346
158.681	47.4109
163.585	200.14
168.486	284.524
173.385	235.981
178.282	222.517
183.176	189.117
188.067	314.765
192.956	448.397
197.843	522.077
202.727	258.848
207.609	203.72
212.489	207.705
217.366	171.811
222.24	46.0476
227.112	31.5281
231.982	35.3586
236.849	27.9497
241.714	110.12
246.577	415.947
251.437	367.908
256.294	571.572
261.149	486.964
266.002	465.914
270.852	486.894
275.7	1091.97
280.545	1863.65
285.388	971.935
290.229	433.205
295.067	304.888
299.902	284.534
304.735	330.513
309.566	184.12
314.394	172.712
319.22	123.432
324.043	364.282
328.864	1215.26
333.682	784.371
338.498	344.343
343.311	577.993
348.122	77.5068
352.931	138.881
357.737	66.6235
362.54	229.249
367.341	220.985
372.14	11.5584
376.936	32.0891
381.73	181.385
386.521	186.512
391.31	250.826
396.096	559.462
400.88	386.39
405.661	355.566
410.44	876.03
415.216	893.674
419.99	390.503
424.761	341.479
429.53	67.6006
434.297	103.877
439.061	50.3223
443.822	62.8994
448.581	54.6201
453.337	166.471
458.091	119.716
462.843	227.561
467.592	378.795
472.338	564.151
477.082	594.625
481.824	561.217
486.563	530.941
491.3	941.772
496.034	1847
500.765	1447.74
505.494	1073.7
510.221	790.911
514.945	512.27
519.666	541.681
524.385	984.307
529.102	1132.2
533.816	695.091
538.527	369.341
543.236	517.945
547.943	1329.69
552.647	2129.01
557.348	782.704
562.047	484.28
566.744	498.774
571.438	641.224
576.129	926.662
580.818	1779.08
585.504	5594.48
590.188	26454.9
594.87	39853.2
599.549	8006.51
604.225	2764.78
608.899	1392
613.57	778.178
618.239	442.302
622.905	328.481
627.569	262.488
632.23	144.43
636.889	158.829
641.545	21.5149
646.198	37.9089
650.849	80.4927
655.498	36.5588
660.144	49.2957
664.787	42.8875
669.428	8.78076
674.067	12.5808
678.703	8.56323
683.336	34.3279
687.967	27.7268
692.595	31.7769
697.221	27.6379
701.844	47.3206
706.465	70.8213
711.083	85.3284
715.698	268.658
720.311	404.874
724.922	822.978
729.53	1211.97
734.135	1475.86
738.738	1259.64
743.338	860.319
747.936	496.906
752.531	325.397
757.124	105.798
761.714	106.1
766.302	41.2954
770.887	53.4092
775.469	62.4321
780.049	42.7007
784.626	36.5361
789.201	1.10254
793.773	8.69092
798.343	11.7896
802.91	68.7305
807.475	131.302
812.037	128.268
816.596	204.443
821.153	295.679
825.707	430.162
830.259	852.263
834.808	1321.96
839.355	1888.99
843.899	2020.05
848.441	1639.22
852.98	1290.47
857.516	1327.81
862.05	1342.09
866.581	1825.76
871.11	3005.4
875.636	4805.07
880.159	5968
884.68	4604.46
889.199	2801.57
893.714	1763.38
898.228	1323.2
902.738	1133.36
907.246	980.564
911.752	730.057
916.255	696.674
920.755	669.992
925.253	636.105
929.748	594.274
934.241	626.466
938.731	712.327
943.218	891.268
947.703	1001.56
952.186	1099.25
956.665	1029.29
961.142	1036.7
965.617	759.429
970.089	579.423
974.558	461.724
979.025	136.298
983.489	106.121
987.951	93.2007
992.41	94.5264
996.866	17.083
1001.32	99.5601
1005.77	73.5527
1010.22	47.4287
1014.67	28.7051
1019.11	32.8833
1023.55	54.3037
1027.99	59.2583
1032.42	28.7622
1036.86	71.5566
1041.29	7.98828
1045.72	97.0581
1050.14	22.5132
1054.56	42.123
1058.98	83.5562
1063.4	81.8062
1067.82	73.3394
1072.23	59.9673
1076.64	11.6982
1081.05	149.669
1085.45	165.394
1089.85	205.125
1094.25	204.529
1098.65	119.196
1103.04	143.551
1107.43	102.952
1111.82	245.659
1116.21	169.748
1120.59	96.2793
1124.97	204.483
1129.35	108.808
1133.73	124.902
1138.1	6.36475
1142.47	143.901
1146.84	89.4775
1151.21	120.177
1155.57	18.1221
1159.93	73.6816
1164.29	22.459
1168.64	16.9497
1172.99	28.6074
1177.34	48.1831
1181.69	83.792
1186.04	22.3052
1190.38	41.2183
1194.72	14.3184
1199.05	33.0068
1203.39	19.915
1207.72	93.5674
1212.05	35.5698
1216.37	34.6167
1220.7	56.5322
1225.02	63.3696
1229.34	2.22656
1233.65	85.5107
1237.97	26.8999
1242.28	109.712
1246.59	100.066
1250.89	61.3389
1255.19	36.5352
1259.49	103.161
1263.79	119.224
1268.09	115.218
1272.38	56.1426
1276.67	79.9966
1280.95	132.798
1285.24	31.1606
1289.52	15.9834
1293.8	120.203
1298.08	139.674
1302.35	132.42
1306.62	47.6348
1310.89	68.6352
1315.15	157.039
1319.42	72.0576
1323.68	37.6265
1327.94	47.6118
1332.19	111.304
1336.44	116.019
1340.69	82.6006
1344.94	70.7026
1349.19	57.6865
1353.43	49.3052
1357.67	26.2495
1361.9	54.085
1366.14	13.8994
1370.37	192.79
1374.6	28.6977
1378.83	121.192
1383.05	12.8062
1387.27	105.718
1391.49	90.4775
1395.7	73.2002
1399.92	66.8789
1404.13	79.9556
1408.34	2.47998
1412.54	113.937
1416.74	87.3623
1420.94	73.8467
1425.14	112.473
1429.34	118.675
1433.53	93.3062
1437.72	105.752
1441.9	171.5
1446.09	88.7998
1450.27	87.144
1454.45	64.8574
1458.63	92.6265
1462.8	109.442
1466.97	110.188
1471.14	112.777
1475.31	0.370605
1479.47	104.444
1483.63	50.1387
1487.79	116.803
1491.94	100.383
1496.09	46.9888
1500.24	60.7124
1504.39	92.4155
1508.54	81.3315
1512.68	126.35
1516.82	92.4155
1520.95	93.9683
1525.09	92.3936
1529.22	119.349
1533.35	68.1084
1537.47	160.062
1541.6	56.3213
1545.72	179.442
1549.83	148.984
1553.95	106.643
1558.06	116.18
1562.17	129.931
1566.28	18.9121
1570.38	0
