Measurement: Raman, 514 nm, depolarized, Raman Data Processed
Mineral: Chondrodite
Rruff sample: R040016
Ideal chemistry: Mg_5_(SiO_4_)_2_F_2_
Locality: Vastmanland, Kafveltorp, Sweden
Source: University of Arizona Mineral Museum
Description: Deep red single crystals embedded in matrix
Measured chemistry: (Mg_4.61_Fe_0.31_Mn_0.07_Ca_0.01_)_Σ=5_(Si_1.00_O_4_)_2_(F_1.16_(OH)_0.84_)_Σ=2_
Pin_id: M00425
Orientation: Laser parallel to [1 0 1]. Fiducial mark perpendicular to laser is parallel to -b* (0 -1 0)
Raman shift (cm-1)	intensity
77.891	0
82.092	1.511
86.291	41.386
90.487	118.583
94.682	73.954
98.874	109.86
103.064	169.473
107.252	106.195
111.437	155.417
115.62	224.643
119.801	92.292
123.98	434.809
128.157	185.413
132.331	98.117
136.503	1.462
140.673	84.256
144.841	60.258
149.007	10.165
153.17	78.838
157.331	103.631
161.49	164.395
165.647	91.669
169.801	146.094
173.953	99.244
178.104	158.665
182.251	410.157
186.397	583.958
190.541	269.695
194.682	167.003
198.821	146.888
202.958	158.248
207.093	136.027
211.225	127.893
215.356	132.513
219.484	15.212
223.61	35.893
227.734	9.166
231.855	56.884
235.975	28.049
240.092	48.375
244.207	15.496
248.32	22.624
252.431	40.35
256.539	47.63
260.646	94.845
264.75	131.999
268.852	52.081
272.952	169.259
277.05	385.219
281.146	590.543
285.239	489.808
289.33	403.043
293.419	296.885
297.506	206.107
301.591	308.853
305.674	291.607
309.755	180.628
313.833	117.706
317.909	90.537
321.983	165.925
326.055	212.612
330.125	170.526
334.193	186.161
338.258	315.328
342.322	288.687
346.383	200.104
350.442	221.863
354.499	264.971
358.554	270.678
362.607	184.74
366.658	195.145
370.706	253.51
374.753	202.72
378.797	75.057
382.839	70.374
386.879	299.972
390.917	399.779
394.953	236.108
398.987	151.524
403.018	182.464
407.048	268.443
411.075	227.374
415.1	304.321
419.124	396.355
423.145	433.134
427.164	230.399
431.18	184.797
435.195	279.42
439.208	276.844
443.219	138.82
447.227	79.516
451.233	181.855
455.238	282.067
459.24	189.609
463.24	187.649
467.238	229.489
471.234	372.45
475.228	306.628
479.22	203.953
483.21	251.612
487.197	162.58
491.183	186.576
495.166	25.096
499.148	38.943
503.127	68.083
507.104	162.416
511.08	43.601
515.053	16.838
519.024	64.709
522.993	140.268
526.96	100.992
530.925	23.452
534.888	15.966
538.848	79.851
542.807	163.373
546.764	89.742
550.718	122.466
554.671	242.667
558.622	276.903
562.57	252.807
566.516	146.786
570.461	217.037
574.403	460.771
578.344	696.674
582.282	928.233
586.218	901.98
590.152	901.396
594.084	949.617
598.014	1076.86
601.943	1250.73
605.869	1890.39
609.793	2784.03
613.715	2981.86
617.635	2038.37
621.553	1103.06
625.468	726.678
629.382	623.243
633.294	430.768
637.204	239.248
641.112	94.685
645.018	73.835
648.922	195.142
652.823	145.768
656.723	42.535
660.621	39.861
664.517	28.362
668.411	46.457
672.302	91.019
676.192	9.133
680.08	74.384
683.966	6.905
687.849	48.122
691.731	58.118
695.611	1.795
699.489	74.555
703.364	51.502
707.238	86.852
711.11	94.119
714.98	18.749
718.848	56.722
722.713	20.844
726.577	43.012
730.439	139.84
734.299	116.642
738.157	4.564
742.013	88.218
745.867	256.014
749.719	348.812
753.569	248.625
757.417	121.466
761.263	172.382
765.107	327.371
768.949	434.395
772.789	303.444
776.627	213.508
780.463	243.604
784.298	430.729
788.13	575.918
791.96	557.13
795.789	490.374
799.615	437.622
803.439	563.896
807.262	794.14
811.083	925.128
814.901	920.305
818.718	956.904
822.532	1251.55
826.345	1877.59
830.156	2875.44
833.965	4059.19
837.772	5973.1
841.577	10568.5
845.38	21915.2
849.181	36449.9
852.98	29512.6
856.777	15706.5
860.573	8518.39
864.366	5314.6
868.157	4665.35
871.947	5160.71
875.734	4727.3
879.52	3074.93
883.304	1758.03
887.086	1245.47
890.865	1100.56
894.643	912.465
898.419	866.044
902.194	566.253
905.966	467.842
909.736	373.969
913.504	537.899
917.271	627.1
921.035	644.444
924.798	607.796
928.559	851.245
932.317	1442.71
936.074	2201.59
939.829	2398.32
943.582	3194.23
947.334	2204.17
951.083	1180.19
954.83	957.409
958.576	1099.14
962.319	1599.25
966.061	2668.51
969.801	4708.06
973.539	4836.59
977.275	2466.41
981.009	1335.35
984.741	905.073
988.472	758.419
992.2	529.978
995.927	286.538
999.651	165.887
1003.37	157.587
1007.1	223.628
1010.81	261.877
1014.53	262.356
1018.25	140.13
1021.96	29.814
1025.67	6.525
1029.38	47.662
1033.09	164.668
1036.8	218.514
1040.5	214.892
1044.2	102.828
1047.9	14.931
1051.6	35.982
1055.3	17.905
1058.99	124.976
1062.68	207.924
1066.38	165.666
1070.07	82.5
1073.75	11.213
1077.44	36.053
1081.12	83.672
1084.8	251.568
1088.48	335.538
1092.16	155.538
1095.84	166.244
1099.51	47.819
1103.18	3.229
1106.86	41.33
1110.52	168.147
1114.19	231.526
1117.86	201.091
1121.52	141.784
1125.18	59.052
1128.84	1.477
1132.5	73.037
1136.15	152.775
1139.81	288.617
1143.46	261.114
1147.11	245.203
1150.76	107.946
1154.41	46.481
1158.05	41.386
1161.7	47.195
1165.34	215.874
1168.98	316.677
1172.61	223.12
1176.25	138.601
1179.88	92.76
1183.52	4.375
1187.15	57.262
1190.78	32.167
1194.4	216.831
1198.03	247.533
1201.65	367.721
1205.27	179.33
1208.89	97.128
1212.51	69.124
1216.13	102.89
1219.74	129.237
1223.35	451.123
1226.96	452.817
1230.57	440.59
1234.18	370.025
1237.78	205.433
1241.39	72.358
1244.99	145.348
1248.59	155.767
1252.19	336.266
1255.78	320.823
1259.38	355.642
1262.97	345.884
1266.56	208.972
1270.15	82.713
1273.74	56.567
1277.32	81.846
1280.91	152.335
1284.49	185.154
1288.07	291.172
1291.65	299.29
1295.22	281.104
1298.8	113.371
1302.37	14.168
1305.94	26.257
1309.51	14.877
1313.08	111.386
1316.65	256.61
1320.21	290.213
1323.77	384.811
1327.34	252.956
1330.89	173.228
1334.45	68.194
1338.01	171.45
1341.56	13.445
1345.11	43.439
1348.66	154.021
1352.21	208.505
1355.76	379.005
1359.3	404.887
1362.85	338.429
1366.39	151.63
1369.93	70.508
1373.46	43.444
1377	30.331
1380.54	125.101
1384.07	209.034
1387.6	333.337
1391.13	450.601
1394.65	423.53
1398.18	403.026
1401.7	256.462
1405.23	162.168
1408.75	124.324
1412.27	29.556
1415.78	107.595
1419.3	136.304
1422.81	271.199
1426.32	387.988
1429.83	401.242
1433.34	421.315
1436.85	365.564
1440.35	305.233
1443.86	253.647
1447.36	196.629
1450.86	117.295
1454.36	216.795
1457.85	188.167
1461.35	331.765
1464.84	431.319
1468.33	580.056
1471.82	571.001
1475.31	446.875
1478.8	358.053
1482.28	189.529
1485.76	137.938
1489.24	89.106
1492.72	64.708
1496.2	3.168
1499.67	160.686
1503.15	255.381
1506.62	402.572
1510.09	331.875
