Measurement: Raman, 514 nm, depolarized, Raman Data Processed
Mineral: Chondrodite
Rruff sample: R040016
Ideal chemistry: Mg_5_(SiO_4_)_2_F_2_
Locality: Vastmanland, Kafveltorp, Sweden
Source: University of Arizona Mineral Museum
Description: Deep red single crystals embedded in matrix
Measured chemistry: (Mg_4.61_Fe_0.31_Mn_0.07_Ca_0.01_)_Σ=5_(Si_1.00_O_4_)_2_(F_1.16_(OH)_0.84_)_Σ=2_
Pin_id: M00385
Orientation: Laser parallel to -c [0 0 -1]. Fiducial mark perpendicular to laser is parallel to b* (0 1 0)
Raman shift (cm-1)	intensity
101.667	0
105.856	212.925
110.042	103.496
114.226	483.812
118.408	353.033
122.588	263.571
126.765	445.37
130.94	390.056
135.113	149.808
139.284	61.419
143.452	178.029
147.618	221.472
151.782	25.295
155.944	139.63
160.104	226.71
164.261	128.687
168.417	31.789
172.57	113.496
176.72	230.714
180.869	98.356
185.015	299.44
189.16	345.713
193.302	168.661
197.442	92.042
201.579	224.932
205.715	374.093
209.848	268.767
213.979	106.939
218.108	146.918
222.235	224.226
226.359	1.099
230.482	56.929
234.602	255.748
238.72	99.354
242.836	20.377
246.949	110.091
251.061	206.873
255.17	50.297
259.277	38.119
263.382	15.109
267.485	12.41
271.586	28.61
275.684	133.595
279.781	582.53
283.875	699.13
287.967	260.547
292.057	175.995
296.144	301.488
300.23	232.255
304.313	56.544
308.395	166.953
312.474	284.559
316.551	305.562
320.625	348.238
324.698	303.146
328.769	364.011
332.837	356.824
336.903	335.726
340.968	589.113
345.03	506.711
349.089	346.835
353.147	141.236
357.203	339.374
361.256	449.054
365.308	285.12
369.357	149.861
373.404	189.541
377.449	212.056
381.492	236.678
385.533	214.347
389.571	318.034
393.608	476.797
397.642	295.789
401.675	146.896
405.705	250.601
409.733	461.684
413.759	357.161
417.783	392.021
421.804	371.307
425.824	425.671
429.842	331.179
433.857	124.533
437.871	167
441.882	506.042
445.891	345.744
449.898	105.807
453.903	118.08
457.906	189.787
461.907	266.719
465.906	95.328
469.902	5.569
473.897	125.517
477.889	236.25
481.88	152.951
485.868	22.64
489.854	30.565
493.839	199.334
497.821	213.933
501.801	4.518
505.779	26.332
509.755	132.094
513.729	223.396
517.7	26.025
521.67	56.48
525.638	210.423
529.603	288.847
533.567	226.066
537.528	105.983
541.488	261.615
545.445	678.052
549.4	1032.1
553.354	1200.99
557.305	900.513
561.254	683.384
565.201	656.385
569.146	572.474
573.089	466.912
577.03	546.755
580.969	823.297
584.906	884.602
588.841	569.98
592.774	589.168
596.705	871.4
600.633	1403.62
604.56	1927.64
608.485	2290.99
612.408	2584.28
616.328	2296.49
620.247	1837.63
624.163	1092.73
628.078	865.284
631.991	981.098
635.901	873.464
639.81	692.236
643.716	377.224
647.621	269.439
651.523	403.851
655.424	558.215
659.322	511.537
663.218	232.045
667.113	1.145
671.005	114.987
674.896	222.963
678.784	268.536
682.671	55.225
686.555	94.822
690.437	29.85
694.318	91.801
698.196	55.313
702.073	120.597
705.947	110.111
709.82	43.943
713.69	90.831
717.558	139.419
721.425	20.418
725.289	19.421
729.152	100.151
733.013	306.826
736.871	433.446
740.728	290.039
744.582	36.601
748.435	223.121
752.286	659.614
756.134	756.09
759.981	612.539
763.826	428.982
767.668	415.427
771.509	521.92
775.348	658.432
779.185	574.964
783.02	471.517
786.853	218.094
790.684	444.693
794.513	811.32
798.34	847.989
802.165	654.736
805.988	521.559
809.809	628.474
813.628	1015.47
817.446	1502.53
821.261	1377.41
825.074	1554.44
828.886	2110.58
832.695	3436.73
836.503	5497.67
840.309	9366.95
844.112	16595.9
847.914	28451.4
851.714	29078
855.512	17995.9
859.308	10655.5
863.102	6459.56
866.894	4068.07
870.684	3053.86
874.472	2728.76
878.258	2532.71
882.043	1912.56
885.825	1382.44
889.606	833.838
893.384	484.874
897.161	805.44
900.936	996.339
904.709	838.563
908.479	449.88
912.248	341.404
916.016	354.55
919.781	379.653
923.544	681.794
927.305	774.113
931.065	986.62
934.822	1329.34
938.578	942.254
942.332	925.354
946.083	1108.64
949.833	772.104
953.581	595.755
957.328	340.812
961.072	544.827
964.814	1271.6
968.555	3065.97
972.293	4920.51
976.03	3055.25
979.765	1340.16
983.497	650.217
987.228	315.638
990.958	371.274
994.685	507.228
998.41	437.703
1002.13	405.426
1005.86	522.433
1009.58	138.152
1013.29	36.892
1017.01	340.685
1020.72	436.524
1024.43	580.453
1028.14	330.884
1031.85	109.634
1035.56	108.156
1039.27	280.182
1042.97	478.861
1046.67	338.056
1050.37	321.2
1054.07	10.151
1057.76	11.186
1061.45	38.421
1065.15	230.569
1068.84	443.909
1072.52	592.932
1076.21	442.062
1079.89	152.199
1083.58	84.529
1087.26	373.959
1090.94	443.441
1094.61	443
1098.29	672.645
1101.96	482.289
1105.63	51.994
1109.3	38.491
1112.97	50.794
1116.63	209.878
1120.3	368.767
1123.96	507.474
1127.62	406.082
1131.28	364.615
1134.94	42.768
1138.59	40.848
1142.24	31.005
1145.89	136.745
1149.55	364.563
1153.19	453.281
1156.84	281.006
1160.48	197.297
1164.12	96.155
1167.76	59.709
1171.4	86.541
1175.04	462.632
1178.67	478.523
1182.31	524.314
1185.94	331.345
1189.57	156.177
1193.19	188.378
1196.82	127.23
1200.44	211.468
1204.07	476.404
1207.69	640.165
1211.3	594.706
1214.92	246.864
1218.54	186.76
1222.15	46.559
1225.76	6.292
1229.37	565.976
1232.98	664.188
1236.58	850.645
1240.19	940.035
1243.79	643.136
1247.39	622.049
1250.99	366.521
1254.59	354.356
1258.18	378.671
1261.77	583.615
1265.37	1000.82
1268.95	936.872
1272.54	1026.15
1276.13	914.685
1279.71	387.873
1283.3	104.104
1286.88	157.838
1290.46	47.325
1294.03	590.74
1297.61	619.506
1301.18	566.957
1304.75	413.245
1308.32	950.711
1311.89	359.177
1315.46	178.341
1319.02	348.879
1322.59	449.574
1326.15	660.175
1329.71	532.153
1333.27	562.521
1336.82	516.649
1340.38	462.089
1343.93	251.41
1347.48	45.818
1351.03	42.723
1354.58	1.438
