Measurement: Raman, 514 nm, depolarized, Raman Data Processed
Mineral: Chondrodite
Rruff sample: R040016
Ideal chemistry: Mg_5_(SiO_4_)_2_F_2_
Locality: Vastmanland, Kafveltorp, Sweden
Source: University of Arizona Mineral Museum
Description: Deep red single crystals embedded in matrix
Measured chemistry: (Mg_4.61_Fe_0.31_Mn_0.07_Ca_0.01_)_Σ=5_(Si_1.00_O_4_)_2_(F_1.16_(OH)_0.84_)_Σ=2_
Pin_id: M00256
Orientation: Laser parallel to -b* (0 -1 0). Fiducial mark perpendicular to laser is parallel to c [0 0 1]
Raman shift (cm-1)	intensity
82.092	0
86.291	7.137
90.487	0.737
94.682	46.038
98.874	48.931
103.064	28.61
107.252	22.65
111.437	50.339
115.62	230.33
119.801	149.575
123.98	102.815
128.157	26.907
132.331	0.517
136.503	25.247
140.673	40.291
144.841	36.737
149.007	42.822
153.17	92.212
157.331	101.689
161.49	108.16
165.647	99.53
169.801	120.486
173.953	169.57
178.104	298.827
182.251	543.194
186.397	605.643
190.541	257.123
194.682	144.546
198.821	102.988
202.958	92.454
207.093	54.93
211.225	45.422
215.356	2.05
219.484	13.429
223.61	22.714
227.734	30.991
231.855	9.207
235.975	1.64
240.092	2.978
244.207	29.465
248.32	40.282
252.431	62.818
256.539	154.587
260.646	178.498
264.75	148.174
268.852	165.676
272.952	263.869
277.05	515.863
281.146	843.729
285.239	670.59
289.33	383.376
293.419	243.763
297.506	317.327
301.591	356.609
305.674	195.841
309.755	117.99
313.833	121.355
317.909	144.628
321.983	202.703
326.055	171.76
330.125	147.897
334.193	191.079
338.258	212.458
342.322	153.053
346.383	77.825
350.442	60.708
354.499	25.744
358.554	23.917
362.607	30.198
366.658	121.573
370.706	217.994
374.753	273.362
378.797	237.129
382.839	482.558
386.879	897.343
390.917	1134.97
394.953	803.826
398.987	459.433
403.018	313.345
407.048	307.309
411.075	359.629
415.1	489.267
419.124	465.93
423.145	357.566
427.164	214.176
431.18	160.76
435.195	145.321
439.208	137.86
443.219	19.379
447.227	23.875
451.233	62.349
455.238	103.802
459.24	99.248
463.24	124.694
467.238	78.123
471.234	126.531
475.228	100.925
479.22	20.481
483.21	85.463
487.197	66.302
491.183	97.198
495.166	86.327
499.148	100.828
503.127	205.765
507.104	206.997
511.08	201.68
515.053	164.817
519.024	178.071
522.993	180.083
526.96	197.506
530.925	299.44
534.888	387.497
538.848	460.216
542.807	584.139
546.764	840.449
550.718	1133.11
554.671	1192.43
558.622	744.676
562.57	459.824
566.516	351.882
570.461	456.843
574.403	583.703
578.344	865.459
582.282	1332.11
586.218	1445.66
590.152	1151.11
594.084	687.457
598.014	460.702
601.943	334.845
605.869	404.888
609.793	585.832
613.715	629.677
617.635	428.424
621.553	330.073
625.468	213.624
629.382	232.079
633.294	126.437
637.204	25.696
641.112	26.156
645.018	32.21
648.922	14.444
652.823	23.137
656.723	79.057
660.621	55.454
664.517	21.466
668.411	9.804
672.302	17.525
676.192	36.156
680.08	57.027
683.966	0.136
687.849	27.559
691.731	52.106
695.611	18.447
699.489	12.119
703.364	70.109
707.238	105.257
711.11	90.339
714.98	130.155
718.848	157.364
722.713	222.334
726.577	303.278
730.439	387.196
734.299	443.102
738.157	511.985
742.013	664.854
745.867	783.704
749.719	920.565
753.569	1143.43
757.417	1332.31
761.263	1481.23
765.107	1556.17
768.949	1441.13
772.789	1083.1
776.627	895.082
780.463	825.079
784.298	937.105
788.13	1043.14
791.96	1060.66
795.789	1023.5
799.615	991.78
803.439	1050.14
807.262	1054.4
811.083	1081.96
814.901	1181.11
818.718	1436.7
822.532	1800.51
826.345	2403.45
830.156	3459.72
833.965	5060.17
837.772	8194.13
841.577	15281.9
845.38	30303.3
849.181	42623
852.98	31784.5
856.777	17636.3
860.573	10408.7
864.366	7205.6
868.157	6519.72
871.947	6679.68
875.734	5665.16
879.52	3612.49
883.304	2177.67
887.086	1581.73
890.865	1206.77
894.643	955.199
898.419	742.772
902.194	586.412
905.966	501.003
909.736	455.68
913.504	518.694
917.271	545.407
921.035	493.035
924.798	420.698
928.559	622.507
932.317	847.517
936.074	1540.62
939.829	3653.87
943.582	6182.13
947.334	4003.7
951.083	2204.47
954.83	1576.11
958.576	1589.49
962.319	2091.61
966.061	3494.94
969.801	6106.11
973.539	5589.61
977.275	2784.21
981.009	1384.04
984.741	797.327
988.472	526.148
992.2	310.787
995.927	209.255
999.651	119.103
1003.37	126.818
1007.1	168.393
1010.81	116.51
1014.53	128.39
1018.25	35.074
1021.96	67.584
1025.67	12.203
1029.38	61.256
1033.09	95.614
1036.8	87.153
1040.5	54.88
1044.2	18.575
1047.9	71.326
1051.6	11.872
1055.3	55.952
1058.99	96.994
1062.68	70.207
1066.38	45.191
1070.07	8.14
1073.75	16.227
1077.44	10.613
1081.12	42.463
1084.8	115.596
1088.48	78.768
1092.16	72.925
1095.84	7.081
1099.51	28.75
1103.18	1.383
1106.86	22.512
1110.52	73.634
1114.19	80.73
1117.86	71.802
1121.52	19.815
1125.18	78.784
1128.84	22.811
1132.5	35.725
1136.15	126.798
1139.81	117.616
1143.46	108.365
1147.11	19.178
1150.76	6.158
1154.41	98.856
1158.05	328.028
1161.7	21.657
1165.34	74.503
1168.98	72.002
1172.61	37.291
1176.25	13.897
1179.88	18.94
1183.52	1.421
1187.15	60.74
1190.78	68.864
1194.4	117.156
1198.03	86.197
1201.65	95.517
1205.27	84.237
1208.89	62.922
1212.51	89.562
1216.13	107.992
1219.74	179.089
1223.35	218.976
1226.96	214.479
1230.57	218.028
1234.18	194.863
1237.78	145.866
1241.39	163.539
1244.99	141.51
1248.59	240.586
1252.19	293.072
1255.78	256.732
1259.38	209.229
1262.97	216.441
1266.56	142.85
1270.15	97.517
1273.74	132.613
1277.32	166.845
1280.91	203.228
1284.49	212.12
1288.07	257.465
1291.65	199.801
1295.22	138.048
1298.8	61.267
1302.37	95.263
1305.94	78.254
1309.51	69.178
1313.08	158.431
1316.65	149.591
1320.21	194.92
1323.77	126.21
1327.34	26.086
1330.89	5.237
1334.45	18.416
1338.01	38.562
1341.56	72.85
1345.11	80.72
1348.66	109.124
1352.21	141.211
1355.76	119.428
1359.3	133.545
1362.85	100.279
1366.39	35.817
1369.93	46.245
1373.46	27.151
1377	43.873
1380.54	105.932
1384.07	103.829
1387.6	120.528
1391.13	151.053
1394.65	166.306
1398.18	143.175
1401.7	20.073
1405.23	46.545
1408.75	19.749
1412.27	2.749
1415.78	2.875
1419.3	160.49
1422.81	106.375
1426.32	177.324
1429.83	151.293
1433.34	168.682
1436.85	103.517
1440.35	64.815
1443.86	0.627
1447.36	14.614
1450.86	75.12
1454.36	81.312
1457.85	134.052
1461.35	144.822
1464.84	215.735
1468.33	215.995
1471.82	183.638
1475.31	141.336
1478.8	39.36
1482.28	16.775
1485.76	40.263
1489.24	11.534
1492.72	34.288
1496.2	63.682
1499.67	107.459
1503.15	181.281
1506.62	141.982
1510.09	191.42
1513.56	0
