Measurement: Raman, 514 nm, depolarized, Raman Data Processed
Mineral: Chondrodite
Rruff sample: R040016
Ideal chemistry: Mg_5_(SiO_4_)_2_F_2_
Locality: Vastmanland, Kafveltorp, Sweden
Source: University of Arizona Mineral Museum
Description: Deep red single crystals embedded in matrix
Measured chemistry: (Mg_4.61_Fe_0.31_Mn_0.07_Ca_0.01_)_Σ=5_(Si_1.00_O_4_)_2_(F_1.16_(OH)_0.84_)_Σ=2_
Pin_id: M00452
Orientation: Laser parallel to -a [-1 0 0]. Fiducial mark perpendicular to laser is parallel to b* (0 1 0)
Raman shift (cm-1)	intensity
112.832	0
117.014	348.737
121.195	502.039
125.373	222.901
129.549	392.404
133.722	242.794
137.894	172.011
142.063	35.127
146.23	15.288
150.395	58.391
154.557	56.136
158.718	22.35
162.876	29.825
167.032	74.356
171.186	20.743
175.337	67.186
179.486	220.576
183.634	325.446
187.779	299.603
191.921	273.462
196.062	196.901
200.2	95.552
204.336	219.017
208.47	252.28
212.602	234.259
216.732	25.112
220.859	187.29
224.985	121.548
229.108	192.606
233.229	110.461
237.347	375.682
241.464	326.578
245.578	181.439
249.691	102.171
253.801	341.382
257.908	240.438
262.014	183.626
266.118	33.79
270.219	32.826
274.318	92.729
278.415	423.712
282.51	565.767
286.603	529.303
290.694	291.722
294.782	113.834
298.868	302.489
302.952	233.097
307.034	101.229
311.114	2.549
315.192	173.488
319.267	137.266
323.341	152.829
327.412	212.1
331.481	270.506
335.548	260.04
339.613	303.375
343.676	179.39
347.736	455.727
351.795	408.565
355.851	323.285
359.905	235.752
363.957	305.561
368.007	305.189
372.055	199.781
376.101	232.808
380.145	239.382
384.186	237.826
388.225	276.164
392.263	344.237
396.298	453.317
400.331	432.672
404.362	321.957
408.39	311.284
412.417	400.436
416.442	439.926
420.464	238.817
424.485	330.155
428.503	247.156
432.519	293.188
436.533	58.656
440.545	27.45
444.555	116.046
448.563	104.398
452.568	32.478
456.572	158.147
460.574	127.279
464.573	324.408
468.57	150.836
472.566	94.352
476.559	189.583
480.55	393.953
484.539	207.67
488.526	43.648
492.511	19.527
496.494	25.053
500.474	120.936
504.453	46.49
508.43	8.464
512.404	136.562
516.377	171.627
520.347	197.357
524.315	22.48
528.282	23.12
532.246	210.179
536.208	261.531
540.168	163.719
544.126	70.042
548.082	269.224
552.036	441.042
555.988	396.608
559.938	164.665
563.886	253.679
567.831	428.293
571.775	420.472
575.717	232.942
579.656	405.104
583.594	607.157
587.53	869.073
591.463	790.841
595.395	871.884
599.324	1162.98
603.251	2043.71
607.177	2794.16
611.1	2972.64
615.022	2523.33
618.941	1773.73
622.858	1594.17
626.773	1464.13
630.687	1674.01
634.598	1273.99
638.507	913.551
642.414	623.229
646.319	782.037
650.222	960.57
654.124	778.497
658.023	1106.82
661.92	853.935
665.815	540.98
669.708	138.889
673.599	42.614
677.488	86.216
681.375	33.209
685.26	79.638
689.143	42.564
693.025	95.618
696.904	29.429
700.781	4.21
704.656	50.992
708.529	4.201
712.4	0.164
716.269	54.238
720.136	88.211
724.002	101.459
727.865	74.595
731.726	27.65
735.585	20.628
739.442	383.542
743.298	286.427
747.151	249.273
751.002	52.08
754.852	224.85
758.699	567.595
762.544	510.324
766.388	513.064
770.229	335.793
774.069	468.512
777.906	611.227
781.742	623.953
785.575	606.699
789.407	469.459
793.237	422.234
797.064	725.032
800.89	907.859
804.714	1030.73
808.536	713.646
812.356	776.637
816.174	1009.7
819.99	1372.83
823.804	1855.95
827.616	2378.63
831.426	3011.49
835.234	4604.3
839.04	7455.39
842.845	14778.8
846.647	26952.3
850.447	30632.3
854.246	19825.9
858.043	11616.6
861.837	8292.1
865.63	7055.51
869.421	6851.13
873.21	6630.91
876.997	4904.94
880.782	3501.4
884.565	2757.42
888.346	2093.9
892.125	1470.74
895.902	1120.86
899.678	1078.24
903.451	945.887
907.223	1233.76
910.992	1052.21
914.76	840.559
918.526	689.145
922.29	497.955
926.052	707.047
929.812	936.293
933.57	1497.29
937.326	1476.99
941.081	1136.9
944.833	877
948.584	887.293
952.332	1037.77
956.079	1088.42
959.824	1230.54
963.567	1372.36
967.308	2833.54
971.047	4704.92
974.784	3636.57
978.52	1966.53
982.253	799.164
985.985	441.645
989.715	217.816
993.443	261.443
997.169	245.527
1000.89	397.785
1004.62	1675.21
1008.34	1021.72
1012.05	108.385
1015.77	155.449
1019.49	131.248
1023.2	618.324
1026.91	985.941
1030.62	693.455
1034.33	441.021
1038.03	8.873
1041.73	112.967
1045.43	345.836
1049.13	473.232
1052.83	601.928
1056.53	350.305
1060.22	39.729
1063.91	129.307
1067.61	17.342
1071.29	84.787
1074.98	412.01
1078.67	440.594
1082.35	627.357
1086.03	435.676
1089.71	291.748
1093.39	166.984
1097.06	292.066
1100.74	186.17
1104.41	499.678
1108.08	542.605
1111.75	356.189
1115.41	233.428
1119.08	134.936
1122.74	136.682
1126.4	228.814
1130.06	341.266
1133.72	333.59
1137.37	305.598
1141.03	32.447
1144.68	105.541
1148.33	173.316
1151.98	75.055
1155.62	377.113
1159.27	348.889
1162.91	361.281
1166.55	253.787
1170.19	64.166
1173.83	137.242
1177.46	200.828
1181.1	215.096
1184.73	406.006
1188.36	681.752
1191.98	610.258
1195.61	314.582
1199.24	371
1202.86	113.471
1206.48	70.924
1210.1	332.459
1213.72	740.24
1217.33	825.947
1220.94	411.18
1224.56	539.244
1228.17	9.611
1231.78	71.789
1235.38	355.676
1238.99	358.752
1242.59	702.545
1246.19	608.99
1249.79	691.336
1253.39	423.141
1256.98	0
