Measurement: Raman, 514 nm, depolarized, Raman Data Processed
Mineral: Chrysoberyl
Rruff sample: R040073
Ideal chemistry: BeAl_2_O_4_
Locality: Brazil
Source: University of Arizona Mineral Museum
Description: Pair of green prismatic crystals
Measured chemistry: (Be_0.89_Al_0.06_Fe_0.02_)Al_2.00_O_4_
Pin_id: M00464
Orientation: Laser parallel to -c* (0 0 -1). Fiducial mark perpendicular to laser is parallel to a [1 0 0]
Raman shift (cm-1)	intensity
85.706	0
89.89	183.585
94.071	1187.89
98.251	2200.35
102.428	2782.65
106.604	3536.67
110.777	4738.78
114.949	3493.39
119.119	3292.2
123.286	3082.09
127.452	2841.3
131.615	2449.61
135.777	2229.49
139.937	1887.92
144.094	1400.75
148.25	1178.1
152.403	1186.8
156.555	825.93
160.705	676.022
164.853	505.566
168.998	558.221
173.142	351.474
177.284	316.687
181.424	286.933
185.562	266.066
189.698	136.398
193.831	106.98
197.963	64.65
202.093	25.999
206.221	144.69
210.347	58.454
214.472	2.697
218.594	121.115
222.714	70.28
226.832	89.701
230.948	8.591
235.063	153.934
239.175	541.991
243.286	429.463
247.394	221.47
251.501	140.017
255.605	270.833
259.708	256.187
263.808	213.271
267.907	181.365
272.004	229.464
276.099	27.438
280.192	164.979
284.283	127.597
288.372	38.824
292.459	116.399
296.544	92.717
300.627	30.099
304.709	141.465
308.788	121.991
312.865	71.265
316.941	199.017
321.015	145.332
325.086	60.642
329.156	95.169
333.224	208.922
337.29	491.879
341.354	674.066
345.416	1535.43
349.476	1755.5
353.534	933.913
357.591	1050.78
361.645	1556.61
365.698	2940.71
369.748	3226.99
373.797	1237.32
377.844	255.15
381.889	154.688
385.932	177.619
389.973	105.092
394.012	132.87
398.049	66.46
402.084	63.545
406.118	37.358
410.15	79.611
414.179	946.317
418.207	3771.52
422.233	2136.59
426.257	520.653
430.279	1192.98
434.299	1724.24
438.318	603.16
442.334	455.494
446.349	394.011
450.361	688.581
454.372	2203.85
458.381	5044.95
462.388	1637.43
466.394	860.916
470.397	1381.01
474.398	3293.86
478.398	2927.05
482.396	1089.57
486.391	628.637
490.385	439.092
494.377	470.953
498.368	684.191
502.356	878.611
506.342	1153.16
510.327	2497.31
514.31	9011.08
518.291	11884.5
522.27	8967.57
526.247	3580.32
530.222	1465.31
534.196	1157.72
538.167	1997.36
542.137	4005.84
546.105	5453.58
550.071	2810.44
554.035	1415.61
557.998	1100.83
561.958	799.377
565.917	684.363
569.874	532.46
573.829	551.369
577.782	593.3
581.733	389.359
585.683	625.746
589.63	655.436
593.576	834.414
597.52	913.248
601.462	971.911
605.402	900.104
609.341	1058.86
613.277	1378.08
617.212	1767.52
621.145	2687.09
625.076	3456.67
629.006	3246.25
632.933	5045.78
636.859	13205.3
640.783	8204.73
644.705	4104.19
648.625	2933.65
652.543	2403.1
656.46	1562.52
660.375	871.889
664.288	581.214
668.199	590.495
672.108	389.74
676.016	268.956
679.921	188.149
683.825	27.326
687.727	36.466
691.628	65.435
695.526	136.022
699.423	28.075
703.318	79.712
707.211	387.563
711.102	715.511
714.992	103.606
718.879	127.982
722.765	19.457
726.649	109.188
730.532	207.88
734.412	96.397
738.291	105.249
742.168	17.076
746.043	141.126
749.916	379.403
753.788	197.76
757.658	436.205
761.526	704.75
765.392	1443.39
769.257	2592.13
773.119	4990.96
776.98	7029.88
780.839	5318.9
784.697	2858.02
788.552	1517.24
792.406	1006.56
796.258	795.996
800.108	425.558
803.957	375.276
807.804	345.136
811.649	465.118
815.492	745.271
819.333	545.579
823.173	746.041
827.011	1096.67
830.847	1387.46
834.681	1488.38
838.514	1169.24
842.345	1297.98
846.174	1269.28
850.001	1503.27
853.827	2059.16
857.651	2660.42
861.473	2362.48
865.293	1614.72
869.112	1177.14
872.928	1229.18
876.744	1291.32
880.557	1044.65
884.369	977.32
888.178	818.555
891.987	959.981
895.793	1321.69
899.598	1425.73
903.401	1359.97
907.202	1284.65
911.001	1279.41
914.799	1824.82
918.595	2410.33
922.389	4176.22
926.182	7642.02
929.972	11148.4
933.761	10514.2
937.549	7001.05
941.334	4457.29
945.118	2864.6
948.9	2322.85
952.681	1862.47
956.459	1321.43
960.236	991.207
964.012	811.812
967.785	901.516
971.557	623.168
975.327	311.934
979.095	372.732
982.862	281.43
986.627	306.736
990.39	258.406
994.152	229.969
997.912	254.449
1001.67	181.1
1005.43	263.771
1009.18	241.771
1012.93	243.295
1016.68	149.648
1020.43	173.605
1024.18	49.008
1027.93	138.662
1031.67	162.633
1035.42	50.416
1039.16	34.084
1042.9	135.029
1046.63	65.818
1050.37	91.092
1054.11	38.498
1057.84	7.6
1061.57	25.764
1065.3	74.701
1069.03	25.152
1072.75	5.109
1076.47	143.936
1080.2	68.84
1083.92	59.332
1087.64	98.707
1091.36	5.777
1095.07	17.041
1098.79	61.445
1102.5	43.918
1106.21	53.355
1109.92	30.449
1113.62	20.275
1117.33	40.604
1121.04	70.523
1124.74	54.51
1128.44	82.832
1132.14	46.572
1135.83	0.619
1139.53	91.395
1143.22	96.508
1146.92	95.9
1150.61	48.984
1154.3	96.836
1157.98	58.727
1161.67	129.43
1165.35	144.279
1169.04	0.381
1172.72	17.941
1176.4	8.77
1180.07	153.348
1183.75	128.451
1187.42	11.416
1191.1	4.135
1194.77	36.562
1198.44	111.281
1202.1	119.668
1205.77	12.836
1209.43	94.5
1213.1	1.695
1216.76	179.609
1220.42	150.404
1224.07	114.41
1227.73	33.225
1231.38	6.568
1235.04	141.328
1238.69	35.713
1242.34	37.305
1245.99	80.848
1249.63	77.191
1253.28	51.756
1256.92	161.771
1260.56	29.441
1264.2	175.199
1267.84	30.992
1271.48	55.953
1275.11	188.658
1278.74	174.514
1282.38	14.244
1286.01	137.875
1289.63	85.654
1293.26	7.016
1296.89	49.037
1300.51	161.998
1304.13	40.125
1307.75	185.064
1311.37	29.596
1314.99	39.5
1318.6	68.176
1322.22	180.193
1325.83	42.385
1329.44	134.193
1333.05	104.094
1336.66	10.859
1340.26	46.707
1343.87	12.264
1347.47	65.736
1351.07	23.975
1354.67	9.324
1358.27	160.99
1361.86	77.34
1365.46	90.049
1369.05	77.215
1372.64	18.75
1376.23	160.162
1379.82	134.283
1383.41	22.318
1386.99	7.066
1390.57	39.307
1394.16	34.506
1397.74	150.68
1401.32	35.684
1404.89	72.723
1408.47	114.586
1412.04	160.605
1415.61	183.426
1419.18	45.113
1422.75	26.166
1426.32	147.48
1429.89	76.83
1433.45	2.086
1437.01	20.943
1440.58	121.566
1444.13	72.52
1447.69	111.736
1451.25	32.25
1454.81	86.709
1458.36	14.145
1461.91	25.447
1465.46	173.812
1469.01	86.191
1472.56	27.588
1476.1	21.094
1479.64	144.812
1483.19	182.35
1486.73	61.918
1490.27	66.463
1493.81	68.971
1497.34	49.551
1500.88	13.289
1504.41	0
