Measurement: Raman, xxx, ccw, Raman Data Processed
Mineral: Chrysoberyl
Rruff sample: P000032
Ideal chemistry: BeAl_2_O_4_
Locality: Virtual
Source: ScottLab
Description: PURPLE OpenSource 20190308
Raman shift (cm-1)	intensity
25.0701	0
30.3733	0
35.6766	0
40.9799	0
46.2832	0
51.5865	0
56.8898	0
62.193	0
67.4963	0
72.7996	0
78.1029	0
83.4062	0
88.7095	0
94.0128	0
99.316	0
104.619	2.63565e-40
109.923	-5.15598e-34
115.226	1.00864e-27
120.529	-2.46528e-21
125.832	4.82269e-15
131.136	-1.13259e-08
136.439	0.173635
141.742	0.446493
147.046	0.719351
152.349	0.992208
157.652	1.26507
162.955	1.53792
168.259	1.81078
173.562	2.08364
178.865	2.3565
184.169	2.62936
189.472	2.90221
194.775	3.17507
200.078	3.44793
205.382	3.72079
210.685	3.99365
215.988	4.2665
221.292	4.53937
226.595	7.97588
231.898	24.5658
237.201	124.011
242.505	247.288
247.808	60.8107
253.111	13.2692
258.415	6.54356
263.718	4.4068
269.021	3.53259
274.324	3.17127
279.628	3.07889
284.931	3.16405
290.234	3.39642
295.538	3.77893
300.841	4.34153
306.144	5.1471
311.447	6.31122
316.751	8.04858
322.054	10.7849
327.357	15.4603
332.661	24.5116
337.964	46.065
343.267	122.253
348.57	546.871
353.874	560.44
359.177	288.911
364.48	273.556
369.784	467.856
375.087	150.949
380.39	39.7635
385.693	22.3179
390.997	21.1072
396.3	178.064
401.603	28.5565
406.906	14.148
412.21	18.9318
417.513	192.124
422.816	579.029
428.12	42.6942
433.423	227.203
438.726	159.909
444.029	332.012
449.333	195.194
454.636	51.6623
459.939	804.832
465.243	61.74
470.546	120.083
475.849	1143.21
481.152	1011.45
486.456	109.934
491.759	38.8456
497.062	51.9791
502.366	450.809
507.669	95.9573
512.972	253.118
518.275	2033.19
523.579	1212.25
528.882	236.075
534.185	101.666
539.489	179.604
544.792	801.835
550.095	538.269
555.398	127.322
560.702	141.26
566.005	499.12
571.308	76.2825
576.612	29.3028
581.915	20.4183
587.218	17.2748
592.521	16.3342
597.825	16.7688
603.128	18.4887
608.431	21.8727
613.735	27.9931
619.038	39.5844
624.341	64.7582
629.644	136.473
634.948	499.87
640.251	1800.83
645.554	355.154
650.857	224.836
656.161	290.364
661.464	167.794
666.767	122.272
672.071	240.244
677.374	561.294
682.677	235.631
687.981	88.3403
693.284	53.2421
698.587	47.6572
703.89	75.8992
709.194	317.201
714.497	246.204
719.8	58.9739
725.104	32.0158
730.407	25.2548
735.71	24.5062
741.013	34.3237
746.317	64.0044
751.62	38.0258
756.923	49.847
762.226	81.2526
767.53	178.892
772.833	578.658
778.136	1280.92
783.44	838.721
788.743	260.531
794.046	108.88
799.35	71.2893
804.653	68.8034
809.956	110.074
815.259	256.95
820.563	291.272
825.866	123.722
831.169	54.6617
836.472	34.1587
841.776	26.1636
847.079	22.5545
852.382	21.0213
857.686	20.7368
862.989	21.3879
868.292	22.8981
873.596	25.3427
878.899	28.9426
884.202	34.1106
889.505	41.5718
894.809	52.6225
900.112	69.7176
905.415	97.9393
910.718	149.268
916.022	257.792
921.325	544.035
926.628	1371.25
931.932	2452.84
937.235	1817.71
942.538	745.745
947.841	324.985
953.145	176.585
958.448	111.012
963.751	76.3863
969.055	55.863
974.358	42.6928
979.661	33.7348
984.964	27.3632
990.268	22.6677
995.571	19.1061
1000.87	17.3228
1006.18	16.9012
1011.48	16.4796
1016.78	16.0581
1022.09	15.6365
1027.39	15.2149
1032.69	14.7933
1038	14.3716
1043.3	13.95
1048.6	13.5284
1053.91	13.1068
1059.21	12.6851
1064.51	12.2635
1069.82	11.8419
1075.12	11.4203
1080.42	10.9986
1085.73	10.6619
1091.03	10.55
1096.33	10.438
1101.64	10.3261
1106.94	10.2142
1112.24	10.1023
1117.55	9.99034
1122.85	9.87842
1128.15	9.76649
1133.46	9.65457
1138.76	9.54264
1144.06	9.43072
1149.37	9.31879
1154.67	9.20687
1159.97	9.09494
1165.28	8.98302
1170.58	8.8711
1175.88	8.75917
1181.19	8.64724
1186.49	8.53532
1191.79	8.42339
1197.1	8.31147
1202.4	8.19955
1207.7	8.08762
1213.01	7.9757
1218.31	7.86377
1223.61	7.75185
1228.92	7.63992
1234.22	7.528
1239.52	7.41607
1244.83	7.30415
1250.13	7.19222
1255.43	7.0803
1260.73	6.96837
1266.04	6.85645
1271.34	6.74452
1276.64	6.6326
1281.95	6.52067
1287.25	6.40875
1292.56	6.29682
1297.86	6.1849
1303.16	6.07297
1308.46	5.96105
1313.77	5.84912
1319.07	5.7372
1324.38	5.62527
1329.68	5.51335
1334.98	5.40142
1340.28	5.2895
1345.59	5.17757
1350.89	5.06565
1356.19	4.95372
1361.5	4.8418
1366.8	4.72987
1372.1	4.61795
1377.41	4.50602
1382.71	4.3941
1388.01	4.28217
1393.32	4.17025
1398.62	4.05832
1403.92	3.9464
1409.23	3.83447
1414.53	3.72255
1419.83	3.61062
1425.14	3.4987
1430.44	3.38677
1435.74	3.27485
1441.05	3.16292
1446.35	3.051
1451.65	2.93907
1456.96	2.82715
1462.26	2.71522
1467.56	2.6033
1472.87	2.49137
1478.17	2.37945
1483.47	2.26752
1488.78	2.1556
1494.08	2.04367
1499.38	1.93175
1504.69	1.81983
1509.99	1.7079
1515.29	1.59597
1520.6	1.48405
1525.9	1.37213
1531.2	1.2602
1536.51	1.14827
1541.81	1.03635
1547.11	0.924425
1552.42	0.8125
1557.72	0.700576
1563.02	0.58865
1568.33	0.476726
1573.63	0.3648
1578.93	0.252873
1584.23	0.140951
1589.54	0.0289912
1594.84	-2.83981e-08
1600.14	1.46256e-14
1605.45	-7.51799e-21
1610.75	3.87118e-27
1616.06	-1.98957e-33
1621.36	1.02429e-39
1626.66	0
1631.96	0
1637.27	0
1642.57	0
1647.88	0
1653.18	0
1658.48	0
1663.79	0
1669.09	0
1674.39	0
1679.69	0
1685	0
1690.3	0
1695.6	0
1700.91	0
1706.21	0
1711.51	0
1716.82	0
1722.12	0
1727.42	0
1732.73	0
1738.03	0
1743.33	0
1748.64	0
1753.94	0
1759.24	0
1764.55	0
1769.85	0
1775.15	0
1780.46	0
1785.76	0
1791.06	0
1796.37	0
1801.67	0
1806.97	0
1812.28	0
1817.58	0
1822.88	0
1828.19	0
1833.49	0
1838.79	0
1844.1	0
1849.4	0
1854.7	0
1860.01	0
1865.31	0
1870.61	0
1875.92	0
1881.22	0
1886.52	0
1891.83	0
1897.13	0
1902.43	0
1907.74	0
1913.04	0
1918.34	0
1923.65	0
1928.95	0
1934.25	0
1939.56	0
1944.86	0
1950.16	0
1955.46	0
1960.77	0
1966.07	0
1971.38	0
1976.68	0
1981.98	0
1987.29	0
1992.59	0
1997.89	0
2003.19	0
2008.5	0
