Measurement: Raman, 514 nm, depolarized, Raman Data Processed
Mineral: Chrysoberyl
Rruff sample: R040073
Ideal chemistry: BeAl_2_O_4_
Locality: Brazil
Source: University of Arizona Mineral Museum
Description: Pair of green prismatic crystals
Measured chemistry: (Be_0.89_Al_0.06_Fe_0.02_)Al_2.00_O_4_
Pin_id: M00359
Orientation: Laser parallel to -a [-1 0 0]. Fiducial mark perpendicular to laser is parallel to -b* (0 -1 0)
Raman shift (cm-1)	intensity
98.947	0
103.124	28.126
107.3	577.072
111.473	385.52
115.644	1024.39
119.813	931.393
123.981	511.555
128.146	365.508
132.309	275.674
136.47	196.695
140.63	360.623
144.787	178.04
148.942	89.91
153.096	280.834
157.247	87.828
161.396	289.966
165.544	348.046
169.689	433.822
173.833	472.459
177.974	585.131
182.114	717.313
186.251	791.614
190.387	776.865
194.52	824.614
198.652	876.713
202.782	978.898
206.909	998.479
211.035	711.577
215.159	587.693
219.281	513.689
223.4	610.621
227.518	488.327
231.634	544.726
235.748	889.795
239.86	1627.54
243.97	1535.98
248.079	375.127
252.185	72.938
256.289	90.808
260.391	99.809
264.492	21.958
268.59	184.576
272.687	60.808
276.781	5.89
280.874	43.7
284.964	46.75
289.053	21.354
293.14	202.467
297.225	140.755
301.308	144.549
305.389	111.808
309.468	73.369
313.545	147.147
317.62	148.336
321.693	250.711
325.765	273.716
329.834	407.365
333.902	509.621
337.967	640.524
342.031	1472.51
346.093	3942.8
350.153	7058.96
354.21	2712.42
358.267	1506.17
362.321	2028.53
366.373	4129.69
370.423	5986.63
374.471	2912.41
378.518	1049.09
382.563	533.72
386.605	483.285
390.646	700.795
394.685	1880.25
398.722	1836.67
402.757	418.537
406.79	96.982
410.821	151.101
414.851	182.492
418.878	454.726
422.904	426.297
426.927	287.76
430.949	323.94
434.969	678.647
438.987	1486.56
443.003	4052.75
447.018	6413.41
451.03	3040.1
455.041	4402.23
459.049	10945.3
463.056	4622.6
467.061	1822.2
471.064	2631.98
475.065	7191.9
479.064	9428.59
483.062	3677.43
487.057	1834.88
491.051	1339.48
495.043	1556.38
499.032	3999.28
503.02	6777.2
507.007	2404.15
510.991	1517.15
514.973	2636.23
518.954	7227.39
522.933	14010.6
526.91	7235
530.885	1963.46
534.858	828.041
538.829	383.734
542.799	168.552
546.766	330.495
550.732	316.574
554.696	152.79
558.658	129.589
562.618	22.446
566.576	128.051
570.533	109.828
574.488	108.747
578.44	19.853
582.391	215.431
586.341	125.796
590.288	276.702
594.233	495.269
598.177	610.4
602.119	619.871
606.059	740.681
609.997	734.827
613.933	1012.24
617.868	1118.89
621.801	1244.76
625.731	1390.87
629.66	2084.24
633.588	6205.85
637.513	19376.7
641.437	16884.8
645.358	4950.14
649.278	2332.7
653.196	2733.5
657.113	2979.53
661.027	1710.82
664.94	1029.36
668.851	1076.15
672.76	988.211
676.667	902.535
680.572	911.13
684.476	597.004
688.378	556.164
692.278	251.616
696.176	619.367
700.072	649.424
703.967	1128.79
707.86	2880.48
711.751	5821.49
715.64	2085.82
719.527	679.613
723.413	100.072
727.297	65.363
731.179	94.49
735.059	112.176
738.937	130.873
742.814	178.199
746.689	93.084
750.562	194.178
754.433	158.736
758.303	231.664
762.17	779.961
766.036	1651.63
769.901	3214.67
773.763	6310.07
777.624	10978.9
781.482	9320.01
785.339	5163.55
789.195	2234.45
793.048	1172.73
796.9	864.391
800.75	398.449
804.598	372.922
808.445	874.82
812.289	2215.24
816.132	5060.09
819.973	4465.34
823.813	2185.97
827.65	1036.99
831.486	672.475
835.32	539.512
839.152	307.16
842.983	357.461
846.812	223.414
850.639	325.92
854.464	461.014
858.288	289.691
862.11	277.838
865.93	310.461
869.748	202.492
873.564	182.98
877.379	160.018
881.192	234.041
885.004	369.396
888.813	335.15
892.621	445.49
896.427	508.484
900.232	666.229
904.034	981.674
907.835	1524.31
911.634	2278.3
915.432	3378.61
919.227	5803.27
923.021	10653.3
926.813	20010.6
930.604	33456.2
934.393	35778.1
938.18	24655.2
941.965	15089.7
945.749	9468.43
949.53	6000.67
953.311	3992.72
957.089	3088.89
960.866	2291.11
964.641	1902.56
968.414	1432.41
972.185	1286.41
975.955	1240.88
979.723	1039.08
983.49	770.812
987.254	686.441
991.017	904.934
994.779	792.82
998.538	510.252
1002.3	907.533
1006.05	860.787
1009.81	875.818
1013.56	874.219
1017.31	859.781
1021.06	713.086
1024.81	492.088
1028.55	853.703
1032.3	572.109
1036.04	635.234
1039.78	602.055
1043.52	722.605
1047.26	618.359
1050.99	687.75
1054.73	561.213
1058.46	524.758
1062.19	451.41
1065.92	190.709
1069.65	277.197
1073.37	430.16
1077.1	219.518
1080.82	356.832
1084.54	393.412
1088.26	157.732
1091.97	145.428
1095.69	78.543
1099.4	197.43
1103.12	41.395
1106.83	54.902
1110.54	79.455
1114.24	34.514
1117.95	136.707
1121.65	204.916
1125.35	98.539
1129.06	65.15
1132.75	107.137
1136.45	196.061
1140.15	110.77
1143.84	73.004
1147.53	44.402
1151.22	39.451
1154.91	80.535
1158.6	10.48
1162.28	24.557
1165.97	128.57
1169.65	138.27
1173.33	66.275
1177.01	6.645
1180.69	84.25
1184.36	66.883
1188.04	83.064
1191.71	198.768
1195.38	119.189
1199.05	264.178
1202.71	131.746
1206.38	261.676
1210.04	291.252
1213.71	171.619
1217.37	288.201
1221.03	307.291
1224.68	367.254
1228.34	437.389
1231.99	334.707
1235.65	263.41
1239.3	417.113
1242.95	427.117
1246.59	440.195
1250.24	179.994
1253.88	331.143
1257.53	419.791
1261.17	376.891
1264.81	276.588
1268.45	452.555
1272.08	248.707
1275.72	436.383
1279.35	214.926
1282.98	146.223
1286.61	211.369
1290.24	274.654
1293.87	166.791
1297.49	62.086
1301.11	287.795
1304.73	37.605
1308.36	24.758
1311.97	316.723
1315.59	197.74
1319.2	238.387
1322.82	261.662
1326.43	308.648
1330.04	167.508
1333.65	167.148
1337.26	179.963
1340.86	249.15
1344.47	221.031
1348.07	232.732
1351.67	249.018
1355.27	221.518
1358.87	295.596
1362.46	395.932
1366.06	322.148
1369.65	251.383
1373.24	185.447
1376.83	303.619
1380.42	273.254
1384	226.439
1387.59	303.377
1391.17	415.562
1394.75	227.508
1398.33	373.75
1401.91	91.277
1405.49	410.635
1409.06	322.885
1412.64	165.949
1416.21	333.377
1419.78	20.33
1423.35	236.602
1426.91	188.258
1430.48	82.855
1434.05	80.967
1437.61	143.148
1441.17	413.619
1444.73	131.234
1448.29	433.775
1451.84	345.906
1455.4	130.314
1458.95	159.211
1462.5	413.658
1466.05	471.41
1469.6	309.254
