Measurement: Raman, 514 nm, depolarized, Raman Data Processed
Mineral: Chrysoberyl
Rruff sample: R040073
Ideal chemistry: BeAl_2_O_4_
Locality: Brazil
Source: University of Arizona Mineral Museum
Description: Pair of green prismatic crystals
Measured chemistry: (Be_0.89_Al_0.06_Fe_0.02_)Al_2.00_O_4_
Pin_id: M00306
Orientation: Laser parallel to b* (0 1 0). Fiducial mark perpendicular to laser is parallel to c [0 0 1]
Raman shift (cm-1)	intensity
100.34	0
104.516	256.416
108.691	439.287
112.864	1133.85
117.034	3397.52
121.203	1399.22
125.369	290.809
129.534	151.613
133.696	73.014
137.857	341.04
142.016	44.033
146.172	365.047
150.327	131.709
154.48	86.889
158.63	103.327
162.779	160.101
166.926	287.302
171.07	101.112
175.213	78.256
179.354	45.085
183.493	187.23
187.63	9.42
191.765	251.919
195.898	419.759
200.029	618.33
204.158	781.902
208.285	928.777
212.41	569.979
216.533	679.068
220.654	701.271
224.773	725.713
228.891	869.118
233.006	1379.33
237.119	2609.55
241.231	3592.15
245.34	1543.32
249.448	298.992
253.553	212.493
257.657	218.889
261.758	274.431
265.858	365.462
269.956	487.88
274.052	204.722
278.146	152.826
282.237	305.354
286.327	215.363
290.416	368.159
294.502	220.418
298.586	340.591
302.668	432.856
306.749	535.9
310.827	558.979
314.903	490.878
318.978	550.521
323.051	773.5
327.121	610.79
331.19	803.954
335.257	861.312
339.322	1177.17
343.385	2906.73
347.446	7416.15
351.505	6865.56
355.563	4240.2
359.618	1546.36
363.672	1208.89
367.723	1875.11
371.773	1342.63
375.821	626.404
379.866	216.605
383.91	191.084
387.952	162.673
391.992	165.006
396.031	144.266
400.067	37.273
404.101	191.385
408.134	59.254
412.165	47.356
416.193	58.568
420.22	237.396
424.245	173.131
428.268	35.516
432.289	375.454
436.309	706.073
440.326	1167.72
444.342	757.809
448.355	539.78
452.367	1054.22
456.377	1977.51
460.385	2583.01
464.391	1247.94
468.395	2118.76
472.398	7991.51
476.398	22241.2
480.397	13857.1
484.394	4572.8
488.389	2177.04
492.382	1328.72
496.373	792.23
500.362	579.742
504.349	541.229
508.335	550.695
512.319	872.004
516.3	2240.07
520.28	4801.86
524.259	5370.37
528.235	1795.61
532.209	530.568
536.182	501.283
540.152	127.889
544.121	156.279
548.088	248.297
552.053	209.855
556.017	565.795
559.978	1900.87
563.938	4695.5
567.895	2680.38
571.851	424.447
575.805	51.08
579.758	88.387
583.708	71.441
587.657	367.398
591.603	136.422
595.548	488.938
599.491	402.896
603.432	153.045
607.372	262.594
611.309	92.754
615.245	410.848
619.179	621.68
623.111	1245.74
627.041	1294.02
630.97	704.525
634.896	526.287
638.821	1088.31
642.744	1061.61
646.665	1616.17
650.584	1744.3
654.502	2131.42
658.418	1760.81
662.331	1317.52
666.244	1719.53
670.154	2547.84
674.062	6057.48
677.969	6589.45
681.874	3079.78
685.777	1342.47
689.678	788.547
693.577	793.025
697.475	791.938
701.371	1122.43
705.265	2852.7
709.157	8644.18
713.047	7041.27
716.936	2203.03
720.823	832.824
724.708	561.74
728.591	417.482
732.472	373.893
736.352	562.182
740.23	992.492
744.106	1695.1
747.98	1038.42
751.853	496.336
755.723	557.85
759.592	861.959
763.459	1145.93
767.325	2279.98
771.188	5127.07
775.05	10938.7
778.91	14122.9
782.768	8921.73
786.625	3887.24
790.479	1565.38
794.332	957.174
798.183	91.609
802.033	177.322
805.88	143.904
809.726	152.18
813.57	47.086
817.413	120.574
821.253	57.488
825.092	132.373
828.929	457.16
832.764	363.668
836.598	383.924
840.429	681.035
844.259	674.244
848.088	516.588
851.914	673.904
855.739	1149.46
859.562	1200.11
863.383	1022.7
867.203	457.049
871.02	309.096
874.836	179.795
878.65	167.111
882.463	425.146
886.274	295.854
890.083	491.314
893.89	535.51
897.695	970.26
901.499	1011.57
905.301	1509.4
909.102	2111.71
912.9	2965.5
916.697	4353.87
920.492	7660.1
924.285	14361.9
928.077	26218
931.867	36003.6
935.655	29941.5
939.442	18839.8
943.226	11410.4
947.009	7285.37
950.791	5113.59
954.57	3673.03
958.348	2835.28
962.124	2073.65
965.899	1943.06
969.671	1464.51
973.442	1191.95
977.211	997.658
980.979	1142.26
984.745	1275.31
988.509	1423.44
992.271	1172.9
996.032	1511.4
999.791	2776.36
1003.55	2790.94
1007.3	1772
1011.06	1761.63
1014.81	1428.95
1018.56	1572.36
1022.31	1776.57
1026.06	1695.7
1029.8	1618.57
1033.55	1561.58
1037.29	1190.96
1041.03	1192.07
1044.77	999.707
1048.5	1280.34
1052.24	1097.63
1055.97	1097.85
1059.7	802.07
1063.43	716.828
1067.16	941.758
1070.89	744.811
1074.61	682.047
1078.34	1064.71
1082.06	1003.04
1085.78	904.889
1089.5	651.07
1093.21	368.742
1096.93	395.896
1100.64	232.512
1104.35	463.613
1108.06	158.391
1111.77	191.467
1115.48	227.17
1119.18	69.512
1122.89	273.199
1126.59	25.592
1130.29	395.73
1133.99	94.291
1137.68	204.021
1141.38	182.793
1145.07	75.527
1148.76	124.289
1152.45	83.363
1156.14	168.275
1159.83	104.658
1163.51	346.449
1167.19	288.264
1170.88	87.133
1174.56	256.109
1178.23	284.166
1181.91	460.262
1185.59	119.709
1189.26	390.463
1192.93	192.559
1196.6	358.514
1200.27	332.408
1203.94	327.486
1207.6	437.375
1211.27	283.699
1214.93	459.643
1218.59	736.898
1222.25	644.424
1225.9	429.824
1229.56	619.66
1233.21	784.746
1236.86	868.076
1240.51	898.586
1244.16	834.266
1247.81	633.127
1251.45	779.256
1255.1	742.734
1258.74	700.035
1262.38	794.543
1266.02	729.803
1269.66	792.053
1273.29	981.266
1276.93	836.408
1280.56	786.289
1284.19	670.012
1287.82	698.443
1291.45	654.066
1295.07	789.057
1298.7	807.746
1302.32	483.166
1305.94	561.312
1309.56	961.123
1313.18	615.797
1316.8	835.822
1320.41	922.316
1324.02	685.828
1327.63	363.502
1331.24	367.443
1334.85	286.51
1338.46	31.916
1342.06	233.133
1345.67	111.295
1349.27	104.963
1352.87	413.004
1356.47	361.525
1360.07	697.328
1363.66	401.883
1367.25	452.029
1370.85	389.568
1374.44	422.176
1378.03	430.854
1381.61	320.428
1385.2	282.98
1388.78	152.385
1392.37	183.969
1395.95	398.291
1399.53	127.873
1403.1	249.158
1406.68	11.557
1410.26	32.732
1413.83	294.031
1417.4	88.453
1420.97	244.07
1424.54	0
