Measurement: Raman, 514 nm, depolarized, Raman Data Processed
Mineral: Clinozoisite
Rruff sample: R040085
Ideal chemistry: Ca_2_Al_3_(Si_2_O_7_)(SiO_4_)O(OH)
Locality: Alamos, Sonora, Mexico
Source: University of Arizona Mineral Museum
Description: Divergent aggregate of red thin prismatic crystals
Measured chemistry: Ca_2.03_(Al_0.90_Fe_0.13_)_3_(Si_1.00_O_4_)(Si_2.00_O_7_)O(OH)
Pin_id: S00323
Orientation: Laser parallel to a* (1 0 0). Fiducial mark perpendicular to laser is parallel to b [0 1 0]
Raman shift (cm-1)	intensity
141.203	0
143.988	155.969
146.771	121.471
149.554	184.18
152.336	230.416
155.117	180.867
157.896	215.75
160.675	396.986
163.453	543.727
166.23	587.729
169.006	898.012
171.781	788.369
174.555	621.379
177.328	814.717
180.1	328.826
182.871	293.646
185.641	269.111
188.41	185.156
191.178	211.725
193.945	148.768
196.711	186.242
199.476	5.902
202.241	92.305
205.004	210.869
207.766	9.805
210.528	159.191
213.288	219.152
216.048	279.416
218.806	349.979
221.564	360.838
224.32	281.982
227.076	463.332
229.83	604.865
232.584	686.582
235.337	668.469
238.088	870.523
240.839	712.719
243.589	1235.05
246.338	1387.51
249.086	1480.13
251.833	2092.66
254.579	1855.33
257.324	1727.99
260.068	1590.86
262.811	1441.66
265.553	1267.39
268.294	1161.24
271.035	1285.31
273.774	1229.53
276.512	1144.23
279.25	994.449
281.986	820.816
284.721	575.609
287.456	480.59
290.19	535.77
292.922	721.139
295.654	686.689
298.385	672.416
301.114	468.316
303.843	344.393
306.571	330.023
309.298	375.205
312.024	340.449
314.749	275.613
317.473	301.08
320.196	386.621
322.919	702.152
325.64	627.734
328.36	643.412
331.08	729.195
333.798	804.598
336.516	1390.07
339.232	1505.39
341.948	1600.88
344.662	1766.55
347.376	2078.61
350.089	2568.38
352.801	2834.53
355.512	2380.86
358.222	1648.6
360.931	1304.09
363.639	780.094
366.346	757.057
369.052	476.539
371.757	463.773
374.462	399.822
377.165	291.492
379.868	89.232
382.569	107.049
385.27	41.924
387.969	69.9
390.668	387.287
393.366	235.492
396.063	255.443
398.759	333.869
401.454	112.504
404.148	241.293
406.841	320.275
409.533	20.543
412.224	11.211
414.915	21.705
417.604	72.117
420.293	97.645
422.98	557.586
425.667	557.752
428.353	699.389
431.037	818.559
433.721	819.117
436.404	909.764
439.086	1120.49
441.767	1421.27
444.448	1742.09
447.127	2162.99
449.805	3063.97
452.482	3415.04
455.159	3226.19
457.834	2597.43
460.509	2178.76
463.183	1930.18
465.856	1691.71
468.527	1553.31
471.198	1615.07
473.868	1196.96
476.538	1089.78
479.206	1216.73
481.873	1068.84
484.539	1141.06
487.205	1362.69
489.869	777.656
492.533	490.18
495.196	712.762
497.857	585.408
500.518	568.123
503.178	580.928
505.837	813.869
508.495	906.908
511.153	931.133
513.809	1003.27
516.464	980.107
519.119	785.992
521.772	929.861
524.425	1063.25
527.077	907.293
529.728	570.922
532.377	554.59
535.027	418.285
537.675	241.988
540.322	425.684
542.968	199.426
545.613	183.102
548.258	203.262
550.902	100.23
553.544	55.934
556.186	327.559
558.827	243.066
561.467	447.223
564.106	990.977
566.744	1464.82
569.381	2670.4
572.018	3003.65
574.653	2683.69
577.288	1866.07
579.921	1168.64
582.554	827.238
585.186	593.895
587.817	597.77
590.447	891.168
593.076	824.535
595.704	1318.33
598.331	1371.63
600.958	1704.89
603.583	1598.15
606.208	2041.62
608.832	2096.39
611.455	1570.25
614.077	1003.31
616.698	921.305
619.318	656.043
621.937	394.586
624.556	268.219
627.173	381.363
629.79	490.469
632.405	93.164
635.02	43.867
637.634	179.586
640.247	301.977
642.859	107.926
645.471	238.664
648.081	355.949
650.691	467.84
653.299	459.949
655.907	402.492
658.514	577.379
661.12	698.953
663.725	564.887
666.329	336.293
668.932	407.168
671.534	8.398
674.136	29.465
676.737	130.391
679.336	121.219
681.935	411.941
684.533	352.566
687.13	643.098
689.726	443.523
692.322	243.859
694.916	361.242
697.51	231.262
700.102	401.238
702.694	354.18
705.285	554.75
707.875	354.512
710.464	572.555
713.052	632.152
715.64	101.551
718.226	99.27
720.812	100.367
723.397	131.742
725.981	146.562
728.564	424.688
731.146	162.648
733.727	239.488
736.308	197.953
738.887	415.164
741.466	97.891
744.043	308.742
746.62	295.273
749.196	171.703
751.771	258.027
754.346	324.246
756.919	340.363
759.492	306.383
762.063	52.301
764.634	268.09
767.204	433.766
769.773	20.66
772.341	94.727
774.909	609.988
777.475	635.098
780.041	170.051
782.605	205.102
785.169	259.371
787.732	163.656
790.294	192.258
792.856	456.434
795.416	69.488
797.976	695.047
800.534	41.227
803.092	249.746
805.649	153.168
808.205	76.496
810.76	569.734
813.315	442.863
815.868	194.117
818.421	338.562
820.972	118.734
823.523	843.648
826.073	552.398
828.623	442.18
831.171	264.055
833.718	475.742
836.265	757.852
838.811	579.926
841.356	711.977
843.9	383.973
846.443	915.93
848.985	907.871
851.527	381.227
854.067	543.086
856.607	755.734
859.146	1097.61
861.684	1529.46
864.221	1134.93
866.757	1126.71
869.293	2065.78
871.828	2377.2
874.361	2258.47
876.894	2357.7
879.426	1908.78
881.958	2369.63
884.488	2430.68
887.018	2442.98
889.546	2144.1
892.074	2930.49
894.601	3098.42
897.127	2819.38
899.652	2480.62
902.177	2831.52
904.7	3402.6
907.223	2913.8
909.745	3665
912.266	3436.17
914.786	3755.6
917.306	3676.67
919.824	3537.13
922.342	3043.38
924.859	2663.87
927.375	2564.12
929.89	2609.8
932.404	1820.02
934.918	1635
937.43	1306.36
939.942	1029.19
942.453	948.543
944.963	709.176
947.472	903.195
949.981	1264.41
952.488	1116.25
954.995	657.977
957.501	779.477
960.006	880.668
962.51	1212.5
965.014	631.27
967.516	288.902
970.018	8.934
972.519	773.777
975.019	516.133
977.518	718.609
980.017	917.023
982.514	1639.79
985.011	1842.93
987.507	1135.99
990.002	265.625
992.496	729.152
994.989	684.125
997.482	807.879
999.974	78.551
1002.46	427.457
1004.95	460.73
1007.44	573.938
1009.93	336.797
1012.42	140.27
1014.91	192.805
1017.39	313.383
1019.88	794.535
1022.36	446.004
1024.85	727.793
1027.33	579.781
1029.81	552.203
1032.29	685.031
1034.77	477.965
1037.25	770.969
1039.73	774.043
1042.21	687.211
1044.68	860.508
1047.16	1023.99
1049.63	1207.72
1052.11	1031.84
1054.58	776.16
1057.05	1310.68
1059.53	1085.55
1062	740.727
1064.47	566.07
1066.94	441.754
1069.4	937.82
1071.87	744.395
1074.34	120.984
1076.81	567.754
1079.27	1334.49
1081.74	1001.34
1084.2	735.602
1086.66	1101.16
1089.12	1440.58
1091.59	1837.71
1094.05	1385.23
1096.51	963.125
1098.96	971.402
1101.42	1510.04
1103.88	589.078
1106.34	718.543
1108.79	688.449
1111.25	668.797
1113.7	229.598
1116.15	160.855
1118.61	932.562
1121.06	584.715
1123.51	707.379
1125.96	99.16
1128.41	275.523
1130.86	731.234
1133.3	837.918
1135.75	84.336
1138.19	144.254
1140.64	964.504
1143.08	1046.21
1145.53	585.238
1147.97	4.375
1150.41	1044.21
1152.85	985.984
1155.29	418.539
1157.73	183.68
1160.17	1056.76
1162.61	746.164
