Measurement: Raman, 514 nm, depolarized, Raman Data Processed
Mineral: Clinozoisite
Rruff sample: R060284
Ideal chemistry: Ca_2_Al_3_(Si_2_O_7_)(SiO_4_)O(OH)
Locality: near Zagi Mountain, Khaffor Dehri, North-West Frontier Province, Pakistan
Source: Herb Obodda
Description: Greenish-brown fragment of a prismatic crystal
Measured chemistry: Ca_2.00_(Al_0.90_Fe^3+^_0.10_)_3_(Si_1.00_O_4_)(Si_2.00_O_7_)O(OH)
Pin_id: L00766
Orientation: Laser parallel to b* (0 1 0). Fiducial mark perpendicular to laser is parallel to c [0 0 1]
Raman shift (cm-1)	intensity
118.134	0
123.058	694.9
127.979	3335.55
132.898	8520.25
137.814	13696.3
142.728	14758.8
147.639	11908
152.549	10473.9
157.455	11243.9
162.359	11696.8
167.261	11066.5
172.161	7888.45
177.058	3697.31
181.952	959.057
186.845	222.83
191.734	535.512
196.622	286.986
201.507	433.81
206.389	1207.16
211.269	2160.18
216.147	2660.16
221.022	3417.14
225.895	4709.99
230.765	6119.85
235.633	7615.53
240.498	9703.42
245.361	15687.5
250.222	24526.8
255.08	27396.7
259.936	21331
264.789	14551.4
269.64	13556.4
274.488	14771.4
279.334	10601.7
284.178	4851.47
289.019	2801.28
293.857	2838.74
298.693	3472.45
303.527	3366.42
308.358	2839.59
313.187	2320.05
318.013	1890.77
322.837	2283.64
327.659	3531.6
332.478	4707.73
337.294	5483.49
342.108	7388.89
346.92	11693.1
351.729	14854.5
356.535	11719.3
361.34	5077.39
366.141	1533.27
370.94	316.102
375.737	1336.81
380.531	1217.35
385.323	111.676
390.113	2495.11
394.9	4853.57
399.684	4348.24
404.466	1596.25
409.245	327.59
414.022	2057.57
418.797	8459.83
423.569	18865.4
428.338	25724.2
433.105	21857.5
437.87	17972.5
442.632	23392.7
447.391	35301
452.149	43723.2
456.903	38044.5
461.655	25728.6
466.405	19271.7
471.152	17659.3
475.897	16878.6
480.639	16423.7
485.378	15235.8
490.116	12571.6
494.85	9951.92
499.582	8485.1
504.312	8734.57
509.039	10567.5
513.764	12654.6
518.486	13996.2
523.206	14458.7
527.923	14865.8
532.638	11190.4
537.35	5211.52
542.059	3618.29
546.766	3547.58
551.471	4717.3
556.173	6561.34
560.873	11619.6
565.57	24579.1
570.264	39997.6
574.957	30689.2
579.646	10816.5
584.333	4723.82
589.018	4789.43
593.7	7387.53
598.379	12334.8
603.056	18171.5
607.73	18285
612.402	11766.8
617.072	6194.33
621.739	3174.74
626.403	1922.84
631.065	1260.79
635.724	427.258
640.381	33.0098
645.035	60.3594
649.687	464.047
654.336	1645.72
658.983	2683.44
663.627	3332.13
668.268	3362.47
672.907	2955.59
677.544	2856.02
682.178	3727.91
686.809	4247.93
691.438	4574.05
696.065	4456.21
700.688	3618.3
705.31	2477.25
709.929	1010.98
714.545	253.414
719.158	97.6543
723.77	166.66
728.378	247.869
732.984	334.955
737.588	165.312
742.189	294.566
746.787	436.351
751.383	274.491
755.976	243.449
760.567	112.306
765.155	144.261
769.741	32.1182
774.324	72.1211
778.904	177.424
783.482	239.179
788.058	34.625
792.631	412.7
797.201	445.914
801.769	586.345
806.334	729.051
810.897	1001.11
815.457	1595.57
820.014	2170.49
824.569	3564.92
829.122	4845.93
833.671	5655.56
838.219	5469.89
842.763	5042.96
847.306	5103.84
851.845	5755.15
856.382	7184.8
860.917	8397.97
865.448	10275
869.978	12910.1
874.505	16256
879.029	18833.6
883.55	17098.2
888.069	13003.2
892.586	9948.34
897.1	9427.63
901.611	11419.7
906.12	15138.8
910.626	19844.2
915.129	23229.4
919.63	22861
924.129	21051.1
928.625	18135.6
933.118	16346.6
937.609	14600.8
942.097	11820.8
946.582	9418.63
951.065	7949.54
955.546	7764.56
960.023	8204.78
964.499	8213.1
968.971	7066.57
973.441	6939.11
977.909	9511.82
982.374	14707.7
986.836	15451.9
991.295	10255.6
995.753	5274.48
1000.21	2928.34
1004.66	1613.33
1009.11	463.57
1013.55	9.91016
1018	73.2012
1022.44	296.387
1026.88	714.391
1031.32	1243.59
1035.75	2184.54
1040.18	3872.69
1044.61	5227.16
1049.04	5880.88
1053.46	5233.98
1057.88	4508.31
1062.3	3858.43
1066.71	4816.24
1071.13	6516.93
1075.54	9345.53
1079.94	14294.9
1084.35	21087.8
1088.75	32351.5
1093.15	41916
1097.55	31410.4
1101.94	14012
1106.34	5908.38
1110.73	3048.16
1115.11	2200.37
1119.5	1634.46
1123.88	1273.47
1128.26	790.178
1132.63	518.598
1137.01	567.867
1141.38	317.611
1145.75	314.947
1150.12	201.455
1154.48	123.299
1158.84	115.381
1163.2	115.633
1167.55	44.8555
1171.91	81.8984
1176.26	100.822
1180.61	77.1797
1184.95	24.2812
1189.29	144.207
1193.63	60.8066
1197.97	66.8828
1202.31	93.3398
1206.64	53.0391
1210.97	49.543
1215.29	33.5645
1219.62	6.42383
1223.94	206.059
1228.26	148.754
1232.57	166.51
1236.89	173.508
1241.2	342.775
1245.51	195.217
1249.81	326.244
1254.12	278.906
1258.42	155.652
1262.72	372.277
1267.01	387.543
1271.3	504.34
1275.59	561.369
1279.88	727.602
1284.17	554.801
1288.45	449.731
1292.73	414.894
1297.01	430.227
1301.28	688.135
1305.55	362.242
1309.82	431.44
1314.09	612.426
1318.35	710.098
1322.61	612.227
1326.87	455.467
1331.13	440.221
1335.38	469.727
1339.63	516.307
1343.88	347.947
1348.12	354.643
1352.37	392.375
1356.61	338.773
1360.85	467.935
1365.08	663.547
1369.31	580.529
1373.54	575.264
1377.77	348.994
1381.99	400.512
1386.22	384.945
1390.43	139.322
1394.65	445.488
1398.87	242.889
1403.08	799.998
1407.29	169.565
1411.49	249.945
1415.69	53.2148
1419.89	159.562
1424.09	254.65
1428.29	68.5488
1432.48	185.859
1436.67	228.111
1440.86	486.191
1445.04	494.498
1449.23	218.637
1453.4	510.481
1457.58	427.231
1461.76	378.418
1465.93	171.06
1470.1	361.568
1474.26	28.4844
1478.43	169.625
1482.59	98.625
1486.75	78.3691
1490.9	47.9746
1495.06	183.934
1499.21	47.6914
1503.35	129.897
1507.5	72.9023
1511.64	286.914
1515.78	224.293
1519.92	177.664
1524.05	67.1094
1528.18	233.084
1532.31	213.672
1536.44	44
1540.56	228.928
1544.69	217.361
1548.8	40.6992
1552.92	110.344
1557.03	113.811
1561.14	71.4199
1565.25	106.082
1569.36	209.228
