Measurement: Raman, 514 nm, depolarized, Raman Data Processed
Mineral: Clinoptilolite-Na
Rruff sample: R061099
Ideal chemistry: Na_6_(Si_30_Al_6_)O_72_20H_2_O
Locality: Richardson Ranch, Madras, Jefferson County, Oregon, USA
Source: Michael Scott
Description: Red-brown to salmon, somewhat coffin shaped tabular crystals in a fragmented geode
Measured chemistry: (Na_2.70_Ca_1.46_K_0.89_Fe_0.08_Mg_0.02_)_Σ=5.15_(Si_29.29_Al_6.71_)O_72_·18.51H_2_O
Pin_id: M01022
Orientation: Laser parallel to a* (1 0 0). Fiducial mark perpendicular to laser is parallel to b [0 1 0]
Raman shift (cm-1)	intensity
155.83	0
160.735	298.775
165.638	286.256
170.538	168.97
175.436	226.804
180.331	127.236
185.224	505.144
190.115	1091.78
195.002	1819.68
199.888	1743.71
204.771	1408.17
209.651	756.551
214.529	234.147
219.405	148.038
224.278	89.2256
229.148	164.133
234.016	53.9707
238.882	34.3486
243.745	518.63
248.606	740.682
253.464	1239.48
258.319	1099.42
263.173	1209.93
268.023	1237.62
272.871	1331.34
277.717	1294.29
282.56	1362.83
287.401	1360.17
292.239	1261.58
297.075	1191.53
301.908	1288.33
306.739	1273.95
311.567	1416.56
316.393	1593.6
321.216	1743.06
326.037	1965.16
330.855	2097.07
335.671	2180.78
340.484	2393.75
345.295	2758.88
350.103	3276.39
354.909	3665.4
359.712	4345.09
364.513	5194.92
369.311	6145.98
374.107	6960.9
378.9	8135.76
383.691	9726.81
388.479	12221.3
393.264	15552.3
398.048	19449.1
402.828	22667.6
407.606	22506.3
412.382	19104.5
417.155	15448.8
421.926	11572.5
426.694	8179.99
431.459	5958.1
436.222	4161.55
440.983	3544.93
445.741	3058.74
450.496	3385.81
455.249	4382
460	5906.49
464.748	7650.46
469.493	8719.08
474.236	9800.45
478.977	12159.6
483.714	13173.5
488.45	10639.4
493.183	6798.17
497.913	3642.98
502.641	1989.93
507.366	1098.17
512.088	708.993
516.809	519.708
521.526	197.405
526.241	248.243
530.954	35.9697
535.664	4.70703
540.371	48.4043
545.076	70.5957
549.779	74.6397
554.479	20.3223
559.176	135.739
563.871	30.1748
568.563	73.5439
573.253	13.6299
577.94	189.239
582.625	53.8867
587.307	313.597
591.987	546.907
596.664	850.921
601.338	1168.05
606.01	1734.86
610.68	2672.07
615.347	2945.88
620.011	2807.48
624.673	2460.03
629.332	1712.62
633.989	1160.06
638.643	829.335
643.295	749.335
647.944	579.075
652.59	483.573
657.234	254.741
661.876	301.549
666.515	189.679
671.151	186.362
675.785	146.798
680.416	270.31
685.045	108.127
689.671	196.284
694.295	177.152
698.916	205.216
703.534	124.88
708.15	110.026
712.764	143.675
717.374	160.634
721.983	215.051
726.588	185.598
731.191	43.1465
735.792	99.8154
740.39	63.1465
744.986	117.073
749.579	145.364
754.169	279.356
758.757	327.86
763.342	366.909
767.925	475.532
772.505	589.106
777.082	644.644
781.657	743.305
786.23	646.408
790.8	586.513
795.367	590.619
799.932	496.568
804.494	392.305
809.053	317.237
813.61	382.851
818.165	549.088
822.717	424.312
827.266	279.4
831.813	82.9814
836.357	24.29
840.899	23.2432
845.438	100.731
849.974	129.076
854.508	235.517
859.04	111.148
863.568	72.9473
868.095	72.6494
872.618	29.6299
877.139	42.6514
881.658	6.88086
886.174	50.7158
890.687	12.9531
895.198	149.478
899.706	4.18359
904.212	140.02
908.715	25.2822
913.215	2.04883
917.713	34.4355
922.208	70.4502
926.701	86.9463
931.191	84.0996
935.679	132.019
940.164	2.34766
944.646	313.188
949.126	321.493
953.603	177.629
958.078	202.605
962.55	329.438
967.019	377.681
971.486	321.999
975.951	603.369
980.413	385.116
984.872	426.429
989.328	638.953
993.782	517.055
998.234	475.63
1002.68	696.26
1007.13	636.436
1011.57	791.437
1016.01	786.545
1020.45	726.366
1024.89	642.601
1029.32	623.227
1033.75	728.474
1038.18	677.477
1042.61	584.675
1047.03	689.582
1051.45	557.87
1055.87	571.156
1060.28	697.034
1064.69	543.59
1069.11	436.051
1073.51	566.501
1077.92	580.414
1082.32	610.564
1086.72	861.961
1091.12	931.611
1095.51	983.842
1099.9	1281.67
1104.29	1466.12
1108.68	1569.9
1113.06	1649.24
1117.44	1653.83
1121.82	1883.95
1126.2	2122.85
1130.57	2089.78
1134.94	2319.14
1139.31	2320.6
1143.68	2424.59
1148.04	2538.51
1152.4	2597.4
1156.76	2588.25
1161.12	2411.21
1165.47	2197.67
1169.82	2083.3
1174.17	2042.4
1178.51	1863.31
1182.86	1556.52
1187.19	1190.03
1191.53	1197.93
1195.87	919.08
1200.2	753.461
1204.53	537.088
1208.86	263.941
1213.18	317.082
1217.5	197.363
1221.82	185.85
1226.14	30.4844
1230.45	129.293
1234.76	143.262
1239.07	30.8926
1243.38	22.1172
1247.68	40.3516
1251.98	52.7266
1256.28	24.0137
1260.58	18.1934
1264.87	218.227
1269.16	52.0938
1273.45	171.41
1277.73	180.375
1282.02	18.5352
1286.3	91.0449
1290.57	23.7246
1294.85	42.7656
1299.12	196.469
1303.39	261.17
1307.66	239.856
1311.92	167.531
1316.18	215.184
1320.44	292.846
1324.7	356.514
1328.95	376.18
1333.2	273.838
1337.45	244.478
1341.7	161.086
1345.94	202.611
1350.18	253.06
1354.42	131.481
1358.66	315.56
1362.89	42.248
1367.12	297.555
1371.35	158.719
1375.58	99.8594
1379.8	289.762
1384.02	150.312
1388.24	245.731
1392.45	209.174
1396.66	65.7109
1400.87	161.074
1405.08	127.633
1409.29	77.0195
1413.49	30.1582
1417.69	130.828
1421.88	74.5918
1426.08	130.768
1430.27	135.613
1434.46	286.58
1438.64	126.654
1442.83	468.377
1447.01	170.734
1451.19	289.914
1455.36	196.826
1459.54	300.619
1463.71	243.293
1467.87	415.377
1472.04	239.381
1476.2	375.662
1480.36	203.184
1484.52	151.191
1488.67	122.26
1492.83	173.414
1496.98	343.803
1501.12	164.56
1505.27	188.086
1509.41	144.07
1513.55	361.424
1517.68	220.219
1521.82	255.594
1525.95	231.246
1530.08	140.408
1534.2	265.865
1538.33	270.297
1542.45	205.102
1546.57	186.619
1550.68	146.025
1554.8	151.219
1558.91	60.6504
1563.01	0
