Measurement: Raman, 514 nm, depolarized, Raman Data Processed
Mineral: Clinoptilolite-Ca
Rruff sample: R060662
Ideal chemistry: Ca_3_(Si_30_Al_6_)O_72_20H_2_O
Locality: Succor Creek, Malheur County, Oregon, USA
Source: Michael Scott
Description: Group of colorless platy prismatic crystals
Measured chemistry: (Ca_1.02_Na_0.97_K_0.59_)_Σ=2.58_(Si_14.40_Al_3.60_)_Σ=18_O_36_·10.96H_2_O
Pin_id: M00063
Orientation: Laser parallel to -a* (-1 0 0). Fiducial mark perpendicular to laser is parallel to b [0 1 0]
Raman shift (cm-1)	intensity
134.127	0
139.043	470.215
143.956	1273.05
148.867	2421.07
153.775	3045.27
158.681	3377.03
163.585	2289.46
168.486	1180.77
173.385	579.414
178.282	1429.69
183.176	3087.22
188.067	4616.27
192.956	5107.48
197.843	4979.47
202.727	4071.79
207.609	2120.42
212.489	955.516
217.366	249.961
222.24	431.357
227.112	572.566
231.982	176.426
236.849	184.123
241.714	895.777
246.577	1722.39
251.437	2233.68
256.294	2788.15
261.149	3048.69
266.002	3335.55
270.852	3405.99
275.7	3558.93
280.545	3435.89
285.388	3515.38
290.229	3420.59
295.067	3444.12
299.902	3437.84
304.735	3751.52
309.566	4050.6
314.394	4564.41
319.22	5233.07
324.043	5600.31
328.864	6111.57
333.682	6406.78
338.498	6600.29
343.311	7082.02
348.122	7998.34
352.931	9022.55
357.737	10681
362.54	12488.8
367.341	14464.1
372.14	16767.6
376.936	19052.6
381.73	22456.7
386.521	27457.4
391.31	34807.8
396.096	42783.6
400.88	48636.3
405.661	49017.2
410.44	43474.8
415.216	35113.2
419.99	26516.2
424.761	19395.9
429.53	13859.1
434.297	10072.9
439.061	7882.99
443.822	6986.37
448.581	7231.95
453.337	8986.29
458.091	12571.7
462.843	16414.8
467.592	19043.1
472.338	22984
477.082	28801.7
481.824	32462.1
486.563	27299.1
491.3	17491.9
496.034	9438.57
500.765	4989.72
505.494	2792.05
510.221	1605.15
514.945	990.821
519.666	770.135
524.385	265.773
529.102	150.281
533.816	154.015
538.527	15.0195
543.236	131.726
547.943	321.94
552.647	208.155
557.348	280.285
562.047	227.996
566.744	93.3066
571.438	35.6397
576.129	288.904
580.818	590.033
585.504	722.561
590.188	1212.1
594.87	1664
599.549	2586.26
604.225	4021.85
608.899	5233.9
613.57	5896.95
618.239	5606.89
622.905	4566.62
627.569	3317.28
632.23	2319.82
636.889	1695.16
641.545	1091.95
646.198	841.06
650.849	722.293
655.498	593.882
660.144	349.195
664.787	233.762
669.428	297.615
674.067	269.996
678.703	75.458
683.336	93.0459
687.967	112.958
692.595	53.7275
697.221	39.7832
701.844	245.818
706.465	137.909
711.083	236.398
715.698	282.538
720.311	226.035
724.922	236.05
729.53	277.959
734.135	94.749
738.738	209.26
743.338	342.922
747.936	379.932
752.531	467.525
757.124	737.531
761.714	848.783
766.302	1003.26
770.887	1100.36
775.469	1407.67
780.049	1339.26
784.626	1371.8
789.201	1205.96
793.773	1011.46
798.343	819.419
802.91	718.073
807.475	789.721
812.037	651.854
816.596	741.473
821.153	595.856
825.707	439.76
830.259	192.734
834.808	73.0859
839.355	87.1113
843.899	44.8486
848.441	84.8174
852.98	45.4727
857.516	17.6221
862.05	50.9307
866.581	39.9717
871.11	35.3643
875.636	147.007
880.159	59.7871
884.68	25.7168
889.199	38.7617
893.714	34.0127
898.228	125.472
902.738	73.4131
907.246	32.3779
911.752	106.007
916.255	24.5811
920.755	76.0117
925.253	117.931
929.748	55.2227
934.241	49.9092
938.731	210.054
943.218	242.714
947.703	212.946
952.186	295.789
956.665	306.328
961.142	573.545
965.617	421.248
970.089	507.85
974.558	600.417
979.025	762.721
983.489	726.179
987.951	858.267
992.41	998.991
996.866	984.342
1001.32	1134.98
1005.77	1331.89
1010.22	1304.25
1014.67	1452.45
1019.11	1597.53
1023.55	1593.73
1027.99	1590.67
1032.42	1689.59
1036.86	1659.8
1041.29	1563.17
1045.72	1724.17
1050.14	1697.09
1054.56	1368.15
1058.98	1387.05
1063.4	1424.43
1067.82	1471.09
1072.23	1536.07
1076.64	1700.95
1081.05	1836.4
1085.45	2211.32
1089.85	2697.56
1094.25	3045.15
1098.65	3450.09
1103.04	3895.44
1107.43	4305.26
1111.82	4506.2
1116.21	4831.26
1120.59	5045.24
1124.97	5247.03
1129.35	5218.82
1133.73	5376.81
1138.1	5384.16
1142.47	5440.05
1146.84	5567.55
1151.21	5701.89
1155.57	5553.81
1159.93	5209.67
1164.29	5203.26
1168.64	4740.86
1172.99	4564.56
1177.34	4137.79
1181.69	3609.7
1186.04	3129.91
1190.38	2751.82
1194.72	2308.93
1199.05	1809.28
1203.39	1365.76
1207.72	1022.75
1212.05	818.659
1216.37	627.821
1220.7	505.703
1225.02	319.856
1229.34	269.179
1233.65	85.916
1237.97	39.8408
1242.28	46.8984
1246.59	112.019
1250.89	63.6074
1255.19	184.878
1259.49	55.2685
1263.79	23.7578
1268.09	59.418
1272.38	36.9453
1276.67	46.1211
1280.95	41.7852
1285.24	0.070313
1289.52	142.578
1293.8	177.631
1298.08	11.8984
1302.35	40.6465
1306.62	37.2031
1310.89	206.578
1315.15	123.014
1319.42	197.238
1323.68	160.447
1327.94	90.4287
1332.19	182.728
1336.44	144.718
1340.69	82.6602
1344.94	77.9482
1349.19	70.1143
1353.43	181.475
1357.67	41.1953
1361.9	178.815
1366.14	129.297
1370.37	170.422
1374.6	227.005
1378.83	202.556
1383.05	66.6318
1387.27	181.286
1391.49	159.914
1395.7	47.5889
1399.92	53.9355
1404.13	188.042
1408.34	190.219
1412.54	16.7041
1416.74	143.072
1420.94	130.579
1425.14	93.959
1429.34	73.4746
1433.53	142.836
1437.72	139.195
1441.9	84.1475
1446.09	318.172
1450.27	220.589
1454.45	213.217
1458.63	286.159
1462.8	249.408
1466.97	226.995
1471.14	234.339
1475.31	117.369
1479.47	80.9365
1483.63	207.46
1487.79	176.724
1491.94	17.499
1496.09	183.205
1500.24	97.3535
1504.39	137.404
1508.54	104.115
1512.68	138.948
1516.82	220.37
1520.95	79.1152
1525.09	156.898
1529.22	109.379
1533.35	180.869
1537.47	19.876
1541.6	88.8662
1545.72	280.624
1549.83	202.731
1553.95	349.725
1558.06	332.979
1562.17	143.036
1566.28	190.595
1570.38	85.3936
