Measurement: Raman, 514 nm, depolarized, Raman Data Processed
Mineral: Clinoptilolite-Ca
Rruff sample: R060662
Ideal chemistry: Ca_3_(Si_30_Al_6_)O_72_20H_2_O
Locality: Succor Creek, Malheur County, Oregon, USA
Source: Michael Scott
Description: Group of colorless platy prismatic crystals
Measured chemistry: (Ca_1.02_Na_0.97_K_0.59_)_Σ=2.58_(Si_14.40_Al_3.60_)_Σ=18_O_36_·10.96H_2_O
Pin_id: M00397
Orientation: Laser parallel to c* (0 0 1). Fiducial mark perpendicular to laser is parallel to -a [-1 0 0]
Raman shift (cm-1)	intensity
84.837	0
89.777	1253.06
94.714	3400.92
99.649	5164.54
104.582	6909.4
109.512	9500.24
114.44	9916.66
119.365	10428.4
124.288	10703.9
129.209	11679.2
134.127	13130.3
139.043	13562.5
143.956	13574.7
148.867	12799.6
153.775	12447.2
158.681	11226.9
163.585	9370.95
168.486	7130.8
173.385	5385.19
178.282	4197.09
183.176	3026.94
188.067	2583.7
192.956	2266.58
197.843	1958.34
202.727	1434.16
207.609	177.088
212.489	332.824
217.366	961.566
222.24	824.51
227.112	764.469
231.982	677.994
236.849	28.7578
241.714	742.479
246.577	1596.93
251.437	2264.02
256.294	2467.34
261.149	2604.61
266.002	2405.56
270.852	2266.96
275.7	1751.81
280.545	1554.79
285.388	1765.67
290.229	1819.7
295.067	1857.43
299.902	1917.38
304.735	2015.56
309.566	2210.73
314.394	2625.56
319.22	3276.35
324.043	3954.86
328.864	4278.92
333.682	4477.4
338.498	4679.16
343.311	5009.17
348.122	5620.4
352.931	6397.57
357.737	7222.05
362.54	8902.62
367.341	10094.7
372.14	12227.3
376.936	14554.2
381.73	17755.6
386.521	22389.5
391.31	28243.7
396.096	34496.9
400.88	38889.7
405.661	37606.5
410.44	32418.2
415.216	25867
419.99	18874.6
424.761	13313.1
429.53	9203.65
434.297	6405.3
439.061	5066.24
443.822	4247.77
448.581	4173.18
453.337	5596.88
458.091	7830.9
462.843	10932.2
467.592	13589.9
472.338	17786.8
477.082	23846
481.824	28089.4
486.563	22922.2
491.3	14083.2
496.034	7541.57
500.765	3794.36
505.494	1846.44
510.221	947.553
514.945	530.465
519.666	337.898
524.385	109.603
529.102	23.043
533.816	41.6191
538.527	138.869
543.236	112.666
547.943	50.1855
552.647	354.643
557.348	153.43
562.047	169.986
566.744	24.8477
571.438	16.8945
576.129	366.178
580.818	465.203
585.504	836.686
590.188	1104.13
594.87	1435.86
599.549	2277.35
604.225	3665.74
608.899	4691.47
613.57	5370.66
618.239	4921.25
622.905	3970.24
627.569	2627.61
632.23	1820.26
636.889	1350.42
641.545	894.875
646.198	767.754
650.849	646.959
655.498	396.373
660.144	232.379
664.787	157.162
669.428	75.6738
674.067	100.121
678.703	140.867
683.336	121.186
687.967	17.4062
692.595	75.1211
697.221	61.7051
701.844	55.6465
706.465	68.1582
711.083	229.504
715.698	406.51
720.311	320.871
724.922	450.08
729.53	481.471
734.135	274.949
738.738	451.664
743.338	494.164
747.936	432.4
752.531	554.555
757.124	719.512
761.714	806.809
766.302	1307.14
770.887	1644.88
775.469	1905.7
780.049	2372.01
784.626	2581.7
789.201	2675.48
793.773	2655.01
798.343	2599.49
802.91	2193.68
807.475	1823.66
812.037	1574.86
816.596	1545.44
821.153	1430.87
825.707	918.269
830.259	687.18
834.808	373.185
839.355	104.664
843.899	246.652
848.441	224.305
852.98	308.26
857.516	292.51
862.05	297.768
866.581	290.512
871.11	181.373
875.636	205.162
880.159	56.3633
884.68	53.4023
889.199	5.63281
893.714	22.7363
898.228	157.098
902.738	32.9629
907.246	70.9512
911.752	304.891
916.255	73.1426
920.755	164.299
925.253	91.2734
929.748	52.0059
934.241	137.99
938.731	197.062
943.218	175.775
947.703	14.5332
952.186	132.256
956.665	14.168
961.142	10.0488
965.617	189.951
970.089	341.287
974.558	333.117
979.025	459.453
983.489	421.656
987.951	727.32
992.41	859.664
996.866	1075.92
1001.32	1382.95
1005.77	1056.27
1010.22	1187.67
1014.67	1308.38
1019.11	1442.83
1023.55	1695.73
1027.99	1627.4
1032.42	1569.83
1036.86	1588.3
1041.29	1561.26
1045.72	1692.76
1050.14	1536.95
1054.56	1387.45
1058.98	1360.79
1063.4	1502.03
1067.82	1332.45
1072.23	1552.8
1076.64	1425.76
1081.05	1866.77
1085.45	2082.32
1089.85	2493.05
1094.25	2705.46
1098.65	3091.67
1103.04	3364.57
1107.43	3544.22
1111.82	3731.54
1116.21	4110.97
1120.59	4378.52
1124.97	4433.29
1129.35	4717.91
1133.73	4709.28
1138.1	4653.9
1142.47	4502.69
1146.84	4366.48
1151.21	4633.2
1155.57	4611.65
1159.93	4047.76
1164.29	4046.49
1168.64	3734.14
1172.99	3646.08
1177.34	3186.38
1181.69	2858.97
1186.04	2467.9
1190.38	2172.3
1194.72	1641.91
1199.05	1262.75
1203.39	1026.46
1207.72	631.146
1212.05	468.453
1216.37	194.42
1220.7	246.037
1225.02	230.422
1229.34	102.064
1233.65	12.5527
1237.97	73.8379
1242.28	55.9531
1246.59	65.4707
1250.89	3.09766
1255.19	74.0801
1259.49	96.916
1263.79	145.246
1268.09	246.057
1272.38	104.035
1276.67	237.193
1280.95	97.2246
1285.24	107.713
1289.52	292.252
1293.8	313.531
1298.08	188.008
1302.35	132.748
1306.62	273.594
1310.89	418.711
1315.15	512.365
1319.42	392.846
1323.68	448.912
1327.94	232.713
1332.19	66.1035
1336.44	64.8242
1340.69	269.453
1344.94	187.18
1349.19	302.201
1353.43	213.125
1357.67	59.8867
1361.9	209.518
1366.14	174.027
1370.37	80.6309
1374.6	215.32
1378.83	380.504
1383.05	182.09
1387.27	118.344
1391.49	7.0957
1395.7	222.973
1399.92	84.3848
1404.13	148.668
1408.34	190.525
1412.54	166.213
1416.74	40.8633
1420.94	190.721
1425.14	230.394
1429.34	280.928
1433.53	60.3613
1437.72	288.449
1441.9	124.477
1446.09	182.023
1450.27	180.137
1454.45	26.543
1458.63	30.5
1462.8	218.422
1466.97	253.004
1471.14	170.457
1475.31	4.29883
1479.47	106.602
1483.63	20.916
1487.79	0.746094
1491.94	28.0117
1496.09	115.756
1500.24	130.402
1504.39	368.897
1508.54	306.111
1512.68	31.7168
1516.82	79.8047
1520.95	91.7676
1525.09	465.283
1529.22	286.92
1533.35	390.977
1537.47	201.461
1541.6	283.184
1545.72	523.486
1549.83	229.504
1553.95	481.818
1558.06	261.082
1562.17	204.398
1566.28	284.398
1570.38	95.9082
