Measurement: Raman, 514 nm, depolarized, Raman Data Processed
Mineral: Clinoptilolite-Na
Rruff sample: R061099
Ideal chemistry: Na_6_(Si_30_Al_6_)O_72_20H_2_O
Locality: Richardson Ranch, Madras, Jefferson County, Oregon, USA
Source: Michael Scott
Description: Red-brown to salmon, somewhat coffin shaped tabular crystals in a fragmented geode
Measured chemistry: (Na_2.70_Ca_1.46_K_0.89_Fe_0.08_Mg_0.02_)_Σ=5.15_(Si_29.29_Al_6.71_)O_72_·18.51H_2_O
Pin_id: M00738
Orientation: Laser parallel to b* (0 1 0). Fiducial mark perpendicular to laser is parallel to c [0 0 1]
Raman shift (cm-1)	intensity
168.088	0
172.987	287.435
177.884	74.0684
182.778	317.082
187.67	328.893
192.559	556.262
197.445	506.865
202.33	474.068
207.211	139.369
212.091	173.984
216.967	128.59
221.842	113.504
226.713	198.135
231.583	218.885
236.449	539.842
241.314	767.037
246.176	1268.94
251.035	1516.87
255.892	1469.17
260.746	1680.87
265.598	1071
270.448	972.123
275.295	712.785
280.139	455.672
284.981	137.772
289.82	77.1348
294.657	223.324
299.492	41.7812
304.324	4.94531
309.153	150.908
313.98	239.303
318.805	384.74
323.627	444.062
328.446	608.557
333.263	771.781
338.078	884.664
342.89	932.215
347.699	1017.94
352.506	1456.25
357.311	1955.32
362.113	2275.9
366.912	2882.02
371.709	3391.96
376.504	4250.16
381.295	5388.94
386.085	6714.82
390.872	8780.41
395.656	11206.9
400.438	13899.8
405.218	15234
409.994	13934
414.769	11535.8
419.541	8234.24
424.31	6011.39
429.077	4096.57
433.841	2832.65
438.603	2034.34
443.362	1425.93
448.119	1570.48
452.873	1696.63
457.625	2345.31
462.374	3603.63
467.121	4246.4
471.865	5337.69
476.607	7289.63
481.346	9197.31
486.082	8751.82
490.816	6002.24
495.548	3432.63
500.277	1669.08
505.003	898.729
509.727	573.635
514.449	310.547
519.168	284.383
523.884	226.262
528.598	88.5215
533.309	192.246
538.018	49.1016
542.724	73.707
547.428	59.0078
552.129	22.5352
556.828	36.1641
561.524	218.264
566.217	4.74609
570.909	197.889
575.597	122.186
580.283	316.297
584.966	499.018
589.647	592.033
594.326	695.637
599.001	928.539
603.675	1346.59
608.345	1771.91
613.014	2278.51
617.679	2764.05
622.342	2753.97
627.003	2320.54
631.661	1525.71
636.316	1053.52
640.969	920.93
645.62	985.943
650.267	978.83
654.913	518.481
659.555	412.299
664.196	63.25
668.833	175.535
673.468	99.334
678.101	77.7207
682.731	24.4238
687.358	7.47461
691.983	125.246
696.605	95.2324
701.225	53.8477
705.842	51.8652
710.457	13.1426
715.069	99.0391
719.679	108.033
724.286	138.4
728.89	130.463
733.492	203.629
738.091	361.615
742.688	426.685
747.282	513.557
751.874	425.215
756.463	287.82
761.05	461.191
765.634	707.346
770.215	736.58
774.794	845.764
779.37	993
783.944	1244.93
788.515	1427.42
793.084	1426.61
797.65	1302.73
802.213	1267.85
806.774	1135.95
811.332	966.58
815.888	1278.11
820.441	1417.62
824.992	1037.87
829.54	685.598
834.085	543.461
838.628	492.279
843.169	501.9
847.706	325.404
852.242	507.307
856.774	632.613
861.304	764.713
865.832	574.627
870.357	143.637
874.879	261.488
879.399	86.9336
883.916	171.016
888.431	74.7519
892.943	41.8027
897.452	233.637
901.959	121.102
906.463	12.791
910.965	63.9023
915.464	164.258
919.961	17.8418
924.455	79.0566
928.946	48.6426
933.435	37.2109
937.922	62.7695
942.405	95.8769
946.886	58.2129
951.365	85.3633
955.841	58.3203
960.314	190.877
964.785	15.0293
969.253	18.752
973.719	221.387
978.182	274.482
982.642	47.4199
987.1	286.441
991.556	58.2051
996.008	438.963
1000.46	741.644
1004.91	706.986
1009.35	181.361
1013.79	300.256
1018.23	527.369
1022.67	510.461
1027.11	585.932
1031.54	565.914
1035.97	607.688
1040.39	487.023
1044.82	213.934
1049.24	314.832
1053.66	336.656
1058.08	387.914
1062.49	251.272
1066.9	407.764
1071.31	374.49
1075.71	518.578
1080.12	454.19
1084.52	684.908
1088.92	566.85
1093.31	578.279
1097.71	608.18
1102.1	884.742
1106.48	983.906
1110.87	930.24
1115.25	1061.04
1119.63	1131.04
1124.01	1266.82
1128.39	1428.02
1132.76	1036.27
1137.13	1214.66
1141.5	1308.29
1145.86	1242.46
1150.22	1274.17
1154.58	1176.02
1158.94	1088.4
1163.29	925.611
1167.64	1161.94
1171.99	1018.42
1176.34	949.068
1180.68	766.852
1185.03	672.885
1189.36	668.41
1193.7	547.174
1198.03	243.219
1202.36	394.478
1206.69	224.986
1211.02	122.609
1215.34	103.402
1219.66	124.33
1223.98	3.36133
1228.3	28.1504
1232.61	235.67
1236.92	16.8945
1241.22	120.504
1245.53	56.9082
1249.83	68.7168
1254.13	118.289
1258.43	159.92
1262.72	176.555
1267.02	460.238
1271.3	207.844
1275.59	288.207
1279.88	321.559
1284.16	302.418
1288.43	422.195
1292.71	438.031
1296.98	743.199
1301.26	243.742
1305.52	629.356
1309.79	872.953
1314.05	764.531
1318.31	808.094
1322.57	466.672
1326.83	571.254
1331.08	455.824
1335.33	350.621
1339.58	513.188
1343.82	167.746
1348.07	337.867
1352.31	358.176
1356.54	206.457
1360.78	234.508
1365.01	147.566
1369.24	249.586
1373.46	35.4727
1377.69	332.269
1381.91	172.004
1386.13	123.648
1390.35	282.93
1394.56	35.7969
1398.77	107.695
1402.98	55.1719
1407.18	72.0234
1411.39	203.199
1415.59	252.906
1419.79	66.7539
1423.98	147.676
1428.17	251.477
1432.36	405.973
1436.55	578.898
1440.74	976.863
1444.92	847.391
1449.1	1238.8
1453.28	1313.16
1457.45	1360.36
1461.62	1230.9
1465.79	944.086
1469.96	881.172
1474.12	865.715
1478.28	730.414
1482.44	360.867
1486.6	163.922
1490.75	173.019
1494.9	215.168
1499.05	441.414
1503.19	294.016
1507.34	273.051
1511.48	36.7344
1515.62	6.60547
1519.75	262.004
1523.88	230.648
1528.02	84.4688
1532.14	281.762
1536.27	349.652
1540.39	331.891
1544.51	49.8555
1548.62	401.609
1552.74	289.488
1556.85	345.191
1560.96	0.570313
