Measurement: Raman, 514 nm, depolarized, Raman Data Processed
Mineral: Clinohumite
Rruff sample: R040122
Ideal chemistry: Mg_9_(SiO_4_)_4_F_2_
Locality: Anzahamazonono,  Madagascar
Source: University of Arizona Mineral Museum
Description: Orange-brown blebs embedded in calcite matrix
Measured chemistry: (Mg_0.96_Fe_0.02_Ti_0.01_Ca_0.01_)_9_(SiO_4_)_4_(F_0.59_(OH)_0.41_)_2_
Pin_id: S00005
Orientation: Laser parallel to c* (0 0 1). Fiducial mark perpendicular to laser is parallel to a [1 0 0]
Raman shift (cm-1)	intensity
133.003	0
137.164	103.109
141.323	59.075
145.48	114.072
149.635	137.615
153.788	104.842
157.939	120.681
162.088	37.943
166.235	69.889
170.38	16.232
174.523	105.07
178.664	106.735
182.803	185.688
186.94	137.299
191.076	91.488
195.209	129.021
199.34	138.242
203.47	122.828
207.597	148.808
211.722	68.505
215.846	118.164
219.967	13.946
224.087	17.159
228.204	29.217
232.32	127.557
236.434	93.041
240.545	112.233
244.655	68.786
248.763	7.756
252.869	67.539
256.973	71.89
261.075	41.17
265.175	7.467
269.273	134.903
273.369	60.673
277.463	45.312
281.556	75.614
285.646	82.012
289.734	20.265
293.821	117.979
297.905	10.574
301.988	104.749
306.069	157.324
310.147	193.029
314.224	283.55
318.299	462.068
322.372	300.404
326.443	375.006
330.512	215.396
334.579	136.218
338.645	114.16
342.708	139.727
346.769	99.281
350.829	128.49
354.887	162.133
358.942	117.074
362.996	59.703
367.048	41.938
371.098	24.704
375.146	38.451
379.192	25.894
383.236	56.827
387.279	51.917
391.319	33.661
395.358	6.433
399.394	18.667
403.429	3.228
407.462	94.918
411.493	22.173
415.522	41.509
419.549	101.196
423.575	118.539
427.598	71.849
431.619	165.016
435.639	165.106
439.657	198.969
443.673	135.168
447.687	155.601
451.699	109.941
455.709	37.833
459.717	55.833
463.724	146.306
467.728	49.08
471.731	36.512
475.732	99.247
479.731	193.435
483.728	17.762
487.723	154.663
491.716	178.508
495.708	332.126
499.697	301.79
503.685	340.713
507.671	386.418
511.655	265.733
515.637	396.991
519.617	334.44
523.596	315.905
527.572	420.895
531.547	487.874
535.52	609.812
539.491	548.592
543.46	674.106
547.427	738.39
551.393	528.783
555.356	541.436
559.318	338.323
563.278	303.986
567.236	292.09
571.192	313.828
575.147	408.217
579.099	172.199
583.05	295.301
586.999	347.636
590.946	369.752
594.891	650.464
598.834	750.517
602.776	1130.13
606.715	1668.38
610.653	1515.12
614.589	887.858
618.523	440.88
622.456	255.338
626.386	128.59
630.315	17.786
634.242	90.07
638.167	41.723
642.09	31.565
646.012	22.277
649.931	97.543
653.849	92.09
657.765	101.005
661.679	149.182
665.592	32.936
669.502	73.191
673.411	108.543
677.318	72.365
681.223	23.66
685.126	90.26
689.028	92.93
692.927	25.539
696.825	137.812
700.721	30.605
704.616	90.299
708.508	60.479
712.399	80.055
716.288	12.842
720.175	233.875
724.06	189.191
727.944	383.66
731.825	228.521
735.705	571.797
739.584	605.664
743.46	929.662
747.334	1252.84
751.207	1346.91
755.078	1381.87
758.947	1155.55
762.815	978.822
766.68	801.717
770.544	804.268
774.406	776.279
778.267	1386.24
782.125	1855.07
785.982	1825.87
789.837	1531.96
793.69	1244.5
797.542	958.34
801.391	1008.33
805.239	1493.09
809.085	1791.72
812.93	1895.01
816.772	2127.4
820.613	2607.41
824.452	4651.3
828.29	8057.94
832.125	7127.43
835.959	4917.77
839.791	5001.74
843.621	6224.94
847.45	5783.87
851.277	4355.67
855.102	4590.97
858.925	6137.19
862.746	4903.73
866.566	2664.35
870.384	1756.41
874.2	1041.51
878.015	722.346
881.828	568.35
885.639	244.582
889.448	151.381
893.256	138.189
897.061	275
900.865	341.822
904.668	108.658
908.468	305.479
912.267	442.305
916.064	229.146
919.86	236.012
923.653	122.908
927.445	99.836
931.236	156.818
935.024	126.127
938.811	50.896
942.596	171.957
946.379	285.117
950.161	92.326
953.94	199.746
957.719	287.355
961.495	1005.23
965.27	1673.52
969.043	1761.75
972.814	1010.14
976.583	508.725
980.351	257.539
984.117	456.893
987.882	292.096
991.644	231.58
995.405	18.631
999.165	61.428
1002.92	151.775
1006.68	77.609
1010.43	96.732
1014.18	217.725
1017.93	259.396
1021.68	52.762
1025.43	126.672
1029.18	29.449
1032.92	232.207
1036.66	25.707
1040.4	579.828
1044.14	423.234
1047.88	346.625
1051.62	441.266
1055.35	414.773
1059.08	397.684
1062.81	491.992
1066.54	156.078
1070.27	490.543
1073.99	174.633
1077.72	228.816
1081.44	273.109
1085.16	372.391
1088.88	346.844
1092.59	733.988
1096.31	258.121
1100.02	332.758
1103.73	337.445
1107.44	62.668
1111.15	197.398
1114.86	252.418
1118.57	187.469
1122.27	302.605
1125.97	97.332
1129.67	93.574
1133.37	30.863
1137.07	443.672
1140.76	230.836
1144.45	156.492
1148.15	430.188
1151.84	476.066
1155.53	410.754
1159.21	56.598
1162.9	210.137
1166.58	93.316
1170.26	345.863
1173.94	460.289
1177.62	640.074
1181.3	342.559
1184.97	176.684
1188.65	262.684
1192.32	387.129
1195.99	201.012
1199.66	654.953
1203.33	719
1206.99	912.555
1210.65	756.48
1214.32	230.902
1217.98	483.762
1221.64	617.008
1225.29	581.43
1228.95	664.641
1232.6	1056.65
1236.26	649.312
1239.91	900.609
1243.56	831.066
1247.2	440.281
1250.85	289.938
1254.49	448.781
1258.13	356.016
1261.78	913.332
1265.41	910.363
1269.05	1048.35
1272.69	683.73
1276.32	808.473
1279.95	431.641
1283.59	55.172
1287.21	28.133
1290.84	330.438
1294.47	422.516
1298.09	553.711
1301.72	894.781
1305.34	389.547
1308.96	441.883
1312.58	204.535
1316.19	68.781
1319.81	21.227
1323.42	434.293
1327.03	632.648
1330.64	742.016
1334.25	809.438
1337.86	597.492
1341.46	385.25
1345.07	283.426
1348.67	301.219
1352.27	248.68
1355.87	505.855
1359.46	822.121
1363.06	908.543
1366.65	1224.22
1370.25	708.508
1373.84	642.703
1377.43	624.312
1381.02	541.266
1384.6	559.352
1388.18	1266.89
1391.77	218.188
1395.35	589.844
1398.93	622.812
1402.51	697.258
1406.08	1118.9
1409.66	877.695
1413.23	752.035
1416.8	539.145
1420.37	546.582
1423.94	19.398
1427.51	402.133
1431.08	489.207
1434.64	722.77
1438.2	533.355
1441.76	1277.85
1445.32	1314.3
1448.88	1285.04
1452.43	708.883
1455.99	649.438
1459.54	224.883
1463.09	0
