Measurement: Raman, 514 nm, ccw, Raman Data Processed
Mineral: Clinohumite
Rruff sample: R040122
Ideal chemistry: Mg_9_(SiO_4_)_4_F_2_
Locality: Anzahamazonono,  Madagascar
Source: University of Arizona Mineral Museum
Description: Orange-brown blebs embedded in calcite matrix
Measured chemistry: (Mg_0.96_Fe_0.02_Ti_0.01_Ca_0.01_)_9_(SiO_4_)_4_(F_0.59_(OH)_0.41_)_2_
Pin_id: M01103
Orientation: Laser parallel to -a* (-1 0 0). Fiducial mark perpendicular to laser is parallel to b [0 1 0]
Raman shift (cm-1)	intensity
124.98	0
129.939	44.8828
134.894	563.223
139.847	708.047
144.796	1367.43
149.742	1108.14
154.684	1270.45
159.624	1069.45
164.56	1572.83
169.493	1915.88
174.423	2063.82
179.349	2391.67
184.273	3560.16
189.193	3017.33
194.11	2615.59
199.024	2954.16
203.934	3786.41
208.842	4154.69
213.746	3741.56
218.647	3383.63
223.545	2787.18
228.44	3735.27
233.332	4243.91
238.221	4786.98
243.106	4321.66
247.988	4155.92
252.867	4432.3
257.744	4576.99
262.616	4440.02
267.486	3688.14
272.353	3184.63
277.217	2700.25
282.077	3073.7
286.935	2759.11
291.789	2895.6
296.64	2601.03
301.489	2211.62
306.334	1730.77
311.176	2361.02
316.015	3265.01
320.851	4049.45
325.684	3576.12
330.514	2309.83
335.34	1799.36
340.164	1466.48
344.985	873.062
349.803	572.664
354.617	512.023
359.429	354.203
364.238	545.156
369.044	194.844
373.846	105.898
378.646	276.445
383.443	340.375
388.236	244.008
393.027	841.102
397.815	950.727
402.6	244.484
407.381	685.156
412.16	700.969
416.936	987.305
421.709	1048.01
426.479	1065.61
431.246	174.945
436.01	648.547
440.771	745.117
445.53	803.477
450.285	264.461
455.037	269.938
459.787	366.477
464.533	758.844
469.277	744.047
474.018	1051.26
478.756	865.352
483.491	489.227
488.223	99.7734
492.952	419.805
497.678	201.453
502.402	45.5547
507.122	203.336
511.84	81.8594
516.555	58.5703
521.267	346.219
525.976	899.227
530.683	1053.05
535.386	1543.48
540.087	1523.35
544.785	1761.94
549.48	1827.2
554.172	1698.85
558.861	908.109
563.548	1317.93
568.231	1501.98
572.912	1816.91
577.59	2665.54
582.266	4233.84
586.938	5291.49
591.608	5467.02
596.275	5498.37
600.939	9106.49
605.601	13984.4
610.259	17282
614.915	13052.2
619.568	6589.09
624.219	3580.61
628.866	1609.84
633.511	1149.73
638.153	842.32
642.793	271.203
647.429	245.359
652.063	83
656.695	150.703
661.323	199.219
665.949	4.86719
670.572	189.547
675.192	198.672
679.81	335.391
684.425	552.172
689.037	420.297
693.647	145.18
698.254	227.281
702.858	298.898
707.46	398.312
712.059	843.383
716.655	1006.67
721.248	1500.39
725.839	1866.7
730.428	3137.7
735.013	4985.45
739.596	7041.06
744.176	9118.62
748.754	10953.2
753.329	10618.9
757.902	9105.89
762.471	7791.13
767.039	6491.64
771.603	6078.06
776.165	9270.92
780.724	15307.5
785.281	19628.1
789.835	18349.8
794.387	13616.1
798.936	12785.6
803.482	16662.2
808.026	22771.9
812.567	24813.8
817.106	25085.3
821.642	30297.2
826.176	47325.7
830.706	70566.8
835.235	62330.6
839.761	52185.9
844.284	65970.6
848.805	73235.6
853.323	66222.2
857.839	82297.9
862.352	95806.2
866.863	62018.8
871.371	38338
875.876	32207.9
880.379	28732.3
884.88	17981.6
889.378	9800.5
893.873	6018.56
898.367	4927.59
902.857	3973.86
907.345	4021.73
911.831	4973.23
916.314	4060.44
920.795	3512.81
925.273	3055.2
929.748	2420.05
934.222	1584.83
938.692	1126.94
943.161	1328.11
947.627	1752.08
952.09	1311.06
956.551	3894.06
961.009	10468.9
965.465	20401.4
969.919	24411.7
974.37	13406.1
978.819	6332.05
983.265	2774.69
987.709	2333.36
992.151	1115.41
996.59	567.625
1001.03	698.875
1005.46	611.125
1009.89	540.031
1014.32	693.781
1018.75	772.25
1023.17	922.609
1027.6	1093
1032.02	1773.16
1036.43	761.109
1040.85	1770.66
1045.26	917.484
1049.67	701.031
1054.08	399.969
1058.49	27.8281
1062.89	637.281
1067.29	925.062
1071.69	75.5156
1076.09	123.344
1080.48	142.219
1084.87	69.5
1089.26	952.031
1093.65	592.219
1098.03	1134.03
1102.42	1608.66
1106.8	1027.17
1111.17	1026.5
1115.55	1747.59
1119.92	1271.59
1124.29	742.062
1128.66	866.922
1133.03	1168.36
1137.39	1106.77
1141.76	856.391
1146.11	1070.59
1150.47	1548.92
1154.83	1676.31
1159.18	987.312
1163.53	1487.28
1167.88	1969.94
1172.22	1105.22
1176.57	1700.55
1180.91	1061.09
1185.25	982.438
1189.59	1741.67
1193.92	1027.23
1198.25	738.641
1202.58	356.469
1206.91	668.719
1211.24	919.25
1215.56	497.938
1219.88	708.281
1224.2	724.297
1228.52	1232.7
1232.83	996.578
1237.14	1263.09
1241.45	901.609
1245.76	466.328
1250.07	1080.66
1254.37	668.375
1258.67	374.203
1262.97	860.203
1267.27	883.172
1271.57	515.141
1275.86	1304.62
1280.15	278.156
1284.44	919.781
1288.72	1213.17
1293.01	90.4531
1297.29	491.578
1301.57	37.4844
1305.85	729.328
1310.12	1184.86
1314.4	316.219
1318.67	477.766
1322.94	960.922
1327.2	684.219
1331.47	609.516
1335.73	1236.69
1339.99	45.375
1344.25	922.734
1348.51	28.75
1352.76	600.297
1357.01	1894.03
1361.26	59.125
1365.51	411.438
1369.76	766.672
1374	24.9219
1378.24	966.688
1382.48	285.453
1386.72	716.156
1390.96	618.719
1395.19	425.531
1399.42	573.125
1403.65	415.547
1407.88	75.625
1412.1	343.172
1416.33	401.344
1420.55	183.766
1424.77	66.2969
1428.98	179.922
1433.2	328.5
1437.41	112.297
1441.62	901.688
1445.83	1146.02
1450.04	136.938
1454.24	534
1458.45	1023.19
1462.65	554.078
1466.85	719.953
1471.04	645.828
1475.24	1773.75
1479.43	387.875
1483.62	861.234
1487.81	947.484
1492	382.672
1496.18	1632.62
1500.37	857.781
1504.55	1208.14
1508.73	1467.67
1512.9	2262.75
1517.08	2152.8
1521.25	1540.75
1525.42	2287.75
1529.59	1073.94
1533.76	1951.02
1537.92	1583.05
1542.09	923.141
1546.25	2070.64
1550.41	476.844
1554.56	1728.81
1558.72	623.781
1562.87	740.875
1567.03	831.219
1571.17	177.875
1575.32	2034.31
1579.47	108.188
