Measurement: Raman, 514 nm, depolarized, Raman Data Processed
Mineral: Clinochlore
Rruff sample: R060725
Ideal chemistry: Mg_5_Al(AlSi_3_O_10_)(OH)_8_
Locality: Crestmore Quarry, Riverside, California, USA
Source: Bob Jenkins
Description: Green transparent books of mica
Measured chemistry: (Mg_4.65_Al_1.12_Fe^2+^_0.17_[box]_0.06_)_Σ=6_(Si_3.00_Al_1.00_)_Σ=4_O_10_(OH)_8_
Pin_id: L01861
Raman shift (cm-1)	intensity
162.246	0
167.16	44.5684
172.073	69.2168
176.982	108.205
181.888	173.697
186.792	62.1895
191.694	487.945
196.592	858.307
201.488	1192.7
206.381	1697.87
211.271	1077.46
216.159	356.365
221.044	181.352
225.926	281.988
230.806	193.221
235.683	54.0332
240.557	195.978
245.429	62.0332
250.298	96.9883
255.164	112.068
260.027	180.055
264.888	27.0684
269.746	513.635
274.601	530.004
279.454	833.92
284.304	625.615
289.151	451.631
293.996	352.15
298.838	327.025
303.677	179.039
308.514	169.477
313.348	351.133
318.179	258.016
323.008	340.906
327.834	674.496
332.657	478.971
337.478	720.318
342.295	1097.46
347.111	2130.9
351.923	2967.38
356.733	3780.35
361.54	2796.13
366.345	1328.71
371.147	874.094
375.946	571.43
380.743	698.375
385.537	242.082
390.328	472.398
395.116	317.553
399.902	414.549
404.686	321.275
409.466	162.818
414.244	238.041
419.019	554.006
423.792	657.717
428.562	665.182
433.329	589.391
438.094	429.07
442.856	662.193
447.616	489.24
452.372	397.656
457.126	501.006
461.878	667.982
466.627	315.402
471.373	146.141
476.116	189.695
480.857	229.356
485.596	368.777
490.331	153.969
495.064	65.9297
499.795	163.676
504.522	439.207
509.247	235.504
513.97	353.594
518.69	483.551
523.407	891.336
528.121	1257.92
532.833	1317.89
537.543	1531.07
542.249	2141.86
546.953	3897.73
551.655	5579.35
556.354	2978.72
561.05	1501.85
565.743	722.762
570.434	534.648
575.123	460.309
579.808	20.3594
584.491	153.547
589.172	11.0039
593.85	91.1016
598.525	198.863
603.197	244.758
607.868	5.18359
612.535	11.7422
617.2	61.6055
621.862	202.898
626.522	305.723
631.178	390.793
635.833	304.246
640.485	241.277
645.134	532.852
649.78	701.965
654.424	989.824
659.066	1407.73
663.704	1954.4
668.341	3037.03
672.974	4071.33
677.605	4717.39
682.234	4572.89
686.859	4395.84
691.483	3439.2
696.103	2713.17
700.721	2161.13
705.337	1642.58
709.949	1414.56
714.56	812.711
719.167	805.977
723.772	572.769
728.375	574.18
732.975	268.809
737.572	635.41
742.167	207.039
746.759	307.852
751.349	440.309
755.936	283.477
760.52	567.098
765.102	467.094
769.681	145.629
774.258	390.945
778.832	474.457
783.404	422.906
787.973	235.519
792.539	236.148
797.103	111.633
801.665	18.8867
806.223	524.785
810.779	334.422
815.333	425.051
819.884	54.6719
824.433	147.254
828.979	590.582
833.522	190.051
838.063	160.269
842.601	248.344
847.137	425.164
851.67	343.688
856.2	505.559
860.729	279.398
865.254	256.203
869.777	185.164
874.297	306.289
878.815	226.59
883.33	170.711
887.843	268.16
892.353	311.988
896.861	285.098
901.366	169.836
905.869	349.688
910.369	253.281
914.866	383.637
919.361	368.742
923.854	542.586
928.344	387.176
932.831	118.473
937.316	341.953
941.798	566.652
946.278	267.113
950.755	325.91
955.23	355.762
959.702	39.5977
964.171	515.898
968.638	510.695
973.103	164.859
977.565	474.086
982.025	575.586
986.482	551.18
990.936	225.707
995.388	374.676
999.837	713.269
1004.28	590.648
1008.73	563.144
1013.17	384.481
1017.61	449.133
1022.05	238.164
1026.48	276.18
1030.91	243.328
1035.34	533.941
1039.77	540.789
1044.19	443.527
1048.62	549.176
1053.03	686.406
1057.45	649.324
1061.87	549.59
1066.28	511
1070.69	982.527
1075.09	820.996
1079.5	755.91
1083.9	1511.4
1088.3	796.469
1092.69	937.465
1097.09	420.535
1101.48	345.723
1105.87	110.109
1110.26	93.5039
1114.64	556.547
1119.02	280.348
1123.4	564.383
1127.78	127.113
1132.15	195.789
1136.53	376.578
1140.89	154.977
1145.26	161.637
1149.63	406.277
1153.99	202.41
1158.35	212.93
1162.7	114.711
1167.06	373.719
1171.41	212.715
1175.76	257.414
1180.11	138.856
1184.45	118.031
1188.79	348.953
1193.13	361.652
1197.47	334.762
1201.81	227.43
1206.14	162.336
1210.47	148.75
1214.79	406.019
1219.12	418
1223.44	81.8789
1227.76	393.59
1232.08	548.117
1236.39	358.281
1240.7	272.078
1245.02	242.141
1249.32	126.281
1253.63	379.109
1257.93	132.508
1262.23	107.078
1266.53	5.19141
1270.82	14.6914
1275.12	327.438
1279.41	156.535
1283.69	52.5352
1287.98	53.8789
1292.26	364.996
1296.54	379.867
1300.82	7.97266
1305.1	57.2422
1309.37	512.523
1313.64	399.281
1317.91	296.848
1322.17	108.496
1326.44	350.231
1330.7	745.949
1334.96	286.594
1339.21	690.59
1343.47	371.879
1347.72	622.344
1351.97	409.75
1356.21	326.992
1360.46	458.824
1364.7	128.09
1368.94	256.637
1373.17	313.609
1377.41	194.918
1381.64	90.9766
1385.87	341.973
1390.1	230.281
1394.32	347.344
1398.54	470.867
1402.76	544.176
1406.98	199.535
1411.19	469.137
1415.41	496.719
1419.62	136.852
1423.82	327.891
1428.03	279.543
1432.23	358.719
1436.43	437.738
1440.63	428.922
1444.82	744.555
1449.02	692.629
1453.21	377.656
1457.4	422.191
1461.58	316.309
1465.77	464.043
1469.95	148.379
1474.12	478.184
1478.3	479.918
1482.47	813.184
1486.64	292.992
1490.81	469.477
1494.98	391.598
1499.14	138.301
1503.31	139.582
1507.47	210.875
1511.62	529.219
1515.78	610.637
1519.93	485.219
1524.08	495.176
1528.23	317.742
1532.37	348.199
1536.51	380.535
1540.65	384.848
1544.79	183.82
1548.93	121.508
1553.06	64.5508
1557.19	88.4023
1561.32	5.45703
