Measurement: Raman, 514 nm, depolarized, Raman Data Processed
Mineral: Clinoptilolite-Na
Rruff sample: R061099
Ideal chemistry: Na_6_(Si_30_Al_6_)O_72_20H_2_O
Locality: Richardson Ranch, Madras, Jefferson County, Oregon, USA
Source: Michael Scott
Description: Red-brown to salmon, somewhat coffin shaped tabular crystals in a fragmented geode
Measured chemistry: (Na_2.70_Ca_1.46_K_0.89_Fe_0.08_Mg_0.02_)_Σ=5.15_(Si_29.29_Al_6.71_)O_72_·18.51H_2_O
Pin_id: M01647
Orientation: Laser parallel to c* (0 0 1). Fiducial mark perpendicular to laser is parallel to a [1 0 0]
Raman shift (cm-1)	intensity
168.238	0
173.17	66.9248
178.1	188
183.026	1.11426
187.948	337.3
192.868	719.277
197.785	1284.17
202.699	1902.73
207.609	1320.63
212.517	868.368
217.422	246.63
222.323	169.477
227.222	93.7529
232.117	127.472
237.01	145.866
241.899	426.042
246.785	664.347
251.669	1058.73
256.549	1353.17
261.426	1358.88
266.3	1369.93
271.172	1169.48
276.04	1153.09
280.905	945.178
285.767	940.517
290.627	863.9
295.483	945.243
300.336	832.854
305.186	835.781
310.034	865.604
314.878	974.884
319.72	1156.06
324.558	1494.38
329.393	1829.18
334.226	2054.78
339.055	2075.24
343.882	2277.2
348.706	2415.21
353.526	2715.98
358.344	3212.76
363.159	3996.53
367.971	4850.12
372.78	5803.63
377.586	6796.85
382.389	8316.53
387.189	9819.32
391.986	12606.6
396.78	16218.3
401.572	19944.7
406.36	21681.2
411.146	19922.5
415.929	16451.9
420.709	12995
425.486	9426.77
430.26	6768.27
435.031	4566.43
439.799	3438.76
444.564	2731.21
449.327	2497.05
454.087	2893.79
458.843	3949
463.597	5555.11
468.348	7135.15
473.097	8417.42
477.842	11052.1
482.585	13930.4
487.324	14209.2
492.061	10202.8
496.795	5555.26
501.526	2996.73
506.255	1595.31
510.98	878.235
515.703	502.706
520.423	208.309
525.14	132.202
529.854	123.995
534.566	13.3193
539.274	93.6426
543.98	88.5674
548.683	132.175
553.383	161.884
558.081	119.185
562.775	15.3057
567.467	59.2461
572.156	130.837
576.843	33.3603
581.526	168.829
586.207	309.173
590.885	233.926
595.56	472.74
600.233	893.925
604.902	1433.11
609.569	1916.28
614.234	2760.67
618.895	3085.73
623.554	2701.61
628.21	2068.27
632.863	1247.75
637.514	969.063
642.161	465.16
646.806	391.978
651.449	366.617
656.088	361.021
660.725	345.38
665.36	137.918
669.991	78.5137
674.62	158.031
679.246	3.79102
683.869	77.8613
688.49	15.2949
693.108	16.3203
697.723	60.4902
702.336	14.124
706.946	199.597
711.553	122.661
716.158	213.658
720.759	82.1885
725.359	58.4316
729.955	151.935
734.549	116.077
739.14	243.412
743.729	66.5977
748.315	233.051
752.898	264.039
757.479	296.818
762.057	442.008
766.632	537.739
771.205	733.069
775.775	922.294
780.342	1057.53
784.907	1199.31
789.469	1349.72
794.029	1188.05
798.586	953.269
803.14	1131.81
807.692	895.437
812.241	716.37
816.788	470.792
821.332	532.563
825.873	404.67
830.412	178.106
834.948	198.376
839.481	133.532
844.012	79.8965
848.541	92.4502
853.066	15.2012
857.59	26.0322
862.11	84.0322
866.628	33.3516
871.144	123.228
875.657	72.2295
880.167	67.668
884.675	48.2158
889.18	32.9131
893.683	21.6416
898.183	29.9844
902.681	85.9414
907.176	50.7861
911.669	12.4541
916.159	76.5977
920.646	141.897
925.131	68.501
929.613	29.625
934.093	34.6904
938.571	46.6455
943.046	163.32
947.518	201.722
951.988	148.901
956.455	218.88
960.92	358.641
965.382	203.066
969.842	436.201
974.3	245.015
978.754	552.533
983.207	486.96
987.657	482.283
992.104	548.694
996.549	461.049
1000.99	672.545
1005.43	554.12
1009.87	662.29
1014.3	481.281
1018.74	743.023
1023.17	792.308
1027.59	784.084
1032.02	740.993
1036.44	752.091
1040.86	684.743
1045.28	821.648
1049.7	630.16
1054.11	522.29
1058.52	666.077
1062.93	495.071
1067.33	567.208
1071.74	684.887
1076.14	621.754
1080.54	755.711
1084.93	816.252
1089.33	959.159
1093.72	1021.63
1098.11	1169.91
1102.49	1432.39
1106.88	1769.16
1111.26	1734.36
1115.64	1913.11
1120.01	2277.19
1124.39	2131.19
1128.76	2208.52
1133.13	2328.81
1137.49	2275.42
1141.86	2616.8
1146.22	2495.96
1150.58	2506.51
1154.94	2513.4
1159.3	2383.67
1163.65	2465.34
1168	2233.37
1172.35	1989.87
1176.69	1983.48
1181.04	1777.4
1185.38	1436.63
1189.72	1278.19
1194.05	1099.11
1198.39	981.314
1202.72	585.832
1207.05	444.596
1211.38	322.284
1215.7	242.219
1220.02	264.715
1224.34	68.7422
1228.66	25.9277
1232.97	4.11426
1237.29	192.234
1241.6	20.4238
1245.91	80.7412
1250.21	75.334
1254.52	90.8398
1258.82	60.8916
1263.12	84.0957
1267.41	16.3135
1271.71	50.4395
1276	145.74
1280.29	26.9551
1284.58	76.8584
1288.87	11.3535
1293.15	73.8144
1297.43	60.2246
1301.71	121.469
1305.98	210.552
1310.26	126.844
1314.53	116.788
1318.8	147.626
1323.07	129.589
1327.33	123.255
1331.6	177.636
1335.86	216.675
1340.11	56.5918
1344.37	54.7383
1348.62	145.258
1352.88	188.373
1357.12	26.0732
1361.37	101.623
1365.62	231.09
1369.86	175.041
1374.1	191.154
1378.34	62.2139
1382.57	81.6689
1386.81	91.7588
1391.04	84.2148
1395.27	114.798
1399.49	104.659
1403.72	74.8408
1407.94	73.1484
1412.16	143.747
1416.38	271.781
1420.6	24.3174
1424.81	143.019
1429.02	218.282
1433.23	253.025
1437.44	232.856
1441.64	246.292
1445.85	408.731
1450.05	394.837
1454.25	316.431
1458.44	47.1475
1462.64	296.717
1466.83	312.954
1471.02	127.999
1475.21	168.578
1479.39	286.155
1483.58	347.174
1487.76	65.0107
1491.93	98.707
1496.11	181.702
1500.29	186.067
1504.46	180.127
1508.63	100.453
1512.8	187.163
1516.96	368.096
1521.13	252.314
1525.29	167.478
1529.45	156.867
1533.61	263.117
1537.76	305.857
1541.92	205.675
1546.07	196.871
1550.22	262.988
1554.36	328.123
1558.51	46.3242
1562.65	149.338
1566.79	94.959
1570.93	205.486
1575.07	50.25
1579.2	76.4746
