Measurement: Raman, 514 nm, ccw, Raman Data Processed
Mineral: Clinoptilolite-Na
Rruff sample: R061099
Ideal chemistry: Na_6_(Si_30_Al_6_)O_72_20H_2_O
Locality: Richardson Ranch, Madras, Jefferson County, Oregon, USA
Source: Michael Scott
Description: Red-brown to salmon, somewhat coffin shaped tabular crystals in a fragmented geode
Measured chemistry: (Na_2.70_Ca_1.46_K_0.89_Fe_0.08_Mg_0.02_)_Σ=5.15_(Si_29.29_Al_6.71_)O_72_·18.51H_2_O
Pin_id: M00738
Orientation: Laser parallel to b* (0 1 0). Fiducial mark perpendicular to laser is parallel to c [0 0 1]
Raman shift (cm-1)	intensity
175.436	0
180.331	10.209
185.224	127.834
190.115	132.6
195.002	408.227
199.888	393.623
204.771	82.665
209.651	7.45703
214.529	143.855
219.405	355.162
224.278	570.341
229.148	779.301
234.016	1150.45
238.882	1724.29
243.745	2382.28
248.606	2918.06
253.464	2972.39
258.319	2885.16
263.173	2558.72
268.023	2124.95
272.871	1629.14
277.717	1259.88
282.56	642.489
287.401	311.648
292.239	154.678
297.075	98.5674
301.908	200.836
306.739	25.1348
311.567	108.667
316.393	83.2051
321.216	148.46
326.037	352.954
330.855	598.288
335.671	872.328
340.484	1183.8
345.295	1404.7
350.103	1728.51
354.909	2182.97
359.712	2885.66
364.513	3702.09
369.311	4546.68
374.107	5861.21
378.9	6946.01
383.691	8842.75
388.479	11519.3
393.264	14545.5
398.048	18441.8
402.828	21816.2
407.606	21623.3
412.382	18465.5
417.155	14127.5
421.926	9985.07
426.694	6858.75
431.459	4724.4
436.222	3240.01
440.983	2385.83
445.741	1987.33
450.496	1774.02
455.249	2187.32
460	3011.96
464.748	4032.75
469.493	5647.83
474.236	7979.39
478.977	11317.2
483.714	12808.8
488.45	10222.9
493.183	6205.62
497.913	3394.1
502.641	1844.46
507.366	991.581
512.088	720.373
516.809	385.793
521.526	287.851
526.241	370.562
530.954	100.592
535.664	65.5156
540.371	19.7139
545.076	1.08301
549.779	60.2734
554.479	107.594
559.176	230.962
563.871	171.364
568.563	248.316
573.253	399.783
577.94	318.642
582.625	579.729
587.307	822.377
591.987	1092.03
596.664	1385.55
601.338	1887.31
606.01	2226.21
610.68	2997.03
615.347	3852.28
620.011	4382.26
624.673	4483.34
629.332	3482.93
633.989	2220.64
638.643	1902.91
643.295	1920.75
647.944	1930.14
652.59	1844.17
657.234	1145.89
661.876	533.434
666.515	365.098
671.151	72.6357
675.785	27.9746
680.416	145.703
685.045	37.8027
689.671	182.01
694.295	153.695
698.916	60.084
703.534	70.1777
708.15	126.684
712.764	125.606
717.374	122.951
721.983	182.863
726.588	245.238
731.191	431.106
735.792	441.49
740.39	526.998
744.986	428.789
749.579	564.688
754.169	775.086
758.757	1050.99
763.342	1057.39
767.925	1316.31
772.505	1549.73
777.082	1987.68
781.657	2428.14
786.23	2633.27
790.8	2798.68
795.367	2550.77
799.932	2303.33
804.494	2123.98
809.053	1962.93
813.61	2387.98
818.165	2905.93
822.717	2733.89
827.266	2032.53
831.813	1246.87
836.357	1072.53
840.899	925.074
845.438	1129.25
849.974	1206.44
854.508	1434.06
859.04	1953.37
863.568	1717.88
868.095	1105.4
872.618	802.668
877.139	791.678
881.658	585.451
886.174	825.998
890.687	602.324
895.198	836.445
899.706	633.369
904.212	505.111
908.715	473.68
913.215	512.084
917.713	226.34
922.208	59.5449
926.701	80.7734
931.191	195.465
935.679	150.232
940.164	137.102
944.646	20.7402
949.126	16.2363
953.603	201.574
958.078	108.398
962.55	86.7246
967.019	48.6758
971.486	81.1602
975.951	118.945
980.413	0.351563
984.872	170.248
989.328	102.973
993.782	316.785
998.234	906.699
1002.68	1978.7
1007.13	620.779
1011.57	433.955
1016.01	341.236
1020.45	630.631
1024.89	1025.08
1029.32	624.822
1033.75	417.639
1038.18	613.615
1042.61	401.768
1047.03	429.103
1051.45	620.633
1055.87	552.955
1060.28	385.775
1064.69	640.389
1069.11	595.822
1073.51	703.318
1077.92	775.646
1082.32	952.279
1086.72	1121.02
1091.12	815.309
1095.51	1074.88
1099.9	1288.14
1104.29	1299.81
1108.68	1385.98
1113.06	1366.97
1117.44	1732.58
1121.82	1586.72
1126.2	1658.19
1130.57	1688.98
1134.94	1599.1
1139.31	1659.56
1143.68	1509.37
1148.04	1518.57
1152.4	1497.19
1156.76	1413.28
1161.12	1373.75
1165.47	1570.62
1169.82	1497
1174.17	1373.76
1178.51	1051.89
1182.86	953.373
1187.19	872.256
1191.53	442.621
1195.87	207.606
1200.2	441.07
1204.53	60.0645
1208.86	16.2324
1213.18	29.2969
1217.5	138.856
1221.82	121.359
1226.14	51.168
1230.45	76.1758
1234.76	366.713
1239.07	285.43
1243.38	327.154
1247.68	177.33
1251.98	325.885
1256.28	405.658
1260.58	490.174
1264.87	710.865
1269.16	830.062
1273.45	983.301
1277.73	958.916
1282.02	824.951
1286.3	723.519
1290.57	843.953
1294.85	1201.92
1299.12	1142.45
1303.39	1198.74
1307.66	1639.32
1311.92	1743.18
1316.18	1652.31
1320.44	1940.73
1324.7	1442.39
1328.95	958.311
1333.2	885.516
1337.45	532.627
1341.7	433.543
1345.94	343.211
1350.18	351.672
1354.42	485.014
1358.66	32.2285
1362.89	68.8438
1367.12	200.227
1371.35	278.478
1375.58	297.197
1379.8	306.103
1384.02	279.883
1388.24	334.471
1392.45	2.88086
1396.66	50.5508
1400.87	177.106
1405.08	57.5547
1409.29	16.4883
1413.49	51.1738
1417.69	32.9043
1421.88	32.7988
1426.08	346.904
1430.27	450.215
1434.46	861.701
1438.64	1539.48
1442.83	2266.92
1447.01	2477.79
1451.19	2855.95
1455.36	3011.42
1459.54	2580.93
1463.71	2059.22
1467.87	1554.62
1472.04	1050.11
1476.2	894.479
1480.36	1053.15
1484.52	800.537
1488.67	440.713
1492.83	194.523
1496.98	135.613
1501.12	105.609
1505.27	126.988
1509.41	20.4434
1513.55	118.998
1517.68	189.002
1521.82	290.447
1525.95	169.369
1530.08	217.832
