Measurement: Raman, 514 nm, depolarized, Raman Data Processed
Mineral: Clinoenstatite
Rruff sample: R070276
Ideal chemistry: MgSiO_3_
Locality: Synthetic, at 15 GPa and 1600 C by Juergen Konzett
Source: Juergen Konzett
Description: Colorless grains associated with stishovite
Measured chemistry: Mg_1.00_Si_1.00_O_3_ ; trace to minor amounts of Na
Pin_id: M00224
Orientation: Laser parallel to c* (0 0 1). Fiducial mark perpendicular to laser is parallel to a [1 0 0]
Raman shift (cm-1)	intensity
127.596	0
131.306	115.939
135.014	310.352
138.72	439.209
142.425	626.787
146.128	525.121
149.83	150.861
153.53	212.977
157.228	230.807
160.925	343.629
164.62	65.9492
168.313	21.7285
172.005	247.158
175.695	109.656
179.384	247.449
183.071	276.324
186.757	559.24
190.44	438.129
194.123	620.875
197.803	776.508
201.483	406.66
205.16	298.894
208.836	366.215
212.51	317.764
216.183	122.082
219.854	171.053
223.524	332.125
227.192	357.506
230.858	444.215
234.523	612.887
238.186	965.082
241.848	1122.81
245.508	1360.95
249.166	445.504
252.823	380.193
256.479	205.012
260.132	99.9531
263.784	203.027
267.435	319.227
271.084	245.516
274.731	182.377
278.377	148.9
282.021	145.043
285.664	85.1602
289.305	148.014
292.945	55.3184
296.583	170.488
300.219	367.9
303.854	300.693
307.487	245.486
311.119	119.023
314.749	245.338
318.377	489.389
322.004	523.644
325.629	612.088
329.253	879.768
332.876	1500.35
336.496	1981.13
340.115	2750.84
343.733	2258.77
347.349	1556.26
350.963	1001.45
354.576	791.018
358.187	474.998
361.797	687.473
365.405	797.152
369.012	851.756
372.617	753.396
376.22	567.068
379.822	341.766
383.423	268.475
387.022	642.188
390.619	489.975
394.215	563.672
397.809	564.584
401.401	664.365
404.992	586.051
408.582	468.631
412.17	658.234
415.756	472.76
419.341	388.592
422.924	344.652
426.506	365.658
430.086	607.537
433.665	276.217
437.242	284.353
440.818	100.945
444.392	55.1309
447.964	11.918
451.535	149.027
455.105	90.1602
458.672	98.5234
462.239	126.197
465.804	114.731
469.367	190.219
472.928	91.0664
476.489	192.951
480.047	6.82422
483.604	300.693
487.16	153.959
490.714	344.793
494.266	160.254
497.817	158.586
501.367	21.7422
504.915	115.676
508.461	194.393
512.006	325.25
515.549	284.492
519.091	406.992
522.631	437.424
526.17	381.734
529.707	108.904
533.243	376.93
536.777	17.8086
540.31	274.506
543.841	130.047
547.37	137.435
550.898	142.666
554.425	282.74
557.95	223.656
561.473	110.418
564.995	209.002
568.516	172.41
572.035	338.641
575.552	250.115
579.068	294.838
582.583	27.1738
586.095	265.891
589.607	182.947
593.117	24.2754
596.625	88.916
600.132	102.441
603.637	133.594
607.141	133.922
610.643	167.482
614.144	367.756
617.643	463.674
621.141	233.32
624.637	100.559
628.132	436.988
631.625	292.025
635.117	279.734
638.607	287.15
642.096	492.557
645.583	363.148
649.069	702.406
652.553	571.104
656.036	1152.79
659.517	1383.05
662.997	2113.79
666.475	2111.31
669.952	1837.86
673.427	1407.29
676.901	1312.29
680.373	1761.26
683.844	2252.92
687.313	2238.55
690.781	2232.97
694.247	1113.47
697.712	793.646
701.175	579.752
704.637	270.109
708.097	532.123
711.556	115.059
715.014	201.945
718.469	209.147
721.924	135.268
725.377	174.273
728.828	285
732.278	117.777
735.726	221.039
739.173	260.25
742.619	127.273
746.063	237.43
749.505	39.8477
752.946	243.191
756.386	20.8984
759.824	249.402
763.26	73.1875
766.695	245.352
770.129	294.531
773.561	163.231
776.992	124.773
780.421	40.2461
783.849	143.324
787.275	321.379
790.7	398.191
794.123	69.8164
797.545	21.3008
800.965	155.019
804.384	243.508
807.802	336.195
811.217	233.812
814.632	374.254
818.045	414.398
821.456	471.879
824.867	514.457
828.275	455.578
831.682	226.535
835.088	185.359
838.492	470.109
841.895	334.281
845.296	471.25
848.696	436.691
852.094	515.215
855.491	574.055
858.887	669.086
862.281	358.93
865.673	350.133
869.064	277.938
872.454	326.465
875.842	279.824
879.229	409.633
882.614	187.602
885.998	40.1367
889.38	392.359
892.761	28.2148
896.14	288.297
899.518	17.9102
902.895	69.0703
906.27	42.4414
909.644	128.133
913.016	234.5
916.387	322.332
919.756	262.188
923.124	234.234
926.49	386.129
929.855	490.793
933.219	409.492
936.581	320.129
939.941	438.25
943.301	112.555
946.658	213.598
950.015	203.305
953.369	144.523
956.723	307.738
960.075	189.285
963.425	457.676
966.774	143.008
970.122	71.9922
973.468	248.242
976.813	329.992
980.156	179.188
983.498	287.277
986.839	172.281
990.178	333.184
993.516	388.066
996.852	809.922
1000.19	1166.9
1003.52	1807.89
1006.85	2666.36
1010.18	3749.75
1013.51	4072.2
1016.84	2629.31
1020.16	2334.86
1023.49	2059.1
1026.81	2653.14
1030.13	3075.06
1033.46	3125.64
1036.78	2719.89
1040.09	2062.61
1043.41	1234.42
1046.72	927.062
1050.04	863.797
1053.35	382.199
1056.66	382.938
1059.97	473.316
1063.28	355.203
1066.58	386.234
1069.89	335.945
1073.19	422.262
1076.49	495.379
1079.79	155.281
1083.09	113.387
1086.39	146.781
1089.69	170.812
1092.98	143.906
1096.28	161.731
1099.57	314.988
1102.86	355.902
1106.15	15.3086
1109.43	358.5
1112.72	430.543
1116.01	308.82
1119.29	252.387
1122.57	288.84
1125.85	184.211
1129.13	364.519
1132.41	44.9961
1135.69	220.621
1138.96	491.394
1142.24	549.387
1145.51	263.484
1148.78	41.3945
1152.05	322.609
1155.32	35.7305
1158.59	193.699
1161.85	272.664
1165.11	502.832
1168.38	567.305
1171.64	254.047
1174.9	397.144
1178.16	266.348
1181.41	493.508
1184.67	448.121
1187.92	247.625
1191.18	319.227
1194.43	295.359
1197.68	40.6719
1200.93	143.133
1204.17	255.359
1207.42	183.82
1210.66	477.898
1213.91	525.527
1217.15	348.836
1220.39	224.137
1223.63	192.223
1226.87	221.176
1230.1	103.492
1233.34	60.8203
