Measurement: Raman, 514 nm, depolarized, Raman Data Processed
Mineral: Clinozoisite
Rruff sample: R060284
Ideal chemistry: Ca_2_Al_3_(Si_2_O_7_)(SiO_4_)O(OH)
Locality: near Zagi Mountain, Khaffor Dehri, North-West Frontier Province, Pakistan
Source: Herb Obodda
Description: Greenish-brown fragment of a prismatic crystal
Measured chemistry: Ca_2.00_(Al_0.90_Fe^3+^_0.10_)_3_(Si_1.00_O_4_)(Si_2.00_O_7_)O(OH)
Pin_id: L01751
Orientation: Laser parallel to (1 0 1). Fiducial mark perpendicular to laser is parallel to -b [0 -1 0]
Raman shift (cm-1)	intensity
118.134	0
123.058	15.5898
127.979	383.83
132.898	1402.81
137.814	3253.34
142.728	5190.52
147.639	5866.59
152.549	5813.49
157.455	6281.16
162.359	6812.5
167.261	7743.67
172.161	7328.7
177.058	4429.45
181.952	1951.37
186.845	358.795
191.734	223.961
196.622	108.234
201.507	299.398
206.389	782.619
211.269	1126.97
216.147	1454.51
221.022	1781.52
225.895	3032.38
230.765	5886.08
235.633	8811.85
240.498	10394.2
245.361	12891.3
250.222	17373.2
255.08	19288.9
259.936	16029.5
264.789	11620.3
269.64	10980.1
274.488	11211
279.334	8929.85
284.178	5828.75
289.019	4616.44
293.857	4022.77
298.693	3788.8
303.527	3711.48
308.358	3872.92
313.187	4068.26
318.013	4452.38
322.837	5213.17
327.659	7089.55
332.478	9940.46
337.294	14010.3
342.108	18229.8
346.92	23286.8
351.729	26654.4
356.535	20269.2
361.34	9790.16
366.141	4273.29
370.94	2368.6
375.737	905.106
380.531	395.834
385.323	809.785
390.113	1797.94
394.9	1598.26
399.684	708.717
404.466	553.756
409.245	1296.38
414.022	466.59
418.797	1891.27
423.569	6112.48
428.338	9623.06
433.105	9460.96
437.87	10595.2
442.632	17145.7
447.391	29349
452.149	39210.1
456.903	36485.5
461.655	26329.2
466.405	20784.2
471.152	19454.9
475.897	18377
480.639	17630.8
485.378	16111.7
490.116	11570.5
494.85	7428.25
499.582	6261.91
504.312	6990.35
509.039	7712.03
513.764	8150.82
518.486	8460.42
523.206	7814.68
527.923	6913.52
532.638	4954.81
537.35	1818.46
542.059	622.402
546.766	254.365
551.471	858.848
556.173	2388.76
560.873	6753.84
565.57	17759.2
570.264	30647.9
574.957	23766.7
579.646	8989.65
584.333	5144.12
589.018	6419.69
593.7	9452.5
598.379	13069.4
603.056	16807.3
607.73	15468.2
612.402	10517.9
617.072	6503.71
621.739	3322.75
626.403	1460.41
631.065	719.231
635.724	368.022
640.381	278.016
645.035	785.801
649.687	1514.84
654.336	2984.84
658.983	3211.68
663.627	2659.12
668.268	1854.99
672.907	1723.29
677.544	1626.23
682.178	2312.77
686.809	2603.05
691.438	2645.33
696.065	3168.75
700.688	3319.57
705.31	2667.69
709.929	1686.07
714.545	745.644
719.158	106.369
723.77	150.031
728.378	11.4297
732.984	151.387
737.588	13.7129
742.189	80.3477
746.787	301.102
751.383	225.834
755.976	173.631
760.567	164.397
765.155	251.096
769.741	89.5664
774.324	184.068
778.904	206.893
783.482	43.5
788.058	128.875
792.631	271.549
797.201	288.914
801.769	279.709
806.334	556.262
810.897	790.492
815.457	1124.88
820.014	1573.46
824.569	1920.27
829.122	2336.34
833.671	2961.65
838.219	3256.2
842.763	3844.96
847.306	4502.25
851.845	5815.85
856.382	7272.09
860.917	9966.44
865.448	13461.5
869.978	17922.5
874.505	21934.8
879.029	25160.1
883.55	25861.2
888.069	24996.8
892.586	25596.8
897.1	25769.4
901.611	24598.1
906.12	25343.3
910.626	28883.8
915.129	29395
919.63	25106.7
924.129	20507.8
928.625	16280.8
933.118	12648.6
937.609	8610.96
942.097	6154.1
946.582	3894.17
951.065	3109.42
955.546	2660.64
960.023	2830.05
964.499	2966.27
968.971	3066.65
973.441	4588.12
977.909	7461.6
982.374	12069.1
986.836	13026.7
991.295	8605.53
995.753	4090.77
1000.21	2104.97
1004.66	984.127
1009.11	304.486
1013.55	311.045
1018	565.104
1022.44	1388.75
1026.88	2629.54
1031.32	3090.7
1035.75	2446.59
1040.18	2212.45
1044.61	2582.39
1049.04	2269.58
1053.46	1834.72
1057.88	1226.21
1062.3	919.379
1066.71	576.436
1071.13	987.453
1075.54	1899.32
1079.94	3396.16
1084.35	6261.41
1088.75	11056.9
1093.15	15427.3
1097.55	11605.2
1101.94	5151.41
1106.34	2285.61
1110.73	1689.89
1115.11	1275.3
1119.5	978.141
1123.88	1134.05
1128.26	364.758
1132.63	266.871
1137.01	62.8086
1141.38	67.8574
1145.75	55.3184
1150.12	144.393
1154.48	300.574
1158.84	10.7852
1163.2	6.44141
1167.55	23.4824
1171.91	32.3887
1176.26	162.756
1180.61	126.414
1184.95	46.332
1189.29	13.9785
1193.63	293.947
1197.97	73.9414
1202.31	121.436
1206.64	107.625
1210.97	93.5312
1215.29	172.812
1219.62	11.4355
1223.94	258.871
1228.26	49.6738
1232.57	273.059
1236.89	98.6094
1241.2	51.5488
1245.51	166.055
1249.81	141.551
1254.12	197.084
1258.42	53.9766
1262.72	162.043
1267.01	191.35
1271.3	304.578
1275.59	221.588
1279.88	323.826
1284.17	220.695
1288.45	327.539
1292.73	299.426
1297.01	99.6856
1301.28	44.1484
1305.55	148.91
1309.82	182.445
1314.09	571.379
1318.35	116.654
1322.61	452.398
1326.87	427.289
1331.13	317.098
1335.38	452.318
1339.63	481.795
1343.88	518.977
1348.12	404.389
1352.37	274.643
1356.61	341.076
1360.85	347.31
1365.08	494.184
1369.31	183.102
1373.54	343.812
1377.77	448.065
1381.99	409.809
1386.22	339.762
1390.43	164.102
1394.65	203.562
1398.87	191.375
1403.08	240.371
1407.29	174.065
1411.49	141.51
1415.69	171.074
1419.89	109.773
1424.09	420.5
1428.29	32.3574
1432.48	219.207
1436.67	76.8809
1440.86	402.363
1445.04	394.166
1449.23	369.275
1453.4	249.045
1457.58	319.217
1461.76	265.758
1465.93	186.377
1470.1	289.656
1474.26	193.777
1478.43	255.765
1482.59	266.94
1486.75	399.301
1490.9	346.681
1495.06	154.328
1499.21	357.904
1503.35	62.8047
1507.5	175.565
1511.64	199.523
1515.78	390.943
1519.92	219.863
1524.05	230.779
1528.18	247.897
1532.31	127.982
1536.44	219.352
1540.56	118.287
1544.69	69.5918
1548.8	171.945
1552.92	305.459
1557.03	6.12695
1561.14	88.5977
1565.25	226.293
1569.36	1.31836
