Measurement: Raman, 514 nm, ccw, Raman Data Processed
Mineral: Clinoptilolite-Na
Rruff sample: R061099
Ideal chemistry: Na_6_(Si_30_Al_6_)O_72_20H_2_O
Locality: Richardson Ranch, Madras, Jefferson County, Oregon, USA
Source: Michael Scott
Description: Red-brown to salmon, somewhat coffin shaped tabular crystals in a fragmented geode
Measured chemistry: (Na_2.70_Ca_1.46_K_0.89_Fe_0.08_Mg_0.02_)_Σ=5.15_(Si_29.29_Al_6.71_)O_72_·18.51H_2_O
Pin_id: M01647
Orientation: Laser parallel to c* (0 0 1). Fiducial mark perpendicular to laser is parallel to a [1 0 0]
Raman shift (cm-1)	intensity
165.771	0
170.705	339.293
175.635	41.831
180.563	41.0078
185.487	227.835
190.409	632.698
195.327	1266.9
200.242	1715.56
205.155	1456.97
210.064	736.179
214.97	377.767
219.873	135.284
224.773	8.98242
229.67	91.1426
234.564	94.4219
239.455	202.481
244.342	542.545
249.227	860.606
254.109	1249.29
258.988	1413.25
263.864	1600.33
268.736	1670.89
273.606	1532.89
278.473	1319.66
283.337	1640.37
288.197	1688.9
293.055	1513.27
297.91	1554.69
302.762	1409.89
307.611	1528.68
312.456	1610.49
317.299	2165.36
322.139	2553.74
326.976	2944.47
331.81	3375.93
336.641	3420.45
341.469	3516.49
346.294	3739.3
351.116	3983.21
355.936	4732.56
360.752	5596.71
365.565	6873.48
370.376	8092.33
375.183	9244.39
379.988	11004.7
384.789	12816
389.588	15434.6
394.384	19658.2
399.177	24897.5
403.967	28528.3
408.754	28234.2
413.538	24291.6
418.319	19473.2
423.097	14930.1
427.873	10668.5
432.646	7442.51
437.415	5305.53
442.182	4241.12
446.946	3668.6
451.707	3936.98
456.465	5123.03
461.221	7599.1
465.973	9883.3
470.723	11406.9
475.47	12902.1
480.214	16428
484.955	18391.6
489.693	14801.1
494.429	9173.59
499.161	4968.12
503.891	2645.83
508.618	1461.86
513.342	988.476
518.063	581.934
522.782	422.769
527.497	185.629
532.21	118.526
536.92	57.2393
541.627	152.037
546.332	77.2217
551.034	99.4639
555.732	154.53
560.428	79.0029
565.122	65.7744
569.812	45.5674
574.5	22.9004
579.185	218.107
583.867	226.109
588.546	436.041
593.223	769.077
597.897	1020.44
602.568	1374.48
607.236	2215.86
611.902	3092.71
616.565	3664.3
621.225	3478.65
625.882	2893.77
630.537	1954.65
635.189	1238.61
639.838	945.808
644.484	704.931
649.128	512.646
653.769	375.07
658.407	347.08
663.043	230.701
667.676	212.889
672.306	44.0312
676.933	68.7803
681.558	152.574
686.18	194.197
690.799	126.845
695.416	165.966
700.03	291.478
704.641	78.7793
709.25	39.9307
713.856	33.0703
718.459	210.825
723.059	64.2588
727.657	156.53
732.253	253.984
736.845	126.448
741.435	21.1709
746.022	279.584
750.607	242.027
755.189	320.485
759.768	283.063
764.345	535.769
768.919	579.971
773.49	838.237
778.059	922.969
782.625	1044.62
787.189	917.409
791.749	759.516
796.308	735.995
800.863	753.03
805.416	413.288
809.967	394.067
814.515	371.724
819.06	258.032
823.603	150.138
828.143	280.613
832.68	67.0723
837.215	50.46
841.747	36.957
846.277	33.7109
850.804	121.761
855.328	23.2559
859.85	5.19727
864.37	40.0957
868.886	24.7822
873.401	33.6719
877.912	39.7178
882.421	35.1768
886.928	1.65723
891.432	17.6162
895.933	6.31348
900.432	36.4443
904.929	31.0068
909.423	21.2217
913.914	69.8291
918.403	42.8652
922.889	17.335
927.373	23.9473
931.854	63.2109
936.332	55.9346
940.809	4.24219
945.282	80.1533
949.753	218.731
954.222	207.005
958.688	188.546
963.152	245.208
967.613	256.45
972.071	336.71
976.527	315.441
980.981	356.448
985.432	447.31
989.881	527.972
994.327	401.88
998.771	513.22
1003.21	562.25
1007.65	571.216
1012.09	481.875
1016.52	590.393
1020.95	632.417
1025.38	817.482
1029.81	808.472
1034.23	653.678
1038.65	958.14
1043.07	833.756
1047.49	626.157
1051.9	728.749
1056.31	681.621
1060.72	877.4
1065.13	647.049
1069.54	767.476
1073.94	623.856
1078.34	785.212
1082.73	842.609
1087.13	1011.69
1091.52	1274.99
1095.91	1508.59
1100.3	1794.45
1104.68	1734.5
1109.07	2139.89
1113.45	2364.22
1117.82	2550.58
1122.2	2750.98
1126.57	2785.49
1130.94	3161.81
1135.31	3210.9
1139.68	3308.76
1144.04	3414.29
1148.4	3422.62
1152.76	3265.33
1157.12	3373.72
1161.47	3308.09
1165.82	3208.78
1170.17	2835.66
1174.52	2541.53
1178.87	2190.08
1183.21	2107.13
1187.55	1758.72
1191.88	1564.62
1196.22	1272.07
1200.55	1112.41
1204.88	622.443
1209.21	511.113
1213.54	386.066
1217.86	284.857
1222.18	250.947
1226.5	2.05664
1230.82	191.832
1235.13	149.67
1239.44	153.74
1243.75	82.8398
1248.06	228.867
1252.37	88.9102
1256.67	45.2734
1260.97	18.9629
1265.27	69.4492
1269.56	97.9297
1273.86	2.68164
1278.15	45.7793
1282.44	16.6738
1286.72	69.0898
1291.01	84.7461
1295.29	47.9238
1299.57	125.859
1303.85	6.22656
1308.12	84.4141
1312.39	324.613
1316.67	190.273
1320.93	31.375
1325.2	70.2852
1329.46	49.9746
1333.73	0.804688
1337.98	66.0352
1342.24	291.588
1346.5	253.842
1350.75	192.894
1355	343.744
1359.25	182.381
1363.49	215.938
1367.74	344.123
1371.98	253.144
1376.22	319.316
1380.46	132.18
1384.69	226.863
1388.92	84.7617
1393.15	132.117
1397.38	104.213
1401.61	16.6055
1405.83	256.746
1410.05	32.082
1414.27	58.3906
1418.49	158.84
1422.7	31.4902
1426.92	52.7734
1431.13	94.4219
1435.34	114.769
1439.54	197.994
1443.75	148.973
1447.95	299.228
1452.15	398.143
1456.35	316.785
1460.54	330.961
1464.73	319.779
1468.92	384.248
1473.11	175.389
1477.3	223.871
1481.48	178.705
1485.67	49.4746
1489.85	120.522
1494.02	221.809
1498.2	209.707
1502.37	120.99
1506.55	416.742
1510.71	137.019
1514.88	103.106
1519.05	85.3828
1523.21	209.152
1527.37	204.816
1531.53	117.566
1535.68	10.668
1539.84	77.3867
1543.99	232.967
1548.14	214.955
1552.29	157.197
1556.44	266.643
1560.58	68.2852
1564.72	168.477
1568.86	104.691
1573	12.6621
1577.13	98.7109
