Measurement: Raman, 514 nm, depolarized, Raman Data Processed
Mineral: Clinozoisite
Rruff sample: R060284
Ideal chemistry: Ca_2_Al_3_(Si_2_O_7_)(SiO_4_)O(OH)
Locality: near Zagi Mountain, Khaffor Dehri, North-West Frontier Province, Pakistan
Source: Herb Obodda
Description: Greenish-brown fragment of a prismatic crystal
Measured chemistry: Ca_2.00_(Al_0.90_Fe^3+^_0.10_)_3_(Si_1.00_O_4_)(Si_2.00_O_7_)O(OH)
Pin_id: L00714
Orientation: Laser parallel to c* (0 0 1). Fiducial mark perpendicular to laser is parallel to a [1 0 0]
Raman shift (cm-1)	intensity
118.134	0
123.058	247.488
127.979	314.478
132.898	994.66
137.814	2347.2
142.728	3555
147.639	3731.74
152.549	3733
157.455	3271.97
162.359	2257.21
167.261	1919.05
172.161	2179.83
177.058	1685.74
181.952	389.453
186.845	125.834
191.734	211.942
196.622	255.562
201.507	216.864
206.389	619.822
211.269	1372.19
216.147	1342.54
221.022	1670.88
225.895	3234.98
230.765	5535.79
235.633	8885.93
240.498	9781.89
245.361	10544.8
250.222	13543.7
255.08	14089.7
259.936	10916.6
264.789	7609.25
269.64	8723.61
274.488	11228.1
279.334	9240.28
284.178	5862.89
289.019	4313.55
293.857	3763.89
298.693	3626.08
303.527	4041.91
308.358	4321.72
313.187	4372.69
318.013	3995.78
322.837	4057.94
327.659	5125.3
332.478	7815.42
337.294	11016.1
342.108	13724.8
346.92	16058.2
351.729	16926.7
356.535	12672.5
361.34	6773.98
366.141	3668.24
370.94	2035.56
375.737	790.355
380.531	403.343
385.323	1025.3
390.113	2580.18
394.9	3533.72
399.684	2575.33
404.466	453.706
409.245	615.305
414.022	596.438
418.797	5560.11
423.569	14858
428.338	21122.1
433.105	16982.6
437.87	13922.3
442.632	19538.5
447.391	33983.4
452.149	46887.4
456.903	45322.9
461.655	34837.8
466.405	29587.6
471.152	29228.3
475.897	27878.4
480.639	24558.9
485.378	19708.9
490.116	13464.7
494.85	8447.8
499.582	7009.82
504.312	7936.73
509.039	8989.08
513.764	7327.58
518.486	5246.9
523.206	3047.88
527.923	920.362
532.638	146.8
537.35	690.812
542.059	349.133
546.766	56.6904
551.471	1126.44
556.173	3348.64
560.873	8367.08
565.57	20820.3
570.264	37988.3
574.957	30118.9
579.646	11290.2
584.333	6722.82
589.018	7917.84
593.7	11245.6
598.379	16166.6
603.056	21486.1
607.73	20556.7
612.402	13645.3
617.072	8312.53
621.739	4756.08
626.403	2565.55
631.065	1452.99
635.724	1015.1
640.381	1005.57
645.035	992.325
649.687	2108.09
654.336	3842.02
658.983	4312.61
663.627	3999.94
668.268	3148.96
672.907	2644.6
677.544	2627.47
682.178	3253.16
686.809	3905.14
691.438	4453.76
696.065	4776.45
700.688	4953.94
705.31	3713.11
709.929	2138.92
714.545	1090.33
719.158	405.298
723.77	94.6894
728.378	75.8711
732.984	23.668
737.588	19.5684
742.189	107.264
746.787	200.218
751.383	199.938
755.976	182.716
760.567	105.666
765.155	55.46
769.741	58.6094
774.324	165.368
778.904	114.643
783.482	61.1211
788.058	103.797
792.631	80.7852
797.201	211.153
801.769	244.142
806.334	487.91
810.897	793.672
815.457	1090.38
820.014	1449.9
824.569	2068.29
829.122	2568.95
833.671	3421.92
838.219	3897.26
842.763	4312.05
847.306	4943.36
851.845	5855.27
856.382	7581.78
860.917	10501.8
865.448	15568.1
869.978	21652
874.505	25419
879.029	27407.9
883.55	27319.6
888.069	27107.4
892.586	29493.1
897.1	31245.5
901.611	28729.9
906.12	27764.4
910.626	29836.1
915.129	29642.9
919.63	25769.2
924.129	21595.7
928.625	18473.1
933.118	15612.6
937.609	12262.6
942.097	9176.54
946.582	7229.74
951.065	5973.37
955.546	6063.49
960.023	6244.22
964.499	6597.55
968.971	6351.49
973.441	7443.97
977.909	11739.2
982.374	19146.1
986.836	20927.9
991.295	13412.5
995.753	6572.12
1000.21	3421.95
1004.66	1376.26
1009.11	513.637
1013.55	126.497
1018	382.882
1022.44	1284.02
1026.88	2937.41
1031.32	3817.67
1035.75	3406.94
1040.18	3746.46
1044.61	4540.57
1049.04	4606.31
1053.46	3962.07
1057.88	2605.14
1062.3	1542.78
1066.71	1424.93
1071.13	1974.28
1075.54	4066.89
1079.94	7573.19
1084.35	13882
1088.75	24479.2
1093.15	34317.1
1097.55	25481.8
1101.94	10343.3
1106.34	4217.31
1110.73	2304.4
1115.11	1542.42
1119.5	933.429
1123.88	754.935
1128.26	487.522
1132.63	436.748
1137.01	287.955
1141.38	256.506
1145.75	287.155
1150.12	13.833
1154.48	90.5957
1158.84	24.8291
1163.2	179.115
1167.55	146.483
1171.91	104.617
1176.26	156.595
1180.61	56.8857
1184.95	115.078
1189.29	47.4033
1193.63	137.029
1197.97	32.3086
1202.31	49.0986
1206.64	70.1426
1210.97	30.5576
1215.29	36.5371
1219.62	70.4062
1223.94	24.1377
1228.26	26.3984
1232.57	153.684
1236.89	9.36328
1241.2	197.096
1245.51	200.442
1249.81	61.8535
1254.12	250.43
1258.42	214.432
1262.72	326.329
1267.01	211.809
1271.3	258.347
1275.59	340.461
1279.88	283.201
1284.17	373.638
1288.45	427.407
1292.73	225.796
1297.01	248.726
1301.28	225.6
1305.55	352.113
1309.82	308.742
1314.09	365.356
1318.35	417.933
1322.61	308.471
1326.87	294.759
1331.13	293.725
1335.38	418.062
1339.63	396.657
1343.88	490.135
1348.12	316.03
1352.37	421.218
1356.61	399.902
1360.85	355.077
1365.08	501.817
1369.31	403.447
1373.54	384.806
1377.77	343.386
1381.99	360.33
1386.22	227.129
1390.43	414.688
1394.65	231.002
1398.87	233.738
1403.08	141.557
1407.29	275.916
1411.49	213.935
1415.69	230.319
1419.89	138.441
1424.09	154.31
1428.29	282.321
1432.48	141.947
1436.67	162.121
1440.86	260.909
1445.04	280.978
1449.23	102.407
1453.4	305.721
1457.58	208.641
1461.76	42.2705
1465.93	216.266
1470.1	275.901
1474.26	226.459
1478.43	125.709
1482.59	254.981
1486.75	211.508
1490.9	129.935
1495.06	151.34
1499.21	65.8652
1503.35	15.5088
1507.5	95.4805
1511.64	94.5527
1515.78	257.116
1519.92	248.716
1524.05	284.485
1528.18	209.037
1532.31	116.642
1536.44	168.401
1540.56	115.833
1544.69	121.498
1548.8	132.043
1552.92	402.449
1557.03	102.772
1561.14	263.945
1565.25	336.496
1569.36	57.0791
