Measurement: Raman, 514 nm, ccw, Raman Data Processed
Mineral: Clinoptilolite-Na
Rruff sample: R061099
Ideal chemistry: Na_6_(Si_30_Al_6_)O_72_20H_2_O
Locality: Richardson Ranch, Madras, Jefferson County, Oregon, USA
Source: Michael Scott
Description: Red-brown to salmon, somewhat coffin shaped tabular crystals in a fragmented geode
Measured chemistry: (Na_2.70_Ca_1.46_K_0.89_Fe_0.08_Mg_0.02_)_Σ=5.15_(Si_29.29_Al_6.71_)O_72_·18.51H_2_O
Pin_id: M01086
Orientation: Laser parallel to (1 0 1). Fiducial mark perpendicular to laser is parallel to b [0 1 0]
Raman shift (cm-1)	intensity
152.15	0
157.057	195.127
161.961	103.845
166.863	193.804
171.763	168.678
176.66	151.672
181.555	81.6069
186.447	330.418
191.337	206.205
196.224	412.131
201.109	439.776
205.991	141.197
210.871	30.5864
215.748	60.3062
220.623	169.842
225.496	254.356
230.366	25.3506
235.233	35.9863
240.098	29.7983
244.96	321.05
249.82	324.842
254.678	155.867
259.533	388.161
264.385	106.684
269.236	109.4
274.083	125.926
278.928	107.286
283.771	456.203
288.611	684.246
293.448	936.421
298.283	878.361
303.116	589.296
307.946	419.33
312.774	174.595
317.599	249.743
322.422	341.382
327.242	334.118
332.059	407.334
336.874	423.409
341.687	558.719
346.497	680.144
351.305	672.066
356.11	867.242
360.912	1180.53
365.712	1520.79
370.51	1827.72
375.305	2230.99
380.098	2733.89
384.888	3556.81
389.675	4423.34
394.46	5506.33
399.243	6717.17
404.023	7713.83
408.8	7788.75
413.575	6680.37
418.348	5186.4
423.118	3620.31
427.885	2516.7
432.65	1815.29
437.413	1372.41
442.173	1047.98
446.93	802.172
451.685	922.59
456.437	1251.62
461.187	1656.44
465.934	2050.05
470.679	2508.9
475.421	2830.69
480.161	3533.31
484.898	3560.79
489.633	2852.1
494.365	1794.25
499.095	899.813
503.822	631.825
508.547	367.245
513.269	253.467
517.988	126.776
522.705	123.945
527.42	36.0991
532.132	21.0244
536.841	46.4268
541.548	34.5776
546.252	74.3555
550.954	4.67334
555.653	50.8203
560.35	42.044
565.044	3.70508
569.736	102.805
574.425	99.0659
579.112	7.2876
583.796	203.149
588.477	187.379
593.156	279.367
597.833	457.002
602.507	657.123
607.178	962.754
611.847	1212.85
616.513	1398.16
621.177	1145.13
625.838	885.939
630.497	600.965
635.153	572.795
639.806	390.839
644.457	457.782
649.106	404.554
653.752	525.15
658.395	551.093
663.036	505.598
667.674	436.496
672.31	377.983
676.943	289.949
681.574	207.798
686.202	274.034
690.827	65.3335
695.45	133.411
700.071	132.307
704.688	53.6494
709.304	169.693
713.916	180.94
718.527	201.583
723.134	181.991
727.739	56.5679
732.342	33.2788
736.942	40.3389
741.539	62.1768
746.134	167.825
750.726	73.9404
755.316	37.3877
759.903	85.5312
764.488	89.1899
769.07	232.59
773.649	265.58
778.226	363.938
782.801	383.83
787.372	359.943
791.942	386.741
796.508	366.201
801.072	316.038
805.634	360.943
810.193	335.782
814.749	261.024
819.303	421.205
823.854	283.852
828.403	256.201
832.949	199.599
837.493	121.693
842.034	93.0259
846.572	123.559
851.108	73.9009
855.641	10.1352
860.172	82.3926
864.7	19.6543
869.226	23.0498
873.749	8.30469
878.269	54.7886
882.787	53.8765
887.302	21.9014
891.815	2.17969
896.325	30.5488
900.833	40.6919
905.338	106.865
909.84	18.939
914.34	68.2876
918.837	79.938
923.332	29.8061
927.824	21.7114
932.313	0.636719
936.8	37.0063
941.285	23.3286
945.766	40.3486
950.246	80.1045
954.722	10.3828
959.196	79.8945
963.668	131.981
968.136	108.866
972.603	132.975
977.066	115.664
981.528	141.454
985.986	131.348
990.442	180.337
994.895	86.9282
999.346	227.717
1003.79	233.522
1008.24	197.161
1012.68	217.131
1017.12	342.31
1021.56	227.85
1026	327.327
1030.43	267.251
1034.86	295.014
1039.29	245.003
1043.71	240.809
1048.13	219.446
1052.55	171.679
1056.97	292.625
1061.38	235.862
1065.8	169.615
1070.21	251.109
1074.61	142.525
1079.02	116.079
1083.42	228.147
1087.82	85.9531
1092.21	114.09
1096.61	263.327
1101	273.812
1105.39	291.318
1109.78	345.308
1114.16	428.461
1118.54	340.672
1122.92	436.084
1127.29	575.704
1131.67	376.525
1136.04	406.578
1140.4	514.859
1144.77	439.518
1149.13	513.523
1153.49	470.798
1157.85	496.555
1162.2	419.685
1166.56	442.155
1170.91	394.048
1175.25	295.188
1179.6	360.639
1183.94	279.414
1188.28	206.458
1192.62	160.795
1196.95	144.035
1201.28	108.383
1205.61	99.5894
1209.94	8.06055
1214.26	40.769
1218.58	54.2749
1222.9	6.75732
1227.22	51.9619
1231.53	90.3599
1235.84	24.9556
1240.15	36.7202
1244.45	55.7241
1248.76	100.028
1253.06	89.5918
1257.36	206.38
1261.65	333.393
1265.94	423.625
1270.23	343.09
1274.52	423.355
1278.8	771.325
1283.09	802.693
1287.37	856.029
1291.64	881.508
1295.92	1148.17
1300.19	1283.96
1304.46	1338.9
1308.72	1572.98
1312.99	1640.18
1317.25	1624.52
1321.51	1864.02
1325.76	1623.68
1330.02	1693.49
1334.27	1421.46
1338.52	1203.46
1342.76	1236.13
1347.01	1002.24
1351.24	841.053
1355.48	630.055
1359.72	589.984
1363.95	522.016
1368.18	442.521
1372.41	419.229
1376.63	198.294
1380.85	203.142
1385.07	154.164
1389.29	144.194
1393.51	175.024
1397.72	38.334
1401.93	64.5459
1406.13	99.5019
1410.34	73.1621
1414.54	16.998
1418.74	17.9277
1422.93	46.293
1427.12	83.4102
1431.32	115.07
1435.5	167.438
1439.69	187.621
1443.87	225.661
1448.05	192.836
1452.23	156.136
1456.41	186.552
1460.58	207.346
1464.75	247.368
1468.91	161.58
1473.08	88.6787
1477.24	283.891
1481.4	106.209
1485.56	87.2559
1489.71	48.4688
1493.86	30.3223
1498.01	26.5889
1502.16	87.6602
1506.3	178.602
1510.44	120.356
1514.58	60.8076
1518.72	28.4961
1522.85	86.2773
1526.98	176.448
1531.11	93.9346
1535.24	11.3623
1539.36	8.99902
1543.48	93.4522
1547.6	117.814
1551.71	220.011
1555.82	126.275
1559.93	203.677
