Measurement: Raman, 514 nm, depolarized, Raman Data Processed
Mineral: Clinohumite
Rruff sample: R040122
Ideal chemistry: Mg_9_(SiO_4_)_4_F_2_
Locality: Anzahamazonono,  Madagascar
Source: University of Arizona Mineral Museum
Description: Orange-brown blebs embedded in calcite matrix
Measured chemistry: (Mg_0.96_Fe_0.02_Ti_0.01_Ca_0.01_)_9_(SiO_4_)_4_(F_0.59_(OH)_0.41_)_2_
Pin_id: M01103
Orientation: Laser parallel to -a* (-1 0 0). Fiducial mark perpendicular to laser is parallel to b [0 1 0]
Raman shift (cm-1)	intensity
133.656	0
138.609	349.152
143.559	355.109
148.505	178.07
153.449	210.641
158.389	522.734
163.326	636.695
168.26	1079.98
173.19	1775.37
178.118	2265.5
183.042	3446.92
187.963	3652.77
192.881	2778.33
197.796	3532.17
202.707	4546.61
207.615	5002.43
212.52	4376.41
217.422	3569.2
222.321	3254.66
227.217	4023.8
232.109	5023.31
236.999	5506.88
241.885	5312.49
246.768	5116.91
251.648	5807.91
256.525	6263.94
261.399	6126.19
266.269	5582.36
271.137	3585.5
276.001	3192.62
280.862	2850.66
285.721	3534
290.576	3459.72
295.428	3390.02
300.277	2849.68
305.123	2802.46
309.966	3786.16
314.805	5276.95
319.642	6630.32
324.476	6849.68
329.306	4956.4
334.134	3124.8
338.959	2709.98
343.78	2451.73
348.599	1439.81
353.414	1536.81
358.226	936.195
363.036	722.125
367.842	366.109
372.646	29.625
377.446	441.688
382.244	31
387.038	416.945
391.83	606.945
396.618	998.336
401.404	718.031
406.186	577.422
410.966	1123.15
415.742	1309.63
420.516	1792.2
425.287	1865.02
430.055	889.68
434.819	930.078
439.581	302.523
444.34	103.781
449.096	63.3125
453.85	143.773
458.6	293.898
463.347	313.094
468.091	124.227
472.833	627.547
477.572	422.938
482.307	983.711
487.04	579.383
491.77	60.3516
496.497	235.914
501.221	81.3281
505.943	515.969
510.661	339.773
515.377	741.953
520.089	821.227
524.799	1144.03
529.506	1732.08
534.21	2250.29
538.912	2053.21
543.61	2709.83
548.306	2256.81
552.999	2742.59
557.689	1696.03
562.376	1442.95
567.061	1558.39
571.742	2182.31
576.421	2521.07
581.097	3880.52
585.77	4890.17
590.441	5916.6
595.108	7812.42
599.773	12327.4
604.435	20763.7
609.095	28375.2
613.751	24003.6
618.405	12405.5
623.056	6216.57
627.705	3330.77
632.35	1620.95
636.993	1487.95
641.633	274.086
646.271	10.6641
650.905	9.875
655.537	4.04688
660.166	250.805
664.793	272.32
669.416	498.953
674.038	149.609
678.656	27.4609
683.272	143.914
687.885	243.922
692.495	318.141
697.102	444.617
701.707	208.617
706.31	285.859
710.909	1143.73
715.506	906.297
720.1	1262.27
724.692	2483.75
729.281	3205.84
733.867	7045.88
738.451	8256.41
743.032	10630.5
747.61	13088.8
752.186	13661.1
756.759	12929.6
761.329	9281.27
765.897	8475.31
770.462	8076.77
775.025	11361.9
779.585	18866.8
784.142	28262.2
788.697	28297.2
793.249	20583
797.799	17728.8
802.346	22089.6
806.89	32611.7
811.432	37104.8
815.971	37185.7
820.508	42461
825.042	64687.5
829.574	105325
834.103	103115
838.63	79863.9
843.153	93277.2
847.675	110796
852.194	99240.2
856.71	113860
861.224	143978
865.735	102325
870.244	56867.7
874.75	40222.6
879.254	31223
883.755	20676.5
888.254	12275.5
892.75	8639.55
897.244	6201.98
901.735	5610.58
906.223	5402
910.71	5127.09
915.193	4917.27
919.675	3937.16
924.153	2965.44
928.63	2978.89
933.104	3074.75
937.575	2379.28
942.044	756.922
946.51	2218.97
950.974	3091.84
955.436	4174.94
959.895	9880.45
964.352	25203.3
968.806	36957.9
973.258	26053.9
977.707	11286.4
982.154	5623.66
986.599	2519.86
991.041	1241.25
995.481	1850
999.918	661.125
1004.35	708.453
1008.78	915.375
1013.22	255.953
1017.64	41.6719
1022.07	901.609
1026.49	58.3438
1030.91	1138.89
1035.33	918.406
1039.75	800.828
1044.16	380.047
1048.57	932.953
1052.98	73.3438
1057.39	36.3438
1061.79	1063.02
1066.19	492.281
1070.59	997.266
1074.99	445.203
1079.38	637.734
1083.78	260.875
1088.16	521.219
1092.55	1546.58
1096.94	120.453
1101.32	342.312
1105.7	944.828
1110.08	848.953
1114.46	287.422
1118.83	975.125
1123.2	1036.06
1127.57	527.406
1131.94	857.484
1136.3	623.672
1140.66	708.031
1145.03	1242.27
1149.38	1133.64
1153.74	1104.72
1158.09	1738.62
1162.44	1058.23
1166.79	1080.8
1171.14	1545.23
1175.48	892.281
1179.82	1211.23
1184.16	1121.12
1188.5	1410.91
1192.84	604.297
1197.17	1490.98
1201.5	897.312
1205.83	749.312
1210.15	989.219
1214.48	297.5
1218.8	1218.34
1223.12	386.484
1227.44	8.625
1231.75	589.766
1236.07	833.562
1240.38	612.531
1244.68	1624.44
1248.99	798.453
1253.3	408.609
1257.6	1504.27
1261.9	1117.38
1266.2	795.469
1270.49	1122.38
1274.79	439.953
1279.08	981.75
1283.37	825.703
1287.65	495.703
1291.94	829.219
1296.22	1791.53
1300.5	1362.95
1304.78	1542.67
1309.05	1549.77
1313.33	1059.66
1317.6	1229.92
1321.87	948.641
1326.14	1326.17
1330.4	955.344
1334.67	644.672
1338.93	1397.11
1343.19	710.562
1347.44	951.578
1351.7	1332.28
1355.95	749.391
1360.2	1433.91
1364.45	734.875
1368.7	1259.86
1372.94	1225.56
1377.18	292.156
1381.42	599.688
1385.66	298.031
1389.9	750.234
1394.13	1609.33
1398.37	540.328
1402.6	516.812
1406.82	961.141
1411.05	327.75
1415.27	924.484
1419.49	122.375
1423.71	234.25
1427.93	1185.05
1432.15	641.938
1436.36	530
1440.57	976.375
1444.78	422.234
1448.99	591.062
1453.19	493.594
1457.4	1162.36
1461.6	581.844
1465.8	820.281
1469.99	1383.36
1474.19	513.156
1478.38	1103.02
1482.58	678.734
1486.77	834.766
1490.95	604.906
1495.14	812.672
1499.32	1683.64
1503.5	511.406
1507.68	1575.41
1511.86	2035.34
1516.03	1914.16
1520.21	2077.33
1524.38	1188.39
1528.55	1838.91
1532.72	1811.34
1536.88	937.562
1541.05	1242.59
1545.21	1029.94
1549.37	1682.7
1553.53	659.312
1557.68	828.641
1561.84	610.562
1565.99	411.062
1570.14	1837.34
1574.29	730.469
1578.43	798.25
