Measurement: Raman, 514 nm, depolarized, Raman Data Processed
Mineral: Clinohumite
Rruff sample: R040122
Ideal chemistry: Mg_9_(SiO_4_)_4_F_2_
Locality: Anzahamazonono,  Madagascar
Source: University of Arizona Mineral Museum
Description: Orange-brown blebs embedded in calcite matrix
Measured chemistry: (Mg_0.96_Fe_0.02_Ti_0.01_Ca_0.01_)_9_(SiO_4_)_4_(F_0.59_(OH)_0.41_)_2_
Pin_id: M00157
Orientation: Laser parallel to (0 1 1). Fiducial mark perpendicular to laser is parallel to a [1 0 0]
Raman shift (cm-1)	intensity
54.966	0
59.164	217.746
63.36	419.486
67.554	229.413
71.747	198.229
75.937	196.28
80.125	14.271
84.311	90.667
88.496	141.2
92.678	325.344
96.858	280.422
101.036	335.039
105.212	297.298
109.387	172.551
113.559	83.141
117.729	216.377
121.897	53.842
126.063	31.54
130.228	29.719
134.39	79.364
138.55	51.564
142.709	52.281
146.865	64.716
151.019	98.699
155.171	121.018
159.322	171.959
163.47	226.482
167.617	288.54
171.761	256.776
175.904	488.071
180.044	843.299
184.183	1364.66
188.319	1173.35
192.454	893.372
196.586	1225.74
200.717	1446.5
204.846	1412.7
208.972	1327.37
213.097	826.565
217.22	632.278
221.341	750.616
225.46	985.565
229.577	1242.15
233.692	1331.1
237.805	1424.36
241.916	1326.33
246.025	1104.77
250.132	1104.71
254.237	1174.58
258.34	1155.13
262.442	955.985
266.541	875.852
270.639	705.038
274.734	704.534
278.828	698.582
282.919	747.282
287.009	747.909
291.097	674.764
295.183	695.228
299.266	536.025
303.348	643.189
307.428	945.521
311.507	1274.42
315.583	1636.53
319.657	2259.87
323.729	1987.43
327.8	1275.27
331.868	926.581
335.935	687.455
339.999	519.764
344.062	299.232
348.123	289.073
352.182	177.709
356.239	112.114
360.294	40.14
364.347	97.677
368.398	64.718
372.448	167.068
376.495	248.621
380.54	320.31
384.584	192.111
388.626	360.974
392.666	550.891
396.704	523.863
400.74	151.896
404.774	68.012
408.806	92.108
412.836	253.315
416.865	314.582
420.891	331.907
424.916	250.294
428.939	236.744
432.959	267.246
436.978	279.792
440.996	221.051
445.011	120.005
449.024	77.326
453.036	43.669
457.045	82.037
461.053	7.406
465.059	183.302
469.063	212.012
473.065	257.694
477.065	238.341
481.063	392.184
485.06	486.553
489.054	625.473
493.047	696.272
497.038	747.98
501.027	815.63
505.014	907.778
508.999	893.212
512.982	901.59
516.964	990.56
520.944	1093.65
524.921	1254.91
528.897	1524.43
532.871	1905.14
536.844	2131.25
540.814	1989.19
544.783	1823.59
548.749	1432.66
552.714	1251.41
556.677	908.818
560.638	814.896
564.597	814.061
568.555	900.468
572.511	1047.54
576.464	1147.27
580.416	1310.66
584.366	1819.71
588.315	2136.42
592.261	2612.79
596.206	3417.82
600.148	5025.51
604.089	7728.86
608.028	10040.5
611.965	8053.14
615.901	4653.13
619.834	2538.01
623.766	1432.71
627.696	963.083
631.624	534.141
635.551	240.886
639.475	195.319
643.398	92.395
647.318	17.087
651.237	89.449
655.155	105.93
659.07	119.333
662.984	173.573
666.895	206.728
670.805	187.376
674.713	144.366
678.62	49.431
682.524	100.374
686.427	1.184
690.328	6.41
694.227	117.066
698.124	182.351
702.02	245.467
705.913	282.438
709.805	468.274
713.695	600.991
717.584	924.6
721.47	1316.12
725.355	1693.58
729.238	2580.97
733.119	3628.3
736.998	4808.59
740.876	5880.86
744.752	6729.11
748.626	7558.35
752.498	8155.61
756.368	8119.9
760.237	7076.22
764.104	5596.64
767.969	4521.29
771.832	4888.19
775.693	6416.31
779.553	8882.57
783.411	12056
787.267	12265.7
791.122	10118.5
794.974	8410.25
798.825	7579.77
802.674	8856.94
806.522	11485.4
810.367	12292.7
814.211	11900.1
818.053	12915.7
821.893	16586.6
825.732	27436
829.568	41320.6
833.403	37138.5
837.236	27225.5
841.068	29593.9
844.898	37482.7
848.726	36001.5
852.552	30235.7
856.376	34338.7
860.199	45017.4
864.02	35785.6
867.839	21512.4
871.656	14419.7
875.472	11409.5
879.286	9310.99
883.098	6646.03
886.909	4665.66
890.717	3634.88
894.524	2684.67
898.33	2182
902.133	1808.88
905.935	1671.32
909.735	1436.27
913.533	1380.85
917.33	1599.82
921.124	1707.22
924.918	1954.56
928.709	3536.38
932.499	4690.81
936.286	2279.28
940.073	1237.01
943.857	793.663
947.64	798.973
951.421	876.847
955.2	1340.37
958.978	2589.51
962.753	5533.97
966.527	11413.4
970.3	11523.9
974.071	6599.1
977.84	3744.4
981.607	2096.6
985.372	1482.88
989.136	990.108
992.898	825.062
996.659	778.688
1000.42	717.344
1004.17	589.165
1007.93	618.931
1011.68	610.548
1015.43	609.462
1019.18	545.564
1022.93	442.724
1026.68	547.489
1030.42	466.13
1034.17	423.792
1037.91	365.748
1041.65	284.625
1045.39	339.626
1049.12	187.893
1052.86	135.608
1056.59	27.603
1060.33	33.284
1064.06	73.739
1067.78	38.506
1071.51	101.668
1075.23	55.264
1078.96	72.032
1082.68	97.961
1086.4	54.158
1090.12	11.757
1093.83	44.131
1097.55	62.07
1101.26	42.864
1104.97	27.076
1108.68	71.584
1112.39	21.457
1116.1	54.761
1119.8	22.543
1123.5	78.266
1127.2	45.821
1130.9	102.94
1134.6	11.653
1138.3	1.303
1141.99	26.994
1145.69	31.62
1149.38	63.687
1153.07	39.764
1156.76	9.027
1160.44	51.192
1164.13	73.924
1167.81	75.078
1171.49	121.709
1175.17	50.92
1178.85	172.257
1182.52	114.522
1186.2	50.061
1189.87	122.662
1193.54	178.531
1197.21	185.42
1200.88	248.263
1204.55	264.802
1208.21	288.044
1211.88	337.217
1215.54	361.418
1219.2	411.518
1222.86	367.823
1226.51	507.755
1230.17	549.579
1233.82	578.876
1237.47	529.078
1241.12	595.197
1244.77	619.494
1248.42	741.183
1252.06	669.665
1255.71	667.037
1259.35	544.756
1262.99	595.57
1266.63	559.576
1270.26	533.553
1273.9	694.582
1277.53	648.508
1281.16	666.068
1284.8	587.868
1288.42	586.374
1292.05	488.028
1295.68	517.531
1299.3	469.323
1302.92	404.762
1306.55	488.453
1310.16	340.565
1313.78	323.69
1317.4	414.504
1321.01	327.228
1324.62	197.743
1328.24	288.134
1331.85	265.752
1335.45	344.182
1339.06	275.446
1342.66	187.817
1346.27	267.153
1349.87	232.277
1353.47	177.044
1357.07	259.861
1360.66	124.639
1364.26	210.012
1367.85	164.97
1371.44	83.407
1375.04	41.358
1378.62	173.97
1382.21	71.385
1385.8	109.485
1389.38	45.854
1392.96	124.655
1396.54	63.071
1400.12	13.153
1403.7	22.131
1407.28	57.618
1410.85	3.397
1414.42	189.747
1417.99	93.702
1421.56	97.383
1425.13	56.095
1428.7	54.938
1432.26	111.608
1435.83	123.603
1439.39	178.18
1442.95	156.6
1446.51	185.554
1450.06	199.699
1453.62	194.909
1457.17	141.084
1460.73	229.59
1464.28	38.403
1467.83	62.742
1471.37	236.143
1474.92	119.257
1478.46	48.105
1482.01	59.321
1485.55	235.097
1489.09	107.921
1492.63	175.189
1496.16	132.803
1499.7	154.669
1503.23	190.649
1506.76	268.813
1510.29	149.303
1513.82	121.435
1517.35	109.423
1520.88	1.628
