Measurement: Raman, 514 nm, depolarized, Raman Data Processed
Mineral: Clinoptilolite-Na
Rruff sample: R061099
Ideal chemistry: Na_6_(Si_30_Al_6_)O_72_20H_2_O
Locality: Richardson Ranch, Madras, Jefferson County, Oregon, USA
Source: Michael Scott
Description: Red-brown to salmon, somewhat coffin shaped tabular crystals in a fragmented geode
Measured chemistry: (Na_2.70_Ca_1.46_K_0.89_Fe_0.08_Mg_0.02_)_Σ=5.15_(Si_29.29_Al_6.71_)O_72_·18.51H_2_O
Pin_id: M01086
Orientation: Laser parallel to (1 0 1). Fiducial mark perpendicular to laser is parallel to b [0 1 0]
Raman shift (cm-1)	intensity
144.784	0
148.468	113.059
152.15	61.6738
155.83	62.6514
159.509	114.112
163.187	95.1103
166.863	248.137
170.538	278.617
174.212	47.6455
177.884	200.625
181.555	178.598
185.224	226.876
188.892	221.405
192.559	299.34
196.224	315.514
199.888	414.685
203.55	453.276
207.211	125.243
210.871	36.7685
214.529	29.2139
218.186	61.7978
221.842	128.75
225.496	103.557
229.148	224.918
232.8	154.084
236.449	12.4766
240.098	62.4414
243.745	56.6103
247.391	277.625
251.035	340.409
254.678	325.433
258.319	283.231
261.96	258.999
265.598	225.574
269.236	256.348
272.871	44.6934
276.506	138.445
280.139	45.1992
283.771	285.478
287.401	326.291
291.03	347.289
294.657	359.57
298.283	362.202
301.908	296.028
305.531	401.524
309.153	152.748
312.774	169.696
316.393	162.754
320.011	197.91
323.627	299.465
327.242	170.762
330.855	519.934
334.467	422.356
338.078	308.543
341.687	290.598
345.295	476.68
348.901	469.758
352.506	641.387
356.11	639.41
359.712	787.606
363.313	974.506
366.912	946.234
370.51	1479.56
374.107	1582.97
377.702	1781.24
381.295	2027.25
384.888	2459.5
388.479	2890.08
392.068	3600.87
395.656	4054.12
399.243	4653.41
402.828	5272.32
406.412	5247.16
409.994	5361.02
413.575	4749.31
417.155	3704.27
420.733	2979.55
424.31	2445.97
427.885	1841.83
431.459	1313.76
435.032	993.613
438.603	945.197
442.173	709.979
445.741	537.223
449.308	705.941
452.873	591.689
456.437	913.656
460	1081.46
463.561	1409.7
467.121	1667.91
470.679	1933.95
474.236	1891.13
477.792	2599.24
481.346	2642.26
484.898	2812.22
488.45	2466.1
492	1775.88
495.548	972.598
499.095	726.342
502.641	315.176
506.185	196.977
509.727	187.731
513.269	42.4062
516.809	241.975
520.347	113.451
523.884	88.0938
527.42	42.7441
530.954	73.4434
534.487	114.312
538.018	161.197
541.548	120.834
545.076	103.135
548.604	58.1309
552.129	118.773
555.653	87.5019
559.176	19.8867
562.698	46.4961
566.217	36.5742
569.736	128.387
573.253	53.3125
576.769	163.394
580.283	9.45898
583.796	95.5254
587.307	238.408
590.817	226.734
594.326	242.353
597.833	255.715
601.338	403.988
604.843	526.299
608.345	586.939
611.847	761.648
615.347	885.852
618.845	831.881
622.342	720.076
625.838	605.066
629.332	663.117
632.825	383.56
636.316	367.385
639.806	332.971
643.295	289.414
646.782	260.773
650.267	352.928
653.752	410.797
657.234	415.883
660.716	406.406
664.196	296.801
667.674	251.422
671.151	297.342
674.627	166.033
678.101	41.6719
681.574	305.301
685.045	335.992
688.515	102.697
691.983	142.033
695.45	108.387
698.916	0.177734
702.38	9.23438
705.842	91.7715
709.304	57.582
712.764	120.59
716.222	69.2617
719.679	185.535
723.134	324.789
726.588	241.977
730.041	77.918
733.492	68.7051
736.942	40.2949
740.39	93.1758
743.837	181.6
747.282	151.148
750.726	152.715
754.169	94.7227
757.61	346.928
761.05	19.6289
764.488	256.469
767.925	332.992
771.36	270.754
774.794	397.555
778.226	382.889
781.657	258.697
785.087	327.844
788.515	337.012
791.942	474.725
795.367	293.576
798.791	185.084
802.213	149.178
805.634	314.152
809.053	237.557
812.471	337.475
815.888	362.662
819.303	484.127
822.717	329.443
826.129	249.385
829.54	150.236
832.949	106.457
836.357	311.565
839.764	295.662
843.169	175.168
846.572	67.6211
849.974	193.553
853.375	294.928
856.774	221.842
860.172	92.332
863.568	183.016
866.963	64.2852
870.357	19.7773
873.749	95.0586
877.139	11.9043
880.528	95.4922
883.916	27.3027
887.302	80.5312
890.687	177.26
894.07	193.432
897.452	81.3516
900.833	57.8066
904.212	168.193
907.589	17.7969
910.965	83.6387
914.34	149.32
917.713	8.25391
921.085	26.8008
924.455	258.066
927.824	119.728
931.191	145.195
934.557	29.3906
937.922	8.1582
941.285	8.60938
944.646	213.508
948.006	135.9
951.365	16.1191
954.722	93.1738
958.078	229.74
961.432	170.551
964.785	252.199
968.136	234.037
971.486	253.951
974.835	200.225
978.182	2.83789
981.528	67.5488
984.872	378.809
988.214	181.65
991.556	40.1777
994.895	67.1367
998.234	238.113
1001.57	194.586
1004.91	190.957
1008.24	31.6016
1011.57	304.525
1014.9	283.643
1018.23	142.44
1021.56	163.477
1024.89	311.289
1028.21	341.191
1031.54	27.1367
1034.86	164.394
1038.18	180.496
1041.5	145.894
1044.82	204.953
1048.13	301.144
1051.45	352.986
1054.76	147.309
1058.08	421.066
1061.38	241.231
1064.69	292.275
1068	247.801
1071.31	177.619
1074.61	360.603
1077.92	354.459
1081.22	151.935
1084.52	346.869
1087.82	59.0137
1091.12	234.205
1094.41	410.647
1097.71	231.268
1101	66.5273
1104.29	399.779
1107.58	408.557
1110.87	350.467
1114.16	403.818
1117.44	424.123
1120.73	527.816
1124.01	327.887
1127.29	329.453
1130.57	355.756
1133.85	494.475
1137.13	574.094
1140.4	522.658
1143.68	641.541
1146.95	478.481
1150.22	533.445
1153.49	493.44
1156.76	471.467
1160.03	676.516
1163.29	483.342
1166.56	537.555
1169.82	434.861
1173.08	401.197
1176.34	481.545
1179.6	317.934
1182.86	393.361
1186.11	291.867
1189.36	428
1192.62	143.56
1195.87	436.131
1199.12	62.2871
1202.36	53.293
1205.61	328.824
1208.86	121.34
1212.1	60.8789
1215.34	50.4375
1218.58	137.359
1221.82	5.82031
1225.06	127.246
1228.3	138.699
1231.53	351.172
1234.76	195.672
1237.99	35.1562
1241.22	50.4023
1244.45	12.1016
1247.68	427.129
1250.91	80.3672
1254.13	171.523
1257.36	186.656
1260.58	16.9766
1263.8	74.1484
1267.02	320.801
1270.23	116.004
1273.45	275.219
1276.66	436.449
1279.88	372.695
1283.09	270.223
1286.3	321.254
1289.51	687.059
1292.71	681.363
1295.92	562.699
1299.12	536.055
1302.32	816.438
1305.52	1010.84
1308.72	761.289
1311.92	641.641
1315.12	819.856
1318.31	703.125
1321.51	846.434
1324.7	951.672
1327.89	925.137
1331.08	824.387
1334.27	810.801
1337.45	909.082
1340.64	610.883
1343.82	592.258
1347.01	460.148
1350.18	648.234
1353.36	564.316
1356.54	503.156
1359.72	513.875
1362.89	513.051
1366.07	283.652
1369.24	366.543
1372.41	277.422
1375.58	367.109
1378.74	86.6992
1381.91	192.293
1385.07	61.1055
1388.24	27.4219
1391.4	73.0703
1394.56	84.4297
1397.72	109.91
1400.87	134.371
1404.03	95.8203
1407.18	190.285
1410.34	32.9844
1413.49	28.8984
1416.64	339.789
1419.79	22.0508
1422.93	133.297
1426.08	262.652
1429.22	220.758
1432.36	143.367
1435.5	346.891
1438.64	446.012
1441.78	124.672
1444.92	182.445
1448.05	190.519
1451.19	320.672
1454.32	210.09
1457.45	210.977
1460.58	423.496
1463.71	13.1719
1466.83	121.992
1469.96	377.102
1473.08	320.019
1476.2	170.238
1479.32	8.76953
1482.44	170.996
