Measurement: Raman, 514 nm, ccw, Raman Data Processed
Mineral: Clinoptilolite-Na
Rruff sample: R061099
Ideal chemistry: Na_6_(Si_30_Al_6_)O_72_20H_2_O
Locality: Richardson Ranch, Madras, Jefferson County, Oregon, USA
Source: Michael Scott
Description: Red-brown to salmon, somewhat coffin shaped tabular crystals in a fragmented geode
Measured chemistry: (Na_2.70_Ca_1.46_K_0.89_Fe_0.08_Mg_0.02_)_Σ=5.15_(Si_29.29_Al_6.71_)O_72_·18.51H_2_O
Pin_id: M01647
Orientation: Laser parallel to c* (0 0 1). Fiducial mark perpendicular to laser is parallel to a [1 0 0]
Raman shift (cm-1)	intensity
165.771	0
170.705	209.53
175.635	147.413
180.563	235.611
185.487	236.536
190.409	544.106
195.327	1009.19
200.242	1534.41
205.155	1277.25
210.064	748.167
214.97	449.168
219.873	21.6025
224.773	173.73
229.67	31.7188
234.564	168.508
239.455	485.557
244.342	839.64
249.227	1563.79
254.109	1704.12
258.988	1735.73
263.864	1542.53
268.736	1524.89
273.606	1092.08
278.473	910.547
283.337	676.273
288.197	618.111
293.055	386.642
297.91	399.71
302.762	431.913
307.611	298.655
312.456	448.581
317.299	542.64
322.139	911.773
326.976	1177.01
331.81	1520.64
336.641	1588.68
341.469	1562.06
346.294	1765.95
351.116	2027.21
355.936	2211.79
360.752	2757.03
365.565	3342.15
370.376	4085.79
375.183	4955.95
379.988	5974.01
384.789	7368.44
389.588	8977.43
394.384	11902.6
399.177	15454.4
403.967	18423.7
408.754	18357
413.538	15795.5
418.319	12696.1
423.097	9631.37
427.873	6939.42
432.646	4751.1
437.415	3271.7
442.182	2586.27
446.946	2203.86
451.707	2215.49
456.465	2590.79
461.221	3721.59
465.973	5147.04
470.723	6365.53
475.47	8350.46
480.214	11892.8
484.955	14008.7
489.693	11444.3
494.429	6853.59
499.161	3401.82
503.891	1886.12
508.618	1096.7
513.342	548.949
518.063	371.242
522.782	139.394
527.497	104.975
532.21	12.0122
536.92	58.6548
541.627	63.6602
546.332	1.52051
551.034	16.6694
555.732	32.5166
560.428	33.1904
565.122	54.7275
569.812	58.4609
574.5	19.9927
579.185	107.523
583.867	276.981
588.546	326.681
593.223	417.447
597.897	812.038
602.568	1063.56
607.236	1565.79
611.902	2343.7
616.565	2957.99
621.225	2901.13
625.882	2322.04
630.537	1569.73
635.189	1105.76
639.838	729.123
644.484	455.08
649.128	372.082
653.769	254.44
658.407	178.751
663.043	124.596
667.676	53.9282
672.306	20.5059
676.933	6.81689
681.558	1.3916
686.18	12.7188
690.799	39.1318
695.416	36.8169
700.03	79.7402
704.641	72.8144
709.25	23.9775
713.856	85.7725
718.459	106.79
723.059	7.89258
727.657	100.668
732.253	107.723
736.845	91.0864
741.435	45.9238
746.022	47.0117
750.607	181.894
755.189	221.57
759.768	375.214
764.345	516.1
768.919	578.242
773.49	728.4
778.059	824.477
782.625	995.589
787.189	1218.42
791.749	1246.34
796.308	1260.81
800.863	1328.03
805.416	1124.96
809.967	935.425
814.515	662.846
819.06	628.247
823.603	613.783
828.143	390.469
832.68	319.497
837.215	117.736
841.747	22.7744
846.277	84.1055
850.804	105.172
855.328	100.039
859.85	148.452
864.37	137.278
868.886	140.129
873.401	55.5688
877.912	28.6421
882.421	9.96875
886.928	49.3374
891.432	33.2315
895.933	59.8018
900.432	33.4438
904.929	12.1372
909.423	99.7827
913.914	43.8359
918.403	68.3306
922.889	50.2373
927.373	17.8145
931.854	59.9702
936.332	47.6133
940.809	24.7105
945.282	28.1333
949.753	117.263
954.222	105.571
958.688	74.7739
963.152	186.905
967.613	126
972.071	168.81
976.527	160.976
980.981	302.135
985.432	251.948
989.881	184.322
994.327	231.547
998.771	393.044
1003.21	339.179
1007.65	410.422
1012.09	475.607
1016.52	434.805
1020.95	533.661
1025.38	561.646
1029.81	504.029
1034.23	535.999
1038.65	656.932
1043.07	566.257
1047.49	535.44
1051.9	506.505
1056.31	628.553
1060.72	529.43
1065.13	582.075
1069.54	578.959
1073.94	620.48
1078.34	698.455
1082.73	780.974
1087.13	973.571
1091.52	964.094
1095.91	1119.45
1100.3	1220.53
1104.68	1232.92
1109.07	1368.47
1113.45	1447.19
1117.82	1599.56
1122.2	1633.18
1126.57	1752.36
1130.94	1622.04
1135.31	1668.38
1139.68	1780.85
1144.04	1545.87
1148.4	1680.31
1152.76	1730.21
1157.12	1661.66
1161.47	1721.6
1165.82	1583.89
1170.17	1293.39
1174.52	1363.05
1178.87	1332.84
1183.21	1081.75
1187.55	999.797
1191.88	856.098
1196.22	669.719
1200.55	463.483
1204.88	367.495
1209.21	220.661
1213.54	137.958
1217.86	168.326
1222.18	40.9697
1226.5	21.7764
1230.82	82.9092
1235.13	38.0478
1239.44	14.1523
1243.75	65.751
1248.06	77.5098
1252.37	22.0977
1256.67	9.03418
1260.97	13.165
1265.27	11.4873
1269.56	55.0147
1273.86	117.689
1278.15	41.9736
1282.44	80.9268
1286.72	157.326
1291.01	110.297
1295.29	113.157
1299.57	187.99
1303.85	178.663
1308.12	267.284
1312.39	325.849
1316.67	186.357
1320.93	217.805
1325.2	193.182
1329.46	102.43
1333.73	157.599
1337.98	114.718
1342.24	82.7148
1346.5	97.5723
1350.75	73.6426
1355	45.2227
1359.25	128.727
1363.49	184.121
1367.74	78.7481
1371.98	172.902
1376.22	106.464
1380.46	168.29
1384.69	17.3252
1388.92	15.9482
1393.15	93.9268
1397.38	15.9775
1401.61	19.7129
1405.83	29.9785
1410.05	44.4102
1414.27	34.2529
1418.49	62.8613
1422.7	124.331
1426.92	194.997
1431.13	228.601
1435.34	412.128
1439.54	350.655
1443.75	523.189
1447.95	555.834
1452.15	421.714
1456.35	525.161
1460.54	464.31
1464.73	461.265
1468.92	225.09
1473.11	165.375
1477.3	121.657
1481.48	185.578
1485.67	154.638
1489.85	200.132
1494.02	157.096
1498.2	22.916
1502.37	73.8984
1506.55	47.2871
1510.71	155.878
1514.88	123.378
1519.05	7.15527
1523.21	119.075
1527.37	40.1533
1531.53	97.375
1535.68	57.1484
1539.84	190.227
1543.99	94.5879
1548.14	201.372
1552.29	104.503
1556.44	170.124
1560.58	185.395
1564.72	324.055
1568.86	200.534
1573	227.611
1577.13	94.3096
