Measurement: Raman, 514 nm, depolarized, Raman Data Processed
Mineral: Clinozoisite
Rruff sample: R040085
Ideal chemistry: Ca_2_Al_3_(Si_2_O_7_)(SiO_4_)O(OH)
Locality: Alamos, Sonora, Mexico
Source: University of Arizona Mineral Museum
Description: Divergent aggregate of red thin prismatic crystals
Measured chemistry: Ca_2.03_(Al_0.90_Fe_0.13_)_3_(Si_1.00_O_4_)(Si_2.00_O_7_)O(OH)
Pin_id: M00327
Orientation: Laser parallel to (1 0 1). Fiducial mark perpendicular to laser is parallel to -b [0 -1 0]
Raman shift (cm-1)	intensity
191.734	0
196.622	38.2031
201.507	256.906
206.389	318.037
211.269	47.8652
216.147	34.9473
221.022	182.322
225.895	249.955
230.765	660.232
235.633	1265.76
240.498	1296.41
245.361	2295.27
250.222	3517.2
255.08	3971.38
259.936	3201.44
264.789	2345.92
269.64	2094.03
274.488	1865.11
279.334	1248.01
284.178	1070.38
289.019	794.223
293.857	824.656
298.693	732.531
303.527	495.144
308.358	351.678
313.187	609.213
318.013	638.053
322.837	809.184
327.659	999.586
332.478	1614.28
337.294	1828.81
342.108	2516.76
346.92	3352.45
351.729	3903.88
356.535	2269.8
361.34	1201.8
366.141	456.299
370.94	389.137
375.737	104.018
380.531	17.6523
385.323	288.453
390.113	384.574
394.9	278.68
399.684	345.969
404.466	111.457
409.245	96.0117
414.022	122.371
418.797	213.055
423.569	688.348
428.338	1152.49
433.105	1010.2
437.87	1631.72
442.632	2721.14
447.391	4313.23
452.149	5096.99
456.903	3351.66
461.655	2082.45
466.405	1455.31
471.152	1439.93
475.897	1262.33
480.639	1637.86
485.378	1609.54
490.116	1248.3
494.85	923.152
499.582	841.019
504.312	925.402
509.039	1062.52
513.764	1426.57
518.486	1550.66
523.206	1129.47
527.923	1318.57
532.638	220.742
537.35	64.582
542.059	158.008
546.766	125.043
551.471	112.074
556.173	257.008
560.873	1225.57
565.57	2931.46
570.264	4974.7
574.957	3115.66
579.646	1107.39
584.333	734.102
589.018	937.305
593.7	1080.61
598.379	1771.68
603.056	2265.78
607.73	1975.52
612.402	1265.55
617.072	722.758
621.739	428.195
626.403	232.551
631.065	93.2227
635.724	142.508
640.381	37.582
645.035	70.3203
649.687	433.269
654.336	685.453
658.983	338.051
663.627	487.238
668.268	519.582
672.907	231.75
677.544	360.66
682.178	341.387
686.809	585.727
691.438	461.25
696.065	415.422
700.688	582.41
705.31	382.102
709.929	175.477
714.545	104.328
719.158	76.1055
723.77	132.277
728.378	211.07
732.984	13.4375
737.588	109.106
742.189	104.652
746.787	160.461
751.383	17.875
755.976	173.562
760.567	14.0938
765.155	86.6211
769.741	54.3281
774.324	22.1328
778.904	97.5469
783.482	159.434
788.058	93.0664
792.631	13.8398
797.201	188.734
801.769	368.84
806.334	247.406
810.897	263.391
815.457	173.812
820.014	331.762
824.569	183.273
829.122	559.379
833.671	416.019
838.219	710.195
842.763	362.902
847.306	722.144
851.845	771.93
856.382	1372.83
860.917	1855.73
865.448	1695.1
869.978	2229.13
874.505	2836.43
879.029	3373.33
883.55	3121.63
888.069	3157.12
892.586	3033.87
897.1	3294.76
901.611	2965.75
906.12	3744.25
910.626	4485.64
915.129	4452.21
919.63	3744
924.129	3039.75
928.625	2146.3
933.118	1884.32
937.609	1242.12
942.097	649.766
946.582	356.418
951.065	655.098
955.546	398.812
960.023	637.273
964.499	396.848
968.971	438.367
973.441	343.836
977.909	1069.27
982.374	1514.75
986.836	1327.19
991.295	850.711
995.753	212.227
1000.21	266
1004.66	300.988
1009.11	61.3164
1013.55	32.2383
1018	156.602
1022.44	3.32812
1026.88	221.617
1031.32	413.453
1035.75	498.934
1040.18	350.359
1044.61	476.984
1049.04	407.809
1053.46	366.297
1057.88	294.496
1062.3	382.203
1066.71	144.16
1071.13	470.992
1075.54	535.887
1079.94	801.047
1084.35	916.34
1088.75	1302.71
1093.15	2274.97
1097.55	1425.95
1101.94	525.195
1106.34	242.441
1110.73	268.512
1115.11	447.75
1119.5	260.973
1123.88	231.785
1128.26	98.7578
1132.63	97.6602
1137.01	55.4258
1141.38	432.848
1145.75	369.715
1150.12	99.7344
1154.48	228.375
1158.84	328.844
1163.2	3.68359
1167.55	64.4297
1171.91	173.445
1176.26	82.7695
1180.61	171.625
1184.95	82.5664
1189.29	256.887
1193.63	199.168
1197.97	340.324
1202.31	196.652
1206.64	52.7266
1210.97	374.777
1215.29	405.359
1219.62	375.805
1223.94	267.113
1228.26	318.289
1232.57	465.312
1236.89	254.273
1241.2	236
1245.51	219.465
1249.81	86.7969
1254.12	171.996
1258.42	34.0312
1262.72	130.246
1267.01	194.996
1271.3	211.781
1275.59	254.543
1279.88	24.2148
1284.17	173.34
1288.45	168.25
1292.73	228.699
1297.01	205.664
1301.28	186.938
1305.55	218.965
1309.82	530.215
1314.09	603.488
1318.35	339.277
1322.61	224.215
1326.87	295.027
1331.13	267.254
1335.38	245.672
1339.63	335.84
1343.88	389.371
1348.12	431.797
1352.37	425.32
1356.61	545.102
1360.85	52.7305
1365.08	489.156
1369.31	401.652
1373.54	194.981
1377.77	420.188
1381.99	588.617
1386.22	366.59
1390.43	387.008
1394.65	288.617
1398.87	420.109
1403.08	413.785
1407.29	171.41
1411.49	382.32
1415.69	33.8438
1419.89	221.777
1424.09	368
1428.29	136.426
1432.48	201.121
1436.67	334.871
1440.86	540.016
1445.04	287.394
1449.23	360.273
1453.4	530.047
1457.58	294.484
1461.76	337.367
1465.93	230.344
1470.1	657.356
1474.26	470.719
1478.43	411.273
1482.59	468.641
1486.75	167.176
1490.9	448.375
1495.06	455.383
1499.21	244.664
1503.35	7.58594
1507.5	172.469
1511.64	209.062
1515.78	533.184
1519.92	238.207
1524.05	88.1836
1528.18	257.367
1532.31	319.652
1536.44	121.473
1540.56	601.059
1544.69	104.066
1548.8	75.6953
1552.92	203.551
1557.03	286.156
1561.14	470.051
1565.25	319.848
1569.36	401.043
