Measurement: Raman, 514 nm, ccw, Raman Data Processed
Mineral: Clinoptilolite-Na
Rruff sample: R061099
Ideal chemistry: Na_6_(Si_30_Al_6_)O_72_20H_2_O
Locality: Richardson Ranch, Madras, Jefferson County, Oregon, USA
Source: Michael Scott
Description: Red-brown to salmon, somewhat coffin shaped tabular crystals in a fragmented geode
Measured chemistry: (Na_2.70_Ca_1.46_K_0.89_Fe_0.08_Mg_0.02_)_Σ=5.15_(Si_29.29_Al_6.71_)O_72_·18.51H_2_O
Pin_id: M01022
Orientation: Laser parallel to a* (1 0 0). Fiducial mark perpendicular to laser is parallel to b [0 1 0]
Raman shift (cm-1)	intensity
153.377	0
158.283	2.29394
163.187	301.453
168.088	44.2412
172.987	282.398
177.884	229.153
182.778	370.294
187.67	491.427
192.559	717.19
197.445	674.959
202.33	633.566
207.211	224.209
212.091	79.2031
216.967	84.0557
221.842	63.2959
226.713	52.5947
231.583	162.1
236.449	291.856
241.314	456.009
246.176	1067.73
251.035	1257.03
255.892	1264.99
260.746	1149.19
265.598	894.041
270.448	739.905
275.295	622.901
280.139	428.031
284.981	325.22
289.82	401.612
294.657	351.462
299.492	313.482
304.324	597.855
309.153	701.558
313.98	961.453
318.805	902.297
323.627	1065.58
328.446	1185.61
333.263	1355.2
338.078	1577.58
342.89	1868.78
347.699	2248.77
352.506	2748.53
357.311	3481.67
362.113	4145.08
366.912	4957.51
371.709	5576.83
376.504	6528.28
381.295	7627.43
386.085	9357.83
390.872	12146.4
395.656	15469.8
400.438	18761.3
405.218	19946
409.994	17984.8
414.769	14672.6
419.541	11262.1
424.31	8189.3
429.077	5880.17
433.841	4145.83
438.603	3269.82
443.362	2650.15
448.119	2730
452.873	3277.26
457.625	4561.8
462.374	5910.81
467.121	6836.46
471.865	7347.89
476.607	8513.16
481.346	9978.41
486.082	9512.67
490.816	6777.98
495.548	3943.36
500.277	2220
505.003	1068.09
509.727	677.958
514.449	485.48
519.168	216.398
523.884	176.094
528.598	208.861
533.309	96.8897
538.018	76.541
542.724	5.09619
547.428	24.9311
552.129	17.1333
556.828	60.6938
561.524	64.5469
566.217	15.7573
570.909	32.5527
575.597	32.2915
580.283	111.79
584.966	319.14
589.647	403.837
594.326	573.874
599.001	1029.82
603.675	1510.31
608.345	1964.99
613.014	2687.18
617.679	2954.76
622.342	2542.78
627.003	2010.75
631.661	1472.77
636.316	983.704
640.969	687.471
645.62	440.152
650.267	397.763
654.913	327.261
659.555	102.614
664.196	209.257
668.833	220.975
673.468	150.593
678.101	53.8774
682.731	19.0952
687.358	20.376
691.983	81.833
696.605	131.329
701.225	90.6602
705.842	23.2739
710.457	65.6728
715.069	163.062
719.679	138.179
724.286	165.407
728.89	168.973
733.492	24.3545
738.091	110.134
742.688	204.52
747.282	153.883
751.874	79.2051
756.463	213.869
761.05	181.251
765.634	351.039
770.215	359.718
774.794	403.985
779.37	355.694
783.944	432.018
788.515	436.647
793.084	366.775
797.65	411.474
802.213	421.784
806.774	359.917
811.332	478.474
815.888	753.434
820.441	796.852
824.992	605.851
829.54	408.999
834.085	218.577
838.628	54.6924
843.169	69.3438
847.706	107.804
852.242	26.417
856.774	103.159
861.304	118.869
865.832	79.1611
870.357	92.6924
874.879	14.4277
879.399	133.267
883.916	10.4014
888.431	11.5918
892.943	12.6641
897.452	22.0068
901.959	58.3223
906.463	4.65137
910.965	56.251
915.464	129.532
919.961	28.2646
924.455	15.4961
928.946	43.7598
933.435	72.5615
937.922	92.667
942.405	9.58301
946.886	153.305
951.365	137.884
955.841	244.31
960.314	247.625
964.785	248.855
969.253	234.925
973.719	220.17
978.182	249.416
982.642	306.661
987.1	193.237
991.556	232.645
996.008	292.622
1000.46	378.497
1004.91	442.793
1009.35	211.424
1013.79	413.971
1018.23	316.826
1022.67	354.845
1027.11	447.846
1031.54	431.531
1035.97	350.784
1040.39	547.797
1044.82	528.459
1049.24	500.139
1053.66	464.42
1058.08	517.368
1062.49	432.644
1066.9	353.93
1071.31	264.18
1075.71	499.705
1080.12	374.696
1084.52	627.799
1088.92	630.002
1093.31	858.322
1097.71	911.918
1102.1	882.651
1106.48	1114.36
1110.87	1128.22
1115.25	1234.68
1119.63	1100.67
1124.01	1273.42
1128.39	1283.6
1132.76	1193.17
1137.13	1334.96
1141.5	1496.32
1145.86	1319.66
1150.22	1491.3
1154.58	1384.61
1158.94	1588.75
1163.29	1544.93
1167.64	1225.42
1171.99	1390.54
1176.34	1168.77
1180.68	978.909
1185.03	1062.34
1189.36	836.986
1193.7	661.871
1198.03	505.918
1202.36	343.215
1206.69	299.453
1211.02	158.8
1215.34	135.206
1219.66	161.73
1223.98	18.0566
1228.3	90.0098
1232.61	141.503
1236.92	58.9092
1241.22	123.778
1245.53	6.55176
1249.83	53.6982
1254.13	11.1318
1258.43	28.9531
1262.72	50.7422
1267.02	4.25488
1271.3	33.043
1275.59	19.0635
1279.88	27.8193
1284.16	100.493
1288.43	73.8867
1292.71	142.926
1296.98	174.025
1301.26	30.9248
1305.52	143.544
1309.79	81.1885
1314.05	80.6826
1318.31	200.132
1322.57	123.548
1326.83	129.926
1331.08	237.254
1335.33	49.5088
1339.58	74.6533
1343.82	147.72
1348.07	194.766
1352.31	67.7295
1356.54	146.998
1360.78	20.2168
1365.01	177.683
1369.24	177.954
1373.46	115.623
1377.69	74.333
1381.91	244.477
1386.13	264.215
1390.35	60.3711
1394.56	0.874023
1398.77	46.4785
1402.98	54.9727
1407.18	242.363
1411.39	139.69
1415.59	82.6826
1419.79	96.7178
1423.98	62.1582
1428.17	96.8955
1432.36	192.486
1436.55	141.055
1440.74	205
1444.92	274.946
1449.1	337.58
1453.28	263.191
1457.45	404.45
1461.62	314.256
1465.79	168.185
1469.96	219.911
1474.12	57.9062
1478.28	121.531
1482.44	259.987
1486.6	385.483
1490.75	104.784
1494.9	76.709
1499.05	160.026
1503.19	153.372
1507.34	334.702
1511.48	6.21387
1515.62	222.938
1519.75	313.685
1523.88	92.5049
1528.02	217.252
1532.14	199.213
1536.27	227.024
1540.39	95.2949
1544.51	222.639
1548.62	109.372
1552.74	198.608
1556.85	17.0791
1560.96	0.633789
