Measurement: Raman, 514 nm, ccw, Raman Data Processed
Mineral: Clinoptilolite-Na
Rruff sample: R061099
Ideal chemistry: Na_6_(Si_30_Al_6_)O_72_20H_2_O
Locality: Richardson Ranch, Madras, Jefferson County, Oregon, USA
Source: Michael Scott
Description: Red-brown to salmon, somewhat coffin shaped tabular crystals in a fragmented geode
Measured chemistry: (Na_2.70_Ca_1.46_K_0.89_Fe_0.08_Mg_0.02_)_Σ=5.15_(Si_29.29_Al_6.71_)O_72_·18.51H_2_O
Pin_id: M01086
Orientation: Laser parallel to (1 0 1). Fiducial mark perpendicular to laser is parallel to b [0 1 0]
Raman shift (cm-1)	intensity
147.24	0
152.15	123.719
157.057	2.72998
161.961	50.3662
166.863	194.267
171.763	152.207
176.66	53.947
181.555	157.342
186.447	220.037
191.337	140.633
196.224	264.992
201.109	356.904
205.991	39.3655
210.871	9.42261
215.748	98.4766
220.623	49.3442
225.496	209.946
230.366	128.637
235.233	123.808
240.098	249.019
244.96	356.911
249.82	378.607
254.678	260.871
259.533	262.059
264.385	217.487
269.236	129.275
274.083	114.151
278.928	10.2478
283.771	58.5105
288.611	172.552
293.448	174.513
298.283	244.478
303.116	239.148
307.946	77.4939
312.774	41.4094
317.599	41.9619
322.422	27.2451
327.242	71.9871
332.059	115.151
336.874	214.298
341.687	290.78
346.497	395.909
351.305	355.172
356.11	490.252
360.912	686.272
365.712	815.606
370.51	1062.23
375.305	1266.42
380.098	1485.49
384.888	2041.91
389.675	2472.54
394.46	3117.98
399.243	3948.04
404.023	4229.73
408.8	4173.29
413.575	3750.78
418.348	2735.07
423.118	1989.99
427.885	1401.57
432.65	1043.84
437.413	689.112
442.173	561.323
446.93	441.029
451.685	554.323
456.437	582.481
461.187	751.943
465.934	916.279
470.679	1106.24
475.421	1410.65
480.161	1753.56
484.898	2049.15
489.633	1664.86
494.365	990.48
499.095	652.236
503.822	394.166
508.547	229.911
513.269	174.402
517.988	125.093
522.705	109.996
527.42	78.8403
532.132	5.41357
536.841	16.8257
541.548	14.6821
546.252	27.2222
550.954	74.6997
555.653	9.91943
560.35	0.325195
565.044	64.3833
569.736	57.5869
574.425	30.9932
579.112	186.608
583.796	239.899
588.477	268.611
593.156	297.021
597.833	273.899
602.507	403.137
607.178	647.639
611.847	663.582
616.513	780.751
621.177	768.435
625.838	486.043
630.497	424.98
635.153	334.914
639.806	299.783
644.457	268.584
649.106	232.289
653.752	255.889
658.395	256.488
663.036	314.814
667.674	307.307
672.31	164.136
676.943	143.09
681.574	146.295
686.202	95.5342
690.827	115.405
695.45	128.95
700.071	106.431
704.688	79.7871
709.304	68.0181
713.916	26.1939
718.527	100.189
723.134	85.249
727.739	45.7524
732.342	84.3223
736.942	60.4595
741.539	17.6006
746.134	75.3535
750.726	40.5034
755.316	12.4844
759.903	51.624
764.488	214.925
769.07	228.016
773.649	241.863
778.226	340.345
782.801	406.705
787.372	325.418
791.942	334.347
796.508	306.711
801.072	355.972
805.634	348.669
810.193	379.889
814.749	418.59
819.303	480.024
823.854	467.301
828.403	444.411
832.949	242.483
837.493	193.155
842.034	52.773
846.572	143.621
851.108	71.9634
855.641	14.2124
860.172	65.2954
864.7	84.6699
869.226	19.4473
873.749	76.812
878.269	85.7437
882.787	22.374
887.302	120.383
891.815	129.691
896.325	13.0815
900.833	13.0098
905.338	67.6523
909.84	8.02539
914.34	45.1714
918.837	93.1187
923.332	65.9087
927.824	99.4888
932.313	59.7227
936.8	16.3648
941.285	45.2886
945.766	74.8062
950.246	56.2065
954.722	74.519
959.196	25.6821
963.668	104.769
968.136	4.15332
972.603	85.8066
977.066	121.243
981.528	120.796
985.986	234.362
990.442	198.274
994.895	153.381
999.346	112.743
1003.79	152.569
1008.24	55.6157
1012.68	96.1675
1017.12	100.394
1021.56	170.969
1026	107.025
1030.43	162.853
1034.86	148.573
1039.29	160.363
1043.71	203.264
1048.13	236.322
1052.55	123.019
1056.97	222.013
1061.38	118.69
1065.8	115.173
1070.21	113.856
1074.61	159.168
1079.02	183.331
1083.42	177.445
1087.82	97.6479
1092.21	144.009
1096.61	215.634
1101	253.542
1105.39	279.754
1109.78	208.198
1114.16	290.703
1118.54	211.264
1122.92	272.039
1127.29	238.748
1131.67	327.529
1136.04	240.399
1140.4	184.36
1144.77	264.168
1149.13	255.638
1153.49	216.975
1157.85	178.449
1162.2	304.045
1166.56	285.861
1170.91	252.952
1175.25	197.184
1179.6	105.553
1183.94	169.037
1188.28	159.648
1192.62	103.433
1196.95	137.415
1201.28	85.585
1205.61	3.12256
1209.94	163.255
1214.26	39.5332
1218.58	3.18994
1222.9	42.1787
1227.22	41.5444
1231.53	8.95508
1235.84	54.6948
1240.15	91.4546
1244.45	9.83789
1248.76	30.2954
1253.06	117.32
1257.36	168.471
1261.65	147.819
1265.94	278.302
1270.23	291.918
1274.52	192.643
1278.8	272.457
1283.09	383.377
1287.37	329.405
1291.64	489.543
1295.92	454.654
1300.19	652.057
1304.46	604.511
1308.72	600.069
1312.99	720.735
1317.25	794.305
1321.51	743.194
1325.76	765.014
1330.02	725.418
1334.27	762.36
1338.52	606.509
1342.76	566.038
1347.01	502.65
1351.24	459.62
1355.48	318.798
1359.72	240.888
1363.95	260.276
1368.18	200.66
1372.41	194.89
1376.63	172.115
1380.85	142.636
1385.07	42.5283
1389.29	177.368
1393.51	129.031
1397.72	48.3135
1401.93	80.4014
1406.13	79.7383
1410.34	86.1348
1414.54	33.6543
1418.74	92.2295
1422.93	16.9238
1427.12	102.693
1431.32	74.6221
1435.5	47.7764
1439.69	29.8164
1443.87	188.965
1448.05	91.1846
1452.23	56.5967
1456.41	105.355
1460.58	60.0732
1464.75	49.9111
1468.91	100.148
1473.08	139.768
1477.24	49.7578
1481.4	68.6553
1485.56	116.798
1489.71	7.03711
1493.86	193.374
1498.01	102.931
1502.16	187.709
1506.3	205.932
1510.44	161.136
1514.58	175.198
1518.72	139.144
1522.85	60.4092
1526.98	0.253906
