Measurement: Raman, 514 nm, ccw, Raman Data Processed
Mineral: Clinoptilolite-Na
Rruff sample: R061099
Ideal chemistry: Na_6_(Si_30_Al_6_)O_72_20H_2_O
Locality: Richardson Ranch, Madras, Jefferson County, Oregon, USA
Source: Michael Scott
Description: Red-brown to salmon, somewhat coffin shaped tabular crystals in a fragmented geode
Measured chemistry: (Na_2.70_Ca_1.46_K_0.89_Fe_0.08_Mg_0.02_)_Σ=5.15_(Si_29.29_Al_6.71_)O_72_·18.51H_2_O
Pin_id: M00738
Orientation: Laser parallel to b* (0 1 0). Fiducial mark perpendicular to laser is parallel to c [0 0 1]
Raman shift (cm-1)	intensity
170.538	0
175.436	34.1836
180.331	275.081
185.224	238.93
190.115	379.296
195.002	409.394
199.888	766.054
204.771	552.845
209.651	261.252
214.529	53.5342
219.405	34.6797
224.278	121.259
229.148	65.6592
234.016	216.884
238.882	702.85
243.745	1129.77
248.606	1714.5
253.464	2041.39
258.319	2222.28
263.173	2122.53
268.023	1743.85
272.871	1345.78
277.717	997.391
282.56	738.995
287.401	448.495
292.239	427.312
297.075	516.096
301.908	723.787
306.739	890.102
311.567	1163.05
316.393	1412.03
321.216	1317.17
326.037	1426.12
330.855	1520.83
335.671	1616.14
340.484	1810.62
345.295	2121.37
350.103	2626.96
354.909	3055.89
359.712	3677.82
364.513	4593.57
369.311	5307
374.107	6315.06
378.9	7713.83
383.691	9231.88
388.479	11733.4
393.264	15471.9
398.048	20272.9
402.828	24126.8
407.606	24449.9
412.382	21008.5
417.155	16829.6
421.926	12416.7
426.694	8781.45
431.459	6023.15
436.222	4136.74
440.983	3491.97
445.741	3100.62
450.496	3372.46
455.249	4543.44
460	6174.49
464.748	8323.89
469.493	9265.66
474.236	10885
478.977	13745.3
483.714	15191.4
488.45	12547.7
493.183	7558.18
497.913	3915.91
502.641	2022.04
507.366	1004.65
512.088	531.056
516.809	407.102
521.526	280.512
526.241	123.993
530.954	72.0088
535.664	14.6904
540.371	65.416
545.076	155.421
549.779	25.8857
554.479	13.9492
559.176	50.5469
563.871	254.736
568.563	214.55
573.253	302.072
577.94	380.323
582.625	657.968
587.307	766.38
591.987	1063.65
596.664	1351.06
601.338	1910.93
606.01	2569.87
610.68	3331.91
615.347	4317.44
620.011	4725.95
624.673	4592.88
629.332	3691.81
633.989	2381.5
638.643	1877.05
643.295	1856.92
647.944	1724.25
652.59	1408.87
657.234	993.674
661.876	585.61
666.515	411.644
671.151	356.575
675.785	170.779
680.416	110.891
685.045	120.514
689.671	55.0244
694.295	65.3564
698.916	43.5137
703.534	21.7744
708.15	41.9873
712.764	45.2041
717.374	77.875
721.983	91.1582
726.588	153.617
731.191	95.4492
735.792	131.73
740.39	151.002
744.986	228.346
749.579	241.426
754.169	88.6562
758.757	185.985
763.342	166.752
767.925	169.965
772.505	325.635
777.082	339.785
781.657	410.428
786.23	476.919
790.8	469.857
795.367	435.062
799.932	479.977
804.494	485.19
809.053	474.272
813.61	546.831
818.165	727.347
822.717	666.377
827.266	549.657
831.813	447.94
836.357	445.639
840.899	429.024
845.438	728.196
849.974	642.607
854.508	872.653
859.04	1173.04
863.568	1157.44
868.095	727.805
872.618	412.742
877.139	464.463
881.658	318.68
886.174	290.868
890.687	424.709
895.198	349.962
899.706	442.115
904.212	369.815
908.715	246.289
913.215	285.979
917.713	208.7
922.208	64.2236
926.701	37.6865
931.191	29.0781
935.679	45.6377
940.164	7.92676
944.646	44.4072
949.126	45.3506
953.603	203.66
958.078	69.6367
962.55	173.273
967.019	88.2109
971.486	3.84082
975.951	21.7529
980.413	17.042
984.872	50.4853
989.328	179.101
993.782	144.879
998.234	539.814
1002.68	1466.83
1007.13	464.96
1011.57	155.182
1016.01	168.505
1020.45	620.939
1024.89	736.49
1029.32	473.173
1033.75	399.997
1038.18	307.966
1042.61	320.087
1047.03	342.358
1051.45	447.784
1055.87	313.028
1060.28	250.453
1064.69	370.413
1069.11	344.84
1073.51	292.685
1077.92	546.278
1082.32	928.967
1086.72	1063.76
1091.12	1085.08
1095.51	932.185
1099.9	1162.8
1104.29	1339.15
1108.68	1492.73
1113.06	1513.19
1117.44	1473.29
1121.82	1583.92
1126.2	1411.82
1130.57	1538.99
1134.94	1595.43
1139.31	1592.14
1143.68	1589.13
1148.04	1357.47
1152.4	1652.11
1156.76	1591.08
1161.12	1571.34
1165.47	1535.88
1169.82	1637.71
1174.17	1540.84
1178.51	1332.65
1182.86	1235.91
1187.19	1007.93
1191.53	859.394
1195.87	597.193
1200.2	321.341
1204.53	280.765
1208.86	59.4707
1213.18	157.509
1217.5	74.8516
1221.82	43.873
1226.14	44.5478
1230.45	29.5967
1234.76	105.629
1239.07	314.25
1243.38	291.938
1247.68	104.049
1251.98	278.456
1256.28	106.091
1260.58	216.93
1264.87	260.978
1269.16	337.258
1273.45	659.685
1277.73	456.929
1282.02	298.837
1286.3	353.927
1290.57	461.996
1294.85	587.939
1299.12	538.14
1303.39	470.423
1307.66	655.872
1311.92	838.388
1316.18	777.974
1320.44	755.689
1324.7	604.904
1328.95	413.048
1333.2	142.542
1337.45	28.6338
1341.7	86.2676
1345.94	43.8945
1350.18	59.5518
1354.42	68.7119
1358.66	61.8935
1362.89	115.312
1367.12	71.751
1371.35	6.08691
1375.58	205.143
1379.8	153.115
1384.02	285.229
1388.24	308.996
1392.45	74.2412
1396.66	54.3916
1400.87	98.6523
1405.08	92.6533
1409.29	27.7061
1413.49	102.485
1417.69	28.2578
1421.88	145.446
1426.08	164.149
1430.27	293.411
1434.46	660.247
1438.64	1095.63
1442.83	1574.12
1447.01	1793.8
1451.19	1995.44
1455.36	2050.98
1459.54	1806.02
1463.71	1565.63
1467.87	1028.41
1472.04	814.416
1476.2	662.374
1480.36	695.019
1484.52	603.663
1488.67	248.955
1492.83	40.8203
1496.98	21.3008
1501.12	14.8125
1505.27	26.1191
1509.41	18.8154
1513.55	5.86719
1517.68	17.2617
1521.82	135.07
1525.95	49.6728
1530.08	289.696
1534.2	234.552
1538.33	169.171
1542.45	94.1807
1546.57	261.362
1550.68	129.467
1554.8	32.6113
1558.91	1.47363
1563.01	0
