Measurement: Raman, 514 nm, ccw, Raman Data Processed
Mineral: Clinoptilolite-Na
Rruff sample: R061099
Ideal chemistry: Na_6_(Si_30_Al_6_)O_72_20H_2_O
Locality: Richardson Ranch, Madras, Jefferson County, Oregon, USA
Source: Michael Scott
Description: Red-brown to salmon, somewhat coffin shaped tabular crystals in a fragmented geode
Measured chemistry: (Na_2.70_Ca_1.46_K_0.89_Fe_0.08_Mg_0.02_)_Σ=5.15_(Si_29.29_Al_6.71_)O_72_·18.51H_2_O
Pin_id: M00738
Orientation: Laser parallel to b* (0 1 0). Fiducial mark perpendicular to laser is parallel to c [0 0 1]
Raman shift (cm-1)	intensity
188.892	0
192.559	172.284
196.224	134.568
199.888	237.392
203.55	212.673
207.211	102.431
210.871	114.419
214.529	77.2617
218.186	208.621
221.842	133.693
225.496	286.602
229.148	331.695
232.8	503.869
236.449	542.847
240.098	784.949
243.745	1053.75
247.391	1063.47
251.035	1286.17
254.678	1308.6
258.319	1481.2
261.96	1356.64
265.598	1262.38
269.236	1103.47
272.871	925.528
276.506	628.71
280.139	255.03
283.771	183.621
287.401	168.511
291.03	104.35
294.657	1.12012
298.283	36.085
301.908	44.4922
305.531	121.228
309.153	284.224
312.774	350.123
316.393	290.449
320.011	299.793
323.627	176.404
327.242	192.283
330.855	231.408
334.467	375.886
338.078	474.79
341.687	579.966
345.295	572.029
348.901	639.663
352.506	731.943
356.11	718.077
359.712	786.475
363.313	1051.26
366.912	1323.71
370.51	1288.2
374.107	1750.41
377.702	2069.65
381.295	2629.47
384.888	3343.12
388.479	4073.94
392.068	5060.51
395.656	6308.01
399.243	7318.07
402.828	8399.14
406.412	8722.9
409.994	7994.33
413.575	6874.7
417.155	5537.98
420.733	4479.78
424.31	3143.46
427.885	2338.54
431.459	1604.29
435.032	1014.75
438.603	640.095
442.173	509.866
445.741	400.947
449.308	568.697
452.873	690.573
456.437	1151.73
460	1716.86
463.561	2215.96
467.121	2664.02
470.679	2873.04
474.236	3440.84
477.792	4303.72
481.346	5262.43
484.898	5376.98
488.45	4360.37
492	2945.62
495.548	1725.76
499.095	1014.82
502.641	566.79
506.185	385.685
509.727	226.475
513.269	237.131
516.809	212.63
520.347	95.9648
523.884	55.1143
527.42	102.197
530.954	5.11328
534.487	87.1436
538.018	46.4414
541.548	14.5977
545.076	0.959961
548.604	102.079
552.129	152.008
555.653	64.5303
559.176	234.268
562.698	276.184
566.217	323.823
569.736	587.349
573.253	674.047
576.769	776.834
580.283	843.037
583.796	1106.14
587.307	1221.78
590.817	1366.31
594.326	1621.28
597.833	1742.84
601.338	1900.73
604.843	2137.61
608.345	2123.83
611.847	2674.6
615.347	3337.91
618.845	4541.76
622.342	5365.15
625.838	5663.07
629.332	4587.51
632.825	3328.49
636.316	2686.98
639.806	2861.98
643.295	3507.51
646.782	3647.54
650.267	3477.08
653.752	2881.12
657.234	2078.67
660.716	1291.31
664.196	769.056
667.674	460.45
671.151	403.474
674.627	69.9082
678.101	67.1221
681.574	30.3496
685.045	20.2012
688.515	42.5938
691.983	38.9248
695.45	95.0684
698.916	24.0195
702.38	19.4629
705.842	82.6582
709.304	71.4248
712.764	159.534
716.222	88.6856
719.679	312.103
723.134	311.986
726.588	495.331
730.041	469.193
733.492	656.594
736.942	683.539
740.39	488.035
743.837	613.085
747.282	611.696
750.726	596.876
754.169	692.627
757.61	700.956
761.05	708.87
764.488	764.376
767.925	983.481
771.36	1277.19
774.794	1138.51
778.226	1327.47
781.657	1351.07
785.087	1558.29
788.515	1599.15
791.942	1800.79
795.367	1911.25
798.791	1952.45
802.213	1799.43
805.634	1843.73
809.053	1729.7
812.471	1615.99
815.888	1724.66
819.303	1810.92
822.717	1974.78
826.129	1983.73
829.54	1637.86
832.949	1751.33
836.357	1790.84
839.764	1797.96
843.169	2301.27
846.572	2537.26
849.974	2660.13
853.375	3293.53
856.774	3959.55
860.172	4349.72
863.568	3932.54
866.963	2842.39
870.357	2248.33
873.749	2080.22
877.139	1821.1
880.528	1893.05
883.916	1704.8
887.302	1557.64
890.687	1803.48
894.07	1891.34
897.452	1792.22
900.833	1691.13
904.212	1577.61
907.589	1394.07
910.965	1235.82
914.34	1053.92
917.713	809.099
921.085	519.349
924.455	311.879
927.824	500.632
931.191	592.968
934.557	664.837
937.922	540.536
941.285	391.34
944.646	479.389
948.006	479.948
951.365	554.879
954.722	557.113
958.078	415.838
961.432	435.078
964.785	232.714
968.136	134.862
971.486	108.603
974.835	147.337
978.182	215.383
981.528	51.5723
984.872	118.391
988.214	152.679
991.556	283.218
994.895	698.981
998.234	2074.95
1001.57	3765.12
1004.91	2379.49
1008.24	779.051
1011.57	193.816
1014.9	443.788
1018.23	973.971
1021.56	1452.37
1024.89	1318.98
1028.21	934.813
1031.54	648.871
1034.86	286.153
1038.18	264.665
1041.5	140.41
1044.82	83.3701
1048.13	128.533
1051.45	92.9346
1054.76	101.578
1058.08	125.548
1061.38	95.8086
1064.69	9.06641
1068	144.735
1071.31	228.2
1074.61	656.786
1077.92	1055.49
1081.22	1469.74
1084.52	1596.69
1087.82	1243.02
1091.12	825.444
1094.41	870.817
1097.71	771.723
1101	627.839
1104.29	672.185
1107.58	902.834
1110.87	1014.01
1114.16	963.805
1117.44	648.42
1120.73	701.951
1124.01	792.73
1127.29	774.754
1130.57	668.026
1133.85	711.553
1137.13	581.331
1140.4	483.365
1143.68	289.658
1146.95	507.249
1150.22	521.14
1153.49	558.289
1156.76	660.773
1160.03	648.377
1163.29	823.312
1166.56	766.51
1169.82	837.97
1173.08	856.691
1176.34	862.976
1179.6	727.226
1182.86	676.74
1186.11	705.521
1189.36	350.072
1192.62	242.67
1195.87	92.8291
1199.12	298.748
1202.36	112.918
1205.61	57.6523
1208.86	118.398
1212.1	28.5762
1215.34	245.769
1218.58	91.2432
1221.82	30.8447
1225.06	72.874
1228.3	212.321
1231.53	445.771
1234.76	848.177
1237.99	845.31
1241.22	909.046
1244.45	895.422
1247.68	1066.22
1250.91	938.33
1254.13	959.761
1257.36	787.587
1260.58	1185.79
1263.8	1507.36
1267.02	1790.27
1270.23	2078.51
1273.45	2080.07
1276.66	1851.22
1279.88	1629
1283.09	1417.36
1286.3	1320.1
1289.51	1313.92
1292.71	1794.01
1295.92	1938.35
1299.12	1543.96
1302.32	1848.83
1305.52	2008.98
1308.72	2359.4
1311.92	2658.1
1315.12	2696.07
1318.31	2534.49
1321.51	2263.2
1324.7	1866.37
1327.89	1240.93
1331.08	883.803
1334.27	490.57
1337.45	273.941
1340.64	347.57
1343.82	419.648
1347.01	11.2637
1350.18	176.043
1353.36	13.3633
1356.54	20.5039
1359.72	40.9629
1362.89	35.7305
1366.07	21.8184
1369.24	329.234
1372.41	317.982
1375.58	531.623
1378.74	697.182
1381.91	736.793
1385.07	650.555
1388.24	497.967
1391.4	508.467
1394.56	202.094
1397.72	33.9883
1400.87	95.6816
1404.03	272.336
1407.18	168.963
1410.34	79.8945
1413.49	7.64648
1416.64	183.81
1419.79	267.34
1422.93	321.236
1426.08	402.496
1429.22	819.396
1432.36	1394.08
1435.5	2322.36
1438.64	3435.72
1441.78	4438.13
1444.92	5284.78
1448.05	5881.17
1451.19	6262.65
1454.32	6407.85
1457.45	5901.41
1460.58	5250.2
1463.71	4193.84
1466.83	3238.44
1469.96	2535.15
1473.08	2276.87
1476.2	2034.03
1479.32	2082.18
1482.44	1767.97
1485.56	1351.44
1488.67	842.6
1491.79	459.334
1494.9	142.696
1498.01	22.6729
1501.12	16.2188
1504.23	85.874
1507.34	86.6436
1510.44	45.0908
1513.55	348.158
1516.65	155.74
1519.75	94.792
1522.85	328.192
1525.95	252.309
1529.05	263.529
1532.14	213.615
1535.24	139.637
