Measurement: Raman, 514 nm, depolarized, Raman Data Processed
Mineral: Clinozoisite
Rruff sample: R060284
Ideal chemistry: Ca_2_Al_3_(Si_2_O_7_)(SiO_4_)O(OH)
Locality: near Zagi Mountain, Khaffor Dehri, North-West Frontier Province, Pakistan
Source: Herb Obodda
Description: Greenish-brown fragment of a prismatic crystal
Measured chemistry: Ca_2.00_(Al_0.90_Fe^3+^_0.10_)_3_(Si_1.00_O_4_)(Si_2.00_O_7_)O(OH)
Pin_id: L00506
Orientation: Laser parallel to -a* (-1 0 0). Fiducial mark perpendicular to laser is parallel to b [0 1 0]
Raman shift (cm-1)	intensity
118.134	0
123.058	122.284
127.979	340.155
132.898	1719
137.814	4271.92
142.728	5770.37
147.639	6230.01
152.549	6371.65
157.455	6730.49
162.359	7641.61
167.261	8599.7
172.161	7603.44
177.058	4888.48
181.952	1831.16
186.845	337.701
191.734	241.417
196.622	381.411
201.507	148.062
206.389	718.847
211.269	1241.59
216.147	1612.42
221.022	1909.7
225.895	3059.78
230.765	5938.61
235.633	9364.81
240.498	11087.6
245.361	13432
250.222	19070.1
255.08	22198
259.936	17727.7
264.789	12441.1
269.64	11956.9
274.488	12095.8
279.334	9227.39
284.178	6454.49
289.019	4694.76
293.857	4413.99
298.693	4118.14
303.527	3728.95
308.358	4048.18
313.187	4177.37
318.013	4333.35
322.837	5325
327.659	7346.22
332.478	10636.9
337.294	14799.5
342.108	19422.2
346.92	25769.3
351.729	30012.5
356.535	21639.8
361.34	10302.2
366.141	4825.75
370.94	2325.39
375.737	706.154
380.531	261.09
385.323	1173.19
390.113	1727.42
394.9	1833.77
399.684	1043.81
404.466	521.371
409.245	1257.25
414.022	697.312
418.797	1900.76
423.569	6424.17
428.338	9963.93
433.105	9337
437.87	10222.3
442.632	17164.9
447.391	30750
452.149	42225
456.903	37927.3
461.655	26230.6
466.405	20775.1
471.152	19333.9
475.897	19270.4
480.639	19355.4
485.378	17521.9
490.116	12395.2
494.85	7906.59
499.582	6589.53
504.312	7791.2
509.039	8371.4
513.764	8524.86
518.486	9126.19
523.206	8775.19
527.923	8275.71
532.638	5905.62
537.35	2355.84
542.059	788.309
546.766	368.025
551.471	903.449
556.173	2623.59
560.873	7168.02
565.57	18142.8
570.264	35223.8
574.957	27058
579.646	9607.28
584.333	5164.38
589.018	6673.45
593.7	9476.97
598.379	13225.1
603.056	17278.8
607.73	16222.9
612.402	10608.8
617.072	6340.14
621.739	3365.91
626.403	1467.3
631.065	513.593
635.724	291.441
640.381	458.424
645.035	680.393
649.687	1839.21
654.336	3491.14
658.983	3758.24
663.627	2717.58
668.268	1886.64
672.907	1622.98
677.544	1734.89
682.178	2375.38
686.809	2674.53
691.438	3037.71
696.065	3230.46
700.688	3554.82
705.31	3105.44
709.929	1813.25
714.545	778.204
719.158	342.254
723.77	73.7217
728.378	21.377
732.984	16.8799
737.588	53.7227
742.189	98.3711
746.787	211.119
751.383	209.878
755.976	232.946
760.567	250.565
765.155	118.37
769.741	122.418
774.324	35.169
778.904	163.907
783.482	52.1523
788.058	16.9053
792.631	120.832
797.201	345.204
801.769	340.305
806.334	603.316
810.897	777.383
815.457	1087.56
820.014	1752.97
824.569	1955.42
829.122	2451.16
833.671	3083.1
838.219	3494.23
842.763	4130.6
847.306	5087.26
851.845	6013.26
856.382	7944.67
860.917	10582.2
865.448	14331.1
869.978	19387.3
874.505	23659.5
879.029	27002.7
883.55	27412.7
888.069	25909.7
892.586	26738.2
897.1	27794.3
901.611	26897
906.12	28110.9
910.626	32491.6
915.129	33333
919.63	28123.4
924.129	22499
928.625	18402
933.118	14400.7
937.609	10245.4
942.097	6700.52
946.582	4566.94
951.065	3428.23
955.546	2978.33
960.023	3053.24
964.499	3384.01
968.971	3922.65
973.441	5014.15
977.909	8402.59
982.374	13943.1
986.836	14959.8
991.295	9529.54
995.753	4813.6
1000.21	2538.35
1004.66	1373.25
1009.11	550.592
1013.55	312.154
1018	623.748
1022.44	1398.29
1026.88	2482.01
1031.32	3347.79
1035.75	2812.92
1040.18	2919.54
1044.61	2967.31
1049.04	2904.39
1053.46	2404.97
1057.88	1644.13
1062.3	1136.73
1066.71	1126.64
1071.13	1212.11
1075.54	2195.74
1079.94	3689.28
1084.35	6459.97
1088.75	11705.6
1093.15	17102.6
1097.55	12706.6
1101.94	5616.77
1106.34	2612.93
1110.73	1876.76
1115.11	1311.69
1119.5	1606.07
1123.88	1241.36
1128.26	604.066
1132.63	185.209
1137.01	50.0039
1141.38	6.4375
1145.75	59.0879
1150.12	8.60352
1154.48	63.332
1158.84	193.898
1163.2	59.4277
1167.55	101.922
1171.91	41.6953
1176.26	55.2617
1180.61	58.1895
1184.95	29.957
1189.29	236.996
1193.63	21.998
1197.97	145.312
1202.31	22.5469
1206.64	45.373
1210.97	75.9062
1215.29	77.5254
1219.62	16.6191
1223.94	101.022
1228.26	97.6289
1232.57	225.619
1236.89	172.34
1241.2	81.9258
1245.51	295.836
1249.81	270.658
1254.12	111.832
1258.42	209.055
1262.72	154.9
1267.01	261.799
1271.3	323.346
1275.59	276.988
1279.88	226.119
1284.17	178.772
1288.45	827.894
1292.73	164.447
1297.01	168.086
1301.28	242.877
1305.55	116
1309.82	218.359
1314.09	358.312
1318.35	284.357
1322.61	378.353
1326.87	136.662
1331.13	235.393
1335.38	67.0723
1339.63	119.715
1343.88	381.254
1348.12	184.83
1352.37	301.812
1356.61	444.264
1360.85	169.191
1365.08	285.684
1369.31	221.656
1373.54	186.394
1377.77	128.922
1381.99	181.971
1386.22	264.801
1390.43	299.867
1394.65	186.174
1398.87	402.182
1403.08	83.9258
1407.29	24.7949
1411.49	258.889
1415.69	121.967
1419.89	41.6367
1424.09	107.875
1428.29	180.838
1432.48	178.781
1436.67	190.215
1440.86	211.781
1445.04	355.488
1449.23	196.736
1453.4	389.051
1457.58	292.684
1461.76	76.1465
1465.93	234.59
1470.1	50.1777
1474.26	143.769
1478.43	147.414
1482.59	233.18
1486.75	220.492
1490.9	152.582
1495.06	70.2695
1499.21	48.6465
1503.35	334.529
1507.5	90.5527
1511.64	235.711
1515.78	193.092
1519.92	357.775
1524.05	121.719
1528.18	148.527
1532.31	216.107
1536.44	139.699
1540.56	144.772
1544.69	254.451
1548.8	112.148
1552.92	193.662
1557.03	164.414
1561.14	95.1973
1565.25	3.96484
1569.36	274.816
