Measurement: Raman, 514 nm, ccw, Raman Data Processed
Mineral: Clinohumite
Rruff sample: R040122
Ideal chemistry: Mg_9_(SiO_4_)_4_F_2_
Locality: Anzahamazonono,  Madagascar
Source: University of Arizona Mineral Museum
Description: Orange-brown blebs embedded in calcite matrix
Measured chemistry: (Mg_0.96_Fe_0.02_Ti_0.01_Ca_0.01_)_9_(SiO_4_)_4_(F_0.59_(OH)_0.41_)_2_
Pin_id: M01103
Orientation: Laser parallel to -a* (-1 0 0). Fiducial mark perpendicular to laser is parallel to b [0 1 0]
Raman shift (cm-1)	intensity
123.74	0
128.699	264.254
133.656	128.43
138.609	301.709
143.559	519.512
148.505	835.316
153.449	643.756
158.389	580.805
163.326	804.453
168.26	1017.22
173.19	1667.83
178.118	3019.55
183.042	4119.03
187.963	4367.37
192.881	2355.25
197.796	1837.59
202.707	2675.37
207.615	5167.12
212.52	6528.6
217.422	3814.87
222.321	1954.14
227.217	1763.65
232.109	1485.22
236.999	1855.84
241.885	1987.47
246.768	2425.07
251.648	3233.75
256.525	4524.66
261.399	5041.88
266.269	4073.42
271.137	2559.85
276.001	2840.31
280.862	3740.22
285.721	4663.61
290.576	4875.39
295.428	4120.23
300.277	3189.51
305.123	3147.6
309.966	2770.98
314.805	2730.73
319.642	2455.25
324.476	2018.95
329.306	1995.9
334.134	2414.58
338.959	2393.94
343.78	3576.3
348.599	3716.43
353.414	3168.3
358.226	2742.93
363.036	1716.64
367.842	922.723
372.646	982.945
377.446	1482.41
382.244	1601.4
387.038	1658.7
391.83	1767.34
396.618	2485.53
401.404	2049.92
406.186	1747.16
410.966	2494.27
415.742	3569.03
420.516	3819.72
425.287	2680.48
430.055	1944.98
434.819	1239.02
439.581	427.441
444.34	144.121
449.096	511.223
453.85	130.106
458.6	314.633
463.347	829.305
468.091	734.566
472.833	778.359
477.572	1807.62
482.307	2202.24
487.04	2603.16
491.77	1719.29
496.497	1459.04
501.221	1183.19
505.943	806.562
510.661	1134.15
515.377	1159.7
520.089	1676.46
524.799	2499.46
529.506	3245.14
534.21	4490.49
538.912	5463.85
543.61	6275.83
548.306	6473.17
552.999	5429.07
557.689	2980.48
562.376	2493.54
567.061	1555.59
571.742	1711.97
576.421	1868.65
581.097	1747.62
585.77	1956.97
590.441	2088.34
595.108	2667.22
599.773	3768.68
604.435	5537.03
609.095	6568.42
613.751	5334.36
618.405	3253.88
623.056	1648.01
627.705	1160.75
632.35	638.141
636.993	430.16
641.633	160.827
646.271	65.7969
650.905	340.961
655.537	238.797
660.166	22.7266
664.793	335.449
669.416	112.155
674.038	405.672
678.656	71.5547
683.272	310.945
687.885	125.242
692.495	151.398
697.102	314.375
701.707	836.625
706.31	375.68
710.909	1236.67
715.506	1520.39
720.1	2529.89
724.692	4379.53
729.281	6759.62
733.867	9953.13
738.451	14423.4
743.032	18695.8
747.61	21053
752.186	22586.2
756.759	20629.4
761.329	16893
765.897	13082.8
770.462	12463.2
775.025	16065.6
779.585	24352
784.142	33387.1
788.697	33588
793.249	26006.9
797.799	22961.2
802.346	25808.8
806.89	36945.9
811.432	39756.7
815.971	36424.5
820.508	37775.6
825.042	48821
829.574	74009.1
834.103	73584.4
838.63	65253.2
843.153	86016.8
847.675	107041
852.194	103368
856.71	130316
861.224	169969
865.735	120242
870.244	66407.5
874.75	45573
879.254	33591.4
883.755	21877.7
888.254	15069.5
892.75	11184.9
897.244	8705.68
901.735	7164.54
906.223	6290.42
910.71	5104.04
915.193	4926.42
919.675	4499.84
924.153	4700.39
928.63	5156.65
933.104	5958.86
937.575	4397.7
942.044	3479.29
946.51	3349.52
950.974	4476.71
955.436	7520.64
959.895	15221.4
964.352	33852.8
968.806	45368.7
973.258	23446.7
977.707	8685.43
982.154	3384.84
986.599	1645.04
991.041	931.352
995.481	328.844
999.918	319.102
1004.35	346.875
1008.78	222.109
1013.22	56
1017.64	419.656
1022.07	49.0859
1026.49	170.203
1030.91	47.8672
1035.33	225.047
1039.75	142.258
1044.16	51.9766
1048.57	146.32
1052.98	126.234
1057.39	319.648
1061.79	47.25
1066.19	403.719
1070.59	516.461
1074.99	132.224
1079.38	459.93
1083.78	106.484
1088.16	92.5078
1092.55	736.156
1096.94	493.68
1101.32	530.359
1105.7	633.969
1110.08	550.641
1114.46	297.141
1118.83	764.32
1123.2	88.0781
1127.57	554.273
1131.94	844.867
1136.3	425.688
1140.66	575.266
1145.03	747.148
1149.38	612.328
1153.74	923.555
1158.09	824.406
1162.44	867.797
1166.79	511.352
1171.14	778.453
1175.48	1168.31
1179.82	686.938
1184.16	661.789
1188.5	754.82
1192.84	362.672
1197.17	757.695
1201.5	236.414
1205.83	653.867
1210.15	479.523
1214.48	322.703
1218.8	243.461
1223.12	1006.8
1227.44	787.805
1231.75	882.008
1236.07	974.258
1240.38	1155.44
1244.68	1172.41
1248.99	950.977
1253.3	527.656
1257.6	595.328
1261.9	1071.19
1266.2	572.516
1270.49	1486.24
1274.79	539.93
1279.08	792.25
1283.37	625.273
1287.65	585.43
1291.94	1398.46
1296.22	1005.88
1300.5	842.781
1304.78	833.727
1309.05	555.273
1313.33	418.445
1317.6	941.391
1321.87	390.445
1326.14	808.617
1330.4	439.773
1334.67	574.547
1338.93	705
1343.19	508.922
1347.44	598.359
1351.7	589.375
1355.95	987.188
1360.2	1002.05
1364.45	319.172
1368.7	273.398
1372.94	748.75
1377.18	169.305
1381.42	284.922
1385.66	414.211
1389.9	427.477
1394.13	478.633
1398.37	454.055
1402.6	340.742
1406.82	582.672
1411.05	110.797
1415.27	559.125
1419.49	174.273
1423.71	3.10938
1427.93	210.445
1432.15	234.164
1436.36	225.539
1440.57	400.477
1444.78	397.656
1448.99	439.641
1453.19	39.7969
1457.4	170.953
1461.6	828.516
1465.8	1008.94
1469.99	1298.19
1474.19	733.328
1478.38	776.641
1482.58	763.109
1486.77	2291.25
1490.95	766.188
1495.14	640.031
1499.32	977.672
1503.5	1155.66
1507.68	1370.97
1511.86	1633.27
1516.03	1668.5
1520.21	1263.06
1524.38	1236.66
1528.55	1397.53
1532.72	1327.11
1536.88	481.594
1541.05	1279.06
1545.21	735.75
1549.37	618.734
1553.53	1135.98
1557.68	225.703
1561.84	605.828
1565.99	375.281
1570.14	153.375
1574.29	532.734
1578.43	704.781
