Measurement: Raman, 514 nm, ccw, Raman Data Processed
Mineral: Clinoptilolite-Na
Rruff sample: R061099
Ideal chemistry: Na_6_(Si_30_Al_6_)O_72_20H_2_O
Locality: Richardson Ranch, Madras, Jefferson County, Oregon, USA
Source: Michael Scott
Description: Red-brown to salmon, somewhat coffin shaped tabular crystals in a fragmented geode
Measured chemistry: (Na_2.70_Ca_1.46_K_0.89_Fe_0.08_Mg_0.02_)_Σ=5.15_(Si_29.29_Al_6.71_)O_72_·18.51H_2_O
Pin_id: M01086
Orientation: Laser parallel to (1 0 1). Fiducial mark perpendicular to laser is parallel to b [0 1 0]
Raman shift (cm-1)	intensity
148.468	0
153.377	66.6172
158.283	348.461
163.187	37.3105
168.088	207.92
172.987	98.0762
177.884	74.0859
182.778	198.084
187.67	198.613
192.559	97.5293
197.445	35.1094
202.33	187.01
207.211	42.3184
212.091	48.1211
216.967	275.637
221.842	199.512
226.713	672.268
231.583	585.938
236.449	311.922
241.314	333.935
246.176	470.68
251.035	516.412
255.892	830.455
260.746	733.443
265.598	641.184
270.448	770.137
275.295	594.387
280.139	675.064
284.981	1042.97
289.82	1092.82
294.657	1233
299.492	1138.97
304.324	1098.51
309.153	1144.13
313.98	1221.59
318.805	1623.84
323.627	1656.84
328.446	1788.59
333.263	1825.95
338.078	1886.39
342.89	1969.26
347.699	2242.32
352.506	2435.82
357.311	3128.93
362.113	3588.46
366.912	4271.78
371.709	5462.74
376.504	6113.4
381.295	7268.31
386.085	9363.93
390.872	11528.9
395.656	14834.1
400.438	17280.4
405.218	18413.1
409.994	17122.1
414.769	14594.8
419.541	11297.6
424.31	7968.59
429.077	5843.71
433.841	4126.81
438.603	3162.28
443.362	2604.58
448.119	2870.75
452.873	3053.08
457.625	4225.57
462.374	6042.96
467.121	7185.26
471.865	8192.6
476.607	9280.15
481.346	10978.7
486.082	9451.27
490.816	6588.77
495.548	3818.23
500.277	1766.04
505.003	1293.11
509.727	580.973
514.449	301.557
519.168	294.066
523.884	422.268
528.598	286.555
533.309	71.2559
538.018	20.9941
542.724	11.0527
547.428	152.232
552.129	236.178
556.828	24.3379
561.524	26.1777
566.217	31.8281
570.909	2.97656
575.597	44.0781
580.283	81.3789
584.966	431.414
589.647	288.897
594.326	135.16
599.001	813.797
603.675	1120.97
608.345	1576.72
613.014	2043.23
617.679	2158.37
622.342	1571.88
627.003	1571.75
631.661	1041.38
636.316	725.178
640.969	720.361
645.62	495.06
650.267	520.953
654.913	430.721
659.555	276.467
664.196	425.682
668.833	417.012
673.468	412.336
678.101	229.303
682.731	456.553
687.358	331.451
691.983	284.772
696.605	188.051
701.225	164.856
705.842	49.6855
710.457	399.072
715.069	366.17
719.679	478.402
724.286	141.231
728.89	42.4766
733.492	96.4062
738.091	215.891
742.688	191.387
747.282	57.8438
751.874	21.4102
756.463	164.461
761.05	72.4727
765.634	261.266
770.215	540.086
774.794	431.492
779.37	392.328
783.944	445.676
788.515	551.18
793.084	510.496
797.65	217.914
802.213	396.273
806.774	214.254
811.332	161.773
815.888	240.902
820.441	308.273
824.992	242.902
829.54	395.316
834.085	41.5469
838.628	357.797
843.169	287.25
847.706	146.273
852.242	250.527
856.774	379.801
861.304	354.359
865.832	106.07
870.357	259.156
874.879	188.176
879.399	69.793
883.916	106.223
888.431	25.0117
892.943	192.426
897.452	6.77734
901.959	49.3516
906.463	13.7109
910.965	95.4219
915.464	103.359
919.961	46.5742
924.455	244.613
928.946	130.188
933.435	40.2578
937.922	71.7266
942.405	321.731
946.886	61.5352
951.365	133.727
955.841	163.328
960.314	82.3906
964.785	18.7695
969.253	204.289
973.719	419.816
978.182	212.402
982.642	130.269
987.1	389.629
991.556	52.1016
996.008	511.812
1000.46	215.039
1004.91	319.199
1009.35	326.731
1013.79	524.977
1018.23	293.594
1022.67	550.215
1027.11	115.199
1031.54	427.598
1035.97	568.945
1040.39	101.742
1044.82	662.762
1049.24	358.695
1053.66	390.941
1058.08	467.535
1062.49	571.844
1066.9	31.1289
1071.31	432.492
1075.71	514.481
1080.12	116.812
1084.52	583.629
1088.92	644.559
1093.31	716.457
1097.71	685.777
1102.1	833.602
1106.48	1171.09
1110.87	1084.11
1115.25	1130.61
1119.63	1506.91
1124.01	1552.44
1128.39	1845.32
1132.76	2006.16
1137.13	1936.06
1141.5	1960.74
1145.86	1898.92
1150.22	1644.4
1154.58	1919.75
1158.94	1764.76
1163.29	1901.58
1167.64	1618.03
1171.99	1488.06
1176.34	1333.39
1180.68	1240.11
1185.03	1226.19
1189.36	1534.64
1193.7	612.41
1198.03	876.477
1202.36	406.867
1206.69	837.523
1211.02	466.461
1215.34	493.934
1219.66	99.3516
1223.98	180.406
1228.3	522.723
1232.61	166.215
1236.92	304.789
1241.22	348.574
1245.53	340.414
1249.83	263.961
1254.13	150.898
1258.43	328.871
1262.72	49.0586
1267.02	32.8672
1271.3	149.957
1275.59	323.606
1279.88	301.461
1284.16	407.293
1288.43	596.887
1292.71	299.676
1296.98	766.785
1301.26	687.695
1305.52	987.586
1309.79	1157.62
1314.05	1255.8
1318.31	897.125
1322.57	1086.6
1326.83	1125.27
1331.08	957.066
1335.33	721.977
1339.58	858.93
1343.82	875.285
1348.07	586.406
1352.31	592.606
1356.54	355.848
1360.78	385.371
1365.01	484.887
1369.24	143.043
1373.46	307.055
1377.69	123.273
1381.91	136.402
1386.13	286.492
1390.35	181.672
1394.56	198.562
1398.77	21.9883
1402.98	226.863
1407.18	19.6562
1411.39	27.8984
1415.59	4.92578
1419.79	247.769
1423.98	20.6172
1428.17	324.438
1432.36	547.281
1436.55	769.176
1440.74	730.426
1444.92	800.141
1449.1	684.481
1453.28	824.383
1457.45	529.41
1461.62	517.906
1465.79	393.117
1469.96	413.441
1474.12	483.297
1478.28	251.488
1482.44	293.312
1486.6	533.977
1490.75	410.219
1494.9	318.582
1499.05	87.5156
1503.19	105.363
1507.34	91.6484
1511.48	0.726563
