Measurement: Raman, 514 nm, depolarized, Raman Data Processed
Mineral: Clinozoisite
Rruff sample: R040085
Ideal chemistry: Ca_2_Al_3_(Si_2_O_7_)(SiO_4_)O(OH)
Locality: Alamos, Sonora, Mexico
Source: University of Arizona Mineral Museum
Description: Divergent aggregate of red thin prismatic crystals
Measured chemistry: Ca_2.03_(Al_0.90_Fe_0.13_)_3_(Si_1.00_O_4_)(Si_2.00_O_7_)O(OH)
Pin_id: S00052
Orientation: Laser parallel to -b* (0 -1 0). Fiducial mark perpendicular to laser is parallel to c [0 0 1]
Raman shift (cm-1)	intensity
128.66	0
131.449	88.117
134.237	367.234
137.024	672.359
139.81	797.338
142.596	743.184
145.38	639.561
148.163	722.855
150.945	694.029
153.726	591.967
156.507	641.246
159.286	710.756
162.064	580.482
164.842	633.738
167.618	693.777
170.393	968.857
173.168	711.711
175.941	604.32
178.714	474.594
181.485	425.312
184.256	370.656
187.025	246.986
189.794	207.98
192.562	59.082
195.328	50.281
198.094	28.244
200.859	63.779
203.623	72.287
206.385	48.756
209.147	24.279
211.908	72.807
214.668	21.012
217.427	122.352
220.185	114.629
222.942	76.283
225.698	34.453
228.453	85.16
231.207	306.424
233.96	267.885
236.713	229.518
239.464	331.303
242.214	203.234
244.964	295.312
247.712	447.504
250.459	659.824
253.206	832.15
255.951	934.506
258.696	856.859
261.439	499.172
264.182	543.26
266.924	506.775
269.665	449.514
272.404	299.18
275.143	397.955
277.881	420.686
280.618	383.52
283.354	376.457
286.089	239.482
288.823	32.592
291.556	5.764
294.288	103.336
297.019	82.562
299.75	159.713
302.479	17.115
305.207	16.625
307.935	109.242
310.661	75.135
313.387	129.73
316.111	94.439
318.835	209.193
321.558	184.002
324.279	51.131
327	6.205
329.72	208.762
332.439	373.824
335.157	398.723
337.874	303.547
340.59	388.18
343.305	462.746
346.019	587.414
348.733	1092.13
351.445	1386.89
354.156	1511.69
356.867	1456.53
359.576	1091.4
362.285	1165.58
364.992	890.543
367.699	735.525
370.405	580.529
373.11	462.961
375.814	611.857
378.516	386.785
381.218	331.701
383.92	121.248
386.62	132.314
389.319	374.158
392.017	78.828
394.714	298.525
397.411	333.305
400.106	359.029
402.801	126.012
405.495	18.943
408.187	164.078
410.879	40.719
413.57	15.467
416.26	70.164
418.949	145.186
421.637	230.678
424.324	476.225
427.01	741.824
429.695	737.414
432.379	882.965
435.063	698.469
437.745	653.914
440.427	569.365
443.108	894.818
445.787	1030.28
448.466	1425.74
451.144	1785.1
453.821	1844.16
456.497	1473.86
459.172	1714.78
461.846	1260.39
464.519	754.557
467.192	476.408
469.863	795.617
472.534	931.238
475.203	506.734
477.872	722.637
480.54	812.039
483.206	843.359
485.872	589.238
488.537	943.301
491.201	968.094
493.864	783.508
496.527	599.148
499.188	964.504
501.848	1019.83
504.508	1125.52
507.166	883.301
509.824	978.758
512.481	913.977
515.137	799.727
517.792	644.898
520.446	500.109
523.099	617.793
525.751	526.879
528.402	317.887
531.053	402.871
533.702	256.598
536.351	122.336
538.998	27.27
541.645	62.152
544.291	107.332
546.936	282.184
549.58	467.023
552.223	156.434
554.865	102.848
557.507	378.246
560.147	307.781
562.786	549.316
565.425	282.027
568.063	922.691
570.7	1533.04
573.335	1619.28
575.97	1047.08
578.604	455.891
581.238	309.809
583.87	282.656
586.501	241.266
589.132	285.641
591.761	429.211
594.39	402.906
597.018	526.324
599.645	559.66
602.271	1082.99
604.896	936.402
607.52	1039.5
610.143	932.543
612.766	905.98
615.387	781.086
618.008	303.949
620.628	506.91
623.247	380.684
625.865	483.59
628.482	266.781
631.098	359.34
633.713	241.801
636.327	254.262
638.941	186.691
641.553	649.371
644.165	431.547
646.776	76.258
649.386	275.828
651.995	157.664
654.603	259.309
657.21	460.891
659.817	97.383
662.422	33.863
665.027	434.969
667.63	559.258
670.233	750.922
672.835	321.809
675.436	542.602
678.036	153.305
680.636	433.887
683.234	434.664
685.832	245.055
688.428	74.645
691.024	595.422
693.619	425.395
696.213	534.559
698.806	214.352
701.398	574.055
703.99	403.664
706.58	203.195
709.17	12.598
711.758	66.867
714.346	183.996
716.933	353.941
719.519	412.637
722.105	221.078
724.689	349.23
727.272	182.738
729.855	414.992
732.437	502.605
735.017	539.957
737.597	102.891
740.176	35.969
742.755	90.785
745.332	317.465
747.908	134.074
750.484	210.602
753.059	297.066
755.633	303.465
758.206	195.188
760.778	176.059
763.349	302.254
765.919	58.391
768.489	334.457
771.057	680.359
773.625	116.098
776.192	1.777
778.758	107.367
781.323	332.902
783.887	438.375
786.451	263.766
789.013	329.129
791.575	284.449
794.136	289.602
796.696	164.816
799.255	95.949
801.813	331.938
804.371	796.812
806.927	381.598
809.483	156.609
812.037	47.312
814.591	561.863
817.144	644.262
819.697	629.188
822.248	16.195
824.798	124.516
827.348	508.754
829.897	793.625
832.445	468.098
834.992	0.695
837.538	185.555
840.083	300.426
842.628	746.547
845.171	691.422
847.714	125.527
850.256	770.406
852.797	1755.25
855.337	1709.86
857.876	1564.72
860.415	1589.47
862.953	1486.79
865.489	1720.78
868.025	1030.93
870.56	865.496
873.095	464.68
875.628	850.668
878.16	1139.18
880.692	1149.79
883.223	844.797
885.753	760.684
888.282	750.883
890.81	376.895
893.338	407.281
895.864	111.91
898.39	736.836
900.915	811.914
903.439	337.246
905.962	572.629
908.484	848.078
911.006	1103.43
913.526	1288.68
916.046	834.199
918.565	259.254
921.083	914.848
923.6	638.312
926.117	343.895
928.632	118.652
931.147	574.371
933.661	680.27
936.174	335.746
938.686	221.887
941.198	488.121
943.708	414.453
946.218	600.84
948.727	266.992
951.235	3.598
953.742	460.422
956.248	647.191
958.754	294.25
961.258	208.461
963.762	288.719
966.265	316.324
968.767	604.152
971.269	522.172
973.769	213.59
976.269	514.789
978.767	767.996
981.265	336.848
983.762	226.164
986.259	476.848
988.754	877.855
991.249	577.969
993.743	257.113
996.236	66.195
998.728	494.762
1001.22	1044.83
1003.71	532.367
1006.2	418.492
1008.69	1265.02
1011.18	941.762
1013.66	588.867
1016.15	556.445
1018.63	604.445
1021.12	822.906
1023.6	1061.86
1026.09	501.164
1028.57	780.645
1031.05	1110.31
1033.53	1060.14
1036.01	630.18
1038.49	1120.48
1040.97	1491.2
1043.44	1262.18
1045.92	653.402
1048.4	724.863
1050.87	1106.57
1053.35	1038.51
1055.82	1060.72
1058.29	134.242
1060.76	866.734
1063.23	1129.43
1065.7	1062.46
1068.17	565.062
1070.64	787.801
1073.11	900.641
1075.57	1043.66
1078.04	506.891
1080.5	530.453
1082.97	1344.49
1085.43	1589.01
1087.89	1363.98
1090.36	1259.4
1092.82	2335.26
1095.28	1791.59
1097.73	1408.4
1100.19	715.688
1102.65	603.473
1105.11	1341.78
1107.56	1231.16
1110.02	671.676
1112.47	1253.19
1114.93	1505.7
1117.38	1199.36
1119.83	354.285
1122.28	760.617
1124.73	1088.55
1127.18	928.332
1129.63	180.324
1132.08	44.836
1134.53	972.277
1136.97	1273.23
1139.42	182.355
1141.86	201.238
1144.31	523.324
1146.75	713.473
1149.19	395.238
1151.63	0
