Measurement: Raman, 514 nm, depolarized, Raman Data Processed
Mineral: Clinochlore
Rruff sample: R060725
Ideal chemistry: Mg_5_Al(AlSi_3_O_10_)(OH)_8_
Locality: Crestmore Quarry, Riverside, California, USA
Source: Bob Jenkins
Description: Green transparent books of mica
Measured chemistry: (Mg_4.65_Al_1.12_Fe^2+^_0.17_[box]_0.06_)_Σ=6_(Si_3.00_Al_1.00_)_Σ=4_O_10_(OH)_8_
Pin_id: L01967
Raman shift (cm-1)	intensity
135.97	0
140.9	332.336
145.826	314.586
150.751	28.8789
155.672	107.938
160.591	96.2969
165.507	114.027
170.421	129.188
175.332	124.248
180.241	248.691
185.147	270.022
190.05	414.873
194.951	1328.23
199.849	2886.92
204.744	4645.9
209.637	3223.48
214.527	1302.98
219.415	664.574
224.3	627.541
229.182	392.963
234.062	221.984
238.939	177.629
243.813	350.9
248.685	66.2246
253.555	129.721
258.421	209.861
263.285	279.512
268.147	270.685
273.005	288.674
277.862	666.172
282.715	655.346
287.566	443.639
292.414	355.787
297.26	288.996
302.103	39.9219
306.944	167.701
311.782	31.5293
316.617	278.092
321.449	198.26
326.279	138.965
331.107	165.426
335.931	473.861
340.754	428
345.573	907.572
350.39	1257.56
355.204	2127.55
360.016	1702.54
364.825	984.791
369.631	536.252
374.435	196.057
379.236	210.209
384.034	286.705
388.83	446.531
393.623	319.654
398.414	1.11328
403.202	158.869
407.987	38.916
412.77	166.26
417.55	108.879
422.328	26.3496
427.103	59.4434
431.875	244.584
436.644	270.43
441.411	109.025
446.176	223.717
450.937	233.213
455.696	351.457
460.453	260.805
465.207	458.455
469.958	498.408
474.706	492.65
479.452	531.182
484.196	124.996
488.936	124.088
493.674	72.457
498.41	61.0254
503.143	190.336
507.873	85.8008
512.6	63.3164
517.325	264.092
522.047	366.123
526.767	638.41
531.484	819.018
536.198	910.896
540.91	1290.02
545.619	2474.45
550.326	3874.38
555.03	3243.89
559.731	998.156
564.429	704.699
569.125	250.102
573.819	125.742
578.509	204.598
583.197	39.6719
587.883	22.9023
592.565	132.887
597.246	162.789
601.923	174.539
606.598	225.488
611.27	368.668
615.94	352.043
620.607	447.609
625.271	917.453
629.933	523.602
634.592	442.953
639.248	577.477
643.902	573.336
648.553	1036.09
653.202	1150.19
657.847	1587.51
662.491	2036.02
667.131	2181.72
671.769	2882.78
676.405	3753.9
681.037	3796.03
685.667	3578.45
690.295	2880.95
694.92	1901.31
699.542	1572.08
704.161	1286.11
708.778	820.285
713.392	899.551
718.004	870.582
722.613	770.012
727.219	276.5
731.823	447.769
736.424	248.125
741.022	154.906
745.618	42.793
750.211	287.836
754.802	286.898
759.39	278.035
763.975	226.113
768.557	154.676
773.137	270.023
777.715	204.547
782.289	498.309
786.861	180.34
791.431	166.539
795.998	252.773
800.562	245.84
805.123	77.6875
809.682	263.594
814.238	147.504
818.792	324.359
823.343	179.856
827.891	10.0898
832.437	44.2891
836.98	498.195
841.52	468.68
846.058	409.574
850.593	582.238
855.125	259.957
859.655	804.637
864.182	626.453
868.707	327.586
873.229	114.051
877.748	246.652
882.265	509.277
886.779	72.6523
891.29	108.117
895.799	101.617
900.305	170.82
904.808	283.961
909.309	176.949
913.807	73.8164
918.303	69.5469
922.796	162.133
927.286	63.4844
931.773	405.629
936.258	52.5938
940.741	280.266
945.22	233.758
949.697	276.019
954.172	282.25
958.643	317.281
963.113	324.156
967.579	393.016
972.043	381.887
976.504	49.3906
980.963	86.0156
985.419	406.445
989.872	629.254
994.323	999.258
998.771	1467.57
1003.22	1981.18
1007.66	1122.39
1012.1	301.184
1016.54	468.961
1020.97	294.426
1025.4	359.969
1029.83	737.484
1034.26	863.914
1038.68	784.898
1043.11	925.699
1047.53	1217.24
1051.94	993.418
1056.36	1043.31
1060.77	874.578
1065.17	535.93
1069.58	522.762
1073.98	296.562
1078.38	543.785
1082.78	935.129
1087.18	1719.22
1091.57	400.09
1095.96	314.109
1100.35	185.699
1104.73	302.926
1109.11	4.38672
1113.49	102.215
1117.87	84.6836
1122.24	243.023
1126.62	63.3281
1130.98	124.059
1135.35	415.543
1139.71	286.742
1144.08	113.422
1148.43	117.734
1152.79	121.078
1157.14	46.3984
1161.49	13.8281
1165.84	139.707
1170.18	184.129
1174.53	361.348
1178.87	242.359
1183.2	202.172
1187.54	208.797
1191.87	249.305
1196.2	228.652
1200.53	176.836
1204.85	357.828
1209.17	185.641
1213.49	236.477
1217.81	365.172
1222.12	491.738
1226.43	510.609
1230.74	635.914
1235.05	275.137
1239.35	355.047
1243.65	83.1523
1247.95	107.481
1252.24	185.977
1256.54	349.289
1260.82	517.125
1265.11	142.41
1269.4	499.644
1273.68	517.961
1277.96	470.188
1282.23	611.152
1286.51	1363.27
1290.78	1060.04
1295.05	923.906
1299.31	798.961
1303.58	544.164
1307.84	638.66
1312.1	495.375
1316.35	608.316
1320.61	393.371
1324.86	537.57
1329.1	161.738
1333.35	462.219
1337.59	293.863
1341.83	363.66
1346.07	75.6719
1350.3	342.875
1354.53	313.316
1358.76	15.207
1362.99	168.184
1367.21	99.3164
1371.43	155.871
1375.65	53.2539
1379.87	227.074
1384.08	53.1523
1388.29	195.523
1392.5	85.3867
1396.71	167.742
1400.91	206.598
1405.11	234.906
1409.31	180.75
1413.5	145.223
1417.7	3.51562
1421.89	117.691
1426.07	266.758
1430.26	613.242
1434.44	1235.01
1438.62	1010.25
1442.8	1416.55
1446.97	1168.08
1451.14	892.117
1455.31	1056.68
1459.48	969.836
1463.64	1040.62
1467.8	784.055
1471.96	759.5
1476.12	484.269
1480.27	426.762
1484.42	640.398
1488.57	614.098
1492.71	266.289
1496.85	182.715
1500.99	392.641
1505.13	308.723
1509.27	530.941
1513.4	582.359
1517.53	395.977
1521.65	265.051
1525.78	572.148
1529.9	551.731
1534.02	300.023
1538.13	224.984
1542.25	141.766
1546.36	234.176
1550.47	238.617
1554.57	464.777
1558.68	374.5
1562.78	0
