Measurement: Raman, 514 nm, depolarized, Raman Data Processed
Mineral: Clinohumite
Rruff sample: R040122
Ideal chemistry: Mg_9_(SiO_4_)_4_F_2_
Locality: Anzahamazonono,  Madagascar
Source: University of Arizona Mineral Museum
Description: Orange-brown blebs embedded in calcite matrix
Measured chemistry: (Mg_0.96_Fe_0.02_Ti_0.01_Ca_0.01_)_9_(SiO_4_)_4_(F_0.59_(OH)_0.41_)_2_
Pin_id: M00126
Orientation: Laser parallel to -b* (0 -1 0). Fiducial mark perpendicular to laser is parallel to -c [0 0 -1]
Raman shift (cm-1)	intensity
124.288	0
129.209	148.569
134.127	64.4033
139.043	203.816
143.956	228.184
148.867	306.661
153.775	286.358
158.681	239.082
163.585	390.403
168.486	353.865
173.385	399.673
178.282	799.446
183.176	931.792
188.067	898.751
192.956	804.047
197.843	1027.04
202.727	1208.48
207.609	1024.29
212.489	947.17
217.366	584.305
222.24	610.868
227.112	993.707
231.982	1019.35
236.849	1086.77
241.714	1046.23
246.577	1013.46
251.437	1043.27
256.294	1181.68
261.149	1077.84
266.002	862.723
270.852	639.154
275.7	600.572
280.545	819.322
285.388	856.15
290.229	635.594
295.067	607.271
299.902	607.379
304.735	584.247
309.566	796.77
314.394	1043.86
319.22	1600.51
324.043	1296.34
328.864	797.341
333.682	554.693
338.498	477.12
343.311	415.993
348.122	353.294
352.931	369.012
357.737	132.14
362.54	323.693
367.341	158.749
372.14	53.1768
376.936	56.8379
381.73	102.526
386.521	180.769
391.31	288.478
396.096	273.419
400.88	50.7607
405.661	106.662
410.44	173.005
415.216	445.661
419.99	421.933
424.761	313.013
429.53	286.443
434.297	115.098
439.061	82.1016
443.822	116.474
448.581	6.10156
453.337	18.7549
458.091	78.5107
462.843	90.4981
467.592	178.582
472.338	314.656
477.082	227.696
481.824	287.687
486.563	110.609
491.3	101.557
496.034	80.2129
500.765	2.04492
505.494	98.3613
510.221	153.759
514.945	80.2852
519.666	229.315
524.385	232.81
529.102	261.221
533.816	567.173
538.527	567.112
543.236	540.09
547.943	489.425
552.647	593.952
557.348	346.116
562.047	346.553
566.744	305.967
571.438	485.918
576.129	484.368
580.818	768.454
585.504	1166.67
590.188	1166.07
594.87	1925.19
599.549	3233.11
604.225	5519.33
608.899	6864.64
613.57	4177.43
618.239	2032.68
622.905	1222.41
627.569	590.604
632.23	288.709
636.889	472.424
641.545	184.029
646.198	205.982
650.849	91.1172
655.498	54.1211
660.144	9.9668
664.787	106.99
669.428	79.084
674.067	2.09375
678.703	86.8223
683.336	160.478
687.967	56.6172
692.595	0.886719
697.221	42.5723
701.844	39.7383
706.465	17.9629
711.083	96.7051
715.698	127.098
720.311	282.228
724.922	450.254
729.53	681.018
734.135	1264.58
738.738	1851.03
743.338	2135.46
747.936	2770.73
752.531	2889.84
757.124	2337.8
761.714	2021.64
766.302	1507.41
770.887	1609.14
775.469	2714.83
780.049	4536.4
784.626	6178.24
789.201	4892.7
793.773	3569.45
798.343	3278.66
802.91	4891.69
807.475	7078.44
812.037	7065.76
816.596	7311.49
821.153	9384.81
825.707	17458
830.259	26714.6
834.808	19954.3
839.355	17839.8
843.899	24640.4
848.441	24719.9
852.98	21118.4
857.516	28775.7
862.05	30888.5
866.581	16711.7
871.11	10188.4
875.636	7957.52
880.159	5962.1
884.68	3537.14
889.199	2326.74
893.714	1403.94
898.228	1060.14
902.738	718.318
907.246	738.076
911.752	1087.48
916.255	873.41
920.755	564.932
925.253	415.815
929.748	549.893
934.241	529.082
938.731	222.266
943.218	365.635
947.703	338.426
952.186	543.098
956.665	1136.07
961.142	3327.23
965.617	7636.39
970.089	7778.2
974.558	3683.18
979.025	1587.47
983.489	870.789
987.951	367.94
992.41	272.023
996.866	224.398
1001.32	223.162
1005.77	192.537
1010.22	105.006
1014.67	266.424
1019.11	20.5859
1023.55	42.2383
1027.99	247.791
1032.42	125.008
1036.86	45.25
1041.29	99.7519
1045.72	221.361
1050.14	79.2695
1054.56	138.422
1058.98	33.8398
1063.4	62.4434
1067.82	81.9023
1072.23	180.555
1076.64	26.9023
1081.05	205.606
1085.45	9.6875
1089.85	316.557
1094.25	96.2949
1098.65	444.805
1103.04	249.16
1107.43	33.916
1111.82	92.2383
1116.21	124.203
1120.59	287.777
1124.97	86.9473
1129.35	93.8769
1133.73	74.1367
1138.1	171.92
1142.47	244.685
1146.84	138.31
1151.21	132.051
1155.57	92.5801
1159.93	155.99
1164.29	48.4102
1168.64	410.221
1172.99	11.043
1177.34	243.873
1181.69	142.055
1186.04	7.6582
1190.38	34.0957
1194.72	253.846
1199.05	264.894
1203.39	248.291
1207.72	113.174
1212.05	245.801
1216.37	193.789
1220.7	273.065
1225.02	207.894
1229.34	174.207
1233.65	490.795
1237.97	276.127
1242.28	376.394
1246.59	411.574
1250.89	405.9
1255.19	260.932
1259.49	180.822
1263.79	325.688
1268.09	15.8555
1272.38	18.4102
1276.67	196.315
1280.95	229.635
1285.24	273.449
1289.52	256.734
1293.8	107.369
1298.08	259.322
1302.35	123.195
1306.62	288.465
1310.89	125.775
1315.15	84.9981
1319.42	497.41
1323.68	153.303
1327.94	292.475
1332.19	128.17
1336.44	300.08
1340.69	11.9121
1344.94	275.238
1349.19	162.014
1353.43	82.4629
1357.67	175.373
1361.9	155.613
1366.14	232.799
1370.37	102.031
1374.6	6.64453
1378.83	274.102
1383.05	283.33
1387.27	110.076
1391.49	92.7305
1395.7	14.9336
1399.92	59.7031
1404.13	24.4609
1408.34	102.984
1412.54	15.1055
1416.74	187.273
1420.94	45.8398
1425.14	80.7578
1429.34	134.137
1433.53	216.051
1437.72	23.8828
1441.9	275.547
1446.09	78.0117
1450.27	10.4766
1454.45	73.4805
1458.63	382.664
1462.8	51.8242
1466.97	307.82
1471.14	294.176
1475.31	235.762
1479.47	252.293
1483.63	313.148
1487.79	400.594
1491.94	67.9023
1496.09	252.199
1500.24	422.824
1504.39	409.363
1508.54	418.695
1512.68	315.606
1516.82	274.68
1520.95	418.922
1525.09	332.668
1529.22	431.398
1533.35	14.3398
1537.47	203.828
1541.6	257.848
1545.72	521.406
1549.83	236.594
1553.95	181.797
1558.06	574.707
1562.17	271.449
1566.28	177.172
1570.38	1.25391
