Measurement: Raman, 514 nm, ccw, Raman Data Processed
Mineral: Clinoptilolite-Na
Rruff sample: R061099
Ideal chemistry: Na_6_(Si_30_Al_6_)O_72_20H_2_O
Locality: Richardson Ranch, Madras, Jefferson County, Oregon, USA
Source: Michael Scott
Description: Red-brown to salmon, somewhat coffin shaped tabular crystals in a fragmented geode
Measured chemistry: (Na_2.70_Ca_1.46_K_0.89_Fe_0.08_Mg_0.02_)_Σ=5.15_(Si_29.29_Al_6.71_)O_72_·18.51H_2_O
Pin_id: M01022
Orientation: Laser parallel to a* (1 0 0). Fiducial mark perpendicular to laser is parallel to b [0 1 0]
Raman shift (cm-1)	intensity
148.468	0
153.377	412.346
158.283	580.417
163.187	451.236
168.088	476.729
172.987	614.459
177.884	307.302
182.778	573.74
187.67	966.863
192.559	1022.02
197.445	755.057
202.33	571.365
207.211	204.406
212.091	80.8804
216.967	111.52
221.842	135.429
226.713	56.166
231.583	239.268
236.449	380.215
241.314	726.675
246.176	1195.85
251.035	1616.46
255.892	2086.6
260.746	2459.8
265.598	2286.83
270.448	2345.47
275.295	2160.21
280.139	2134.43
284.981	2333.01
289.82	2494.41
294.657	2394
299.492	2460.86
304.324	2652.33
309.153	2905.19
313.98	3458.19
318.805	4055.64
323.627	4650.96
328.446	5019.59
333.263	5205.48
338.078	5324.77
342.89	5544.5
347.699	5988.46
352.506	6714.78
357.311	7651.88
362.113	8981.34
366.912	10271.5
371.709	11930.5
376.504	13826.6
381.295	15998
386.085	19425.4
390.872	24493.5
395.656	30937.2
400.438	37272.1
405.218	39292.9
409.994	36263.3
414.769	29412.6
419.541	22722.2
424.31	16201.9
429.077	11426
433.841	8125.13
438.603	6234.42
443.362	5313.15
448.119	5331.92
452.873	6738.95
457.625	9229.5
462.374	12412.8
467.121	15274.2
471.865	17222.7
476.607	20646.7
481.346	23897.2
486.082	22558.2
490.816	15564.8
495.548	8854.1
500.277	4673.3
505.003	2597.88
509.727	1639.11
514.449	1019.79
519.168	695.296
523.884	437.344
528.598	237.755
533.309	22.3989
538.018	34.4829
542.724	132.715
547.428	141.125
552.129	104.644
556.828	179.496
561.524	128.935
566.217	208.656
570.909	28.2959
575.597	141.527
580.283	190.277
584.966	290.954
589.647	728.58
594.326	971.108
599.001	1601.95
603.675	2408.08
608.345	3414.3
613.014	4432.35
617.679	4535.66
622.342	3956.05
627.003	2966.42
631.661	2032.72
636.316	1513.96
640.969	1118
645.62	657.83
650.267	668.446
654.913	534.803
659.555	426.823
664.196	324.432
668.833	332.604
673.468	187.692
678.101	202.423
682.731	312.28
687.358	119.064
691.983	128.568
696.605	157.566
701.225	208.55
705.842	59.5444
710.457	125.997
715.069	108.578
719.679	83.6763
724.286	70.2661
728.89	174.526
733.492	165.812
738.091	106.522
742.688	109.322
747.282	217.175
751.874	257.936
756.463	362.608
761.05	403.136
765.634	528.208
770.215	708.748
774.794	745.722
779.37	805.206
783.944	715.826
788.515	769.138
793.084	584.394
797.65	506.51
802.213	307.638
806.774	186.269
811.332	160.917
815.888	226.815
820.441	215.359
824.992	130.731
829.54	27.5283
834.085	31.1514
838.628	4.18994
843.169	15.8018
847.706	53.2676
852.242	54.3184
856.774	37.165
861.304	42.0078
865.832	11.3896
870.357	38.0586
874.879	44.2778
879.399	85.3931
883.916	55.9863
888.431	66.4604
892.943	55.8491
897.452	9.7124
901.959	35.0181
906.463	28.8711
910.965	99.0796
915.464	15.2188
919.961	6.84619
924.455	32.3428
928.946	67.2207
933.435	83.6572
937.922	49.7256
942.405	204.392
946.886	234.306
951.365	272.299
955.841	400.918
960.314	510.857
964.785	381.002
969.253	541.492
973.719	630.026
978.182	637.92
982.642	612.894
987.1	708.582
991.556	719.106
996.008	743.47
1000.46	889.008
1004.91	898.748
1009.35	743.148
1013.79	819.956
1018.23	859.647
1022.67	806.657
1027.11	910.067
1031.54	908.659
1035.97	955.182
1040.39	839.952
1044.82	874.391
1049.24	823.265
1053.66	705.852
1058.08	830.455
1062.49	840.065
1066.9	784.62
1071.31	876.907
1075.71	925.541
1080.12	1069.41
1084.52	1242.55
1088.92	1499.95
1093.31	1855.65
1097.71	2022.66
1102.1	2386.97
1106.48	2716.4
1110.87	2973.23
1115.25	3246.59
1119.63	3494.72
1124.01	3834.99
1128.39	4003.53
1132.76	4164.76
1137.13	4439.66
1141.5	4541.69
1145.86	4719.11
1150.22	4784.79
1154.58	4688.85
1158.94	4542.16
1163.29	4390.68
1167.64	4036.66
1171.99	3671.39
1176.34	3382.45
1180.68	2948.17
1185.03	2600.8
1189.36	2236.7
1193.7	1784.92
1198.03	1451.07
1202.36	1102.67
1206.69	776.351
1211.02	538.51
1215.34	396.92
1219.66	332.023
1223.98	104.384
1228.3	137.148
1232.61	12.4912
1236.92	34.3315
1241.22	74.5449
1245.53	91.8535
1249.83	63.0855
1254.13	77.9448
1258.43	48.5195
1262.72	33.0327
1267.02	102.514
1271.3	68.0352
1275.59	24.2964
1279.88	110.969
1284.16	43.0132
1288.43	38.7217
1292.71	103.508
1296.98	36.9609
1301.26	108.447
1305.52	33.6084
1309.79	96.2715
1314.05	121.847
1318.31	75.6885
1322.57	134.107
1326.83	187.353
1331.08	117.348
1335.33	109.175
1339.58	76.9121
1343.82	56.3481
1348.07	5.52295
1352.31	164.628
1356.54	100.031
1360.78	100.925
1365.01	95.8877
1369.24	154.052
1373.46	105.143
1377.69	123.517
1381.91	63.062
1386.13	128.185
1390.35	170.522
1394.56	33.5073
1398.77	47.6943
1402.98	146.344
1407.18	25.0825
1411.39	172.278
1415.59	61.4937
1419.79	77.0059
1423.98	8.81055
1428.17	26.5791
1432.36	137.386
1436.55	140.996
1440.74	207.598
1444.92	246.683
1449.1	308.464
1453.28	184.48
1457.45	279.447
1461.62	327.736
1465.79	196.689
1469.96	73.9722
1474.12	139.257
1478.28	94.96
1482.44	135.221
1486.6	83.4336
1490.75	132.656
1494.9	104.645
1499.05	36.0557
1503.19	83.4829
1507.34	73.6372
1511.48	157.481
1515.62	94.9131
1519.75	40.4609
1523.88	68.6216
1528.02	113.907
1532.14	50.1743
1536.27	202.028
1540.39	102.736
1544.51	142.963
1548.62	83.8926
1552.74	63.6895
1556.85	2.90039
1560.96	27.5073
