Measurement: Raman, 514 nm, depolarized, Raman Data Processed
Mineral: Clinozoisite
Rruff sample: R040085
Ideal chemistry: Ca_2_Al_3_(Si_2_O_7_)(SiO_4_)O(OH)
Locality: Alamos, Sonora, Mexico
Source: University of Arizona Mineral Museum
Description: Divergent aggregate of red thin prismatic crystals
Measured chemistry: Ca_2.03_(Al_0.90_Fe_0.13_)_3_(Si_1.00_O_4_)(Si_2.00_O_7_)O(OH)
Pin_id: M00391
Orientation: Laser parallel to c* (0 0 1). Fiducial mark perpendicular to laser is parallel to a [1 0 0]
Raman shift (cm-1)	intensity
185.622	0
190.512	228.894
195.4	144.775
200.286	73.9883
205.169	33.9473
210.049	428.685
214.928	591.332
219.803	903.596
224.677	922.734
229.548	1412.59
234.416	1950.03
239.282	1867.58
244.146	2455.43
249.007	3783.39
253.866	4137.8
258.722	3445.41
263.576	2061.71
268.427	2785.18
273.276	3044.43
278.123	2053.96
282.967	995.01
287.809	1039.37
292.648	660.594
297.485	1025.26
302.319	626.697
307.151	815.643
311.98	961.35
316.807	717.477
321.631	504.94
326.454	544.998
331.273	626.607
336.09	1190.15
340.905	2055.14
345.717	2579.28
350.527	3433.91
355.334	2509.86
360.139	1053.86
364.941	377.707
369.741	111.75
374.538	298.043
379.333	293.074
384.126	149.965
388.916	545.164
393.703	1277.61
398.488	1199.4
403.271	663.609
408.051	87.7617
412.828	287.148
417.603	1950.52
422.376	4388.28
427.146	5834.09
431.914	4654.35
436.679	3321.27
441.442	3855.88
446.202	5722.11
450.96	7712.23
455.715	6701.93
460.467	4807.14
465.218	3661.62
469.965	3809.33
474.711	3972.05
479.454	3786.11
484.194	3139.7
488.932	2855.07
493.667	2135.65
498.4	2154.91
503.13	2322.77
507.858	2912.22
512.583	2524.53
517.306	2112.98
522.026	1809.64
526.744	1618.33
531.459	1007.67
536.172	644.481
540.882	878.738
545.59	440.418
550.295	955.305
554.998	1569.26
559.698	2927.1
564.396	6458.28
569.091	11646.8
573.784	9730.75
578.474	3932.52
583.162	2081.57
587.847	2231.19
592.529	3508.51
597.209	4706.64
601.887	6541.49
606.562	7016.9
611.235	4728.97
615.905	2585.73
620.572	1689.02
625.237	1194.22
629.9	915.062
634.56	604.176
639.217	456.644
643.872	867.328
648.524	982.652
653.174	1275.6
657.821	1466.17
662.466	1662.21
667.108	1249.25
671.748	1204.85
676.385	1136.46
681.02	1206.1
685.652	1031.8
690.281	1317.97
694.908	1587.71
699.533	1441.84
704.155	876.316
708.774	626.125
713.391	248.547
718.005	46.6367
722.617	16.8477
727.226	99.6016
731.833	253.496
736.437	101.207
741.039	168.305
745.638	129.203
750.234	67.6836
754.828	118.871
759.419	0.296875
764.008	93.7539
768.595	214.602
773.178	83.2461
777.759	27.207
782.338	82.1445
786.914	178.449
791.488	91.707
796.059	207.539
800.627	34.1836
805.193	206.801
809.756	316.465
814.317	324.238
818.875	828.144
823.431	783.207
827.984	1181.43
832.534	1381.83
837.082	1316.4
841.627	1220.17
846.17	1476.14
850.71	1484.32
855.248	1649.39
859.783	2078.37
864.316	2358.34
868.846	2844.72
873.373	3574.3
877.898	3950.02
882.42	3969.45
886.94	3834.38
891.457	3279.23
895.971	3970.75
900.483	4959.18
904.993	6823.84
909.5	9210.38
914.004	10512.6
918.505	9874.64
923.004	8696.9
927.501	7380.96
931.995	6423.69
936.486	5082.57
940.975	3889.97
945.461	2890.16
949.945	2804.28
954.426	2475.86
958.904	2490.61
963.38	2175.27
967.853	1965.9
972.324	2190.56
976.792	2642.17
981.258	4221.73
985.72	4439.5
990.181	2746.09
994.639	1721.24
999.094	696.758
1003.55	639.691
1008	260.707
1012.44	126.609
1016.89	228.227
1021.33	50.3711
1025.77	406.828
1030.21	648.379
1034.64	753.492
1039.07	879.363
1043.5	1226.42
1047.93	1225.23
1052.35	1120.01
1056.78	1077
1061.19	398.945
1065.61	605.637
1070.02	1229.27
1074.43	1883.24
1078.84	2635.02
1083.25	3801.12
1087.65	6264.75
1092.05	8856.79
1096.45	7212.42
1100.85	3249.62
1105.24	1485.17
1109.63	456.746
1114.02	502.426
1118.4	296.836
1122.78	316.953
1127.16	309.008
1131.54	308.648
1135.92	19.6094
1140.29	486.188
1144.66	144.801
1149.02	128.527
1153.39	349.633
1157.75	224.844
1162.11	79.9805
1166.46	64.3906
1170.82	226.484
1175.17	64.2734
1179.52	412.156
1183.86	451.734
1188.21	197.832
1192.55	24.4453
1196.89	148.574
1201.22	12.7227
1205.55	402.156
1209.88	342.481
1214.21	36.7461
1218.54	244.457
1222.86	130.703
1227.18	14.5
1231.5	117.266
1235.81	501.336
1240.12	380.504
1244.43	157.777
1248.74	330.981
1253.04	197.551
1257.34	180.723
1261.64	69.5195
1265.94	269.258
1270.23	263.004
1274.52	172.039
1278.81	183.316
1283.1	246.227
1287.38	250.519
1291.66	21.5195
1295.94	117.324
1300.21	234.559
1304.48	245.594
1308.75	368.773
1313.02	386.106
1317.29	237.402
1321.55	343.211
1325.81	250.891
1330.06	472.91
1334.32	128.875
1338.57	174.617
1342.82	162.16
1347.06	270.555
1351.31	363.469
1355.55	108.914
1359.79	284.363
1364.02	204.805
1368.26	204.305
1372.49	171.211
1376.71	385.82
1380.94	394.875
1385.16	124.699
1389.38	349.371
1393.6	186.488
1397.81	223.004
1402.02	338.309
1406.23	158.086
1410.44	37.4961
1414.64	388.25
1418.85	304.84
1423.04	391.914
1427.24	4.41406
1431.43	130.746
1435.62	322.816
1439.81	666.492
1444	637.473
1448.18	799.836
1452.36	801.801
1456.54	695.996
1460.71	881.859
1464.89	331.84
1469.06	410.746
1473.22	754.215
1477.39	334.441
1481.55	639.344
1485.71	391.465
1489.86	285.234
1494.02	194.93
1498.17	19.7617
1502.32	120.965
1506.46	435.086
1510.61	422.109
1514.75	153.336
1518.88	408.922
1523.02	101.644
1527.15	173.66
1531.28	272.352
1535.41	336.707
1539.53	221.297
1543.66	197.316
1547.78	192.906
1551.89	393.148
1556.01	479.016
1560.12	311.883
1564.23	411.203
1568.33	10.957
1572.43	0
