Measurement: Raman, 514 nm, depolarized, Raman Data Processed
Mineral: Clinoptilolite-Ca
Rruff sample: R060662
Ideal chemistry: Ca_3_(Si_30_Al_6_)O_72_20H_2_O
Locality: Succor Creek, Malheur County, Oregon, USA
Source: Michael Scott
Description: Group of colorless platy prismatic crystals
Measured chemistry: (Ca_1.02_Na_0.97_K_0.59_)_Σ=2.58_(Si_14.40_Al_3.60_)_Σ=18_O_36_·10.96H_2_O
Pin_id: M00134
Orientation: Laser parallel to (1 0 1). Fiducial mark perpendicular to laser is parallel to b [0 1 0]
Raman shift (cm-1)	intensity
134.127	0
139.043	1006.43
143.956	1447.83
148.867	1452.51
153.775	1474.5
158.681	1110.75
163.585	858.24
168.486	488.217
173.385	390.643
178.282	1182.66
183.176	1634.22
188.067	1449.68
192.956	1520.24
197.843	1123.32
202.727	1118.03
207.609	121.342
212.489	95.1914
217.366	375.451
222.24	364.955
227.112	17.832
231.982	372.898
236.849	733.994
241.714	1297.27
246.577	1722.92
251.437	1883.77
256.294	2031.43
261.149	2046.89
266.002	1749.21
270.852	1672.69
275.7	1950.28
280.545	1332.9
285.388	1494.51
290.229	1736.41
295.067	1641.45
299.902	1960.01
304.735	1983.33
309.566	2218.37
314.394	2860.06
319.22	3338.74
324.043	3430.92
328.864	3898.19
333.682	4319.38
338.498	4584.52
343.311	5214.16
348.122	5830.35
352.931	6815.3
357.737	7851.11
362.54	9080.61
367.341	10588.6
372.14	12565.6
376.936	14418.8
381.73	17469.3
386.521	21344.4
391.31	27092.7
396.096	32590.7
400.88	35866.7
405.661	34669.9
410.44	30035.6
415.216	23916.1
419.99	17593.8
424.761	12852.2
429.53	8872.78
434.297	6429.25
439.061	5308.75
443.822	4713.23
448.581	5308.65
453.337	6617.56
458.091	9410.3
462.843	11758
467.592	13845.2
472.338	16966.2
477.082	20492.2
481.824	20303
486.563	15416
491.3	9509.94
496.034	5102.37
500.765	2904.85
505.494	1461.4
510.221	1001.46
514.945	662.83
519.666	466.603
524.385	423.92
529.102	110
533.816	144.143
538.527	65.4551
543.236	74.7422
547.943	160.678
552.647	182.307
557.348	70.3711
562.047	56.8672
566.744	161.81
571.438	241.008
576.129	351.232
580.818	581.01
585.504	657.906
590.188	1224.54
594.87	1490.12
599.549	2379.3
604.225	3065.53
608.899	4113.28
613.57	4944.36
618.239	4722.19
622.905	3920.6
627.569	2918.67
632.23	2089.74
636.889	1534.39
641.545	1187.55
646.198	1243.15
650.849	899.644
655.498	730.893
660.144	461.795
664.787	429.449
669.428	277.123
674.067	99.3652
678.703	21.9277
683.336	185.34
687.967	17.4629
692.595	58.4688
697.221	111.588
701.844	56.25
706.465	115.303
711.083	98.5898
715.698	251.287
720.311	399.443
724.922	305.049
729.53	452.236
734.135	229.053
738.738	335.981
743.338	210.557
747.936	315.469
752.531	714.877
757.124	921.635
761.714	856.357
766.302	1369.52
770.887	1593.22
775.469	1740.69
780.049	1752.06
784.626	1965.77
789.201	1629.03
793.773	1162.45
798.343	1364.32
802.91	876.293
807.475	980.525
812.037	1317.49
816.596	1724.46
821.153	1559.15
825.707	855.152
830.259	702.74
834.808	419.615
839.355	198.289
843.899	428.793
848.441	441.59
852.98	512.043
857.516	545.379
862.05	310.594
866.581	381.629
871.11	226.555
875.636	85.293
880.159	50.3398
884.68	41.4141
889.199	106.316
893.714	97.9375
898.228	17.5977
902.738	97.8086
907.246	163.375
911.752	131.914
916.255	99.8711
920.755	165.875
925.253	55.3711
929.748	382.914
934.241	32.5195
938.731	31.5508
943.218	63.8711
947.703	5.59766
952.186	139.789
956.665	272.898
961.142	189.144
965.617	387.344
970.089	175.398
974.558	432.644
979.025	223.184
983.489	520.109
987.951	640.207
992.41	536.301
996.866	1078.24
1001.32	1313.81
1005.77	1164.71
1010.22	1152.3
1014.67	1352.74
1019.11	1348.15
1023.55	1794.31
1027.99	1734.3
1032.42	1476.17
1036.86	1646.04
1041.29	1578.77
1045.72	1472.41
1050.14	1302
1054.56	1410.55
1058.98	1107.79
1063.4	1169.35
1067.82	1082.18
1072.23	1259.4
1076.64	1334.14
1081.05	1620.45
1085.45	1775.86
1089.85	1863.37
1094.25	2334.43
1098.65	2445.88
1103.04	2605.36
1107.43	3061.26
1111.82	3149.86
1116.21	3148.13
1120.59	3547.84
1124.97	3849.27
1129.35	3625.9
1133.73	3800.78
1138.1	3447.67
1142.47	3813.87
1146.84	3691.7
1151.21	3604.5
1155.57	3437.8
1159.93	3548.21
1164.29	3470.31
1168.64	3535.22
1172.99	2554.63
1177.34	2731.38
1181.69	2395.19
1186.04	1878.44
1190.38	1503.6
1194.72	1245.22
1199.05	1083.16
1203.39	772.144
1207.72	438.594
1212.05	293.203
1216.37	276.32
1220.7	202.977
1225.02	247.953
1229.34	129.617
1233.65	25.625
1237.97	177.93
1242.28	59.5078
1246.59	284.457
1250.89	110.652
1255.19	11.0859
1259.49	28.3984
1263.79	475.992
1268.09	358.363
1272.38	277.613
1276.67	139.582
1280.95	199.129
1285.24	141.473
1289.52	268.934
1293.8	84.5312
1298.08	224.668
1302.35	28.0039
1306.62	264.074
1310.89	582.957
1315.15	184.688
1319.42	457.246
1323.68	341.594
1327.94	328.781
1332.19	191.648
1336.44	162.148
1340.69	367.152
1344.94	341.746
1349.19	47.0039
1353.43	355.738
1357.67	144.394
1361.9	109.102
1366.14	220.695
1370.37	121.422
1374.6	289.094
1378.83	183.484
1383.05	215.25
1387.27	350.117
1391.49	193.062
1395.7	165.519
1399.92	133.887
1404.13	196.844
1408.34	37.0547
1412.54	73.0117
1416.74	301.641
1420.94	159.227
1425.14	211.074
1429.34	313.086
1433.53	460.992
1437.72	605.906
1441.9	1212.3
1446.09	1042.4
1450.27	1332.35
1454.45	1332.57
1458.63	1011.17
1462.8	957.43
1466.97	843.07
1471.14	390.449
1475.31	359.363
1479.47	463.383
1483.63	248.281
1487.79	121.008
1491.94	546.133
1496.09	192.004
1500.24	195.383
1504.39	67.6094
1508.54	296.984
1512.68	203.289
1516.82	179.758
1520.95	32.082
1525.09	339.098
1529.22	173.914
1533.35	238.856
1537.47	172.34
1541.6	569.512
1545.72	394.863
1549.83	273.894
1553.95	628.977
1558.06	343.957
1562.17	115.805
1566.28	89.2578
1570.38	302.977
