Measurement: Raman, 514 nm, ccw, Raman Data Processed
Mineral: Clinoptilolite-Na
Rruff sample: R061099
Ideal chemistry: Na_6_(Si_30_Al_6_)O_72_20H_2_O
Locality: Richardson Ranch, Madras, Jefferson County, Oregon, USA
Source: Michael Scott
Description: Red-brown to salmon, somewhat coffin shaped tabular crystals in a fragmented geode
Measured chemistry: (Na_2.70_Ca_1.46_K_0.89_Fe_0.08_Mg_0.02_)_Σ=5.15_(Si_29.29_Al_6.71_)O_72_·18.51H_2_O
Pin_id: M01022
Orientation: Laser parallel to a* (1 0 0). Fiducial mark perpendicular to laser is parallel to b [0 1 0]
Raman shift (cm-1)	intensity
153.377	0
158.283	386.063
163.187	614.564
168.088	326.197
172.987	45.8008
177.884	148.736
182.778	497.248
187.67	1189
192.559	2311.58
197.445	2969.05
202.33	2812.4
207.211	2027.85
212.091	1236.77
216.967	732.04
221.842	319.88
226.713	16.019
231.583	193.677
236.449	116.474
241.314	45.7705
246.176	261.039
251.035	585.537
255.892	804.455
260.746	960.837
265.598	1176.11
270.448	1382.68
275.295	1552.83
280.139	1730.43
284.981	1737.1
289.82	1444.09
294.657	1333.69
299.492	1132.65
304.324	1189.13
309.153	1160.41
313.98	1166.64
318.805	1295.68
323.627	1375.19
328.446	1516.3
333.263	1674.86
338.078	1802.76
342.89	1991.99
347.699	2151.5
352.506	2395.37
357.311	2977.53
362.113	3620.63
366.912	4269.95
371.709	4944.49
376.504	5517.25
381.295	6604.1
386.085	7810.44
390.872	9747.05
395.656	12646.8
400.438	15308.2
405.218	16644.2
409.994	15517.3
414.769	12783.8
419.541	9842.92
424.31	7350.1
429.077	5445.38
433.841	3863.76
438.603	2979.65
443.362	2476.89
448.119	2348.61
452.873	2764.77
457.625	3864.72
462.374	5076.67
467.121	6016.86
471.865	6579.42
476.607	7765.31
481.346	9254.6
486.082	8768.45
490.816	6143.01
495.548	3474.3
500.277	1839.35
505.003	946.264
509.727	595.222
514.449	365.513
519.168	159.615
523.884	92.8672
528.598	150.345
533.309	32.5986
538.018	66.0059
542.724	137.922
547.428	24.7832
552.129	71.3979
556.828	75.083
561.524	60.8379
566.217	29.1265
570.909	57.8579
575.597	119.491
580.283	175.203
584.966	299.908
589.647	339.226
594.326	516.731
599.001	810.211
603.675	1187.81
608.345	1587.78
613.014	2106.26
617.679	2390.5
622.342	2249.39
627.003	1778.08
631.661	1243.54
636.316	845.708
640.969	729.588
645.62	567.213
650.267	424.624
654.913	338.525
659.555	328.125
664.196	247.844
668.833	140.712
673.468	123.26
678.101	142.67
682.731	69.5984
687.358	30.9507
691.983	56.9853
696.605	23.0347
701.225	46.0244
705.842	9.76465
710.457	0.329102
715.069	52.4426
719.679	53.124
724.286	36.9365
728.89	113.343
733.492	134.608
738.091	92.2874
742.688	143.67
747.282	131.576
751.874	181.101
756.463	239.177
761.05	481.051
765.634	562.267
770.215	668.742
774.794	679.066
779.37	759.96
783.944	760.541
788.515	705.161
793.084	628.661
797.65	511.588
802.213	457.756
806.774	437.734
811.332	491.313
815.888	474.462
820.441	615.806
824.992	430.176
829.54	262.707
834.085	115.044
838.628	95.6475
843.169	62.9431
847.706	78.626
852.242	69.5745
856.774	66.8992
861.304	165.361
865.832	28.8416
870.357	37.1501
874.879	12.5
879.399	18.2307
883.916	28.5847
888.431	29.2512
892.943	0.575195
897.452	13.4019
901.959	39.1997
906.463	15.3108
910.965	33.9563
915.464	16.657
919.961	12.8623
924.455	18.5613
928.946	19.4099
933.435	80.1231
937.922	78.645
942.405	148.009
946.886	121.237
951.365	202.341
955.841	231.334
960.314	318.237
964.785	325.076
969.253	304.787
973.719	329.935
978.182	429.069
982.642	386.638
987.1	431.676
991.556	434.702
996.008	533.046
1000.46	731.102
1004.91	802.136
1009.35	760.672
1013.79	775.616
1018.23	802.282
1022.67	843.206
1027.11	800.483
1031.54	839.91
1035.97	775.156
1040.39	663.926
1044.82	749.168
1049.24	678.006
1053.66	592.77
1058.08	532.438
1062.49	498.522
1066.9	526.792
1071.31	486.524
1075.71	484.431
1080.12	545.494
1084.52	715.664
1088.92	728.209
1093.31	860.345
1097.71	1024.16
1102.1	1073.81
1106.48	1142.27
1110.87	1338.64
1115.25	1315.03
1119.63	1482.57
1124.01	1508.06
1128.39	1677.91
1132.76	1712.17
1137.13	1714.6
1141.5	1904.26
1145.86	1795.14
1150.22	1896.49
1154.58	1944.13
1158.94	1915.22
1163.29	1780.08
1167.64	1710.6
1171.99	1659.36
1176.34	1455.31
1180.68	1327.5
1185.03	1227.98
1189.36	953.676
1193.7	758.549
1198.03	573.556
1202.36	423.732
1206.69	381.894
1211.02	183.718
1215.34	188.817
1219.66	101.274
1223.98	121.388
1228.3	7.33521
1232.61	5.51465
1236.92	25.1416
1241.22	67.1977
1245.53	18.0864
1249.83	25.3791
1254.13	27.1301
1258.43	22.1584
1262.72	0.057861
1267.02	103.71
1271.3	13.5342
1275.59	50.6807
1279.88	25.2449
1284.16	3.8291
1288.43	5.03662
1292.71	58.48
1296.98	120.262
1301.26	59.5415
1305.52	62.8679
1309.79	125.175
1314.05	185.776
1318.31	126.295
1322.57	105.765
1326.83	68.115
1331.08	30.7227
1335.33	31.2393
1339.58	1.07471
1343.82	62.7192
1348.07	71.1179
1352.31	24.8882
1356.54	103.451
1360.78	56.0247
1365.01	71.6443
1369.24	4.17529
1373.46	122.883
1377.69	150.903
1381.91	23.5974
1386.13	37.2388
1390.35	42.1103
1394.56	60.1472
1398.77	19.6953
1402.98	130.627
1407.18	61.3047
1411.39	13.6746
1415.59	119.804
1419.79	70.6704
1423.98	39.0786
1428.17	72.7161
1432.36	100.749
1436.55	174.768
1440.74	265.488
1444.92	286.591
1449.1	284.904
1453.28	382.79
1457.45	338.411
1461.62	241.79
1465.79	162.364
1469.96	230.101
1474.12	221.805
1478.28	200.128
1482.44	104.382
1486.6	109.495
1490.75	96.8066
1494.9	43.02
1499.05	55.4263
1503.19	5.69043
1507.34	88.0696
1511.48	117.087
1515.62	34.9976
1519.75	147.802
1523.88	197.758
1528.02	142.954
1532.14	190.525
1536.27	4.42139
1540.39	137.599
1544.51	67.1243
1548.62	74.1709
1552.74	83.5063
1556.85	22.6211
1560.96	16.3335
