Measurement: Raman, 514 nm, ccw, Raman Data Processed
Mineral: Clinohumite
Rruff sample: R040122
Ideal chemistry: Mg_9_(SiO_4_)_4_F_2_
Locality: Anzahamazonono,  Madagascar
Source: University of Arizona Mineral Museum
Description: Orange-brown blebs embedded in calcite matrix
Measured chemistry: (Mg_0.96_Fe_0.02_Ti_0.01_Ca_0.01_)_9_(SiO_4_)_4_(F_0.59_(OH)_0.41_)_2_
Pin_id: M01103
Orientation: Laser parallel to -a* (-1 0 0). Fiducial mark perpendicular to laser is parallel to b [0 1 0]
Raman shift (cm-1)	intensity
121.259	0
126.22	84.6797
131.178	405.016
136.133	214.023
141.084	1047.04
146.032	884.609
150.978	1447.6
155.919	1846.81
160.858	1595.37
165.793	2444.83
170.726	2946.34
175.655	3898.63
180.58	4829.14
185.503	6517.41
190.422	7027.36
195.339	6524.91
200.252	9934.93
205.162	10229.5
210.068	7927.81
214.972	7012.81
219.872	6377.44
224.769	9060.59
229.663	11380.7
234.554	13348.3
239.442	13603.3
244.327	12609.6
249.208	11516
254.087	11864.9
258.962	12281.2
263.834	11627.8
268.703	9715.52
273.569	7129.07
278.432	5931.81
283.292	5859.88
288.149	6220.09
293.002	6451.83
297.853	6656.39
302.7	6101.35
307.545	7734.92
312.386	10874.9
317.224	13460.5
322.059	17974.5
326.891	15552
331.721	10034.5
336.547	6688.2
341.37	5140.62
346.19	3867.36
351.007	3521.39
355.821	2360.11
360.632	1751.42
365.44	1006.33
370.244	435.703
375.046	659.484
379.845	738.406
384.641	501.875
389.434	1587.91
394.224	1566.75
399.011	1441.02
403.795	1049.34
408.576	1358.22
413.354	2407.66
418.13	2324.55
422.902	2536.02
427.671	1940.12
432.437	1060.08
437.201	188.562
441.961	221.078
446.719	39.3125
451.473	563.562
456.225	319.719
460.974	146.625
465.72	268.984
470.463	27.4844
475.203	169.484
479.94	45.9062
484.674	950.672
489.405	32.7031
494.134	383.312
498.86	187.391
503.582	25.1562
508.302	970.641
513.019	1705.67
517.733	862.328
522.445	904.219
527.153	1206.48
531.859	1030.47
536.561	1349.25
541.261	1224.12
545.959	1681.42
550.653	2092.91
555.344	2769.24
560.033	1926.19
564.719	2156.33
569.402	2808.16
574.082	3012.23
578.759	4052.56
583.434	5881.17
588.106	7954.89
592.775	11900.7
597.441	20476.3
602.105	38390.9
606.766	60575.9
611.423	65842.2
616.079	41145.4
620.731	19751.8
625.381	10163.8
630.028	5865.75
634.672	3002.92
639.313	2488.14
643.952	1056.55
648.588	873.094
653.221	414.281
657.852	552.359
662.48	149.469
667.105	288.5
671.727	370.688
676.347	237.172
680.964	402.453
685.578	483.453
690.19	791.766
694.799	17.4062
699.405	22.1875
704.009	330.438
708.61	105.266
713.208	198.5
717.803	678.234
722.396	1504.19
726.987	2696.48
731.574	4216.73
736.159	6064.19
740.741	8650.72
745.321	11658.8
749.898	13012.7
754.472	13633.8
759.044	11117.1
763.613	8688.44
768.18	8511.98
772.744	11359.2
777.305	18967.1
781.864	33381.8
786.42	42919.2
790.973	33222.3
795.524	25454
800.073	28349.9
804.618	41261.2
809.162	56780.6
813.702	59745.2
818.24	65880
822.776	94352.1
827.309	164902
831.839	216329
836.367	160912
840.892	145859
845.414	181703
849.935	175353
854.452	156467
858.967	201060
863.48	192571
867.99	104159
872.497	57800.4
877.002	38463.4
881.505	25457.2
886.005	16831.8
890.502	11632.1
894.997	8858.19
899.489	6769.92
903.979	5838.27
908.467	6499.16
912.952	5584.56
917.434	4841.69
921.914	4196.25
926.392	3444.41
930.867	2791.12
935.34	2428.33
939.81	1984.42
944.277	2157.83
948.743	2499.08
953.205	4344.44
957.666	8648.28
962.124	22092.4
966.579	47604.3
971.032	49434.6
975.483	27262.1
979.931	13873
984.377	8586.7
988.82	4550.5
993.261	3224.94
997.699	3571.12
1002.14	2042.11
1006.57	2044.42
1011	1099.05
1015.43	1737.72
1019.86	867.781
1024.28	1712.48
1028.7	2340.89
1033.12	1392.12
1037.54	1698.38
1041.95	1834.97
1046.37	1601.48
1050.78	119.125
1055.18	608.625
1059.59	320.5
1063.99	633.406
1068.39	689.328
1072.79	521.672
1077.18	1465.19
1081.58	70.5625
1085.97	577.234
1090.36	613.812
1094.74	945.75
1099.13	988.594
1103.51	668.781
1107.89	1686.36
1112.27	1443.81
1116.64	1169.23
1121.02	1231.81
1125.39	873.078
1129.75	1186.09
1134.12	1399.16
1138.48	1212.66
1142.85	1709.77
1147.2	996.875
1151.56	1784.03
1155.91	852.203
1160.27	2329.22
1164.62	2662.53
1168.96	1380.88
1173.31	1720.33
1177.65	2245.39
1181.99	1059.94
1186.33	1587.8
1190.67	1975.72
1195	1613.12
1199.33	1556.41
1203.66	1369.44
1207.99	587.5
1212.32	1277.78
1216.64	320.781
1220.96	214.5
1225.28	1176.44
1229.6	261.031
1233.91	1351.88
1238.22	1878.31
1242.53	705.562
1246.84	1523.41
1251.14	1652.66
1255.45	202.125
1259.75	990.219
1264.05	738.562
1268.34	779.094
1272.64	1369.81
1276.93	251.688
1281.22	367.312
1285.51	392.625
1289.79	176.156
1294.08	63.6562
1298.36	932.062
1302.64	345.25
1306.92	1946.03
1311.19	1176.94
1315.46	753.531
1319.73	769.156
1324	691.219
1328.27	1179.84
1332.54	563.531
1336.8	354.312
1341.06	1257.94
1345.32	522.219
1349.57	40.8125
1353.83	1280.12
1358.08	225.75
1362.33	385.469
1366.57	263.844
1370.82	162.812
1375.06	947.75
1379.3	1567.97
1383.54	675.812
1387.78	878.219
1392.02	116.438
1396.25	1502.31
1400.48	429.344
1404.71	294
1408.94	216.906
1413.16	277.25
1417.38	873.812
1421.6	539.188
1425.82	507.562
1430.04	1022.69
1434.25	223.781
1438.47	569.469
1442.68	594.688
1446.88	445.156
1451.09	381
1455.3	316.656
1459.5	1169
1463.7	921.219
1467.9	1414.16
1472.09	1947.81
1476.29	890.781
1480.48	898.656
1484.67	491.656
1488.86	594.25
1493.05	1089.09
1497.23	29.5938
1501.41	1016.56
1505.59	945.438
1509.77	1050.41
1513.95	2173.31
1518.12	1670.34
1522.29	2323.19
1526.46	1767.84
1530.63	2406.47
1534.8	1745.66
1538.96	1562.31
1543.13	1411.22
1547.29	206.812
1551.45	2124.72
1555.6	1474.12
1559.76	1646.84
1563.91	491.688
1568.06	350.344
1572.21	688.219
1576.36	313.875
1580.5	1671.59
