Measurement: Raman, 514 nm, depolarized, Raman Data Processed
Mineral: Clinoptilolite-Ca
Rruff sample: R060662
Ideal chemistry: Ca_3_(Si_30_Al_6_)O_72_20H_2_O
Locality: Succor Creek, Malheur County, Oregon, USA
Source: Michael Scott
Description: Group of colorless platy prismatic crystals
Measured chemistry: (Ca_1.02_Na_0.97_K_0.59_)_Σ=2.58_(Si_14.40_Al_3.60_)_Σ=18_O_36_·10.96H_2_O
Pin_id: M00221
Orientation: Laser parallel to b* (0 1 0). Fiducial mark perpendicular to laser is parallel to c [0 0 1]
Raman shift (cm-1)	intensity
221.022	0
225.895	14.4902
230.765	291.688
235.633	528.961
240.498	1058.79
245.361	1474.11
250.222	1987.06
255.08	1912.48
259.936	1788.88
264.789	1507.7
269.64	1315.25
274.488	917.418
279.334	639.894
284.178	490.885
289.019	15.7812
293.857	57.4902
298.693	70.5449
303.527	48.709
308.358	81.0801
313.187	13.334
318.013	140.518
322.837	166.658
327.659	399.289
332.478	802.867
337.294	745.215
342.108	1030.21
346.92	1557.86
351.729	2125.18
356.535	4102.11
361.34	3285.59
366.141	4205.74
370.94	5433.57
375.737	6264.92
380.531	8049.61
385.323	10129
390.113	13296
394.9	17304.8
399.684	20841.5
404.466	22757.8
409.245	20872.6
414.022	17341
418.797	13093
423.569	9292.33
428.338	6574.08
433.105	4336.54
437.87	3172.94
442.632	2450.74
447.391	2163.19
452.149	2449.98
456.903	3664.58
461.655	5473.07
466.405	7174.47
471.152	8945.2
475.897	11628.2
480.639	14085.6
485.378	12890.2
490.116	8692.09
494.85	5148.21
499.582	2788.57
504.312	1818.14
509.039	959.92
513.764	447.141
518.486	156.543
523.206	8.15625
527.923	75.2754
532.638	29.6855
537.35	151.652
542.059	41.8984
546.766	98.209
551.471	66.5977
556.173	176.545
560.873	217.092
565.57	399.07
570.264	423.676
574.957	580.723
579.646	739.916
584.333	939.084
589.018	1113.75
593.7	1465.23
598.379	1998.53
603.056	2684.69
607.73	3432.63
612.402	4362.36
617.072	4789.88
621.739	4454.19
626.403	3787.28
631.065	2853.16
635.724	2142.84
640.381	1807.31
645.035	1773.59
649.687	1597.71
654.336	1165.93
658.983	896.32
663.627	632.67
668.268	395.639
672.907	203.016
677.544	15.6523
682.178	182.94
686.809	52.2344
691.438	49.9473
696.065	180.06
700.688	8.78516
705.31	30.7695
709.929	46.4922
714.545	160.82
719.158	35.3496
723.77	267.158
728.378	384.154
732.984	459.369
737.588	460.838
742.189	462.572
746.787	684.604
751.383	768.951
755.976	1012.65
760.567	914.715
765.155	1208.28
769.741	1568.08
774.324	1725.42
778.904	2116.25
783.482	2252.67
788.058	2632.7
792.631	2688.09
797.201	2600.51
801.769	2417.74
806.334	2192.33
810.897	2302.93
815.457	2430.64
820.014	2323.28
824.569	1920.31
829.122	1209.81
833.671	938.129
838.219	900.443
842.763	902.18
847.306	1056.52
851.845	1635.39
856.382	2076.59
860.917	2303.73
865.448	1645.03
869.978	975.5
874.505	646.156
879.029	511.019
883.55	375.119
888.069	196.484
892.586	347.133
897.1	333.094
901.611	436.389
906.12	164.045
910.626	446.08
915.129	135.523
919.63	24.3926
924.129	146.438
928.625	131.447
933.118	6.73047
937.609	72.3965
942.097	97.6934
946.582	31.6777
951.065	28.1367
955.546	198.353
960.023	190.01
964.499	259.988
968.971	128.227
973.441	317.285
977.909	449.258
982.374	731.268
986.836	600.969
991.295	799.057
995.753	892.49
1000.21	1238.13
1004.66	1200.49
1009.11	1422.53
1013.55	1321.32
1018	1567.79
1022.44	1334.59
1026.88	1606.14
1031.32	1658.46
1035.75	1732.55
1040.18	1556.41
1044.61	1677.06
1049.04	1365.49
1053.46	1248.64
1057.88	1063.8
1062.3	1003.51
1066.71	1287.09
1071.13	1060.65
1075.54	1383.34
1079.94	1572.13
1084.35	1676.79
1088.75	2104.12
1093.15	2013.01
1097.55	1882.25
1101.94	2280.72
1106.34	2543.99
1110.73	2993.1
1115.11	3291.98
1119.5	3397.64
1123.88	3445.07
1128.26	2745.88
1132.63	2209.02
1137.01	2185.7
1141.38	2347.12
1145.75	2035.29
1150.12	2263.25
1154.48	2177.17
1158.84	2193.82
1163.2	2263.2
1167.55	1910.28
1171.91	1959.06
1176.26	1808.54
1180.61	1467.7
1184.95	1383.54
1189.29	885.178
1193.63	718.807
1197.97	283.158
1202.31	177.158
1206.64	55.002
1210.97	150.898
1215.29	138.914
1219.62	101.711
1223.94	74.0566
1228.26	55.9414
1232.57	71.5625
1236.89	41.834
1241.2	239.912
1245.51	52.498
1249.81	214.728
1254.12	76.5176
1258.42	271.703
1262.72	305.416
1267.01	392.693
1271.3	418.522
1275.59	418.83
1279.88	284.066
1284.17	300.135
1288.45	306.699
1292.73	255.637
1297.01	565.91
1301.28	389.49
1305.55	401.344
1309.82	576.451
1314.09	565.814
1318.35	745.373
1322.61	566.055
1326.87	428.941
1331.13	403.111
1335.38	30.5195
1339.63	92.334
1343.88	96.9805
1348.12	62.9785
1352.37	58.8887
1356.61	216.857
1360.85	141.676
1365.08	16.6016
1369.31	100.389
1373.54	95.666
1377.77	131.254
1381.99	213.801
1386.22	340.07
1390.43	204.193
1394.65	143.182
1398.87	337.164
1403.08	302.955
1407.29	10.8359
1411.49	179.949
1415.69	122.594
1419.89	262.297
1424.09	382.06
1428.29	558.231
1432.48	691.479
1436.67	1675.67
1440.86	2458.57
1445.04	2865.13
1449.23	2924.3
1453.4	3330.72
1457.58	2800.82
1461.76	2487.51
1465.93	1912.68
1470.1	1422.06
1474.26	1221.85
1478.43	1041.34
1482.59	657.668
1486.75	832.463
1490.9	227.69
1495.06	60.9785
1499.21	142.338
1503.35	26.709
1507.5	258.295
1511.64	19.6172
1515.78	16.4375
1519.92	257.59
1524.05	204.978
1528.18	365.203
1532.31	512.213
1536.44	430.574
1540.56	318.478
1544.69	510.486
1548.8	284.451
1552.92	607.979
1557.03	651.414
1561.14	179.016
1565.25	109.863
1569.36	0.150391
