Measurement: Raman, 514 nm, ccw, Raman Data Processed
Mineral: Clinoptilolite-Na
Rruff sample: R061099
Ideal chemistry: Na_6_(Si_30_Al_6_)O_72_20H_2_O
Locality: Richardson Ranch, Madras, Jefferson County, Oregon, USA
Source: Michael Scott
Description: Red-brown to salmon, somewhat coffin shaped tabular crystals in a fragmented geode
Measured chemistry: (Na_2.70_Ca_1.46_K_0.89_Fe_0.08_Mg_0.02_)_Σ=5.15_(Si_29.29_Al_6.71_)O_72_·18.51H_2_O
Pin_id: M01647
Orientation: Laser parallel to c* (0 0 1). Fiducial mark perpendicular to laser is parallel to a [1 0 0]
Raman shift (cm-1)	intensity
163.303	0
168.238	187.263
173.17	291.538
178.1	46.2871
183.026	98.7061
187.948	376.771
192.868	735.531
197.785	1408.48
202.699	1638.17
207.609	876.343
212.517	593.783
217.422	311.81
222.323	86.541
227.222	77.6416
232.117	25.4893
237.01	157.075
241.899	311.015
246.785	704.521
251.669	854.894
256.549	880.761
261.426	809.67
266.3	729.433
271.172	673.294
276.04	614.219
280.905	549.206
285.767	413.206
290.627	449.521
295.483	393.734
300.336	310.516
305.186	394.897
310.034	428.613
314.878	352.31
319.72	545.251
324.558	640.92
329.393	799.136
334.226	913.278
339.055	1033.29
343.882	962.782
348.706	1112.19
353.526	1093.82
358.344	1375.94
363.159	1578.3
367.971	2159.39
372.78	2618.19
377.586	2920.76
382.389	3408.67
387.189	4341.42
391.986	5368.06
396.78	6967.7
401.572	8454.79
406.36	9165.68
411.146	8458.52
415.929	7045.89
420.709	5373.41
425.486	4003.73
430.26	2828.83
435.031	2108.4
439.799	1439.18
444.564	1106.68
449.327	1122.5
454.087	1177.75
458.843	1403.85
463.597	2151.58
468.348	2845.54
473.097	3478.93
477.842	4713.3
482.585	6134.56
487.324	6590.41
492.061	4741.97
496.795	2417.28
501.526	1311.47
506.255	717.122
510.98	378.637
515.703	117.553
520.423	36.4531
525.14	4.35352
529.854	127.166
534.566	145.533
539.274	77.1885
543.98	43.4531
548.683	119.004
553.383	41.3164
558.081	62.9932
562.775	19.2217
567.467	146.525
572.156	131.04
576.843	151.5
581.526	218.571
586.207	288.081
590.885	257.864
595.56	482.566
600.233	608.707
604.902	835.821
609.569	1180.18
614.234	1429.6
618.895	1542.19
623.554	1338.76
628.21	992.846
632.863	659.811
637.514	360.484
642.161	426.955
646.806	315.187
651.449	44.1133
656.088	149.32
660.725	188.9
665.36	89.3477
669.991	147.038
674.62	70.4453
679.246	29.3174
683.869	48.9844
688.49	9.00586
693.108	101.376
697.723	133.976
702.336	108.019
706.946	44.3086
711.553	15.8525
716.158	23.3545
720.759	142.777
725.359	176.6
729.955	141.938
734.549	102.011
739.14	135.268
743.729	163.335
748.315	193.285
752.898	299.95
757.479	477.593
762.057	417.221
766.632	531.737
771.205	632.226
775.775	703.715
780.342	922.723
784.907	1069.22
789.469	1252.64
794.029	1153.44
798.586	1163.22
803.14	1064.86
807.692	906.506
812.241	524.797
816.788	606.498
821.332	548.543
825.873	558.029
830.412	501.685
834.948	234.935
839.481	238.601
844.012	7.03223
848.541	146.043
853.066	188.186
857.59	7.41016
862.11	160.075
866.628	179.562
871.144	31.5283
875.657	49.7217
880.167	67.3389
884.675	108.117
889.18	39.1279
893.683	79.7891
898.183	9.43652
902.681	27.6855
907.176	110.469
911.669	33.7246
916.159	9.53027
920.646	58.9316
925.131	58.9932
929.613	27.5137
934.093	59.3935
938.571	93.2236
943.046	77.5049
947.518	111.343
951.988	82.0586
956.455	54.6357
960.92	268.094
965.382	316.538
969.842	158.064
974.3	132.368
978.754	240.394
983.207	326.702
987.657	283.161
992.104	276.348
996.549	418.403
1000.99	355.807
1005.43	379.34
1009.87	397.019
1014.3	414.273
1018.74	434.268
1023.17	665.631
1027.59	441.839
1032.02	502.159
1036.44	548.227
1040.86	526.846
1045.28	350.402
1049.7	469.881
1054.11	484.069
1058.52	403.938
1062.93	439.264
1067.33	449.306
1071.74	419.337
1076.14	409.092
1080.54	580.043
1084.93	632.871
1089.33	462.994
1093.72	692.535
1098.11	657.86
1102.49	653.611
1106.88	858.726
1111.26	974.061
1115.64	1009.96
1120.01	1143.74
1124.39	1099.76
1128.76	1240.99
1133.13	1210.46
1137.49	1217.2
1141.86	1278.12
1146.22	1327.25
1150.58	1258.59
1154.94	1132.25
1159.3	1254.94
1163.65	1228.92
1168	1136.87
1172.35	1096.96
1176.69	1007.84
1181.04	897
1185.38	741.328
1189.72	566.806
1194.05	497.592
1198.39	313.606
1202.72	273.453
1207.05	300.454
1211.38	220.565
1215.7	19.5059
1220.02	175.085
1224.34	98.9697
1228.66	30.1143
1232.97	52.5664
1237.29	196.457
1241.6	55.3789
1245.91	31.5703
1250.21	132.235
1254.52	131.056
1258.82	120.945
1263.12	88.46
1267.41	63.5772
1271.71	200.731
1276	84.8037
1280.29	201.17
1284.58	40.5371
1288.87	19.2246
1293.15	53.3555
1297.43	49.1875
1301.71	101.83
1305.98	284.725
1310.26	144.209
1314.53	285.832
1318.8	224.303
1323.07	374.607
1327.33	176.731
1331.6	95.3242
1335.86	114.473
1340.11	120.846
1344.37	37.0684
1348.62	217.121
1352.88	231.941
1357.12	11.7539
1361.37	174.154
1365.62	29.582
1369.86	314.973
1374.1	38.623
1378.34	237.328
1382.57	255.055
1386.81	150.412
1391.04	454.904
1395.27	284.676
1399.49	261.262
1403.72	109.439
1407.94	256.152
1412.16	230.852
1416.38	246.34
1420.6	238.412
1424.81	250.326
1429.02	246.606
1433.23	221.34
1437.44	256.426
1441.64	216.451
1445.85	526.074
1450.05	448.359
1454.25	424.51
1458.44	492.102
1462.64	243.6
1466.83	188.869
1471.02	89.9023
1475.21	202.815
1479.39	84.4961
1483.58	240.012
1487.76	302.027
1491.93	173.664
1496.11	241.318
1500.29	330.357
1504.46	301.006
1508.63	166.326
1512.8	50.3613
1516.96	89.957
1521.13	125.967
1525.29	148.971
1529.45	25.7188
1533.61	226.625
1537.76	168.174
1541.92	210.477
1546.07	237.17
1550.22	87.9941
1554.36	116.326
1558.51	91.4746
1562.65	127.932
1566.79	90.2168
1570.93	0.941406
1575.07	81.0957
1579.2	0.255859
