Measurement: Raman, 514 nm, ccw, Raman Data Processed
Mineral: Colemanite
Rruff sample: R050102
Ideal chemistry: CaB_3_O_4_(OH)_3_H_2_O
Locality: Kramer deposit, Boron, Kern County, California, USA
Source: Rock Currier
Description: Colorless prismatic to tabular crystals
Measured chemistry: Ca_1.00_B_3.00_O_4_(OH)_3_Â·H_2_O ; trace amounts of Na; B assumed by stoichiometry and charge balance.
Pin_id: L00407
Orientation: Laser parallel to c* (0 0 1). Fiducial mark perpendicular to laser is parallel to a [1 0 0]
Raman shift (cm-1)	intensity
116.753	0
121.686	1403.88
126.617	329.016
131.545	963.394
136.471	1166.94
141.393	1163.81
146.314	856.625
151.232	1282.62
156.147	2026.78
161.06	3294.98
165.97	5203.03
170.877	8927.94
175.782	13093.4
180.685	10144.1
185.585	4112.89
190.482	664.945
195.377	79.9266
200.269	120.566
205.158	93.5742
210.045	315.852
214.93	727.582
219.812	1813.89
224.691	2649.4
229.568	4342.26
234.442	6976.06
239.314	11429.9
244.183	14296.3
249.049	13836.9
253.913	13154.7
258.775	14627.7
263.633	15672.3
268.49	16187.4
273.343	13396.4
278.194	7908.77
283.043	3871.68
287.889	1890.45
292.732	3135.26
297.573	5271.3
302.411	10992.8
307.247	17333
312.08	16604
316.91	7808.19
321.738	5001.95
326.563	5721.19
331.386	6538.91
336.206	6168.35
341.024	5928.5
345.839	5332.54
350.651	4317.97
355.461	3046.65
360.268	1952.57
365.073	1325.81
369.875	1336.58
374.674	1918.5
379.471	3919.58
384.266	7692.02
389.057	8911.83
393.846	5884.03
398.633	3076.62
403.417	1212.62
408.198	693.051
412.977	332.043
417.753	286.184
422.527	261.524
427.298	193.184
432.067	147.633
436.832	249.691
441.596	110.391
446.356	55.0156
451.115	438.453
455.87	499.461
460.623	140.996
465.373	65.8125
470.121	354.027
474.866	978.465
479.609	1983.5
484.349	1841.14
489.086	924.414
493.821	507.5
498.553	85.6875
503.283	97.5391
508.01	289.727
512.734	401.43
517.456	697.93
522.175	1181.27
526.892	2350.44
531.606	5203.66
536.317	11168.8
541.026	19703.9
545.732	20306.1
550.436	15745.4
555.137	18230.5
559.835	34089.2
564.531	57135.1
569.224	43283.4
573.915	19814.1
578.603	11573.1
583.288	8774.14
587.971	8688.45
592.651	10158.6
597.329	15164.3
602.004	28268.6
606.676	58051.3
611.346	84706.4
616.013	51688.8
620.678	18971
625.34	7516.01
629.999	3755.84
634.656	1602.65
639.31	623.125
643.962	160.812
648.611	417.539
653.257	399.859
657.901	1374.64
662.542	5932.71
667.181	13945.3
671.817	17109.1
676.45	9617.47
681.081	4172.01
685.709	1606.37
690.334	982.875
694.957	526.203
699.578	285.227
704.195	14.8359
708.811	92.0156
713.423	187.781
718.033	155.023
722.64	794.711
727.245	1785.44
731.847	3889.85
736.446	9552.74
741.043	21083.5
745.637	30879.7
750.229	21668
754.818	9677.31
759.404	4174.46
763.988	1760.81
768.569	996.398
773.148	1411.27
777.724	2716.98
782.297	6280.88
786.868	10806.7
791.436	8842.7
796.001	3676.71
800.564	1728.2
805.125	560.266
809.682	304.641
814.237	986.164
818.79	657.484
823.339	1162.73
827.887	1365.75
832.431	2891.54
836.973	4324.59
841.513	5840.11
846.049	5283.23
850.583	4618.61
855.115	3340.82
859.644	2398.2
864.17	1732.3
868.694	1603.31
873.215	1648.69
877.733	1506.3
882.249	1548.21
886.762	880.125
891.273	839.547
895.781	997.336
900.286	629.203
904.789	6.91406
909.289	104.281
913.786	98.5625
918.281	320.766
922.773	209.641
927.263	262.867
931.75	193.148
936.234	314.695
940.716	361.695
945.195	294.125
949.672	902.867
954.146	906.016
958.617	2015.9
963.086	3256.52
967.552	3361.89
972.015	2996.04
976.476	1835.13
980.934	1060.08
985.39	1204.83
989.843	1071.29
994.293	854.477
998.741	604.398
1003.19	533.062
1007.63	294.398
1012.07	123.266
1016.5	163.281
1020.94	739.383
1025.37	50.5469
1029.8	507.234
1034.23	697.672
1038.65	229.281
1043.07	13.25
1047.49	705.117
1051.91	986.93
1056.32	1348.95
1060.73	2029.56
1065.14	2309.66
1069.55	3681.46
1073.95	6760.37
1078.35	9904.67
1082.75	12775.6
1087.14	13575
1091.54	11036.9
1095.93	6975.13
1100.31	5997.92
1104.7	3532.27
1109.08	2504.16
1113.46	2753.67
1117.84	1978.87
1122.21	1773.74
1126.58	1891.64
1130.95	1577.04
1135.32	1602.42
1139.68	1971.72
1144.04	2117.22
1148.4	1652.98
1152.76	2058.83
1157.11	1336.24
1161.46	1117.42
1165.81	1298.81
1170.16	544.969
1174.5	288.43
1178.84	556.875
1183.18	422.398
1187.51	164.859
1191.84	97.4766
1196.17	53.7578
1200.5	86.9531
1204.83	899.273
1209.15	69.0781
1213.47	58.1953
1217.78	848.914
1222.1	336.977
1226.41	585.398
1230.72	875.188
1235.02	390.383
1239.33	1442.96
1243.63	1854.02
1247.92	2478.18
1252.22	3282.55
1256.51	3735.05
1260.8	3407.42
1265.09	3112.85
1269.38	1264.81
1273.66	1023.61
1277.94	1187.41
1282.21	157.43
1286.49	323.094
1290.76	236.141
1295.03	124.805
1299.3	454.758
1303.56	1250.94
1307.82	1383.05
1312.08	1366.69
1316.34	893.062
1320.59	1106.94
1324.84	726.281
1329.09	677.125
1333.34	751.156
1337.58	621.031
1341.82	346.5
1346.06	1546.98
1350.29	425.969
1354.53	772.172
1358.76	1540.5
1362.98	820.109
1367.21	816.438
1371.43	12.7969
1375.65	578.562
1379.87	1076.72
1384.08	183.25
1388.29	792.996
1392.5	946.719
1396.71	472.156
1400.91	1084.64
1405.11	550.5
1409.31	941.781
1413.51	916.453
1417.7	535.781
1421.89	729.453
1426.08	24.9844
1430.26	705.609
1434.44	465.516
1438.62	198.469
1442.8	357.453
1446.98	296.672
1451.15	217.391
1455.32	254.594
1459.49	566.719
1463.65	1045.05
1467.81	441.906
1471.97	562.359
1476.13	322.547
1480.28	758.75
1484.43	732.328
1488.58	353.781
1492.73	656.5
1496.87	952.672
1501.01	14.6719
1505.15	1387.53
1509.29	531.578
1513.42	1443.11
1517.55	1497.67
1521.67	1006.11
1525.8	1368.95
1529.92	268.844
1534.04	1520.84
1538.16	857.125
1542.27	851.516
1546.39	508.312
1550.49	487.359
1554.6	1169.78
1558.71	11.2188
1562.81	783.734
1566.91	923.734
1571	1016.17
1575.1	1231.11
1579.19	0
