Measurement: Raman, 514 nm, ccw, Raman Data Processed
Mineral: Colemanite
Rruff sample: R050102
Ideal chemistry: CaB_3_O_4_(OH)_3_H_2_O
Locality: Kramer deposit, Boron, Kern County, California, USA
Source: Rock Currier
Description: Colorless prismatic to tabular crystals
Measured chemistry: Ca_1.00_B_3.00_O_4_(OH)_3_Â·H_2_O ; trace amounts of Na; B assumed by stoichiometry and charge balance.
Pin_id: L00407
Orientation: Laser parallel to c* (0 0 1). Fiducial mark perpendicular to laser is parallel to a [1 0 0]
Raman shift (cm-1)	intensity
100.703	0
105.644	2867.75
110.583	1586.45
115.52	1008.29
120.453	161.535
125.385	230.367
130.313	2571.96
135.239	2341.5
140.163	2137.25
145.084	2640.34
150.002	3465.92
154.918	3386.25
159.832	3480.25
164.742	4385.98
169.651	7455.89
174.556	11441.1
179.459	12162.8
184.36	6662.02
189.258	2171.79
194.153	53.8789
199.046	422.199
203.936	440.121
208.824	232.398
213.709	1405.55
218.592	3751.57
223.472	5487.19
228.349	4940.05
233.224	4283.58
238.096	4858.13
242.966	4867.69
247.833	4742.83
252.698	5095.63
257.56	5672.26
262.419	7033.13
267.276	6772.35
272.13	5531.07
276.982	3934.5
281.831	2743.98
286.677	2446.41
291.521	2605.06
296.363	3754.24
301.202	5163.88
306.038	6710.74
310.872	7757.45
315.703	6824.11
320.531	7086.67
325.357	6926.09
330.181	5698.22
335.001	3638.94
339.82	2779.08
344.635	2023.61
349.448	1595.7
354.259	772.461
359.067	856.391
363.872	898.789
368.675	1033.22
373.475	1015.9
378.272	1248.74
383.067	2122.39
387.86	2640.98
392.649	1982.38
397.437	1458.9
402.221	598.195
407.003	522.336
411.783	192.301
416.56	401.664
421.334	203.453
426.106	5.50391
430.875	83.2031
435.641	383.414
440.405	364.547
445.167	790.664
449.925	2519.33
454.681	4053.69
459.435	3524.78
464.186	1530.61
468.934	1298.2
473.68	2017.57
478.423	3437.72
483.164	3143.86
487.902	1439.55
492.637	421.34
497.37	359.262
502.1	448.203
506.828	1140.8
511.553	1637.01
516.276	887.234
520.995	634.973
525.713	1149.35
530.427	1730.82
535.139	3087.61
539.849	4707.56
544.556	5554.56
549.26	4880.05
553.962	6189.79
558.661	12173.5
563.357	22664.8
568.051	22466.6
572.742	13126.4
577.431	8256.37
582.117	5177.29
586.801	3913.62
591.481	4183.44
596.16	6880.11
600.835	13338.7
605.508	30613.2
610.179	53113.6
614.847	42156.9
619.512	17165.2
624.175	6622.53
628.835	2930.9
633.492	1179.21
638.147	394.398
642.799	91
647.449	10.8672
652.096	108.188
656.74	331.531
661.382	1669.44
666.021	4829.74
670.658	7178.09
675.292	4086.58
679.923	1483.81
684.552	728.906
689.178	102.711
693.802	169.82
698.423	238.945
703.041	88.7578
707.657	78.7812
712.27	488.383
716.881	973.617
721.489	777.211
726.094	1446.08
730.697	2435.73
735.297	6320.24
739.894	12409.6
744.489	17399.7
749.081	13435.6
753.671	6824.38
758.258	3072
762.842	975.414
767.424	331.391
772.003	323.891
776.58	459.086
781.154	2154.92
785.725	4391.77
790.294	4912.1
794.86	2334.8
799.424	926.695
803.985	610.203
808.543	389.008
813.099	1028.41
817.652	948.992
822.202	57.4531
826.75	687.836
831.295	1215.03
835.838	2197.43
840.378	3525.8
844.915	3270.11
849.45	2860.27
853.982	2300.42
858.512	1764.53
863.039	1767.58
867.563	1774.54
872.085	2873.4
876.604	3754.14
881.12	3228.7
885.634	2651.88
890.145	2326.11
894.654	1727.76
899.16	862.414
903.663	399.086
908.164	266.102
912.662	224.594
917.158	68.8125
921.651	62.2031
926.141	376.383
930.628	4.67188
935.113	296.367
939.596	70.7031
944.076	350.695
948.553	221.844
953.027	397.656
957.499	515.086
961.969	2117.6
966.435	3014.8
970.899	2539.12
975.361	2171.55
979.82	1693.94
984.276	1492.16
988.73	1711.18
993.181	2889
997.629	3190.66
1002.08	2538.18
1006.52	1765.56
1010.96	1353.83
1015.4	933.992
1019.83	257.039
1024.26	424.812
1028.69	228.367
1033.12	299.727
1037.55	470.719
1041.97	986.719
1046.39	900.141
1050.81	1525.37
1055.22	2954.8
1059.63	4732.59
1064.04	5311.23
1068.45	5931.94
1072.85	5823.94
1077.25	5511.61
1081.65	5891.99
1086.05	5444.72
1090.44	4716.52
1094.83	3773.86
1099.22	2312.88
1103.6	1970.22
1107.99	1513.56
1112.37	1463.36
1116.74	1555.83
1121.12	1935.04
1125.49	1747.98
1129.86	1788.75
1134.23	2492.3
1138.59	2668.69
1142.95	2514.88
1147.31	2963.89
1151.67	3539.96
1156.02	3234.92
1160.38	2934.96
1164.72	2692.63
1169.07	1776.9
1173.41	1618.1
1177.75	1164.33
1182.09	474.086
1186.43	588.742
1190.76	411.82
1195.09	84.6406
1199.42	88.8203
1203.74	195.039
1208.07	21.7188
1212.39	311.266
1216.7	186.25
1221.02	237.141
1225.33	22.9219
1229.64	149.867
1233.95	242.477
1238.25	780.852
1242.55	599.328
1246.85	1274.82
1251.15	1938.53
1255.44	2603.96
1259.73	2884.59
1264.02	1873.6
1268.31	1611.47
1272.59	1425.48
1276.87	1127.61
1281.15	406.875
1285.42	236.273
1289.69	582.422
1293.96	572.516
1298.23	806.992
1302.5	1419.91
1306.76	1866.37
1311.02	1230.81
1315.27	1560.23
1319.53	768.609
1323.78	1205.89
1328.03	730.594
1332.28	1107.89
1336.52	468.297
1340.76	280.344
1345	375.109
1349.23	442.531
1353.47	774.609
1357.7	817.922
1361.93	729.531
1366.15	438.188
1370.37	796.188
1374.59	800.953
1378.81	614.609
1383.03	1237.89
1387.24	620.047
1391.45	1054.14
1395.65	1314.05
1399.86	796.984
1404.06	253.156
1408.26	21.6406
1412.46	307.141
1416.65	738.844
1420.84	172.094
1425.03	442.031
1429.22	399.062
1433.4	213.25
1437.58	505.562
1441.76	194.891
1445.93	352.469
1450.11	39.3438
1454.28	240.562
1458.44	1029.27
1462.61	307.75
1466.77	625.594
1470.93	530.625
1475.09	563.391
1479.24	1177.45
1483.39	593.109
1487.54	187.5
1491.69	598.484
1495.84	156.016
1499.98	658.344
1504.12	346.828
1508.25	243.781
1512.38	671.453
1516.52	1270.36
1520.64	744.891
1524.77	764.969
1528.89	867.734
1533.01	7.5
1537.13	1020.34
1541.25	221.25
1545.36	358.062
1549.47	835.312
1553.58	394.938
1557.68	545.188
1561.78	581.031
1565.88	200.641
1569.98	509.734
1574.07	516.719
1578.16	618.703
