Measurement: Raman, 514 nm, ccw, Raman Data Processed
Mineral: Colemanite
Rruff sample: R050102
Ideal chemistry: CaB_3_O_4_(OH)_3_H_2_O
Locality: Kramer deposit, Boron, Kern County, California, USA
Source: Rock Currier
Description: Colorless prismatic to tabular crystals
Measured chemistry: Ca_1.00_B_3.00_O_4_(OH)_3_Â·H_2_O ; trace amounts of Na; B assumed by stoichiometry and charge balance.
Pin_id: L00407
Orientation: Laser parallel to c* (0 0 1). Fiducial mark perpendicular to laser is parallel to a [1 0 0]
Raman shift (cm-1)	intensity
105.644	0
110.583	413.367
115.52	1313.37
120.453	202.141
125.385	840.797
130.313	3823.6
135.239	4110.37
140.163	2900.57
145.084	3458.84
150.002	3985.3
154.918	2385.65
159.832	1627.91
164.742	3732.16
169.651	9047.54
174.556	15239.8
179.459	14029.8
184.36	5704.84
189.258	1198.84
194.153	219.562
199.046	478.984
203.936	270.906
208.824	112.328
213.709	496.734
218.592	1416.34
223.472	1728.86
228.349	1422.26
233.224	1453.76
238.096	1996.96
242.966	2565.83
247.833	2357.52
252.698	2317.43
257.56	3235.95
262.419	3620.02
267.276	4453.27
272.13	4263.23
276.982	4285.25
281.831	4497.16
286.677	5198.8
291.521	6524.03
296.363	7610.15
301.202	8483.19
306.038	8164.12
310.872	8308.72
315.703	10255.8
320.531	13281.4
325.357	12719.3
330.181	8701.06
335.001	4831.79
339.82	3347.66
344.635	1860.84
349.448	1480.23
354.259	873.117
359.067	984.562
363.872	606.68
368.675	551.961
373.475	1210.24
378.272	1418.39
383.067	1169.88
387.86	1603.85
392.649	603.789
397.437	90.2109
402.221	384.172
407.003	59.5078
411.783	74.9375
416.56	374.125
421.334	178.844
426.106	333.82
430.875	184.766
435.641	94.2266
440.405	76.625
445.167	537.773
449.925	879.156
454.681	612.078
459.435	1153.27
464.186	1208.73
468.934	1958.6
473.68	4627.9
478.423	7823.84
483.164	7913.36
487.902	3568.41
492.637	1249.34
497.37	442.258
502.1	391.797
506.828	325.469
511.553	595.594
516.276	319.391
520.995	189.961
525.713	647.641
530.427	1005.29
535.139	1880.99
539.849	1847.76
544.556	2589.5
549.26	3396.42
553.962	6405.49
558.661	14533.8
563.357	27390
568.051	26241.7
572.742	12924.2
577.431	6263.06
582.117	4223.18
586.801	4190.38
591.481	5452.68
596.16	9358.41
600.835	21548.6
605.508	52578.3
610.179	90533.5
614.847	75303.3
619.512	31944.7
624.175	12267.7
628.835	5592.76
633.492	2693.27
638.147	1469.32
642.799	375.711
647.449	121.456
652.096	317.984
656.74	820.406
661.382	2321.2
666.021	5356.84
670.658	7444.06
675.292	4888.19
679.923	2304.43
684.552	1110.69
689.178	819.406
693.802	1210.04
698.423	1124.78
703.041	774.961
707.657	1559.4
712.27	2440.26
716.881	2429.6
721.489	2421.34
726.094	1945.44
730.697	3054.73
735.297	6583.18
739.894	14238.7
744.489	22171.4
749.081	19544.1
753.671	9729.79
758.258	4111.47
762.842	1745.52
767.424	554.984
772.003	509.938
776.58	470.383
781.154	2963.67
785.725	6084.87
790.294	7340.57
794.86	3121.15
799.424	1250.94
803.985	443.914
808.543	377.586
813.099	29.9297
817.652	15.3203
822.202	527.555
826.75	996.82
831.295	1838.08
835.838	3383.3
840.378	4794.4
844.915	4345.36
849.45	4086.09
853.982	2453.09
858.512	1331.22
863.039	1294.69
867.563	599.219
872.085	956.359
876.604	1250.06
881.12	642.312
885.634	1014.11
890.145	529.109
894.654	488.156
899.16	76.1562
903.663	193.5
908.164	248.391
912.662	424.656
917.158	33.9688
921.651	68.6406
926.141	63.9688
930.628	295.641
935.113	78.9219
939.596	80.6562
944.076	503.109
948.553	981.797
953.027	1007.12
957.499	1773.06
961.969	3316.8
966.435	4420.75
970.899	5202.33
975.361	4121.73
979.82	3326.52
984.276	3013.7
988.73	2946.27
993.181	4348.27
997.629	5286.72
1002.08	4878.61
1006.52	4016.95
1010.96	1857.75
1015.4	427.031
1019.83	287.828
1024.26	342.141
1028.69	1211.98
1033.12	1113.55
1037.55	1616.34
1041.97	2327.81
1046.39	3100.45
1050.81	4488.25
1055.22	7774.02
1059.63	10552.3
1064.04	12634.9
1068.45	11499.2
1072.85	8451.98
1077.25	5839.83
1081.65	5428.34
1086.05	4558.17
1090.44	3270.14
1094.83	3131.77
1099.22	2059.69
1103.6	1165.7
1107.99	1692.89
1112.37	1367.3
1116.74	1086.31
1121.12	1489.8
1125.49	1364.03
1129.86	1626.55
1134.23	2582.39
1138.59	2462.62
1142.95	2326.19
1147.31	3161.17
1151.67	3245.58
1156.02	3030.41
1160.38	3092.78
1164.72	2371.81
1169.07	2275.97
1173.41	1887.58
1177.75	1790.42
1182.09	2188.08
1186.43	495.125
1190.76	716.812
1195.09	892.969
1199.42	557.594
1203.74	588.859
1208.07	12.7969
1212.39	664
1216.7	29.5938
1221.02	564.125
1225.33	396.266
1229.64	426.234
1233.95	767.391
1238.25	1158.34
1242.55	1427.05
1246.85	2343.59
1251.15	3354.28
1255.44	3520.05
1259.73	3992.3
1264.02	4080.67
1268.31	3439.28
1272.59	2588.48
1276.87	2172.05
1281.15	1584.61
1285.42	831.891
1289.69	278.75
1293.96	492.438
1298.23	1011.98
1302.5	709.375
1306.76	1720.56
1311.02	1022.56
1315.27	1942.41
1319.53	692.969
1323.78	545.484
1328.03	1362.42
1332.28	452.047
1336.52	797.609
1340.76	1296.23
1345	666.812
1349.23	1282.58
1353.47	521.969
1357.7	994.109
1361.93	1126.14
1366.15	865.125
1370.37	1201.03
1374.59	685.672
1378.81	894.453
1383.03	1463.17
1387.24	102.906
1391.45	1072.5
1395.65	615.797
1399.86	25.7188
1404.06	909.531
1408.26	427.312
1412.46	234.078
1416.65	375.484
1420.84	330.5
1425.03	40.9062
1429.22	52.7656
1433.4	257.844
1437.58	1243.31
1441.76	403.641
1445.93	633.172
1450.11	435.125
1454.28	141.688
1458.44	534.219
1462.61	155.469
1466.77	529.141
1470.93	675.609
1475.09	962.672
1479.24	817.328
1483.39	355.625
1487.54	1205.41
1491.69	196.672
1495.84	314.672
1499.98	732.312
1504.12	719.844
1508.25	857.312
1512.38	449.719
1516.52	977.016
1520.64	1182.91
1524.77	334.844
1528.89	1114.95
1533.01	1346.05
1537.13	1069.67
1541.25	1157.02
1545.36	375.078
1549.47	2354.91
1553.58	1287.89
1557.68	1201.06
1561.78	850.688
1565.88	1309.39
1569.98	1104.47
1574.07	1344.03
1578.16	390.547
