Measurement: Raman, 514 nm, depolarized, Raman Data Processed
Mineral: Colemanite
Rruff sample: R050102
Ideal chemistry: CaB_3_O_4_(OH)_3_H_2_O
Locality: Kramer deposit, Boron, Kern County, California, USA
Source: Rock Currier
Description: Colorless prismatic to tabular crystals
Measured chemistry: Ca_1.00_B_3.00_O_4_(OH)_3_Â·H_2_O ; trace amounts of Na; B assumed by stoichiometry and charge balance.
Pin_id: L00407
Orientation: Laser parallel to c* (0 0 1). Fiducial mark perpendicular to laser is parallel to a [1 0 0]
Raman shift (cm-1)	intensity
103.174	0
108.114	855.481
113.052	1055.16
117.987	989.531
122.919	126.172
127.849	1550.42
132.777	3270.93
137.702	2556.21
142.624	2430.65
147.544	3508.82
152.461	3703.64
157.375	3063.47
162.287	3877.91
167.197	6493.41
172.104	12402
177.008	17256.9
181.91	11348.5
186.809	4046.78
191.706	1236.34
196.6	138.129
201.491	358.57
206.38	200.269
211.267	791.562
216.151	2179.89
221.032	4176.31
225.911	4371.62
230.787	4689.4
235.66	5642.7
240.531	7712.77
245.4	7957.93
250.266	7239.91
255.129	7804.45
259.99	9095.25
264.848	9831.77
269.703	9266.42
274.556	7497.28
279.407	4935.08
284.255	3802.12
289.1	4076.02
293.942	5252.17
298.783	7288.25
303.62	10211.6
308.455	12568.8
313.288	11448
318.117	10317.6
322.945	10998.5
327.769	9925.81
332.591	7282.16
337.411	4635.51
342.228	4101.3
347.042	2875.85
351.854	2273.05
356.663	1552.69
361.47	1336.38
366.274	849.238
371.075	753.047
375.874	1565.83
380.67	2326.46
385.464	4106.73
390.255	3752.64
395.043	3264.33
399.829	1215.06
404.613	634.938
409.393	106.234
414.172	13.1172
418.947	22.0781
423.72	289.672
428.49	127.789
433.258	6.88281
438.024	638.461
442.786	224.398
447.546	912.523
452.304	2419.41
457.059	3160.11
461.811	1843.65
466.56	1598.06
471.308	1693.42
476.052	3634.73
480.794	5756.27
485.533	3938
490.27	1389.04
495.004	146.055
499.736	216.539
504.465	683.914
509.191	1084.7
513.915	773.461
518.636	581.57
523.354	590.016
528.07	1305.73
532.784	2948.67
537.494	5553.01
542.203	8921.41
546.908	8683.77
551.611	7961.19
556.311	14355.8
561.009	27618
565.704	41646.4
570.397	26442.2
575.087	13066.6
579.774	8285.53
584.459	5371.9
589.141	6102.8
593.821	8258.77
598.498	13934.5
603.172	31717.8
607.844	67715
612.513	88156.9
617.18	45738.7
621.844	17291.2
626.505	7035.64
631.164	2885.93
635.82	1132.91
640.473	35.4297
645.124	72.6953
649.773	830.43
654.418	236.953
659.062	681.336
663.702	4333.77
668.34	9502.64
672.975	9419.23
677.608	4533.23
682.238	1469.15
686.866	341.039
691.49	586.938
696.113	348.133
700.732	461.383
705.349	291.289
709.964	825.617
714.576	962.93
719.185	1598.54
723.792	1000.05
728.396	2225.32
732.997	4465.31
737.596	10781.6
742.192	21543.6
746.785	25346
751.376	15835.9
755.965	6647.15
760.551	2329.81
765.134	859.906
769.714	557.047
774.292	70.2266
778.867	1876.81
783.44	4811.97
788.01	8879.62
792.578	5942.57
797.142	2370.38
801.705	180.711
806.264	770.102
810.821	675.344
815.376	615.734
819.927	467.344
824.476	1042.12
829.023	1512.32
833.567	2620.89
838.108	4331.79
842.647	4872.49
847.183	4407.94
851.716	3127.55
856.247	2564.28
860.776	1974.09
865.301	1281.95
869.824	2064.84
874.345	2477.69
878.862	2991.79
883.377	2538.22
887.89	2180.65
892.4	1800.13
896.907	551.461
901.412	514.039
905.914	495.594
910.413	549.344
914.91	508.406
919.404	61.8828
923.896	76.0938
928.385	644.945
932.871	179.43
937.355	246.188
941.836	139.977
946.315	331.297
950.79	917.875
955.264	954.375
959.734	2242.05
964.202	3974.55
968.668	4914.65
973.131	3222.69
977.591	2669.62
982.048	2916.3
986.503	2599.7
990.955	2424.87
995.405	3255.79
999.852	3810.5
1004.3	2783
1008.74	1621.3
1013.18	1557.41
1017.61	636.391
1022.05	854.18
1026.48	1285.62
1030.91	700.773
1035.33	1253.91
1039.76	1216.33
1044.18	1265.86
1048.6	2753.12
1053.01	3478.2
1057.42	5821.34
1061.84	7551.23
1066.24	8445.92
1070.65	7553.96
1075.05	6805.7
1079.45	7836.35
1083.85	8344.16
1088.24	7936.88
1092.63	5855.81
1097.02	4063.48
1101.41	2416.55
1105.8	2129.51
1110.18	1721.68
1114.56	1270.56
1118.93	1647.19
1123.31	2183.55
1127.68	1372.73
1132.04	2582.72
1136.41	2716.56
1140.77	2678.28
1145.13	3500.88
1149.49	3169.03
1153.85	3141.06
1158.2	2954.52
1162.55	3286.95
1166.9	2357
1171.24	1887.86
1175.58	1494.83
1179.92	443.656
1184.26	744.156
1188.6	166.969
1192.93	345.906
1197.26	676.062
1201.58	387.906
1205.9	93.5938
1210.23	293.188
1214.55	356.359
1218.86	276.953
1223.17	474.844
1227.48	511.391
1231.79	88.7188
1236.1	878.562
1240.4	467.109
1244.7	1710.17
1249	2788.56
1253.29	3093.25
1257.59	3617.92
1261.88	3087.19
1266.16	2398.47
1270.45	2143.34
1274.73	1716.77
1279.01	1308.67
1283.28	909.562
1287.56	394.781
1291.83	695.328
1296.1	622.266
1300.36	1230.3
1304.63	1428.33
1308.89	1656.97
1313.15	872.422
1317.4	1706.09
1321.65	777.078
1325.9	1241.16
1330.15	639.797
1334.4	366.844
1338.64	617.328
1342.88	257.344
1347.12	146.844
1351.35	1053.38
1355.58	127.203
1359.81	677.031
1364.04	856.672
1368.26	376.047
1372.48	952.156
1376.7	56.3438
1380.92	558.422
1385.13	1275.39
1389.34	390.656
1393.55	1016.61
1397.76	900.797
1401.96	994.688
1406.16	861.281
1410.36	783.531
1414.55	353.203
1418.75	438.438
1422.94	35.5469
1427.12	97.375
1431.31	911.764
1435.49	176.516
1439.67	411.625
1443.85	791.406
1448.02	639.375
1452.19	302.812
1456.36	563.547
1460.53	799.578
1464.69	1.23438
1468.85	1167
1473.01	330.469
1477.17	883.172
1481.32	792.141
1485.47	510.703
1489.62	1040.88
1493.76	97.2656
1497.91	377.297
1502.05	739.469
1506.18	539.547
1510.32	1147.92
1514.45	1018.67
1518.58	1079.73
1522.71	814.344
1526.83	899.359
1530.95	1679.48
1535.07	594.484
1539.19	1681.72
1543.3	37.2031
1547.41	715.109
1551.52	78.4531
1555.63	548.75
1559.73	355.969
1563.83	962.141
1567.93	116.906
1572.03	98.7031
1576.12	739.828
