Measurement: Raman, 514 nm, depolarized, Raman Data Processed
Mineral: Colemanite
Rruff sample: R050102
Ideal chemistry: CaB_3_O_4_(OH)_3_H_2_O
Locality: Kramer deposit, Boron, Kern County, California, USA
Source: Rock Currier
Description: Colorless prismatic to tabular crystals
Measured chemistry: Ca_1.00_B_3.00_O_4_(OH)_3_Â·H_2_O ; trace amounts of Na; B assumed by stoichiometry and charge balance.
Pin_id: L00081
Orientation: Laser parallel to a* (1 0 0). Fiducial mark perpendicular to laser is parallel to b [0 1 0]
Raman shift (cm-1)	intensity
78.594	0
82.787	1013.27
86.978	3278.04
91.166	3088.93
95.353	1091.42
99.538	2667.27
103.72	4601.18
107.901	1915.12
112.079	1121.55
116.256	853.668
120.43	67.952
124.602	66.508
128.772	1193.41
132.94	1325.19
137.106	731.733
141.27	922.849
145.432	1706.3
149.592	1847.39
153.749	1128.8
157.905	910.803
162.059	952.89
166.21	1177.28
170.36	2505.75
174.507	5258.38
178.652	5593.41
182.796	2519.54
186.937	845.738
191.076	161.916
195.213	667.759
199.349	277.229
203.482	173.072
207.613	229.728
211.742	207.054
215.869	195.625
219.994	909.513
224.117	1166.6
228.237	938.422
232.356	900.369
236.473	1310.4
240.588	1781.01
244.701	2048.11
248.811	1989.59
252.92	1957.55
257.027	1927.77
261.131	2479.73
265.234	2874.43
269.334	2682.57
273.433	2268.18
277.53	1621.65
281.624	1276.35
285.717	955.916
289.807	1007.63
293.896	1413.17
297.982	1927.64
302.067	2360.7
306.149	3349.92
310.23	3983.76
314.308	3235.43
318.385	3036.83
322.459	3447.94
326.532	3448.76
330.602	2679.3
334.671	1689.64
338.737	1141.97
342.802	1002.91
346.864	1023.22
350.925	611.883
354.983	688.706
359.04	695.93
363.094	335.784
367.147	312.756
371.197	123.156
375.246	379.673
379.293	491.966
383.337	916.61
387.38	1270.76
391.421	1084.47
395.459	737.834
399.496	320.913
403.531	63.688
407.564	145.975
411.594	77.429
415.623	42.118
419.65	142.913
423.675	55.071
427.698	101.282
431.719	63.523
435.738	29.368
439.755	233.934
443.77	176.508
447.783	258.449
451.795	579.924
455.804	1150.95
459.811	951.516
463.816	571.632
467.82	361.335
471.821	600.697
475.821	1419.77
479.818	2038.55
483.814	1457.06
487.808	785.297
491.799	537.583
495.789	401.978
499.777	240.006
503.763	57.242
507.747	564.186
511.729	760.373
515.709	416.711
519.687	170.9
523.663	152.99
527.638	506.887
531.61	879.969
535.581	1238.36
539.549	2315.98
543.516	3294.9
547.48	2904.64
551.443	2413.2
555.404	3181.58
559.363	5758.95
563.32	13042.7
567.275	13818.4
571.228	6590.98
575.18	3938.01
579.129	2854.01
583.076	2150.41
587.022	2204.82
590.966	2020.6
594.907	2537.5
598.847	4178.75
602.785	8491.31
606.721	18337.4
610.655	32495
614.588	22696.5
618.518	9715.19
622.446	4474.29
626.373	2213.55
630.298	1243.03
634.22	732.678
638.141	402.418
642.06	342.232
645.977	147.887
649.892	355.426
653.806	185.18
657.717	510.391
661.627	967.73
665.534	2051.09
669.44	3331.93
673.344	2781.52
677.246	1380.89
681.146	570.361
685.045	230.322
688.941	99.605
692.836	280.514
696.728	440.705
700.619	470.951
704.508	161.225
708.395	321.66
712.28	242.031
716.164	742.461
720.045	562.984
723.925	513.701
727.802	524.689
731.678	1165.99
735.552	2477.72
739.424	4959.88
743.295	8702.52
747.163	8147.38
751.03	5022.34
754.895	2627.56
758.758	1251.71
762.619	837.686
766.478	76.877
770.335	198.029
774.191	26.33
778.044	736.764
781.896	1163.32
785.746	2588.35
789.594	2884.85
793.441	1538.4
797.285	862.131
801.128	441.312
804.969	1.713
808.808	44.762
812.645	234.018
816.48	87.1
820.314	160.139
824.145	173.047
827.975	155.908
831.803	608.73
835.629	1081.52
839.454	1694.27
843.276	1874.46
847.097	1277.04
850.916	859.639
854.733	662.184
858.548	553.66
862.362	676.09
866.173	628.463
869.983	830.775
873.791	683.027
877.597	785.209
881.402	1077.33
885.204	1019.6
889.005	721.887
892.804	484.424
896.601	153.1
900.397	179.035
904.19	110.963
907.982	27.465
911.772	36.434
915.56	154.027
919.347	288.531
923.131	38.83
926.914	0.381
930.695	219.25
934.474	167.545
938.252	145.416
942.027	223.014
945.801	170.463
949.573	337.775
953.344	774.971
957.112	1158.74
960.879	1223.22
964.644	1424.41
968.407	1441.32
972.168	1555.7
975.928	1421.05
979.686	1447.58
983.442	1153.96
987.196	920.176
990.949	776.24
994.699	1272.17
998.448	1728.02
1002.2	1803.78
1005.94	1869.44
1009.68	795.025
1013.43	660.395
1017.17	365.785
1020.9	671.064
1024.64	976.227
1028.38	1101.28
1032.11	864.512
1035.84	716.412
1039.57	747.857
1043.3	1043.08
1047.02	1372.64
1050.75	1808.96
1054.47	2201.49
1058.19	3216.85
1061.91	3618.5
1065.63	3423.87
1069.34	3086.83
1073.06	2995.59
1076.77	2997.8
1080.48	3228.54
1084.19	3050.01
1087.89	2322.97
1091.6	1764.01
1095.3	1386.6
1099.01	1219.09
1102.7	1140.99
1106.4	1032.25
1110.1	883.111
1113.8	563.695
1117.49	13.875
1121.18	333.713
1124.87	663.305
1128.56	893.346
1132.24	1242.72
1135.93	1372.23
1139.61	962.158
1143.29	894.326
1146.97	528.924
1150.65	773.439
1154.32	1447.88
1158	1192.25
1161.67	1536.37
1165.34	969.588
1169.01	722.092
1172.67	254.682
1176.34	237.9
1180	91.521
1183.67	565.887
1187.33	851.41
1190.98	557.596
1194.64	414.027
1198.3	170.764
1201.95	52.248
1205.6	17.303
1209.25	290.924
1212.9	729.879
1216.55	859.578
1220.19	619.791
1223.84	810.557
1227.48	492.031
1231.12	404.506
1234.76	337.229
1238.39	309.217
1242.03	1064.08
1245.66	1351.05
1249.29	1315.41
1252.92	1875.82
1256.55	1365.98
1260.17	917.59
1263.8	892.172
1267.42	261.035
1271.04	428.16
1274.66	692.164
1278.28	979.664
1281.9	373.285
1285.51	286.492
