Measurement: Raman, 514 nm, depolarized, Raman Data Processed
Mineral: Columbite-(Fe)
Rruff sample: R050348
Ideal chemistry: Fe^2+^Nb^5+^_2_O_6_
Locality: Lord Hill mine, Stoneham, Oxford County, Maine, USA
Source: California Institute of Technology
Description: Black fragment
Measured chemistry: (Fe^2+^_0.69_Mn^2+^_0.30_Ti_0.01_)(Nb_0.89_Ta_0.10_Ti_0.01_)_2_O_6_
Pin_id: L01882
Orientation: Laser parallel to -a* (-1 0 0). Fiducial mark perpendicular to laser is parallel to b [0 1 0]
Raman shift (cm-1)	intensity
221.022	0
225.895	121.778
230.765	416.708
235.633	675.437
240.498	1199.52
245.361	1267.66
250.222	1150.48
255.08	1301.97
259.936	1523.08
264.789	1652.74
269.64	1624.28
274.488	1465.11
279.334	1493.27
284.178	1352.06
289.019	1392.42
293.857	1100.74
298.693	766.839
303.527	677.149
308.358	484.53
313.187	450.216
318.013	412.738
322.837	245.317
327.659	266.447
332.478	193.529
337.294	17.7637
342.108	233.344
346.92	89.4863
351.729	35.0469
356.535	16.5947
361.34	346.647
366.141	158.994
370.94	207.507
375.737	517.602
380.531	695.864
385.323	820.755
390.113	1042.93
394.9	1010.35
399.684	884.714
404.466	693.734
409.245	456.656
414.022	434.72
418.797	196.041
423.569	123.388
428.338	0.945313
433.105	157.191
437.87	159.415
442.632	128.461
447.391	410.271
452.149	365.388
456.903	436.31
461.655	521.6
466.405	544.287
471.152	510.102
475.897	433.935
480.639	474.315
485.378	341.908
490.116	354.226
494.85	297.028
499.582	224.749
504.312	247.44
509.039	244.859
513.764	363.618
518.486	424.85
523.206	729.113
527.923	706.428
532.638	688.818
537.35	516.321
542.059	379.974
546.766	297.83
551.471	158.932
556.173	127.842
560.873	125.769
565.57	192.082
570.264	182.056
574.957	190.293
579.646	80.1182
584.333	147.495
589.018	15.6455
593.7	184.151
598.379	51.5928
603.056	144.401
607.73	41.1279
612.402	109.316
617.072	81.9111
621.739	44.5029
626.403	225.878
631.065	254.8
635.724	599.364
640.381	199.09
645.035	163.806
649.687	107.332
654.336	376.728
658.983	144.968
663.627	401.124
668.268	402.211
672.907	420.388
677.544	500.801
682.178	402.825
686.809	735.331
691.438	643.994
696.065	732.039
700.688	944.141
705.31	1240.34
709.929	1268.68
714.545	1332.08
719.158	1610.5
723.77	1888.82
728.378	1918.75
732.984	2154.34
737.588	2345.57
742.189	2543.45
746.787	2945.87
751.383	3176.44
755.976	3512.6
760.567	3608.48
765.155	3720.73
769.741	4023.43
774.324	4169.88
778.904	4435.04
783.482	4376
788.058	4557.53
792.631	4709.64
797.201	4680.15
801.769	5057.97
806.334	5122.76
810.897	5219.68
815.457	5680.68
820.014	5994.62
824.569	6356.19
829.122	6800.98
833.671	7448.98
838.219	7995.95
842.763	8961.24
847.306	10098.5
851.845	11769.8
856.382	14069.5
860.917	16874.7
865.448	19797
869.978	21507.1
874.505	19056
879.029	13534.5
883.55	8143.37
888.069	4685.65
892.586	3090.07
897.1	1915.01
901.611	1196.95
906.12	815.896
910.626	481.207
915.129	466.752
919.63	227.199
924.129	222.679
928.625	21.8467
933.118	5.375
937.609	86.1143
942.097	44.6025
946.582	131.946
951.065	50.7168
955.546	5.37695
960.023	102.417
964.499	12.9092
968.971	28.1074
973.441	78.3184
977.909	102.431
982.374	260.663
986.836	27.0156
991.295	217.624
995.753	221.559
1000.21	283.892
1004.66	238.581
1009.11	240.588
1013.55	327.259
1018	270.507
1022.44	269.627
1026.88	237.757
1031.32	236.17
1035.75	366.342
1040.18	375.921
1044.61	388.223
1049.04	382.522
1053.46	474.085
1057.88	498.05
1062.3	470.17
1066.71	558.318
1071.13	637.345
1075.54	644.273
1079.94	628.108
1084.35	519.214
1088.75	418.921
1093.15	373.879
1097.55	517.117
1101.94	827.909
1106.34	996.327
1110.73	308.127
1115.11	383.878
1119.5	653.019
1123.88	593.972
1128.26	455.082
1132.63	252.686
1137.01	45.1855
1141.38	212.51
1145.75	209.361
1150.12	136.997
1154.48	90.001
1158.84	84.8789
1163.2	295.207
1167.55	96.1074
1171.91	209.823
1176.26	112.561
1180.61	41.4873
1184.95	135.188
1189.29	155.584
1193.63	80.5986
1197.97	63.6309
1202.31	144.45
1206.64	131.907
1210.97	13.4766
1215.29	76.8965
1219.62	111.84
1223.94	21.6797
1228.26	30.7227
1232.57	162.658
1236.89	92.5195
1241.2	230.434
1245.51	88.0791
1249.81	161.648
1254.12	144.017
1258.42	125.171
1262.72	104.917
1267.01	59.1953
1271.3	271.696
1275.59	106.179
1279.88	26.7861
1284.17	13.2685
1288.45	202.776
1292.73	166.44
1297.01	228.761
1301.28	223.803
1305.55	228.949
1309.82	204.701
1314.09	453.578
1318.35	769.349
1322.61	179.434
1326.87	286.83
1331.13	271.1
1335.38	152.94
1339.63	427.583
1343.88	310.404
1348.12	377.63
1352.37	202.644
1356.61	246.964
1360.85	371.065
1365.08	230.127
1369.31	358.452
1373.54	472.025
1377.77	368.246
1381.99	484.487
1386.22	303.958
1390.43	284.062
1394.65	394.65
1398.87	315.968
1403.08	379.123
1407.29	517.54
1411.49	202.958
1415.69	289.002
1419.89	172.874
1424.09	221.064
1428.29	88.499
1432.48	242.091
1436.67	156.977
1440.86	98.1357
1445.04	402.703
1449.23	117.071
1453.4	63.4014
1457.58	31.5586
1461.76	138.408
1465.93	519.338
1470.1	51.8193
1474.26	138.885
1478.43	150.466
1482.59	117.835
1486.75	105.823
1490.9	11.0654
1495.06	84.9609
1499.21	175.457
1503.35	55.0078
1507.5	103.916
1511.64	191.584
1515.78	168.555
1519.92	81.5088
1524.05	74.4297
1528.18	129.788
1532.31	80.3643
1536.44	217.03
1540.56	158.556
1544.69	300.376
1548.8	341.973
1552.92	735.374
1557.03	216.686
1561.14	213.366
1565.25	232.31
1569.36	0.438477
