Measurement: Raman, 514 nm, depolarized, Raman Data Processed
Mineral: Columbite-(Fe)
Rruff sample: R060001
Ideal chemistry: Fe^2+^Nb^5+^_2_O_6_
Locality: Gypsy mine, Minas Gerais, Brazil
Source: Eric Van Valkenburg
Description: Steel gray fragment with internal red hints
Measured chemistry: (Fe^2+^_0.52_Mn^2+^_0.48_)_Σ=1_(Nb_1.61_Ta_0.39_)_Σ=2_O_6_
Pin_id: L01130
Orientation: Laser parallel to a* (1 0 0). Fiducial mark perpendicular to laser is parallel to -b [0 -1 0]
Raman shift (cm-1)	intensity
119.123	0
124.061	575.888
128.997	1599.59
133.93	2116.8
138.86	2203.55
143.788	1151.32
148.713	422.12
153.636	215.49
158.556	87.2109
163.473	153.39
168.388	104.276
173.3	312.759
178.21	170.537
183.117	143.163
188.021	317.895
192.923	613.827
197.822	924.879
202.718	1330.45
207.612	861.968
212.504	522.162
217.392	390.354
222.279	163.599
227.162	279.347
232.043	425.987
236.921	660.011
241.797	949.098
246.67	1031.7
251.54	1000.02
256.408	984.641
261.274	1005.37
266.136	869.432
270.996	935.425
275.854	856.86
280.709	902.516
285.561	566.262
290.41	416.788
295.257	258.729
300.102	173.348
304.944	95.1294
309.783	186.338
314.619	230.698
319.453	316.335
324.285	182.032
329.113	1.30713
333.939	44.228
338.763	42.5015
343.584	30.6221
348.402	91.1216
353.218	76.0796
358.031	61.6499
362.841	60.2715
367.649	189.797
372.454	111.143
377.257	288.761
382.057	453.546
386.854	886.992
391.649	1210.39
396.441	1365.78
401.231	1183.17
406.018	840.497
410.802	503.952
415.584	361.229
420.363	180.332
425.139	155.28
429.913	85.0874
434.684	149.815
439.453	57.5122
444.219	115.795
448.982	96.0674
453.743	160.34
458.501	195.469
463.257	263.147
468.01	284.074
472.76	363.988
477.508	470.083
482.253	477.748
486.996	363.301
491.736	420.645
496.473	273.732
501.207	479.107
505.94	328.456
510.669	552.659
515.396	701.594
520.12	968.595
524.842	1299.68
529.561	1578.88
534.277	1409.19
538.991	1113.63
543.702	863.21
548.41	612.933
553.116	488.815
557.819	351.872
562.52	305.12
567.218	190.859
571.913	163.085
576.606	63.98
581.296	14.8857
585.984	19.9404
590.669	100.679
595.351	133.714
600.031	97.9453
604.708	33.7324
609.383	63.3965
614.055	70.3662
618.724	21.0601
623.391	90.2271
628.055	16.1421
632.716	100.205
637.375	156.924
642.031	52.1191
646.685	83.791
651.335	113.828
655.984	135.26
660.63	137.084
665.273	200.307
669.913	137.934
674.551	159.023
679.186	227.602
683.819	214.715
688.449	365.416
693.076	409.9
697.701	411.171
702.323	509.957
706.943	617.273
711.56	693.148
716.174	767.572
720.786	913.547
725.395	1021.19
730.001	1079.63
734.605	1370.45
739.206	1553.73
743.805	1591.57
748.401	1783.05
752.995	1889.67
757.585	2184.27
762.173	2298.18
766.759	2561.19
771.342	2527.64
775.922	2727.52
780.5	2929.81
785.075	2931.53
789.648	3013.63
794.217	3075.38
798.785	3133.69
803.349	3228.43
807.911	3284.89
812.471	3355.82
817.027	3367.47
821.582	3449.07
826.133	3699.64
830.682	3922.4
835.228	4213.79
839.772	4452.06
844.313	4968.06
848.852	5468.08
853.387	6727.22
857.921	8189.99
862.451	10593.9
866.979	14174
871.505	18597.1
876.028	20709
880.548	16021.2
885.065	9157.35
889.58	4501.74
894.093	2428.57
898.602	1303.13
903.109	938.538
907.614	649.385
912.116	402.34
916.615	224.658
921.112	188.13
925.606	130.492
930.097	104.728
934.586	33.8355
939.072	31.8125
943.556	24.3735
948.037	7.88867
952.515	33.7353
956.991	71.0337
961.464	42.9883
965.934	31.938
970.402	2.68701
974.867	21.1357
979.33	51.4727
983.79	41.5898
988.248	2.22461
992.702	78.7334
997.155	94.2554
1001.6	89.3823
1006.05	131.835
1010.5	135.799
1014.94	72.3389
1019.38	111.801
1023.81	110.175
1028.25	134.148
1032.68	95.0845
1037.11	137.981
1041.53	117.781
1045.96	170.37
1050.38	170.087
1054.8	201.776
1059.21	216.281
1063.62	257.011
1068.04	224.836
1072.44	219.147
1076.85	241.702
1081.25	190.18
1085.65	229.44
1090.05	237.106
1094.44	212.459
1098.84	198.631
1103.22	184.449
1107.61	141.242
1112	170.716
1116.38	173.397
1120.76	178.479
1125.13	127.66
1129.51	91.3325
1133.88	159.762
1138.25	110.695
1142.61	125.651
1146.98	32.731
1151.34	66.0117
1155.7	78.9438
1160.05	49.4985
1164.4	50.7793
1168.76	81.0366
1173.1	49.3481
1177.45	88.7783
1181.79	84.6299
1186.13	79.8701
1190.47	106.855
1194.8	73.8711
1199.14	18.3032
1203.46	111.162
1207.79	112.41
1212.12	86.6943
1216.44	21.6768
1220.76	3.13721
1225.08	56.4346
1229.39	107.193
1233.7	119.886
1238.01	57.0405
1242.32	39.5342
1246.62	99.8731
1250.92	25.6089
1255.22	41.8662
1259.51	55.4199
1263.81	11.6343
1268.1	6.98926
1272.38	39.8252
1276.67	88.4824
1280.95	27.6084
1285.23	28.7793
1289.51	19.2339
1293.79	93.1728
1298.06	79.5903
1302.33	46.979
1306.6	21.9731
1310.86	59.25
1315.12	116.409
1319.38	75.7441
1323.64	47.6274
1327.89	123.808
1332.14	47.0762
1336.39	11.7056
1340.64	48.8921
1344.88	95.7031
1349.12	106.146
1353.36	55.8013
1357.6	78.1401
1361.83	137.473
1366.06	114.785
1370.29	64.8506
1374.52	76.7759
1378.74	109.858
1382.96	44.646
1387.18	25.7881
1391.39	42.3408
1395.61	74.4966
1399.82	73.7788
1404.02	88.8921
1408.23	93.1977
1412.43	70.3882
1416.63	8.56006
1420.83	115.68
1425.02	146.127
1429.21	130.345
1433.4	86.7573
1437.59	116.637
1441.77	116.404
1445.95	85.7144
1450.13	46.0054
1454.31	22.5298
1458.48	54.2295
1462.65	85.1958
1466.82	1.48828
1470.99	122.196
1475.15	58.7368
1479.31	32.563
1483.47	112.833
1487.63	74.4492
1491.78	77.7144
1495.93	51.9463
1500.08	53.3755
1504.22	92.8076
1508.37	72.0532
1512.51	61.8901
1516.64	14.6104
1520.78	41.3784
1524.91	30.8686
1529.04	45.9111
1533.17	114.897
1537.29	25.8203
1541.41	72.5469
1545.53	29.418
1549.65	139.579
1553.77	379.698
1557.88	24.5215
1561.99	0.394531
