Measurement: Raman, 514 nm, depolarized, Raman Data Processed
Mineral: Columbite-(Fe)
Rruff sample: R050348
Ideal chemistry: Fe^2+^Nb^5+^_2_O_6_
Locality: Lord Hill mine, Stoneham, Oxford County, Maine, USA
Source: California Institute of Technology
Description: Black fragment
Measured chemistry: (Fe^2+^_0.69_Mn^2+^_0.30_Ti_0.01_)(Nb_0.89_Ta_0.10_Ti_0.01_)_2_O_6_
Pin_id: L00509
Orientation: Laser parallel to -b* (0 -1 0). Fiducial mark perpendicular to laser is parallel to -c [0 0 -1]
Raman shift (cm-1)	intensity
221.022	0
225.895	9.71875
230.765	250.367
235.633	414.328
240.498	513.979
245.361	661.938
250.222	663.715
255.08	810.035
259.936	769.465
264.789	828.488
269.64	857.044
274.488	768.202
279.334	594.058
284.178	545.774
289.019	465.337
293.857	405.965
298.693	341.719
303.527	304.588
308.358	287.887
313.187	346.201
318.013	255.032
322.837	269.834
327.659	211.674
332.478	118.997
337.294	28.0078
342.108	46.2315
346.92	0.488281
351.729	63.7022
356.535	45.9912
361.34	57.3594
366.141	109.954
370.94	21.2026
375.737	114.79
380.531	77.4062
385.323	62.791
390.113	62.7725
394.9	18.7549
399.684	3.78125
404.466	4.98731
409.245	66.6343
414.022	13.3428
418.797	36.0806
423.569	64.084
428.338	47.2676
433.105	5.60303
437.87	0.774902
442.632	93.5933
447.391	48.187
452.149	22.1138
456.903	142.871
461.655	91.7905
466.405	85.0195
471.152	249.707
475.897	230.498
480.639	143.578
485.378	196.323
490.116	173.274
494.85	176.879
499.582	126.563
504.312	165.406
509.039	114.075
513.764	133.712
518.486	193.281
523.206	184.531
527.923	211.082
532.638	299.056
537.35	238.441
542.059	197.505
546.766	125.496
551.471	51.0449
556.173	186.746
560.873	95.4907
565.57	96.5215
570.264	99.2837
574.957	78.8272
579.646	76.8018
584.333	154.581
589.018	80.5117
593.7	0.868164
598.379	60.666
603.056	31.959
607.73	14.3687
612.402	4.89209
617.072	22.6484
621.739	126.743
626.403	46.2563
631.065	140.211
635.724	274.621
640.381	297.454
645.035	139.704
649.687	208.348
654.336	167.417
658.983	212.002
663.627	218.149
668.268	278.888
672.907	263.409
677.544	330.772
682.178	309.086
686.809	270.236
691.438	400.101
696.065	486.326
700.688	542.987
705.31	557.275
709.929	686.016
714.545	591.387
719.158	804.305
723.77	893.941
728.378	1000.02
732.984	1045
737.588	1181.11
742.189	1257.63
746.787	1492.54
751.383	1601.24
755.976	1622.65
760.567	1846.55
765.155	1859.95
769.741	2076.59
774.324	2069.95
778.904	2147.78
783.482	2211.08
788.058	2284.83
792.631	2311.03
797.201	2331.36
801.769	2315.72
806.334	2428.68
810.897	2544.47
815.457	2661.76
820.014	2751.12
824.569	2947.41
829.122	3099.88
833.671	3477.09
838.219	3730.26
842.763	4016.18
847.306	4542.37
851.845	5336.6
856.382	6121.02
860.917	6988.66
865.448	7922.56
869.978	8452.64
874.505	7536.86
879.029	5596.26
883.55	3334.76
888.069	1949.38
892.586	1231.07
897.1	838.793
901.611	500.546
906.12	356.314
910.626	96.0811
915.129	159.84
919.63	136.983
924.129	57.3648
928.625	30.2056
933.118	64.9907
937.609	53.5181
942.097	80.3364
946.582	2.01904
951.065	31.4062
955.546	11.5498
960.023	37.9053
964.499	31.3564
968.971	41.8213
973.441	22.4155
977.909	58.0063
982.374	122.227
986.836	146.322
991.295	180.219
995.753	224.9
1000.21	243.356
1004.66	229.574
1009.11	213.55
1013.55	269.28
1018	224.026
1022.44	199.786
1026.88	171.209
1031.32	279.127
1035.75	309.926
1040.18	313.422
1044.61	276.603
1049.04	255.219
1053.46	448.831
1057.88	387.203
1062.3	383.769
1066.71	364.19
1071.13	423.444
1075.54	342.662
1079.94	352.171
1084.35	385.256
1088.75	485.138
1093.15	252.488
1097.55	309.531
1101.94	218.696
1106.34	312.661
1110.73	222.546
1115.11	233.158
1119.5	211.371
1123.88	266.918
1128.26	204.468
1132.63	221.659
1137.01	139.31
1141.38	182.643
1145.75	61.4921
1150.12	55.104
1154.48	87.1797
1158.84	105.684
1163.2	91.6484
1167.55	127.542
1171.91	84.3037
1176.26	54.627
1180.61	101.525
1184.95	0.19873
1189.29	1.71826
1193.63	36.2012
1197.97	6.16553
1202.31	82.2139
1206.64	107.783
1210.97	32.519
1215.29	6.95703
1219.62	31.0459
1223.94	42.0645
1228.26	105.215
1232.57	110.948
1236.89	28.5689
1241.2	83.5508
1245.51	93.4619
1249.81	87.9277
1254.12	92.1631
1258.42	108.123
1262.72	141.927
1267.01	54.2529
1271.3	123.142
1275.59	118.503
1279.88	27.5269
1284.17	115.162
1288.45	95.0186
1292.73	124.693
1297.01	119.163
1301.28	118.185
1305.55	11.7627
1309.82	210.002
1314.09	21.3042
1318.35	125.918
1322.61	92.2319
1326.87	71.9121
1331.13	178.545
1335.38	99.2651
1339.63	56.4634
1343.88	102.353
1348.12	154.989
1352.37	313.935
1356.61	58.6855
1360.85	132.583
1365.08	61.9273
1369.31	66.0674
1373.54	32.811
1377.77	114.617
1381.99	82.2563
1386.22	124.18
1390.43	3.14648
1394.65	52.5625
1398.87	56.5796
1403.08	61.3057
1407.29	122.522
1411.49	5.25537
1415.69	89.9697
1419.89	26.8027
1424.09	84.0606
1428.29	68.7661
1432.48	57.3603
1436.67	43.3818
1440.86	11.4092
1445.04	100.74
1449.23	35.5073
1453.4	63.5083
1457.58	100.488
1461.76	118.508
1465.93	14.9854
1470.1	70.2383
1474.26	37.6812
1478.43	64.9771
1482.59	122.765
1486.75	43.4019
1490.9	5.63721
1495.06	50.019
1499.21	48.6196
1503.35	103.423
1507.5	100.997
1511.64	152.905
1515.78	133.523
1519.92	122.557
1524.05	93.9394
1528.18	17.3799
1532.31	62.103
1536.44	138.12
1540.56	68.062
1544.69	4.32324
1548.8	19.771
1552.92	100.18
1557.03	115.391
1561.14	137.273
1565.25	134.441
1569.36	0.450195
