Measurement: Raman, 514 nm, depolarized, Raman Data Processed
Mineral: Columbite-(Fe)
Rruff sample: R060001
Ideal chemistry: Fe^2+^Nb^5+^_2_O_6_
Locality: Gypsy mine, Minas Gerais, Brazil
Source: Eric Van Valkenburg
Description: Steel gray fragment with internal red hints
Measured chemistry: (Fe^2+^_0.52_Mn^2+^_0.48_)_Σ=1_(Nb_1.61_Ta_0.39_)_Σ=2_O_6_
Pin_id: L00607
Orientation: Laser parallel to b* (0 1 0). Fiducial mark perpendicular to laser is parallel to c [0 0 1]
Raman shift (cm-1)	intensity
122.827	0
127.763	254.691
132.697	663.205
137.628	957.358
142.556	687.165
147.482	322.363
152.405	135.452
157.326	93.9895
162.244	46.3118
167.159	134.364
172.072	273.19
176.982	304.22
181.89	473.024
186.795	461.583
191.697	607.684
196.597	953.2
201.494	1460.76
206.389	1002.78
211.281	906.439
216.17	583.675
221.057	504.684
225.941	590.521
230.823	808.212
235.702	1326.03
240.578	1833.13
245.452	1970.8
250.323	1889.84
255.192	1856.5
260.058	2316.17
264.921	2397.61
269.782	2820.36
274.64	2610.81
279.495	1980.98
284.348	1574.71
289.198	1251.01
294.046	1090.7
298.891	840.73
303.733	781.048
308.573	788.505
313.41	900.73
318.245	973.424
323.077	755.141
327.906	523.787
332.733	389.457
337.557	230.738
342.379	174.007
347.198	137.081
352.014	157.899
356.828	80.4534
361.639	90.7617
366.447	135.863
371.253	59.7666
376.056	150.455
380.857	125.921
385.655	96.1289
390.451	43.1103
395.243	1.85938
400.034	25.334
404.821	19.46
409.606	70.7012
414.389	18.1548
419.168	54.062
423.945	29.2769
428.72	31.6831
433.492	66.8369
438.261	159.983
443.028	277.547
447.792	332.004
452.553	337.977
457.312	425.085
462.068	506.165
466.822	674.768
471.573	827.099
476.321	933.255
481.067	1130.25
485.81	1137.95
490.551	1091.55
495.289	1100.54
500.024	999.195
504.757	921.324
509.487	938.471
514.214	1023.21
518.939	1218.66
523.661	1446.04
528.381	1680.5
533.098	1543.18
537.812	1240.08
542.524	889.46
547.233	596.375
551.94	303.494
556.644	323.978
561.345	273.61
566.044	98.6089
570.74	152.368
575.433	75.5674
580.124	25.1909
584.812	44.04
589.498	71.0908
594.181	126.307
598.861	84.2681
603.539	56.0391
608.214	83.9976
612.887	58.2212
617.557	323.748
622.224	458.592
626.889	556.769
631.551	537.293
636.21	590.206
640.867	551.516
645.521	423.227
650.173	292.34
654.822	253.87
659.468	119.849
664.112	59.2817
668.753	129.175
673.392	30.5381
678.028	61.4092
682.661	42.8227
687.292	110.882
691.92	128.765
696.545	198.666
701.168	224.448
705.788	299.101
710.406	373.786
715.021	373.088
719.633	450.628
724.243	550.686
728.85	539.967
733.455	678.1
738.056	670.232
742.656	750.087
747.252	779.987
751.846	941.432
756.438	953.589
761.027	957.377
765.613	1052.79
770.196	1185.79
774.777	1194.42
779.356	1161.65
783.932	1269.46
788.505	1285.87
793.075	1215.82
797.643	1474.32
802.208	1376.35
806.771	1446.9
811.331	1545.97
815.888	1797
820.443	1846.65
824.995	2192.99
829.545	2424.66
834.092	2605.63
838.636	3062.03
843.178	3708.93
847.717	4579.52
852.254	5939.38
856.788	8180.99
861.319	11639.4
865.848	17228.6
870.374	24611.2
874.897	28829.4
879.418	23973.8
883.936	13940.1
888.452	7103.1
892.965	3875.66
897.475	2404.53
901.983	1586.81
906.488	1085.26
910.99	752.74
915.49	548.327
919.988	432.321
924.482	408.718
928.974	163.666
933.464	139.409
937.951	180.252
942.435	81.2192
946.917	119.896
951.396	17.4829
955.872	46.9399
960.346	4.24463
964.817	7.00342
969.285	41.6855
973.751	45.543
978.215	38.0796
982.675	32.9224
987.134	39.4429
991.589	17.2217
996.042	100.401
1000.49	73.7266
1004.94	7.73633
1009.38	57.0205
1013.83	23.0879
1018.27	58.3994
1022.7	64.519
1027.14	2.6792
1031.57	27.7349
1036	129.777
1040.43	64.4785
1044.85	121.07
1049.27	43.814
1053.69	122.61
1058.11	173.883
1062.52	187.284
1066.93	186.542
1071.34	192.174
1075.75	179.915
1080.15	245.44
1084.55	132.086
1088.95	158.827
1093.35	191.962
1097.74	304.136
1102.13	187.968
1106.52	132.204
1110.9	229.145
1115.28	197.006
1119.66	102.447
1124.04	132.617
1128.41	121.319
1132.79	154.066
1137.16	137.432
1141.52	124.529
1145.89	120.894
1150.25	196.573
1154.61	142.329
1158.96	174.857
1163.32	177.242
1167.67	136.279
1172.02	93.2183
1176.36	24.9033
1180.71	88.665
1185.05	117.098
1189.38	105.901
1193.72	95.9316
1198.05	68.1519
1202.38	105.867
1206.71	55.2588
1211.04	86.7539
1215.36	102.962
1219.68	42.2764
1224	1.83984
1228.31	56.3994
1232.62	136.632
1236.93	68.3398
1241.24	88.7383
1245.54	0.614746
1249.84	44.8003
1254.14	82.1826
1258.44	108.757
1262.73	41.3272
1267.03	5.24414
1271.31	59.377
1275.6	51.0234
1279.88	92.6269
1284.16	43.708
1288.44	35.8657
1292.72	12.3374
1296.99	88.7856
1301.26	194.21
1305.53	165.975
1309.79	80.9028
1314.06	144.029
1318.32	122.29
1322.57	32.0664
1326.83	95.8242
1331.08	103.49
1335.33	89.8057
1339.58	117.114
1343.82	104.405
1348.06	18.6357
1352.3	80.3965
1356.54	87.8706
1360.77	102.689
1365.01	118.131
1369.23	42.1519
1373.46	72.1646
1377.68	149.392
1381.9	12.7769
1386.12	120.612
1390.34	97.3921
1394.55	140.448
1398.76	43.814
1402.97	117.323
1407.18	106.372
1411.38	26.2612
1415.58	39.9321
1419.78	51.4048
1423.97	56.9907
1428.17	150.836
1432.36	178.447
1436.54	146.132
1440.73	203.817
1444.91	178.59
1449.09	128.328
1453.27	169.275
1457.44	151.369
1461.61	152.398
1465.78	127.108
1469.95	148.147
1474.11	67.8809
1478.27	36.5269
1482.43	72.2407
1486.59	10.9126
1490.74	75.6894
1494.89	76.7466
1499.04	17.937
1503.19	141.292
1507.33	87.7476
1511.47	43.7349
1515.61	88.9526
1519.75	104.035
1523.88	161.048
1528.01	120.182
1532.14	114.589
1536.26	56.3794
1540.38	55.5737
1544.51	124.485
1548.62	107.374
1552.74	271.007
1556.85	0.132324
1560.96	0.195801
