Measurement: Raman, 514 nm, depolarized, Raman Data Processed
Mineral: Columbite-(Fe)
Rruff sample: R060001
Ideal chemistry: Fe^2+^Nb^5+^_2_O_6_
Locality: Gypsy mine, Minas Gerais, Brazil
Source: Eric Van Valkenburg
Description: Steel gray fragment with internal red hints
Measured chemistry: (Fe^2+^_0.52_Mn^2+^_0.48_)_Σ=1_(Nb_1.61_Ta_0.39_)_Σ=2_O_6_
Pin_id: L01167
Orientation: Laser parallel to c* (0 0 1). Fiducial mark perpendicular to laser is parallel to -a [-1 0 0]
Raman shift (cm-1)	intensity
126.529	0
131.464	1471.98
136.395	1901.68
141.324	1144.32
146.251	264.917
151.175	363.713
156.096	165.967
161.015	156.615
165.931	298.81
170.844	97.2734
175.755	92.3008
180.663	39.9648
185.569	125.135
190.472	754.76
195.373	834.209
200.27	1645.12
205.166	1639.86
210.058	1151.75
214.948	501.022
219.836	680.752
224.721	676.573
229.603	77.3848
234.482	293.261
239.359	552.991
244.234	668.509
249.106	812.921
253.975	878.955
258.841	1548.28
263.705	1459.1
268.567	1640.31
273.425	1612.17
278.281	1417.63
283.135	911.377
287.986	667.506
292.834	540.854
297.68	559.948
302.523	479.639
307.363	465.318
312.201	395.119
317.037	524.689
321.869	422.763
326.699	239.791
331.527	89.8721
336.351	33.957
341.174	160.016
345.993	95.9228
350.81	128.648
355.625	74.8496
360.436	158.811
365.245	319.986
370.052	587.141
374.856	596.575
379.657	1286.24
384.456	1693.85
389.252	2549.46
394.045	3022.76
398.836	3077.1
403.625	2308.53
408.41	1850.97
413.193	1122.42
417.974	876.867
422.751	505.843
427.527	561.279
432.299	529.285
437.069	508.987
441.836	474.537
446.601	508.31
451.363	616.437
456.123	607.359
460.88	625.351
465.634	769.797
470.386	901.149
475.135	1113.7
479.881	987.275
484.625	1073.02
489.366	1081.77
494.105	1054.94
498.84	931.53
503.574	908.938
508.305	930.869
513.033	1216.18
517.758	1379.06
522.481	1755.5
527.201	2167.58
531.919	2295.48
536.634	2072.35
541.346	1834.01
546.056	1148.76
550.763	1069.37
555.468	932.468
560.17	802.785
564.869	721.485
569.566	709.596
574.26	531.139
578.952	247.137
583.641	21.3887
588.327	29.4248
593.011	13.1484
597.692	117.805
602.37	23.916
607.046	60.0684
611.719	4.51074
616.39	124.435
621.058	269.092
625.723	440.791
630.386	551.652
635.046	656.643
639.703	760.629
644.358	728.605
649.01	483.06
653.66	413.332
658.307	160.259
662.951	149.85
667.593	50.1094
672.232	30.9756
676.869	24.4326
681.503	23.3809
686.134	161.278
690.763	17.8672
695.389	93.4971
700.013	151.985
704.633	333.447
709.252	390.835
713.867	439.028
718.48	462.228
723.091	444.148
727.698	673.219
732.304	746.293
736.906	850.984
741.506	1031.5
746.103	929.259
750.698	1094.94
755.29	1043.63
759.88	1444.06
764.467	1384.22
769.051	1475.08
773.632	1647.61
778.211	1567.79
782.788	1543.62
787.362	1843.07
791.933	1836.14
796.501	1755.81
801.067	1934.08
805.631	2059.94
810.191	2164.1
814.749	2607.09
819.305	3341.99
823.858	3641.76
828.408	4056.2
832.956	4348.58
837.501	4793.59
842.043	5282.4
846.583	6060.89
851.12	7485.09
855.654	9605.4
860.186	13204.7
864.716	18518
869.242	27417.3
873.766	37255
878.288	39708.7
882.807	30705.5
887.323	18269.3
891.837	9829.44
896.348	5135.14
900.856	2961.16
905.362	2089.88
909.865	1216.71
914.366	896.628
918.864	485.612
923.359	328.673
927.852	229.866
932.342	240.092
936.829	326.327
941.314	158.548
945.796	340.836
950.276	105.124
954.753	106.447
959.228	22.4326
963.699	70.9834
968.169	20.2852
972.635	90.9141
977.099	71.6231
981.56	66.7334
986.019	110.562
990.475	109.216
994.929	132.258
999.38	120.899
1003.83	63.2773
1008.27	69.6357
1012.72	149.926
1017.16	183.118
1021.6	134.689
1026.03	107.647
1030.46	130.25
1034.89	207.492
1039.32	191.169
1043.74	215.295
1048.17	223.56
1052.59	424.416
1057	443.618
1061.42	347.301
1065.83	443.403
1070.24	476.94
1074.65	257.481
1079.05	462.961
1083.45	438.646
1087.85	406.778
1092.25	322.137
1096.64	361.602
1101.03	273.641
1105.42	349.981
1109.8	348.766
1114.19	343.946
1118.57	407.483
1122.95	239.657
1127.32	244.549
1131.69	292.456
1136.06	145.41
1140.43	209.361
1144.8	261.582
1149.16	130.043
1153.52	60.082
1157.87	222.561
1162.23	71.0537
1166.58	42.5615
1170.93	131.484
1175.28	69.1025
1179.62	187.786
1183.96	140.118
1188.3	4.67969
1192.64	46.8086
1196.97	92.1885
1201.3	107.118
1205.63	77.8232
1209.95	117.441
1214.28	147.476
1218.6	95.249
1222.92	166.155
1227.23	108.158
1231.55	60.1397
1235.86	67.9707
1240.16	187.996
1244.47	103.01
1248.77	103.254
1253.07	34.373
1257.37	187.663
1261.66	52.1572
1265.95	170.263
1270.24	145.05
1274.53	5.68164
1278.81	242.322
1283.09	166.176
1287.37	114.18
1291.65	171.938
1295.92	214.794
1300.19	100.381
1304.46	87.4648
1308.73	100.275
1312.99	5.97168
1317.25	55.749
1321.51	83.4033
1325.77	133.118
1330.02	109.201
1334.27	110.222
1338.52	122.178
1342.76	116.935
1347	97.626
1351.24	66.0938
1355.48	189.805
1359.72	202.301
1363.95	229.533
1368.18	184.938
1372.4	214.059
1376.63	165.389
1380.85	99.9912
1385.07	94.2432
1389.29	36.6895
1393.5	154.764
1397.71	134.375
1401.92	173.365
1406.13	248.436
1410.33	212.863
1414.53	103.639
1418.73	143.243
1422.92	145.992
1427.12	109.222
1431.31	98.1611
1435.5	52.084
1439.68	200.046
1443.87	194.193
1448.05	242.606
1452.22	137.205
1456.4	212.066
1460.57	170.769
1464.74	294.778
1468.91	279.692
1473.07	153.571
1477.23	130.617
1481.39	228.665
1485.55	129.252
1489.7	221.62
1493.86	165.852
1498.01	190.029
1502.15	247.455
1506.3	205.215
1510.44	228.232
1514.58	234.365
1518.71	190.448
1522.85	97.0703
1526.98	14.6924
1531.11	155.818
1535.23	206.49
1539.35	34.376
1543.47	131.144
1547.59	441.17
1551.71	580.313
1555.82	423.644
1559.93	66.0166
