Measurement: Raman, 514 nm, depolarized, Raman Data Processed
Mineral: Columbite-(Fe)
Rruff sample: R050348
Ideal chemistry: Fe^2+^Nb^5+^_2_O_6_
Locality: Lord Hill mine, Stoneham, Oxford County, Maine, USA
Source: California Institute of Technology
Description: Black fragment
Measured chemistry: (Fe^2+^_0.69_Mn^2+^_0.30_Ti_0.01_)(Nb_0.89_Ta_0.10_Ti_0.01_)_2_O_6_
Pin_id: L00573
Orientation: Laser parallel to -c* (0 0 -1). Fiducial mark perpendicular to laser is parallel to -a [-1 0 0]
Raman shift (cm-1)	intensity
221.022	0
225.895	226.25
230.765	258.211
235.633	296.386
240.498	619.361
245.361	934.744
250.222	819.962
255.08	707.509
259.936	964.032
264.789	830.643
269.64	1092.38
274.488	964.424
279.334	788.204
284.178	711.832
289.019	518.822
293.857	346.907
298.693	421.416
303.527	302.681
308.358	178.667
313.187	220.029
318.013	227.337
322.837	122.823
327.659	36.5422
332.478	34.5757
337.294	46.4861
342.108	24.1116
346.92	30.5391
351.729	47.6531
356.535	93.0386
361.34	75.0359
366.141	117.737
370.94	114.985
375.737	273.484
380.531	359.497
385.323	739.703
390.113	876.941
394.9	1160.18
399.684	1313.23
404.466	995.143
409.245	512.966
414.022	298.718
418.797	210.44
423.569	110.493
428.338	86.5039
433.105	62.0005
437.87	160.202
442.632	176.907
447.391	207.199
452.149	217.637
456.903	116.495
461.655	368.647
466.405	440.331
471.152	379.974
475.897	481.708
480.639	469.725
485.378	389.457
490.116	499.967
494.85	363.888
499.582	474.662
504.312	373.563
509.039	524.727
513.764	634.055
518.486	1052.54
523.206	1379.15
527.923	1532.89
532.638	1183.76
537.35	847.455
542.059	487.17
546.766	400.384
551.471	233.143
556.173	242.885
560.873	181.36
565.57	145.441
570.264	80.5283
574.957	14.1802
579.646	0.298828
584.333	1.98096
589.018	45.4258
593.7	54.873
598.379	5.05811
603.056	74.3755
607.73	115.898
612.402	157.633
617.072	237.672
621.739	298.218
626.403	534.189
631.065	539.598
635.724	587.417
640.381	398.467
645.035	333.732
649.687	310.208
654.336	203.893
658.983	70.7876
663.627	12.8916
668.268	66.2627
672.907	33.833
677.544	76.625
682.178	94.3652
686.809	5.64795
691.438	11.9233
696.065	12.3472
700.688	3.78027
705.31	23.186
709.929	25.3955
714.545	179.314
719.158	155.927
723.77	171.707
728.378	147.753
732.984	289.762
737.588	245.626
742.189	200.941
746.787	169.487
751.383	236.763
755.976	242.628
760.567	227.965
765.155	248.472
769.741	353.844
774.324	317.963
778.904	323.896
783.482	450.058
788.058	503.323
792.631	507.728
797.201	434.269
801.769	603.048
806.334	691.602
810.897	955.527
815.457	1321.53
820.014	1704.75
824.569	1892.5
829.122	2058.51
833.671	2246.67
838.219	2483.28
842.763	2933.97
847.306	3720.66
851.845	5161.19
856.382	7394.02
860.917	10966.9
865.448	16756.9
869.978	24423.9
874.505	25679
879.029	17162.2
883.55	9091.46
888.069	4747.73
892.586	2795.11
897.1	1789.52
901.611	1116
906.12	742.498
910.626	451.018
915.129	389.588
919.63	272.164
924.129	194.736
928.625	151.309
933.118	78.8706
937.609	32.5464
942.097	23.9116
946.582	30.3403
951.065	46.6582
955.546	3.14453
960.023	34.6538
964.499	29.6362
968.971	26.1802
973.441	14.6011
977.909	112.867
982.374	12.9683
986.836	191.073
991.295	164.052
995.753	258.968
1000.21	137.816
1004.66	241.957
1009.11	117.842
1013.55	200.999
1018	129.577
1022.44	151.441
1026.88	213.315
1031.32	143.13
1035.75	160.159
1040.18	255.282
1044.61	274.431
1049.04	298.075
1053.46	287.118
1057.88	211.153
1062.3	270.226
1066.71	226.776
1071.13	319.589
1075.54	266.405
1079.94	187.412
1084.35	313.548
1088.75	267.035
1093.15	220.681
1097.55	255.57
1101.94	211.234
1106.34	240.412
1110.73	220.048
1115.11	234.602
1119.5	644.936
1123.88	759.493
1128.26	536.342
1132.63	131.244
1137.01	216.888
1141.38	34.625
1145.75	77.0073
1150.12	45.2378
1154.48	25.2544
1158.84	42.938
1163.2	0.308105
1167.55	128.907
1171.91	66.7339
1176.26	1.58496
1180.61	47.9312
1184.95	60.4014
1189.29	0.260254
1193.63	67.9712
1197.97	83.1201
1202.31	5.92822
1206.64	5.00439
1210.97	62.7764
1215.29	55.4258
1219.62	60.0537
1223.94	43.7642
1228.26	83.5147
1232.57	15.2524
1236.89	100.949
1241.2	80.646
1245.51	111.856
1249.81	56.4653
1254.12	5.03711
1258.42	85.5239
1262.72	58.958
1267.01	64.2744
1271.3	13.396
1275.59	55.8994
1279.88	79.1055
1284.17	205.912
1288.45	216.893
1292.73	174.012
1297.01	193.524
1301.28	132.696
1305.55	166.994
1309.82	181.893
1314.09	197.798
1318.35	185.22
1322.61	312.265
1326.87	203.075
1331.13	152.704
1335.38	179.257
1339.63	192.257
1343.88	175.196
1348.12	163.029
1352.37	102.42
1356.61	164.094
1360.85	205.253
1365.08	70.7935
1369.31	14.2988
1373.54	149.477
1377.77	128.388
1381.99	49.7915
1386.22	56.6352
1390.43	154.443
1394.65	107.232
1398.87	68.1172
1403.08	127.773
1407.29	55.687
1411.49	100.638
1415.69	50.4531
1419.89	20.3423
1424.09	150.314
1428.29	86.7227
1432.48	88.9609
1436.67	36.9321
1440.86	3.26269
1445.04	15.4253
1449.23	166.584
1453.4	89.8579
1457.58	32.2944
1461.76	16.001
1465.93	81.7964
1470.1	90.7314
1474.26	76.8257
1478.43	160.126
1482.59	140.352
1486.75	109.425
1490.9	44.3335
1495.06	51.9248
1499.21	74.1382
1503.35	31.082
1507.5	77.4619
1511.64	101.563
1515.78	148.841
1519.92	47.7495
1524.05	143.371
1528.18	47.523
1532.31	91.0234
1536.44	164.704
1540.56	112.103
1544.69	76.5083
1548.8	214.152
1552.92	306.237
1557.03	156.628
1561.14	110.744
1565.25	60.6084
1569.36	123.921
