Measurement: Raman, 514 nm, depolarized, Raman Data Processed
Mineral: Cordierite
Rruff sample: R040084
Ideal chemistry: Mg_2_Al_3_(AlSi_5_)O_18_
Locality: Norway
Source: University of Arizona Mineral Museum
Description: Purple coarsely crystalline massive
Measured chemistry: (Mg_1.88_Fe^2+^_0.11_Ca_0.01_)_Σ=2_(Al_3.95_Fe^3+^_0.05_)_Σ=4_(Si_4.96_Al_0.04_)_Σ=5_O_18_·0.90H_2_O·Na_0.04_ ; H_2_O estimated by difference and verified by Raman spectroscopy
Pin_id: L00497
Orientation: Laser parallel to b* (0 1 0). Fiducial mark perpendicular to laser is parallel to c [0 0 1]
Raman shift (cm-1)	intensity
107.995	0
112.168	181.251
116.339	737.544
120.508	1020.62
124.675	2419.78
128.84	4675.91
133.003	3198.04
137.164	832.96
141.323	239.469
145.48	194.719
149.635	395.188
153.788	1031.36
157.939	2404.7
162.088	1878.18
166.235	504.955
170.38	179.983
174.523	17.397
178.664	41.9
182.803	69.536
186.94	36.741
191.076	116.696
195.209	397.308
199.34	371.555
203.47	394.045
207.597	740.48
211.722	729.731
215.846	213.702
219.967	18.396
224.087	132.68
228.204	8.803
232.32	310.89
236.434	1631.33
240.545	3462.53
244.655	2614.5
248.763	1771.05
252.869	2878.04
256.973	8132.35
261.075	14931.1
265.175	8729.04
269.273	2779.77
273.369	1121.76
277.463	647.113
281.556	516.015
285.646	497.628
289.734	917.409
293.821	1922.56
297.905	2262.71
301.988	2461.74
306.069	2954.03
310.147	2492.57
314.224	1002.27
318.299	300.778
322.372	500.126
326.443	1453.31
330.512	1059.02
334.579	349.795
338.645	140.243
342.708	258.176
346.769	318.63
350.829	463.126
354.887	871.699
358.942	1327.29
362.996	2292.34
367.048	4049.93
371.098	2935.34
375.146	1260.56
379.192	751.619
383.236	429.313
387.279	233.986
391.319	96.397
395.358	49.75
399.394	41.901
403.429	43.186
407.462	26.566
411.493	28.275
415.522	111.358
419.549	58.044
423.575	18.578
427.598	242.512
431.619	269.057
435.639	194.515
439.657	97.84
443.673	20.962
447.687	30.679
451.699	69.033
455.709	84.171
459.717	207.123
463.724	479.937
467.728	919.604
471.731	1253.12
475.732	1384.5
479.731	1515.74
483.728	1521.84
487.723	2341.84
491.716	2703.75
495.708	1542.56
499.697	650.916
503.685	265.572
507.671	88.986
511.655	36.049
515.637	178.154
519.617	77.267
523.596	141.383
527.572	299.507
531.547	492.636
535.52	765.761
539.491	1131.84
543.46	2139.91
547.427	4562.02
551.393	9689.72
555.356	15984.6
559.318	12916.5
563.278	8214.28
567.236	6719.24
571.192	8450.05
575.147	13095.1
579.099	16914.9
583.05	13144
586.999	7050.83
590.946	3728.4
594.891	2372.94
598.834	1535.82
602.776	1089.75
606.715	1008.21
610.653	776.198
614.589	913.003
618.523	1111.51
622.456	1474.79
626.386	1550.99
630.315	1199.33
634.242	698.619
638.167	464.9
642.09	437.256
646.012	349.8
649.931	415.891
653.849	580.911
657.765	977.156
661.679	1852.1
665.592	3678.66
669.502	7363.37
673.411	8819.43
677.318	5300.95
681.223	2801.72
685.126	1458.04
689.028	1018.68
692.927	573.288
696.825	653.048
700.721	598.904
704.616	768.643
708.508	1088.17
712.399	1455.99
716.288	1398.56
720.175	1020.09
724.06	826.715
727.944	665.477
731.825	607.415
735.705	951.549
739.584	1309.79
743.46	1053.98
747.334	500.104
751.207	424.148
755.078	221.123
758.947	127.048
762.815	165.046
766.68	52.005
770.544	8.108
774.406	50.331
778.267	23.265
782.125	129.759
785.982	87.16
789.837	173.485
793.69	93.731
797.542	53.095
801.391	24.918
805.239	19.812
809.085	4.565
812.93	34.883
816.772	17.641
820.613	15.343
824.452	28.998
828.29	51.679
832.125	104.651
835.959	29.001
839.791	23.577
843.621	54.55
847.45	39.52
851.277	26.15
855.102	35.678
858.925	93.139
862.746	71.534
866.566	90.865
870.384	137.128
874.2	184.33
878.015	112.471
881.828	296.554
885.639	298.577
889.448	474.537
893.256	898.436
897.061	1480.27
900.865	2742.06
904.668	2273.78
908.468	1435.46
912.267	1057.09
916.064	1218.66
919.86	1830.19
923.653	1530.57
927.445	848.127
931.236	748.999
935.024	599.763
938.811	541.105
942.596	572.471
946.379	653.817
950.161	783.734
953.94	1174.53
957.719	1543.92
961.495	2681.72
965.27	4436.76
969.043	8409.27
972.814	16922.6
976.583	11992.9
980.351	4853.44
984.117	2416.95
987.882	1371.34
991.644	1154.65
995.405	1069.55
999.165	1457.02
1002.92	2562.71
1006.68	5234.26
1010.43	11406.1
1014.18	10797.9
1017.93	5249.56
1021.68	2291.57
1025.43	1303.74
1029.18	895.979
1032.92	598.306
1036.66	290.719
1040.4	243.228
1044.14	255.915
1047.88	248.786
1051.62	331.785
1055.35	214.898
1059.08	288.092
1062.81	131.365
1066.54	35.277
1070.27	98.15
1073.99	41.677
1077.72	155.306
1081.44	111.43
1085.16	145.464
1088.88	9.605
1092.59	96.952
1096.31	39.032
1100.02	15.304
1103.73	209.447
1107.44	503.646
1111.15	717.939
1114.86	472.593
1118.57	267.506
1122.27	162.233
1125.97	117.145
1129.67	82.229
1133.37	237.811
1137.07	234.956
1140.76	131.072
1144.45	21.228
1148.15	130.079
1151.84	220.346
1155.53	372.062
1159.21	568.998
1162.9	656.227
1166.58	1060.78
1170.26	1418.26
1173.94	2095.01
1177.62	3663.77
1181.3	6851.23
1184.97	10810.8
1188.65	8747.66
1192.32	4479.75
1195.99	2301.91
1199.66	1312.97
1203.33	590.928
1206.99	457.648
1210.65	235.558
1214.32	251.386
1217.98	109.385
1221.64	186.179
1225.29	2.815
1228.95	99.593
1232.6	105.742
1236.26	48.781
1239.91	116.638
1243.56	141.239
1247.2	134.423
1250.85	119.416
1254.49	214.264
1258.13	198.893
1261.78	233.39
1265.41	197.709
1269.05	621.802
1272.69	785.449
1276.32	582.128
1279.95	354.741
1283.59	165.705
1287.21	49.263
1290.84	102.061
1294.47	42.33
1298.09	23.377
1301.72	74.657
1305.34	25.763
1308.96	53.524
1312.58	136.665
1316.19	116.471
1319.81	205.701
1323.42	184.079
1327.03	181.949
1330.64	39.313
1334.25	183.765
1337.86	26.745
1341.46	2.191
1345.07	62.353
1348.67	186.696
1352.27	280.856
1355.87	164.431
1359.46	155.624
1363.06	64.871
1366.65	97.818
1370.25	50.962
1373.84	143.692
1377.43	526.15
1381.02	1538.9
1384.6	6178.57
1388.18	1653.03
1391.77	562.545
1395.35	402.915
1398.93	298.256
1402.51	264.609
1406.08	366.295
1409.66	150.442
1413.23	205.242
1416.8	290.193
1420.37	257.305
1423.94	111.728
1427.51	277.055
1431.08	385.317
1434.64	123.438
1438.2	9.695
1441.76	186.617
1445.32	151.993
1448.88	247.051
1452.43	158.43
1455.99	319.356
1459.54	362.65
1463.09	403.454
1466.64	352.617
1470.19	316.905
1473.74	177.976
1477.28	4.691
1480.83	21.603
