Measurement: Raman, 514 nm, depolarized, Raman Data Processed
Mineral: Cordierite
Rruff sample: R040082
Ideal chemistry: Mg_2_Al_3_(AlSi_5_)O_18_
Locality: Madagascar
Source: University of Arizona Mineral Museum
Description: Dark gray coarsely crystalline massive
Measured chemistry: (Mg_1.60_Fe^2+^_0.39_Mn_0.01_)_Σ=2_Al_4.00_(Si_4.95_Al_0.05_)_Σ=5_O_18_·1.05H_2_O·Na_0.05_ ; H_2_O estimated by difference and verified by Raman spectroscopy
Pin_id: M00040
Orientation: Laser parallel to -c* (0 0 -1). Fiducial mark perpendicular to laser is parallel to a [1 0 0]
Raman shift (cm-1)	intensity
91.981	0
96.161	40.608
100.34	17.594
104.516	732.413
108.691	2222.82
112.864	5924.72
117.034	13810.4
121.203	17026.4
125.369	12474.8
129.534	7284.82
133.696	2389.84
137.857	1339.62
142.016	837.202
146.172	1493.53
150.327	3287.7
154.48	6950.48
158.63	7060.4
162.779	2985.01
166.926	622.526
171.07	218.146
175.213	169.885
179.354	261.436
183.493	333.501
187.63	204.264
191.765	133.785
195.898	59.07
200.029	50.126
204.158	78.944
208.285	143.449
212.41	125.42
216.533	137.352
220.654	59.229
224.773	518.347
228.891	1767.19
233.006	4820.62
237.119	8276.93
241.231	8173.9
245.34	6316.2
249.448	7284.72
253.553	14657.5
257.657	27960.8
261.758	20624.5
265.858	7225.39
269.956	3115.88
274.052	1860.1
278.146	1953.79
282.237	3271.84
286.327	6252.15
290.416	10957.6
294.502	12790.9
298.586	9765.41
302.668	6436.16
306.749	4368.85
310.827	2552.49
314.903	1830.06
318.978	2129.57
323.051	3256.19
327.121	2837.33
331.19	1297.04
335.257	731.144
339.322	906.096
343.385	1317.15
347.446	2004.89
351.505	2391.03
355.563	3055.08
359.618	4950.61
363.672	9223.47
367.723	9094.35
371.773	4260.36
375.821	2194.93
379.866	698.904
383.91	196.59
387.952	185.641
391.992	171.465
396.031	264.432
400.067	383.783
404.101	324.863
408.134	98.642
412.165	338.527
416.193	1567.95
420.22	4219.14
424.245	8837.99
428.268	9339.49
432.289	4761.62
436.309	1876.4
440.326	771.812
444.342	609.885
448.355	596.627
452.367	1006.05
456.377	699.174
460.385	469.016
464.391	416.584
468.395	840.896
472.398	1619.97
476.398	2013.82
480.397	1771.48
484.394	1306.98
488.389	928.325
492.382	572.536
496.373	363.424
500.362	349.454
504.349	359.515
508.335	441.684
512.319	514.133
516.3	679.082
520.28	969.605
524.259	1293.86
528.235	1712.71
532.209	2529.08
536.182	4117.94
540.152	6674.62
544.121	11743.4
548.088	23213.1
552.053	40451
556.017	42758.7
559.978	31947.1
563.938	26287
567.895	26077.9
571.851	32816.2
575.805	42529.4
579.758	37247.9
583.708	22201.6
587.657	13001.5
591.603	8037.62
595.548	5728
599.491	4271.62
603.432	3482.49
607.372	2958.6
611.309	2886.96
615.245	3019.57
619.179	3275.43
623.111	2842.32
627.041	2399.69
630.97	1930.32
634.896	1405.2
638.821	1256.33
642.744	1425.32
646.665	1474.37
650.584	1933.61
654.502	3074.03
658.418	4940.15
662.331	8522.44
666.244	14857.2
670.154	19055.9
674.062	12527.3
677.969	6441.04
681.874	3505.3
685.777	2683.1
689.678	2165.85
693.577	1730.5
697.475	1771.23
701.371	1950.78
705.265	2946.63
709.157	4380.14
713.047	4593.13
716.936	3783
720.823	3805.03
724.708	3643.93
728.591	2481.11
732.472	1459.28
736.352	1253.4
740.23	882.483
744.106	794.509
747.98	546.474
751.853	449.371
755.723	366.194
759.592	303.938
763.459	352.593
767.325	334.154
771.188	300.614
775.05	432.967
778.91	362.208
782.768	456.329
786.625	463.324
790.479	352.188
794.332	293.911
798.183	177.491
802.033	115.92
805.88	138.186
809.726	38.254
813.57	70.948
817.413	14.658
821.253	131.989
825.092	160.379
828.929	203.085
832.764	198.301
836.598	257.979
840.429	64.076
844.259	84.146
848.088	177.073
851.914	12.901
855.739	127.698
859.562	84.906
863.383	93.819
867.203	176.512
871.02	258.992
874.836	363.034
878.65	466.277
882.463	474.067
886.274	474.623
890.083	536.949
893.89	732.049
897.695	975.93
901.499	1197.59
905.301	1426.05
909.102	1691.29
912.9	2565.34
916.697	4358.18
920.492	5529.85
924.285	4127.32
928.077	2845.61
931.867	2166.73
935.655	2206.68
939.442	2541.46
943.226	3204.09
947.009	4934.59
950.791	6770.65
954.57	7084.17
958.348	6786.91
962.124	9418.32
965.899	17777.2
969.671	35722.6
973.442	33732.8
977.211	15396.8
980.979	6947.39
984.745	3949.8
988.509	2683.84
992.271	1995.51
996.032	1703.11
999.791	1637.62
1003.55	1943.48
1007.3	2989.58
1011.06	4031.65
1014.81	3302.15
1018.56	2509.28
1022.31	1706.74
1026.06	1118.37
1029.8	885.183
1033.55	805.196
1037.29	701.5
1041.03	539.09
1044.77	493.957
1048.5	560.117
1052.24	404.532
1055.97	480.301
1059.7	378.43
1063.43	419.813
1067.16	440.493
1070.89	423.482
1074.61	347.77
1078.34	357.292
1082.06	293.073
1085.78	286.079
1089.5	378.306
1093.21	601.806
1096.93	1051.72
1100.64	1836.26
1104.35	3502.03
1108.06	4645.41
1111.77	4000.26
1115.48	2599.1
1119.18	1545.48
1122.89	1421.24
1126.59	1138.03
1130.29	941.488
1133.99	910.877
1137.68	1089.01
1141.38	1054.78
1145.07	1378.18
1148.76	1596.3
1152.45	1872.95
1156.14	2436.84
1159.83	3105.51
1163.51	3690.4
1167.19	4821.98
1170.88	7165.81
1174.56	12152.7
1178.23	21379.2
1181.91	32542.3
1185.59	28957
1189.26	17049.2
1192.93	9379.02
1196.6	5502.03
1200.27	3329.18
1203.94	2205.31
1207.6	1475.07
1211.27	1019.86
1214.93	710.049
1218.59	537.833
1222.25	323.584
1225.9	195.004
1229.56	222.087
1233.21	83.823
1236.86	141.519
1240.51	81.151
1244.16	36.167
1247.81	31.416
1251.45	36.366
1255.1	27.792
1258.74	96.097
1262.38	64.304
1266.02	218.783
1269.66	416.021
1273.29	247.217
1276.93	99.681
1280.56	11.574
1284.19	98.949
1287.82	92.54
1291.45	113.045
1295.07	21.279
1298.7	10.121
1302.32	8.595
1305.94	50.548
1309.56	94.09
1313.18	15.462
1316.8	53.54
1320.41	88.303
1324.02	73.699
1327.63	42.314
1331.24	25.15
1334.85	35.142
1338.46	32.318
1342.06	58.724
1345.67	94.56
1349.27	71.556
1352.87	76.24
1356.47	115.523
1360.07	13.515
1363.66	51.967
1367.25	93.213
1370.85	204.934
1374.44	216.031
1378.03	385.371
1381.61	2545.09
1385.2	4744.84
1388.78	557.082
1392.37	259.198
1395.95	244.729
1399.53	307.163
1403.1	375.238
1406.68	325.536
1410.26	178.365
1413.83	188.322
1417.4	129.86
1420.97	227.616
1424.54	211.804
1428.1	219.625
1431.67	309.844
1435.23	310.329
1438.8	181.487
1442.36	282.083
1445.91	326.72
1449.47	214.069
1453.03	289.822
1456.58	312.607
1460.13	282.479
1463.68	256.115
1467.23	171.67
1470.78	284.771
1474.33	138.049
1477.87	171.272
1481.42	113.357
1484.96	60.639
1488.5	95.302
1492.04	185.669
1495.57	95.839
1499.11	8.396
1502.64	60.414
1506.17	9.917
1509.71	71.948
1513.23	34.732
1516.76	92.817
1520.29	85.632
1523.81	0
