Measurement: Raman, 514 nm, depolarized, Raman Data Processed
Mineral: Cordierite
Rruff sample: R040081
Ideal chemistry: Mg_2_Al_3_(AlSi_5_)O_18_
Locality: Laramie Range, Wyoming, USA
Source: University of Arizona Mineral Museum
Description: Blue to purple coarsely crystalline
Measured chemistry: (Mg_1.80_Fe^2+^_0.20_)_Σ=2_Al_4.00_(Si_4.96_Al_0.04_)_Σ=5_O_18_·0.86H_2_O·Na_0.04_ ; H_2_O estimated by difference and verified by Raman spectroscopy
Pin_id: M00018
Orientation: Laser parallel to b* (0 1 0). Fiducial mark perpendicular to laser is parallel to c [0 0 1]
Raman shift (cm-1)	intensity
76.635	0
80.823	519.142
85.009	1805.97
89.193	2872.99
93.375	2460.09
97.554	1442.22
101.732	1119.54
105.908	1546.45
110.082	1959.16
114.254	3839.47
118.424	7421.33
122.592	8214.55
126.758	5527.52
130.922	2896.07
135.083	1052.73
139.243	508.049
143.401	569.667
147.557	1244.06
151.711	3032.07
155.863	5531.82
160.013	4450.14
164.161	1816.18
168.308	454.87
172.452	40.89
176.594	2.562
180.734	102.035
184.872	384.36
189.008	678.556
193.143	821.621
197.275	340.518
201.405	265.135
205.534	515.454
209.66	331.46
213.784	154.86
217.907	214.515
222.027	284.509
226.146	177.848
230.263	577.575
234.377	2812.25
238.49	5958.26
242.601	4578.54
246.709	3639.88
250.816	5654
254.921	12912.3
259.024	20062.2
263.125	11370.8
267.224	4299.68
271.321	2096.4
275.416	1851.74
279.51	2391.45
283.601	3025.29
287.69	5447.15
291.778	9967.98
295.863	11557.7
299.947	8962.39
304.029	8039.9
308.108	6126.26
312.186	2631.03
316.262	1283.32
320.336	1800.1
324.408	3491.65
328.478	3822.87
332.546	1781.76
336.612	818.318
340.677	480.512
344.739	473.418
348.799	844.003
352.858	970.268
356.915	1031.22
360.969	1378.86
365.022	2221.2
369.073	1745.25
373.122	723.007
377.169	354.735
381.215	93.19
385.258	74.802
389.299	181.293
393.339	188.271
397.376	246.88
401.412	277.884
405.446	185.347
409.478	33.192
413.508	236.171
417.536	732.248
421.562	2215.15
425.586	5511.85
429.609	5306.32
433.629	2429.56
437.648	980.556
441.665	471.302
445.68	471.797
449.693	577.041
453.704	1080.03
457.713	883.781
461.721	492.282
465.726	574.541
469.73	873.561
473.731	907.35
477.731	1070.92
481.729	1265.3
485.725	1531.48
489.72	1681.48
493.712	1029.36
497.703	449.091
501.691	228.797
505.678	191.583
509.663	177.406
513.646	215.456
517.627	430.869
521.607	675.616
525.584	992.594
529.56	1641.73
533.534	2408.99
537.506	3908.38
541.476	6862.92
545.444	12971.6
549.41	27315.6
553.375	43874.5
557.337	39054.9
561.298	26587.1
565.257	19957.6
569.214	18892.7
573.17	24347.2
577.123	28690.4
581.075	21592.6
585.024	11899.9
588.972	6911.3
592.918	4547.8
596.863	3002.38
600.805	2145.06
604.746	1836.85
608.685	1736.73
612.621	1805.72
616.557	2352.81
620.49	2957.02
624.421	3051.33
628.351	2128.76
632.279	1389.3
636.205	974.962
640.129	736.74
644.051	699.001
647.972	923.818
651.89	1502.96
655.807	2196.5
659.722	4145.97
663.636	8544.9
667.547	16784.5
671.457	20000.1
675.365	12121.3
679.271	6038.29
683.175	3316.01
687.077	2252.8
690.978	1861.04
694.877	1544.44
698.774	1579.59
702.669	1859.76
706.562	3106.44
710.454	4396.84
714.344	4235.93
718.232	3388.8
722.118	3404.43
726.002	2987.61
729.885	2043.02
733.766	1645.43
737.645	1637.8
741.522	1575.15
745.397	1504.45
749.271	1683.72
753.143	1748.93
757.013	1142.11
760.881	616.228
764.748	381.297
768.613	192.312
772.476	85.269
776.337	199.166
780.196	128.999
784.054	168.768
787.91	170.471
791.764	134.105
795.616	113.67
799.467	160.154
803.316	96.524
807.163	48.713
811.008	65.253
814.851	99.719
818.693	53.602
822.533	157.605
826.371	194.036
830.208	162.364
834.042	107.921
837.875	52.252
841.706	101.211
845.536	67.784
849.363	21.199
853.189	101.822
857.013	140.736
860.836	152.396
864.656	182.974
868.475	239.465
872.292	311.859
876.108	253.148
879.922	497.326
883.733	510.389
887.544	749.338
891.352	1115.18
895.159	1801.91
898.964	2797.53
902.767	2658.06
906.568	1655.48
910.368	1185.81
914.166	1252.05
917.962	1300.2
921.757	1278.26
925.55	1099.23
929.341	1022.15
933.13	1175.01
936.918	1340.84
940.703	1530.65
944.488	2028.47
948.27	3210.35
952.051	4119.96
955.83	3640.21
959.607	4073.31
963.383	6475.28
967.156	12513.1
970.928	25565.6
974.699	23017.1
978.468	10943
982.234	5819.62
986	3669.04
989.763	3033.96
993.525	3305.42
997.285	4344.85
1001.04	6072.43
1004.8	11403.4
1008.55	23858.7
1012.31	27222.1
1016.06	15296.6
1019.81	7933.2
1023.56	4287.94
1027.31	2522.78
1031.05	1787.76
1034.79	1298.85
1038.53	1080.12
1042.27	986.578
1046.01	739.21
1049.75	696.987
1053.48	640.928
1057.22	633.021
1060.95	768.256
1064.68	724.643
1068.4	747.176
1072.13	620.846
1075.86	499.288
1079.58	389.112
1083.3	359.238
1087.02	328.417
1090.74	379.767
1094.45	397.023
1098.17	605.767
1101.88	1124.67
1105.59	1885.14
1109.3	2710.4
1113.01	2272.43
1116.71	1354.24
1120.42	794.935
1124.12	625.032
1127.82	282.686
1131.52	291.92
1135.22	330.903
1138.91	244.85
1142.61	257.374
1146.3	352.918
1149.99	386.199
1153.68	513.96
1157.37	668.317
1161.06	852.027
1164.74	1045.42
1168.42	1059.67
1172.1	1401.71
1175.78	2439
1179.46	3946.97
1183.14	5991.81
1186.81	5468.62
1190.48	3310.17
1194.15	1874.1
1197.83	1070.41
1201.49	658.311
1205.16	361.194
1208.82	237.76
1212.49	146.686
1216.15	47.808
1219.81	9.148
1223.46	2.175
1227.12	7.229
1230.78	70.712
1234.43	19.73
1238.08	78.825
1241.73	120.166
1245.38	13.958
1249.03	15.604
1252.67	35.054
1256.31	51.913
1259.95	54.977
1263.6	83.69
1267.23	296.993
1270.87	619.087
1274.51	281.921
1278.14	72.366
1281.77	3.482
1285.4	19.365
1289.03	12.13
1292.66	57.999
1296.28	21.998
1299.91	11.587
1303.53	37.491
1307.15	86.294
1310.77	107.843
1314.38	156.157
1318	157.861
1321.61	140.092
1325.23	162.739
1328.84	5.798
1332.45	5.548
1336.06	14.429
1339.66	117.692
1343.27	107.066
1346.87	135.161
1350.47	121.972
1354.07	92.689
1357.67	157.35
1361.26	98.569
1364.86	155.254
1368.45	115.343
1372.04	159.877
1375.63	400.131
1379.22	1034.34
1382.81	6412.04
1386.39	2373.68
1389.98	676.873
1393.56	306.516
1397.14	277.688
1400.72	330.25
1404.3	174.437
1407.87	156.996
1411.45	165.007
1415.02	146.772
1418.59	122.676
1422.16	132.45
1425.73	71.211
1429.29	109.45
1432.86	82.269
1436.42	90.259
1439.98	76.238
1443.54	138.855
1447.1	134.839
1450.66	213.269
1454.21	168.506
1457.77	146.29
1461.32	71.297
1464.87	90.642
1468.42	33.689
1471.96	87.832
1475.51	11.848
1479.06	1.079
