Measurement: Raman, 514 nm, depolarized, Raman Data Processed
Mineral: Cordierite
Rruff sample: R040081
Ideal chemistry: Mg_2_Al_3_(AlSi_5_)O_18_
Locality: Laramie Range, Wyoming, USA
Source: University of Arizona Mineral Museum
Description: Blue to purple coarsely crystalline
Measured chemistry: (Mg_1.80_Fe^2+^_0.20_)_Σ=2_Al_4.00_(Si_4.96_Al_0.04_)_Σ=5_O_18_·0.86H_2_O·Na_0.04_ ; H_2_O estimated by difference and verified by Raman spectroscopy
Pin_id: M00015
Orientation: Laser parallel to c* (0 0 1). Fiducial mark perpendicular to laser is parallel to a [1 0 0]
Raman shift (cm-1)	intensity
91.981	0
96.161	77.621
100.34	77.36
104.516	205.197
108.691	864.536
112.864	2035.1
117.034	5448.23
121.203	8386.73
125.369	6043.3
129.534	4441.8
133.696	1414.02
137.857	807.168
142.016	545.025
146.172	753.871
150.327	1610.24
154.48	3360.73
158.63	3823.95
162.779	1937.31
166.926	544.476
171.07	299.625
175.213	117.498
179.354	210.01
183.493	217.336
187.63	417.844
191.765	683.711
195.898	416.029
200.029	223.852
204.158	129.236
208.285	197.128
212.41	77.524
216.533	0.56
220.654	79.012
224.773	189.321
228.891	613.015
233.006	2480.95
237.119	6063.09
241.231	5380.06
245.34	3186.55
249.448	3002.32
253.553	5726.92
257.657	13111.9
261.758	10442.5
265.858	3384.16
269.956	1457.47
274.052	752.457
278.146	697.771
282.237	1348.16
286.327	2707.45
290.416	5967.49
294.502	7316.19
298.586	5113.46
302.668	2947.22
306.749	1922.16
310.827	1089.02
314.903	775.971
318.978	882.217
323.051	1550.72
327.121	1266.47
331.19	529.125
335.257	243.992
339.322	132.938
343.385	434.172
347.446	962.191
351.505	1359.77
355.563	1715.11
359.618	2581.07
363.672	5075.14
367.723	5662.3
371.773	2496.56
375.821	821.906
379.866	399.207
383.91	241.582
387.952	73.941
391.992	57.602
396.031	219.523
400.067	168.473
404.101	96.699
408.134	35.477
412.165	193.076
416.193	452.76
420.22	1726.32
424.245	4767.07
428.268	5761.99
432.289	2977.03
436.309	1101.18
440.326	401.396
444.342	214.684
448.355	60.061
452.367	153.406
456.377	149.15
460.385	225.781
464.391	467.484
468.395	42.184
472.398	487.928
476.398	672.666
480.397	721.396
484.394	281.111
488.389	133.822
492.382	34.471
496.373	55.049
500.362	61.322
504.349	46.902
508.335	2.799
512.319	194.363
516.3	259.484
520.28	508.553
524.259	407.715
528.235	652.861
532.209	1054.94
536.182	1866.94
540.152	3126.99
544.121	5407.18
548.088	11155.1
552.053	20497.5
556.017	22310.6
559.978	16217.5
563.938	13259.9
567.895	12440
571.851	15459.8
575.805	20807.4
579.758	18649.8
583.708	10692.2
587.657	6221.45
591.603	3577.55
595.548	2608.51
599.491	1850.96
603.432	1435.22
607.372	1106.46
611.309	1227.9
615.245	1306
619.179	1717.41
623.111	1522.52
627.041	1668.67
630.97	1497.04
634.896	763.146
638.821	677.535
642.744	853.043
646.665	835.012
650.584	741.076
654.502	1506.36
658.418	2351.04
662.331	3854.75
666.244	7856.03
670.154	10887.6
674.062	7671.49
677.969	3911.92
681.874	2321.4
685.777	1632.23
689.678	1399.41
693.577	1465.53
697.475	1040.86
701.371	1114.82
705.265	2141.31
709.157	2578.21
713.047	2532.69
716.936	2147.35
720.823	2280.39
724.708	2279.2
728.591	1583.92
732.472	946.887
736.352	925.281
740.23	483.053
744.106	677.678
747.98	516.625
751.853	164.223
755.723	82.455
759.592	280.287
763.459	161.682
767.325	115.488
771.188	53.826
775.05	384.738
778.91	218.209
782.768	31.266
786.625	29.893
790.479	236.119
794.332	59.957
798.183	3.371
802.033	3.688
805.88	392.691
809.726	104.727
813.57	24.504
817.413	70.264
821.253	19.656
825.092	134.658
828.929	153.656
832.764	116.473
836.598	53.674
840.429	158.465
844.259	143.543
848.088	87.113
851.914	48.91
855.739	431.58
859.562	84.34
863.383	315.178
867.203	308.215
871.02	274.852
874.836	102.119
878.65	362.01
882.463	263.58
886.274	255.826
890.083	383.754
893.89	450.051
897.695	666.363
901.499	566.373
905.301	789.613
909.102	1289.77
912.9	1762.38
916.697	2017.65
920.492	2666.45
924.285	1918.16
928.077	1163.22
931.867	1091.46
935.655	787.506
939.442	1311.02
943.226	1308.38
947.009	2473.17
950.791	3493.97
954.57	2922.85
958.348	2592.76
962.124	3461.97
965.899	6884.84
969.671	16631.7
973.442	19115.7
977.211	8755.7
980.979	3856.39
984.745	2118
988.509	1587.96
992.271	934.25
996.032	910.354
999.791	1221.2
1003.55	846.744
1007.3	1503.29
1011.06	2089.51
1014.81	1859.51
1018.56	1161.67
1022.31	940.289
1026.06	495.73
1029.8	673.961
1033.55	654.504
1037.29	423.68
1041.03	44.414
1044.77	340.934
1048.5	614.129
1052.24	552.48
1055.97	604.672
1059.7	344.68
1063.43	440.414
1067.16	534.113
1070.89	622.086
1074.61	356.148
1078.34	416.703
1082.06	132.309
1085.78	20.98
1089.5	253.66
1093.21	267.066
1096.93	279.414
1100.64	460.762
1104.35	1372.52
1108.06	1778.82
1111.77	1994.63
1115.48	1091.48
1119.18	730.977
1122.89	674.828
1126.59	278.652
1130.29	479.168
1133.99	179.023
1137.68	497.5
1141.38	252.473
1145.07	587.289
1148.76	485.258
1152.45	996.426
1156.14	936.383
1159.83	1492.82
1163.51	1856.66
1167.19	2181.13
1170.88	3051.11
1174.56	5181.88
1178.23	8380.9
1181.91	13518.8
1185.59	13958.9
1189.26	8716.1
1192.93	4594.76
1196.6	2780.8
1200.27	1634.16
1203.94	1247.64
1207.6	316.191
1211.27	665.355
1214.93	363.578
1218.59	341.633
1222.25	24.492
1225.9	115.617
1229.56	305.895
1233.21	116.996
1236.86	341.207
1240.51	404.438
1244.16	139.09
1247.81	178.438
1251.45	13.352
1255.1	186.328
1258.74	290.723
1262.38	478.816
1266.02	788.762
1269.66	1372.67
1273.29	1016.33
1276.93	521.07
1280.56	310.559
1284.19	35.52
1287.82	22.355
1291.45	0.293
1295.07	52.09
1298.7	104.383
1302.32	2.797
1305.94	69.203
1309.56	394.09
1313.18	53.07
1316.8	464.871
1320.41	177.051
1324.02	271.336
1327.63	163.309
1331.24	424.426
1334.85	335.09
1338.46	492.5
1342.06	286.332
1345.67	162.914
1349.27	273.535
1352.87	574.996
1356.47	798.727
1360.07	834.07
1363.66	922.047
1367.25	689.695
1370.85	956.129
1374.44	799.879
1378.03	1268.8
1381.61	7857.96
1385.2	6696.93
1388.78	1523.97
1392.37	825.211
1395.95	666.09
1399.53	448.34
1403.1	703.629
1406.68	197.352
1410.26	104.031
1413.83	126.605
1417.4	70.207
1420.97	481.984
1424.54	569.074
1428.1	325.949
1431.67	0
