Measurement: Raman, 514 nm, depolarized, Raman Data Processed
Mineral: Cordierite
Rruff sample: R040081
Ideal chemistry: Mg_2_Al_3_(AlSi_5_)O_18_
Locality: Laramie Range, Wyoming, USA
Source: University of Arizona Mineral Museum
Description: Blue to purple coarsely crystalline
Measured chemistry: (Mg_1.80_Fe^2+^_0.20_)_Σ=2_Al_4.00_(Si_4.96_Al_0.04_)_Σ=5_O_18_·0.86H_2_O·Na_0.04_ ; H_2_O estimated by difference and verified by Raman spectroscopy
Pin_id: M00044
Orientation: Laser parallel to -a* (-1 0 0). Fiducial mark perpendicular to laser is parallel to b [0 1 0]
Raman shift (cm-1)	intensity
78.031	0
82.218	697.255
86.404	1238.71
90.587	1394.42
94.768	950.322
98.947	651.76
103.124	340.824
107.3	360.395
111.473	734.033
115.644	2978.35
119.813	3992.14
123.981	2421.08
128.146	2844.21
132.309	1281.44
136.47	330.708
140.63	463.329
144.787	877.427
148.942	1920.21
153.096	4120.9
157.247	5515.53
161.396	2912.21
165.544	967.888
169.689	208.908
173.833	213.597
177.974	339.108
182.114	452.488
186.251	782.717
190.387	1056.77
194.52	735.614
198.652	391.165
202.782	22.694
206.909	7.964
211.035	164.489
215.159	213.337
219.281	156.27
223.4	145.345
227.518	31.616
231.634	781.551
235.748	2949.31
239.86	4505.57
243.97	3095.8
248.079	3292.49
252.185	6448.61
256.289	13426.2
260.391	15217.5
264.492	6387.66
268.59	2677.43
272.687	1919.52
276.781	2487.76
280.874	3663.93
284.964	4998.84
289.053	9455.45
293.14	15720.8
297.225	14123.8
301.308	9977.56
305.389	8372.97
309.468	5351.93
313.545	2603.5
317.62	2073.68
321.693	3183.42
325.765	5836.86
329.834	4163.97
333.902	1579.91
337.967	618.938
342.031	424.894
346.093	347.64
350.153	546.431
354.21	737.539
358.267	939.324
362.321	1052.26
366.373	1060.05
370.423	651.412
374.471	288.484
378.518	25.403
382.563	2.402
386.605	20.397
390.646	132.151
394.685	37.763
398.722	112.863
402.757	19.652
406.79	88.991
410.821	112.874
414.851	677.464
418.878	1744.83
422.904	5047.93
426.927	9373.77
430.949	6061.33
434.969	2513.6
438.987	1099.59
443.003	636.281
447.018	618.69
451.03	879.819
455.041	1149.67
459.049	607.25
463.056	271.56
467.061	259.606
471.064	311.403
475.065	553.973
479.064	533.322
483.062	409.462
487.057	279.397
491.051	150.164
495.043	77.84
499.032	137.344
503.02	64.829
507.007	97.451
510.991	229.245
514.973	276.155
518.954	458.173
522.933	828.344
526.91	1088.66
530.885	1653
534.858	2710.34
538.829	4414.73
542.799	7938.16
546.766	16924.4
550.732	33774.9
554.696	44909.5
558.658	32554.9
562.618	19842.5
566.576	15375.8
570.533	16958.4
574.488	22516.8
578.44	23351.5
582.391	15006.2
586.341	8857.9
590.288	4765.62
594.233	3307.37
598.177	2349.13
602.119	1882.91
606.059	1645.72
609.997	1534.55
613.933	2073.41
617.868	2515.3
621.801	3211.23
625.731	2817.19
629.66	2003.48
633.588	1280.7
637.513	920.781
641.437	1014.98
645.358	1109.5
649.278	1348.32
653.196	1821.86
657.113	2898.6
661.027	5162.78
664.94	10446.9
668.851	18990.6
672.76	17327.3
676.667	8985.22
680.572	4489.95
684.476	2592.38
688.378	1838.95
692.278	1476.51
696.176	1500.61
700.072	1895.32
703.967	2484.13
707.86	3687.33
711.751	4948.93
715.64	4060.91
719.527	3836.41
723.413	4207.27
727.297	3081.27
731.179	1927.23
735.059	1401.12
738.937	1223.95
742.814	1289.7
746.689	1631.39
750.562	2329.01
754.433	1955.55
758.303	1039.01
762.17	708.404
766.036	409.719
769.901	245.955
773.763	166.114
777.624	141.196
781.482	60.202
785.339	188.1
789.195	83.904
793.048	69.634
796.9	90.282
800.75	3.156
804.598	133.771
808.445	37.74
812.289	139.977
816.132	142.877
819.973	125.426
823.813	95.044
827.65	105.141
831.486	73.886
835.32	113.349
839.152	47.42
842.983	96.813
846.812	84.522
850.639	80.744
854.464	456.869
858.288	320.921
862.11	258.897
865.93	235.794
869.748	240.607
873.564	217.332
877.379	387.964
881.192	409.501
885.004	472.942
888.813	670.292
892.621	1042.55
896.427	1600.72
900.232	1613.81
904.034	1135.81
907.835	1100.73
911.634	1081.58
915.432	1224.39
919.227	1581.16
923.021	1470.94
926.813	1066.79
930.604	967.75
934.393	1045.6
938.18	1041.74
941.965	1110.79
945.749	1152.21
949.53	1419.12
953.311	1648.15
957.089	2132.47
960.866	3080.86
964.641	5573.06
968.414	12759.2
972.185	23141.2
975.955	15294
979.723	7252.53
983.49	3845.43
987.254	2798.14
991.017	2779.8
994.779	3374.13
998.538	4578.79
1002.3	7365.76
1006.05	13901.7
1009.81	26075.8
1013.56	21934
1017.31	11082.4
1021.06	5886.76
1024.81	3241.23
1028.55	2211.76
1032.3	1381.37
1036.04	1070.05
1039.78	942.802
1043.52	886.629
1047.26	688.548
1050.99	778.566
1054.73	599.675
1058.46	683.903
1062.19	728.912
1065.92	673.025
1069.65	629.369
1073.37	672.651
1077.1	558.212
1080.82	486.038
1084.54	344.982
1088.26	378.545
1091.97	385.545
1095.69	422.488
1099.4	685.924
1103.12	1088.16
1106.83	1712.17
1110.54	1867.42
1114.24	1346.95
1117.95	596.255
1121.65	665.767
1125.35	342.069
1129.06	247.634
1132.75	158.688
1136.45	36.59
1140.15	130.053
1143.84	221.085
1147.53	289.126
1151.22	196.587
1154.91	220.539
1158.6	255.646
1162.28	357.198
1165.97	391.023
1169.65	527.392
1173.33	747.49
1177.01	1139.57
1180.69	1933.52
1184.36	2487.84
1188.04	1633.56
1191.71	886.37
1195.38	461.461
1199.05	309.29
1202.71	190.837
1206.38	87.01
1210.04	50.357
1213.71	52.648
1217.37	86.284
1221.03	56.387
1224.68	12.26
1228.34	98.672
1231.99	144.754
1235.65	27.354
1239.3	59.818
1242.95	12.289
1246.59	11.744
1250.24	37.354
1253.88	49.238
1257.53	77.669
1261.17	2.71
1264.81	80.284
1268.45	208.31
1272.08	363.688
1275.72	338.966
1279.35	236.043
1282.98	72.901
1286.61	148.512
1290.24	161.761
1293.87	60.567
1297.49	83.019
1301.11	83.143
1304.73	120.972
1308.36	50.543
1311.97	156.862
1315.59	274.947
1319.2	213.808
1322.82	217.438
1326.43	359.839
1330.04	208.014
1333.65	118.966
1337.26	79.694
1340.86	127.199
1344.47	154.499
1348.07	2.616
1351.67	93.518
1355.27	61.423
1358.87	100.118
1362.46	68.785
1366.06	184.266
1369.65	124.567
1373.24	246.756
1376.83	325.563
1380.42	1471.83
1384	4019.37
1387.59	930.231
1391.17	353.371
1394.75	257.47
1398.33	365.522
1401.91	353.757
1405.49	271.181
1409.06	267.271
1412.64	172.189
1416.21	202.905
1419.78	90.385
1423.35	195.507
1426.91	172.492
1430.48	245.945
1434.05	354.755
1437.61	273.92
1441.17	476.559
1444.73	630.72
1448.29	630.734
1451.84	715.724
1455.4	584.877
1458.95	727.79
1462.5	695.25
1466.05	521.427
1469.6	454.391
1473.15	558.149
1476.69	219.897
1480.24	512.733
1483.78	529.883
1487.32	595.953
1490.86	218.78
1494.39	259.584
1497.93	251.757
1501.46	43.121
1505	99.274
1508.53	66.699
1512.06	180.645
1515.59	174.54
1519.11	25.657
