Measurement: Raman, 514 nm, depolarized, Raman Data Processed
Mineral: Cordierite
Rruff sample: R040084
Ideal chemistry: Mg_2_Al_3_(AlSi_5_)O_18_
Locality: Norway
Source: University of Arizona Mineral Museum
Description: Purple coarsely crystalline massive
Measured chemistry: (Mg_1.88_Fe^2+^_0.11_Ca_0.01_)_Σ=2_(Al_3.95_Fe^3+^_0.05_)_Σ=4_(Si_4.96_Al_0.04_)_Σ=5_O_18_·0.90H_2_O·Na_0.04_ ; H_2_O estimated by difference and verified by Raman spectroscopy
Pin_id: L00443
Orientation: Laser parallel to a* (1 0 0). Fiducial mark perpendicular to laser is parallel to -b [0 -1 0]
Raman shift (cm-1)	intensity
90.65	0
94.838	45.402
99.023	76.332
103.206	93.957
107.387	881.495
111.566	3575.63
115.744	2810.32
119.919	3110.09
124.092	4031.14
128.263	4111.93
132.432	2476.15
136.599	1279.5
140.764	762.438
144.927	706.573
149.088	790.608
153.247	1878.32
157.404	2590.11
161.559	1784.24
165.711	660.715
169.862	287.596
174.011	166.612
178.158	65.403
182.303	110.527
186.446	217.332
190.587	376.22
194.726	472.918
198.862	359.415
202.997	574.724
207.13	890.849
211.261	500.748
215.39	190.412
219.517	29.161
223.642	180.967
227.765	12.001
231.886	395.72
236.005	1757.19
240.122	2719.23
244.237	1850.11
248.35	1488.38
252.461	2796.82
256.57	7733.35
260.677	11259.8
264.782	5166.35
268.885	1821.64
272.986	790.891
277.085	554.63
281.182	557.026
285.278	665.913
289.371	1320.06
293.462	2353.89
297.552	2534.71
301.639	2580.48
305.724	3058.18
309.808	2105.79
313.889	619.287
317.969	164.659
322.046	507.603
326.122	1279.85
330.196	834.003
334.267	365.025
338.337	245.856
342.405	212.463
346.471	208.854
350.535	455.111
354.597	703.469
358.657	990.553
362.715	1648.1
366.771	2286.44
370.825	1412.57
374.877	559.508
378.928	211.243
382.976	138.53
387.023	78.818
391.067	21.159
395.11	112.388
399.15	118.032
403.189	102.161
407.226	96.028
411.261	88.973
415.294	106.18
419.325	45.634
423.354	315.087
427.381	737.411
431.406	510.593
435.43	215.617
439.451	176.462
443.471	28.066
447.488	112.332
451.504	190.366
455.518	345.211
459.53	250.871
463.54	369.346
467.548	676.637
471.554	912.738
475.558	952.651
479.561	994.377
483.561	1041.92
487.559	1745.3
491.556	1658.56
495.551	894.675
499.544	396.708
503.535	198.733
507.524	162.699
511.511	121.666
515.496	116.665
519.48	219.655
523.461	313.643
527.441	428.695
531.418	608.72
535.394	1032.66
539.368	1636.57
543.34	2921.28
547.311	5815.49
551.279	12025.5
555.245	17574.2
559.21	13234.5
563.173	8787.98
567.133	7262.76
571.092	8309.2
575.049	12354.2
579.005	14196
582.958	9861.28
586.909	5137.34
590.859	2793.35
594.807	1929.32
598.753	1274.39
602.697	958.401
606.639	751.48
610.579	668.3
614.518	762.223
618.454	1175.46
622.389	1351.62
626.322	1257.33
630.253	844.934
634.182	564.52
638.109	393.065
642.035	298.724
645.958	359.51
649.88	437.315
653.8	748.857
657.718	1291.1
661.634	2058.95
665.549	4331.09
669.461	8192.07
673.372	8643.77
677.281	4886.05
681.188	2464.47
685.093	1495.52
688.997	1094.59
692.898	820.037
696.798	710.44
700.696	650.345
704.592	868.755
708.486	1254.51
712.378	1629.31
716.269	1374.15
720.158	989.223
724.045	774.593
727.93	810.274
731.813	616.168
735.694	892.23
739.574	1018.27
743.452	734.22
747.328	440.086
751.202	505.867
755.075	361.57
758.945	226.237
762.814	115.891
766.681	48.459
770.546	19.934
774.409	45.313
778.271	66.431
782.131	121.777
785.989	80.875
789.845	101.886
793.699	84.811
797.552	35.65
801.402	36.322
805.251	31.14
809.098	35.79
812.944	35.146
816.787	20.877
820.629	77.741
824.469	42.852
828.307	29.548
832.144	38.359
835.978	146.714
839.811	24.393
843.642	105.276
847.472	65.898
851.299	23.717
855.125	36.514
858.949	126.672
862.771	36.745
866.591	136.736
870.41	176.672
874.227	116.555
878.042	226.378
881.855	306.143
885.667	275.846
889.476	455.487
893.284	625.069
897.09	1394.59
900.895	2194.06
904.698	1623.48
908.499	972.853
912.298	792.177
916.095	801.456
919.891	1090.44
923.685	989.339
927.477	678.084
931.267	616.818
935.056	605.921
938.843	614.987
942.628	544.162
946.411	1053.26
950.193	1572.14
953.973	1796.78
957.751	1582.93
961.527	2266.7
965.302	3836.08
969.075	8185.65
972.846	14722.5
976.615	8848.01
980.383	3713.76
984.149	2112.78
987.913	1242.09
991.675	1165.32
995.436	1351.03
999.195	1840.21
1002.95	3016.53
1006.71	6156.35
1010.46	12396.1
1014.21	10745.4
1017.96	5266.15
1021.71	2647.01
1025.46	1468
1029.2	839.105
1032.95	620.306
1036.69	381.716
1040.43	413.267
1044.17	414.927
1047.9	336.725
1051.64	438.682
1055.37	360.74
1059.1	262.9
1062.83	195.179
1066.56	127.574
1070.29	260.07
1074.01	278.161
1077.73	175.521
1081.46	118.358
1085.17	141.783
1088.89	14.751
1092.61	202.798
1096.32	146.948
1100.04	250.392
1103.75	454.57
1107.46	838.665
1111.16	982.646
1114.87	586.831
1118.57	261.193
1122.28	355.378
1125.98	229.837
1129.67	224.584
1133.37	160.64
1137.07	47.628
1140.76	15.876
1144.45	30.87
1148.14	80.207
1151.83	402.938
1155.52	440.145
1159.21	422.148
1162.89	619.216
1166.57	773.238
1170.25	893.131
1173.93	1341.08
1177.61	2587.68
1181.28	4770.13
1184.96	6291.94
1188.63	4819.38
1192.3	2579.61
1195.97	1250.98
1199.64	777.594
1203.3	443.247
1206.97	311.836
1210.63	228.097
1214.29	145.178
1217.95	201.441
1221.6	177.676
1225.26	105.927
1228.91	31.183
1232.57	176.215
1236.21	20.474
1239.86	114.722
1243.51	198.831
1247.16	122.779
1250.8	23.217
1254.44	30.511
1258.08	34.117
1261.72	97.559
1265.36	200.785
1268.99	424.118
1272.63	668.934
1276.26	481.105
1279.89	234.125
1283.52	12.156
1287.15	61.075
1290.77	10.194
1294.4	69.885
1298.02	118.907
1301.64	120.914
1305.26	169.99
1308.88	81.283
1312.49	197.073
1316.11	165.133
1319.72	102.971
1323.33	50.412
1326.94	38.436
1330.55	104.027
1334.15	10.21
1337.76	96.743
1341.36	222.234
1344.96	267.4
1348.56	192.471
1352.16	97.059
1355.75	11.368
1359.35	75.361
1362.94	149.143
1366.53	192.703
1370.12	236.003
1373.71	189.192
1377.3	412.562
1380.88	1508.06
1384.46	3396.99
1388.05	814.104
1391.63	182.787
1395.2	412.539
1398.78	230.197
1402.36	212.085
1405.93	394.417
1409.5	308.661
1413.07	290.329
1416.64	382.251
1420.21	356.863
1423.78	52.377
1427.34	207.007
1430.9	74.904
1434.46	143.08
1438.02	7.857
1441.58	168.732
1445.13	348.606
1448.69	494.085
1452.24	451.057
1455.79	456.988
1459.34	361.707
1462.89	395.187
1466.44	257.449
1469.98	384.963
1473.53	138.88
1477.07	17.362
1480.61	203.57
1484.14	116.635
1487.68	370.823
1491.22	324.313
1494.75	308.779
1498.28	390.936
1501.81	358.65
1505.34	316.291
1508.87	108.528
1512.4	177.038
1515.92	1.846
