Measurement: Raman, 514 nm, depolarized, Raman Data Processed
Mineral: Cordierite
Rruff sample: R040082
Ideal chemistry: Mg_2_Al_3_(AlSi_5_)O_18_
Locality: Madagascar
Source: University of Arizona Mineral Museum
Description: Dark gray coarsely crystalline massive
Measured chemistry: (Mg_1.60_Fe^2+^_0.39_Mn_0.01_)_Σ=2_Al_4.00_(Si_4.95_Al_0.05_)_Σ=5_O_18_·1.05H_2_O·Na_0.05_ ; H_2_O estimated by difference and verified by Raman spectroscopy
Pin_id: M00024
Orientation: Laser parallel to -b* (0 -1 0). Fiducial mark perpendicular to laser is parallel to -a [-1 0 0]
Raman shift (cm-1)	intensity
98.947	0
103.124	5.942
107.3	910.091
111.473	1768.32
115.644	6794.75
119.813	7498.51
123.981	4541.78
128.146	2372.57
132.309	591.58
136.47	11.569
140.63	171.468
144.787	546.033
148.942	1725.98
153.096	4266.24
157.247	5066.76
161.396	2558.8
165.544	742.976
169.689	215.884
173.833	241.102
177.974	334.806
182.114	488.82
186.251	540.009
190.387	537.414
194.52	324.107
198.652	234.849
202.782	323.465
206.909	263.853
211.035	23.955
215.159	208.443
219.281	97.755
223.4	71.785
227.518	426.86
231.634	1523.24
235.748	3136.49
239.86	3749.91
243.97	3573.96
248.079	4990.07
252.185	9813.88
256.289	17156.7
260.391	16682.4
264.492	7211.3
268.59	3193.93
272.687	2131.69
276.781	2408.88
280.874	3387.3
284.964	4715.06
289.053	7946.73
293.14	11095.1
297.225	10404.8
301.308	9157.1
305.389	8404.1
309.468	5006.99
313.545	2284.56
317.62	1591.74
321.693	2676.77
325.765	4692.94
329.834	3435.79
333.902	1559.45
337.967	805.127
342.031	651.817
346.093	685.422
350.153	797.438
354.21	736.092
358.267	806.664
362.321	1081.61
366.373	1255.87
370.423	701.469
374.471	426.512
378.518	3.532
382.563	27.51
386.605	14.003
390.646	94.771
394.685	59.218
398.722	145.684
402.757	181.561
406.79	244.617
410.821	51.289
414.851	508.355
418.878	1498.64
422.904	3666.28
426.927	5008.6
430.949	2817.31
434.969	1248.36
438.987	623.748
443.003	469.457
447.018	612.474
451.03	1389.86
455.041	1143.64
459.049	797.938
463.056	639.51
467.061	926.653
471.064	1050.29
475.065	1198.47
479.064	1248.61
483.062	1370.54
487.057	1546.71
491.051	1246.31
495.043	624.917
499.032	470.787
503.02	229.353
507.007	355.585
510.991	349.356
514.973	377.597
518.954	561.414
522.933	950.937
526.91	1382.71
530.885	1962.41
534.858	3099.84
538.829	5313.01
542.799	9475.47
546.766	19838.3
550.732	38374
554.696	45214.9
558.658	30353.7
562.618	20187.9
566.576	16869.3
570.533	20503.5
574.488	27210.5
578.44	26265.9
582.391	16585.6
586.341	9319.24
590.288	5570.95
594.233	3880.7
598.177	3004.41
602.119	2335.5
606.059	2330.31
609.997	2490.3
613.933	3174.43
617.868	3824.6
621.801	3897.47
625.731	3051.83
629.66	2085.6
633.588	1248.74
637.513	902.905
641.437	1335.05
645.358	1348.43
649.278	1677.88
653.196	2233.8
657.113	3237.82
661.027	5767.24
664.94	11638
668.851	18731.6
672.76	15018.3
676.667	7540.67
680.572	3616.33
684.476	2264.01
688.378	1542.07
692.278	1001.24
696.176	1083.61
700.072	1408.43
703.967	2082.81
707.86	3069.64
711.751	4172.97
715.64	3138.82
719.527	2912.48
723.413	3015.92
727.297	1860.89
731.179	1439.04
735.059	1408.25
738.937	1295.5
742.814	1403.78
746.689	1524.1
750.562	1583.46
754.433	1107.85
758.303	455.297
762.17	320.799
766.036	196.332
769.901	101.89
773.763	15.525
777.624	169.062
781.482	12.318
785.339	13.306
789.195	24.125
793.048	32.386
796.9	100.886
800.75	106.773
804.598	138.764
808.445	54.102
812.289	158.595
816.132	183.529
819.973	210.262
823.813	183.987
827.65	52.544
831.486	190.566
835.32	28.221
839.152	69.794
842.983	189.841
846.812	252.979
850.639	515.148
854.464	743.342
858.288	1059.56
862.11	939.791
865.93	722.038
869.748	726.293
873.564	687.547
877.379	892.794
881.192	870.029
885.004	900.249
888.813	1272.8
892.621	1845.65
896.427	2457.83
900.232	3090.01
904.034	2433.18
907.835	1743.35
911.634	1775.55
915.432	1635.8
919.227	1617.13
923.021	1568.48
926.813	1425.54
930.604	1555.47
934.393	1592.95
938.18	1705.3
941.965	1923.14
945.749	2507.69
949.53	3301.94
953.311	3790.41
957.089	4106.51
960.866	5497.52
964.641	9473.84
968.414	18920.7
972.185	25406.2
975.955	14468.7
979.723	6862.18
983.49	4111.41
987.254	3450.19
991.017	3578.77
994.779	4614.9
998.538	6266.84
1002.3	10936.9
1006.05	19524.2
1009.81	33154.6
1013.56	24524.2
1017.31	11782
1021.06	6106.94
1024.81	3436.05
1028.55	2371.33
1032.3	1507.79
1036.04	1067.41
1039.78	901.199
1043.52	777.153
1047.26	508.369
1050.99	511.775
1054.73	350.431
1058.46	508.31
1062.19	375.982
1065.92	272.537
1069.65	434.062
1073.37	396.895
1077.1	426.408
1080.82	707.082
1084.54	511.412
1088.26	505.012
1091.97	433.657
1095.69	325.456
1099.4	819.352
1103.12	1429.43
1106.83	2222.84
1110.54	2148.83
1114.24	1322.71
1117.95	768.061
1121.65	773.863
1125.35	359.192
1129.06	256.953
1132.75	90.973
1136.45	47.614
1140.15	38.889
1143.84	111.7
1147.53	27.39
1151.22	73.24
1154.91	158.248
1158.6	385.665
1162.28	538.253
1165.97	519.725
1169.65	915.344
1173.33	1375.1
1177.01	2381.84
1180.69	4067.44
1184.36	4342.43
1188.04	2793.39
1191.71	1758.79
1195.38	846.53
1199.05	467.062
1202.71	126.484
1206.38	202.076
1210.04	14.919
1213.71	89.425
1217.37	391.451
1221.03	138.935
1224.68	45.35
1228.34	67.842
1231.99	127.502
1235.65	23.422
1239.3	180.437
1242.95	129.863
1246.59	177.755
1250.24	109.22
1253.88	50.244
1257.53	117.509
1261.17	246.594
1264.81	32.067
1268.45	430.455
1272.08	436.938
1275.72	421.907
1279.35	289.062
1282.98	206.697
1286.61	208.998
1290.24	306.232
1293.87	260.507
1297.49	444.789
1301.11	327.072
1304.73	147.347
1308.36	372.631
1311.97	629.834
1315.59	625.771
1319.2	601.028
1322.82	604.222
1326.43	502.397
1330.04	304.154
1333.65	110.664
1337.26	43.071
1340.86	84.449
1344.47	44.069
1348.07	25.676
1351.67	108.246
1355.27	0.162
1358.87	7.927
1362.46	75.4
1366.06	124.441
1369.65	151.688
1373.24	338.802
1376.83	304.51
1380.42	769.714
1384	1458.63
1387.59	571.865
1391.17	304.308
1394.75	78.318
1398.33	103.858
1401.91	195.752
1405.49	169.949
1409.06	261.583
1412.64	61.174
1416.21	94.104
1419.78	78.235
1423.35	221.084
1426.91	0
