Measurement: Raman, 514 nm, depolarized, Raman Data Processed
Mineral: Cordierite
Rruff sample: R040082
Ideal chemistry: Mg_2_Al_3_(AlSi_5_)O_18_
Locality: Madagascar
Source: University of Arizona Mineral Museum
Description: Dark gray coarsely crystalline massive
Measured chemistry: (Mg_1.60_Fe^2+^_0.39_Mn_0.01_)_Σ=2_Al_4.00_(Si_4.95_Al_0.05_)_Σ=5_O_18_·1.05H_2_O·Na_0.05_ ; H_2_O estimated by difference and verified by Raman spectroscopy
Pin_id: M00022
Orientation: Laser parallel to a* (1 0 0). Fiducial mark perpendicular to laser is parallel to b [0 1 0]
Raman shift (cm-1)	intensity
97.554	0
101.732	20.693
105.908	769.153
110.082	1403.04
114.254	4229.29
118.424	8271.7
122.592	8245.22
126.758	6647.33
130.922	3070.47
135.083	1136.05
139.243	914.411
143.401	627.725
147.557	1695.64
151.711	2474.54
155.863	4952.67
160.013	3500.99
164.161	1238.94
168.308	296.75
172.452	28.021
176.594	29.696
180.734	26.396
184.872	282.702
189.008	315.211
193.143	573.988
197.275	894.722
201.405	1463.16
205.534	2084.93
209.66	1522.78
213.784	282.708
217.907	60.37
222.027	110.765
226.146	246.375
230.263	1055.64
234.377	2668.33
238.49	4793.9
242.601	4158.58
246.709	4182.29
250.816	7228.1
254.921	14568.5
259.024	23179.5
263.125	12235.8
267.224	4827.84
271.321	2460.14
275.416	1924.1
279.51	1796.96
283.601	1987.46
287.69	2941.17
291.778	4714.39
295.863	5580.29
299.947	5360.51
304.029	5894.63
308.108	4657.83
312.186	1408.41
316.262	261.621
320.336	516.397
324.408	1812.79
328.478	2300.61
332.546	1102.24
336.612	692.937
340.677	310.803
344.739	249.498
348.799	353.855
352.858	510.926
356.915	701.534
360.969	1524.18
365.022	3146.52
369.073	2317.62
373.122	932.41
377.169	490.567
381.215	176.066
385.258	216.004
389.299	55.961
393.339	190.428
397.376	135.607
401.412	19.364
405.446	40.68
409.478	353.575
413.508	564.855
417.536	879.709
421.562	1423.55
425.586	2447.36
429.609	2066.91
433.629	1349.19
437.648	969.178
441.665	532.879
445.68	663.315
449.693	1029.51
453.704	1432.48
457.713	1645.24
461.721	1938.83
465.726	2368.27
469.73	2916.61
473.731	2593.87
477.731	2774.29
481.729	2914.44
485.725	3741.48
489.72	3508.51
493.712	1900.58
497.703	670.834
501.691	224.281
505.678	32.341
509.663	68.938
513.646	109.239
517.627	117.974
521.607	214.711
525.584	498.939
529.56	1050.53
533.534	1793.36
537.506	3144.02
541.476	5681.91
545.444	10998.8
549.41	22921.6
553.375	35557.5
557.337	29702.9
561.298	20106
565.257	15992.9
569.214	17149.4
573.17	24420.6
577.123	29125.2
581.075	21343.9
585.024	11534.7
588.972	6616.65
592.918	3947.68
596.863	2632.81
600.805	1858.06
604.746	1543.27
608.685	1600.13
612.621	1852.47
616.557	2417.16
620.49	2343.97
624.421	2044.88
628.351	1105.89
632.279	677.02
636.205	624.261
640.129	492.822
644.051	404.561
647.972	590.032
651.89	1015.75
655.807	1725.07
659.722	3323.97
663.636	7581.47
667.547	13814.2
671.457	15403.1
675.365	9055.06
679.271	4789.5
683.175	3156.12
687.077	2486.27
690.978	2228.26
694.877	2208.39
698.774	2572.91
702.669	2888.46
706.562	3870.9
710.454	4428.33
714.344	4292.12
718.232	3399.04
722.118	2880.05
726.002	2542.96
729.885	2325.7
733.766	2622.27
737.645	2768.65
741.522	2308.84
745.397	1829.84
749.271	1603.65
753.143	1351.26
757.013	1164.66
760.881	776.851
764.748	378.834
768.613	392.6
772.476	360.148
776.337	298.474
780.196	316.573
784.054	346.447
787.91	419.09
791.764	462.501
795.616	194.675
799.467	242.593
803.316	152.218
807.163	29.488
811.008	10.763
814.851	100.823
818.693	196.967
822.533	177.602
826.371	48.641
830.208	80.791
834.042	162.166
837.875	90.651
841.706	13.055
845.536	48.028
849.363	51.543
853.189	38.815
857.013	96.829
860.836	280.61
864.656	279.91
868.475	474.504
872.292	431.614
876.108	455.501
879.922	687.17
883.733	764.623
887.544	1107.87
891.352	1772.92
895.159	2645.75
898.964	4121.41
902.767	4443.87
906.568	2994.16
910.368	2156.27
914.166	2245.2
917.962	2467.97
921.757	2511.59
925.55	2047.04
929.341	1716.42
933.13	1732.7
936.918	1962.94
940.703	2111.15
944.488	2548.27
948.27	3545.07
952.051	4514
955.83	4552.98
959.607	5743.1
963.383	9175.05
967.156	15973.8
970.928	27086.5
974.699	20091.1
978.468	9017.54
982.234	5106.02
986	3557.08
989.763	3138.71
993.525	3485.45
997.285	4426.35
1001.04	6200.81
1004.8	11329.2
1008.55	23130.1
1012.31	24624.9
1016.06	12976.9
1019.81	6341.97
1023.56	3577.32
1027.31	2396.87
1031.05	1589.64
1034.79	1306.65
1038.53	1190.91
1042.27	1590.38
1046.01	1465.04
1049.75	654.925
1053.48	800.979
1057.22	781.175
1060.95	924.511
1064.68	814.996
1068.4	696.628
1072.13	628.697
1075.86	590.163
1079.58	680.04
1083.3	716.505
1087.02	665.11
1090.74	677.368
1094.45	774.377
1098.17	996.25
1101.88	1526.83
1105.59	2296.66
1109.3	2658.65
1113.01	1991.41
1116.71	1304.05
1120.42	1119.75
1124.12	1646.98
1127.82	753.692
1131.52	648.442
1135.22	401.965
1138.91	362.668
1142.61	272.713
1146.3	344.228
1149.99	448.322
1153.68	537.976
1157.37	781.677
1161.06	1080.38
1164.74	1543.88
1168.42	1779.42
1172.1	2686.83
1175.78	4932.71
1179.46	8749.79
1183.14	12376.3
1186.81	9462.06
1190.48	5162.4
1194.15	2755.38
1197.83	1413.64
1201.49	990.457
1205.16	539.062
1208.82	324.399
1212.49	226.787
1216.15	57.384
1219.81	16.339
1223.46	70.775
1227.12	109.484
1230.78	58.134
1234.43	52.222
1238.08	16.24
1241.73	52.454
1245.38	48.131
1249.03	13.981
1252.67	23.672
1256.31	165.301
1259.95	94.95
1263.6	0.173
1267.23	26.964
1270.87	198.904
1274.51	71.412
1278.14	200.324
1281.77	68.548
1285.4	11.055
1289.03	53.531
1292.66	108.545
1296.28	375.086
1299.91	178.156
1303.53	121.75
1307.15	134.863
1310.77	56.484
1314.38	153.57
1318	18.068
1321.61	57.984
1325.23	217.359
1328.84	30.139
1332.45	4.67
1336.06	40.986
1339.66	58.146
1343.27	93.803
1346.87	410.016
1350.47	343.816
1354.07	483.205
1357.67	295.24
1361.26	178.723
1364.86	219.324
1368.45	479.502
1372.04	445.715
1375.63	423.564
1379.22	598.674
1382.81	1372.06
1386.39	883.674
1389.98	413.098
1393.56	336.064
1397.14	246.564
1400.72	331.826
1404.3	328.125
1407.87	238.725
1411.45	390.654
1415.02	369.584
1418.59	453.33
1422.16	375
1425.73	467.594
1429.29	307.502
1432.86	535.201
1436.42	681.869
1439.98	804.465
1443.54	871.379
1447.1	719.254
1450.66	720.525
1454.21	840.924
1457.77	804.303
1461.32	611.859
1464.87	480.824
1468.42	562.465
1471.96	491.736
1475.51	205.824
1479.06	328.5
1482.6	274.494
1486.14	131.721
1489.68	240.336
1493.22	101.621
1496.75	74.057
1500.29	108.9
1503.82	26.049
1507.35	15.941
1510.88	175.104
1514.41	5.088
1517.94	0.029
