Measurement: Raman, 514 nm, depolarized, Raman Data Processed
Mineral: Cordierite
Rruff sample: R040084
Ideal chemistry: Mg_2_Al_3_(AlSi_5_)O_18_
Locality: Norway
Source: University of Arizona Mineral Museum
Description: Purple coarsely crystalline massive
Measured chemistry: (Mg_1.88_Fe^2+^_0.11_Ca_0.01_)_Σ=2_(Al_3.95_Fe^3+^_0.05_)_Σ=4_(Si_4.96_Al_0.04_)_Σ=5_O_18_·0.90H_2_O·Na_0.04_ ; H_2_O estimated by difference and verified by Raman spectroscopy
Pin_id: L00196
Orientation: Laser parallel to -c* (0 0 -1). Fiducial mark perpendicular to laser is parallel to a [1 0 0]
Raman shift (cm-1)	intensity
100.817	0
105.017	238.361
109.215	692.309
113.412	997.511
117.605	2213.66
121.797	2295.22
125.987	2003.68
130.174	938.467
134.359	334.33
138.542	226.745
142.723	204.812
146.902	402.551
151.078	726.706
155.252	1153.18
159.424	662.543
163.594	263.69
167.762	4.585
171.928	162.637
176.091	20.487
180.253	7.895
184.412	45.007
188.569	137.77
192.724	320.76
196.877	354.074
201.027	247.674
205.176	321.521
209.322	451.621
213.466	371.653
217.608	126.865
221.748	128.699
225.886	102.663
230.022	445.733
234.155	1359.05
238.286	2162.39
242.416	1085.68
246.543	879.017
250.668	1092.67
254.79	2960.57
258.911	5348.59
263.03	1861.21
267.146	582.221
271.261	513.981
275.373	378.141
279.483	223.455
283.591	183.807
287.697	325.482
291.801	502.166
295.902	457.933
300.002	224.249
304.099	320.42
308.195	155.624
312.288	9.659
316.379	3.46
320.468	177.204
324.555	300.93
328.64	44.815
332.722	68.726
336.803	63.857
340.882	1.111
344.958	88.381
349.032	429.703
353.105	711.145
357.175	677.969
361.243	1831.59
365.309	3085.05
369.373	1278.08
373.435	350.506
377.494	242.648
381.552	124.697
385.608	166.485
389.661	78.062
393.713	79.549
397.762	150.938
401.81	32.233
405.855	6.589
409.898	25.553
413.939	35.325
417.978	256.062
422.015	386.629
426.05	747.078
430.083	457.439
434.114	227.734
438.143	167.921
442.169	157.978
446.194	117.889
450.217	67.647
454.237	117.254
458.256	106.732
462.272	76.054
466.286	65.2
470.299	114.228
474.309	363.819
478.317	435.582
482.324	258.609
486.328	277.297
490.33	55.833
494.33	67.386
498.328	12.703
502.324	25.077
506.318	18.464
510.31	11.202
514.3	65.825
518.288	132.602
522.274	119.329
526.258	186.003
530.24	272.596
534.22	459.108
538.198	725.614
542.174	902.101
546.148	1858.53
550.119	3494.76
554.089	5000.52
558.057	4236.6
562.023	3561.67
565.986	3153.96
569.948	3755.81
573.908	5760.52
577.866	6476.34
581.822	4022.61
585.775	2217.91
589.727	1413.08
593.677	938.164
597.625	603.33
601.57	448
605.514	352.367
609.456	357.525
613.396	434.152
617.333	418.365
621.269	431.881
625.203	505.49
629.135	259.004
633.065	288.088
636.993	214.67
640.918	171.557
644.842	244.541
648.764	205.105
652.684	338.098
656.602	422.404
660.518	705.67
664.432	1670.46
668.344	2799.2
672.255	2352.09
676.163	1279.71
680.069	734.355
683.973	784.309
687.875	812.338
691.776	594.549
695.674	542.74
699.57	752.727
703.465	1054.49
707.357	1128.37
711.248	1020.86
715.136	712.938
719.023	498.561
722.907	672.715
726.79	465.197
730.671	156.223
734.55	116.33
738.426	317.025
742.301	466.99
746.174	306.229
750.045	195.273
753.915	264.119
757.782	262.775
761.647	101.242
765.51	349.496
769.372	407.512
773.231	125.305
777.088	52.904
780.944	200.309
784.798	17.521
788.649	104.451
792.499	111.111
796.347	52.43
800.193	33.744
804.037	60.307
807.879	225.322
811.719	250.879
815.558	146.373
819.394	48.193
823.228	267.051
827.061	87.855
830.891	136.84
834.72	98.764
838.547	105.211
842.372	28.938
846.195	112.338
850.016	275.338
853.835	277.918
857.652	30.246
861.468	12.35
865.281	14.236
869.093	185.928
872.903	97.377
876.71	58.553
880.516	78.682
884.32	119.998
888.122	60.178
891.923	220.211
895.721	300.498
899.517	340.643
903.312	390.494
907.105	430.174
910.896	579.844
914.684	908.832
918.472	1327.42
922.257	893.738
926.04	402.33
929.821	370.699
933.601	589.17
937.379	616.938
941.154	612.234
944.928	1025.33
948.7	1229.77
952.471	996.672
956.239	958.768
960.005	1046.34
963.77	1994.63
967.533	4542.47
971.294	6725.03
975.053	3349.4
978.81	1199.41
982.565	863.135
986.319	771.658
990.07	442.08
993.82	483.588
997.568	311.904
1001.31	263.961
1005.06	463.506
1008.8	790.424
1012.54	845.645
1016.28	792.312
1020.02	419.98
1023.75	462.846
1027.48	197.277
1031.22	173.494
1034.94	401.104
1038.67	289.006
1042.4	476.85
1046.12	494.678
1049.85	272.998
1053.57	331.252
1057.28	429.961
1061	437.547
1064.71	305.568
1068.43	234.314
1072.14	492.188
1075.85	159.996
1079.56	227.836
1083.26	46.1
1086.97	63.877
1090.67	291.752
1094.37	40.008
1098.07	74.871
1101.76	143.035
1105.46	651.469
1109.15	549.492
1112.84	687.551
1116.53	415.754
1120.22	393.93
1123.9	282.215
1127.59	149.416
1131.27	30.398
1134.95	59.793
1138.63	157.006
1142.31	247.797
1145.98	182.945
1149.65	321.916
1153.33	583.072
1156.99	389.695
1160.66	613.699
1164.33	758.236
1167.99	1049.28
1171.66	1888.33
1175.32	2840.3
1178.97	4510.52
1182.63	5279.23
1186.29	3487.13
1189.94	2024.18
1193.59	1250.24
1197.24	915.143
1200.89	718.859
1204.54	401.654
1208.18	413.541
1211.82	444.66
1215.46	375.285
1219.1	286.076
1222.74	524.418
1226.38	115.684
1230.01	525.627
1233.64	415.672
1237.27	387.332
1240.9	299.193
1244.53	180.785
1248.15	113.238
1251.78	348.938
1255.4	639.283
1259.02	209.721
1262.64	830.104
1266.25	940.141
1269.87	519.787
1273.48	129.252
1277.09	38.748
1280.7	131.551
1284.31	368.576
1287.91	159.389
1291.52	259.52
1295.12	341.908
1298.72	233.924
1302.32	326.408
1305.92	7.734
1309.51	84.305
1313.11	72.359
1316.7	141.641
1320.29	204.533
1323.88	299.076
1327.46	445.656
1331.05	685.018
1334.63	548.547
1338.21	489.822
1341.79	375.59
1345.37	398.193
1348.95	12.736
1352.52	251.203
1356.09	587.145
1359.66	193.277
1363.23	0
