Measurement: Raman, 514 nm, depolarized, Raman Data Processed
Mineral: Corundum
Rruff sample: R040096
Ideal chemistry: Al_2_O_3_
Locality: Sri Lanka
Source: University of Arizona Mineral Museum
Description: Pale purple hexagonal prism
Measured chemistry: Al_2.00_O_3_
Pin_id: L01198
Orientation: Laser parallel to a* (1 0 0). Fiducial mark perpendicular to laser is parallel to c [0 0 1]
Raman shift (cm-1)	intensity
113.208	0
116.903	101.503
120.596	69.0752
124.288	82.6724
127.979	80.6157
131.668	239.151
135.356	206.664
139.043	112.538
142.728	42.2647
146.412	199.238
150.094	80.0386
153.775	146.356
157.455	85.4551
161.134	46.3023
164.811	51.9844
168.486	57.5864
172.161	119.058
175.834	176.699
179.505	178.023
183.176	135.264
186.845	212.089
190.512	14.7002
194.178	90.5332
197.843	103.834
201.507	152.424
205.169	61.8291
208.829	83.5254
212.489	123.452
216.147	111.895
219.803	199.759
223.459	177.949
227.112	164.985
230.765	161.946
234.416	168.902
238.066	137.836
241.714	48.5762
245.361	90.5205
249.007	146.407
252.651	82.3877
256.294	109.314
259.936	151.94
263.576	125.747
267.215	84.0625
270.852	74.2607
274.488	144.727
278.123	12.3872
281.756	5.57519
285.388	3.56934
289.019	18.4941
292.648	7.34082
296.276	33.9248
299.902	74.7481
303.527	51.3682
307.151	60.8916
310.773	23.1641
314.394	131.328
318.013	3.08203
321.631	51.6074
325.248	126.275
328.864	81.2734
332.478	93.8701
336.09	134.678
339.701	222.221
343.311	124.673
346.92	26.3584
350.527	28.0791
354.132	128.222
357.737	160.822
361.34	120.774
364.941	305.59
368.541	474.822
372.14	756.305
375.737	1788.07
379.333	1300.07
382.928	578.816
386.521	249.017
390.113	233.101
393.703	300.576
397.292	321.618
400.88	434.185
404.466	966.87
408.051	3203.92
411.634	6852.35
415.216	14707.9
418.797	8273.22
422.376	2092.07
425.954	1001.25
429.53	941.64
433.105	436.461
436.679	289.028
440.251	311.286
443.822	268.617
447.391	343.715
450.96	84.8838
454.526	80.7031
458.091	83.9619
461.655	109.423
465.218	75.9922
468.779	163.81
472.338	229.023
475.897	155.22
479.454	189.074
483.009	94.9639
486.563	78.9189
490.116	167.422
493.667	146.127
497.217	101.889
500.765	68.374
504.312	120.395
507.858	26.1895
511.402	73.417
514.945	212.415
518.486	120.88
522.026	168.315
525.565	65.0439
529.102	68.9805
532.638	221.269
536.172	118.561
539.705	89.3096
543.236	201.622
546.766	42.3721
550.295	227.993
553.822	138.705
557.348	48.5772
560.873	156.285
564.396	181.596
567.917	262.034
571.438	330.035
574.957	469.227
578.474	419.246
581.99	112.45
585.504	173.662
589.018	121.338
592.529	65.9844
596.04	102.016
599.549	212.945
603.056	219.415
606.562	182.935
610.067	101.383
613.57	201.834
617.072	289.517
620.572	325.884
624.071	333.404
627.569	403.059
631.065	636.318
634.56	1257.11
638.053	2558.92
641.545	4212.91
645.035	3998.24
648.524	2277.12
652.012	973.627
655.498	766.159
658.983	630.327
662.466	345.456
665.948	362.687
669.428	236.748
672.907	217.497
676.385	459.069
679.861	325.822
683.336	131.894
686.809	111.156
690.281	204.524
693.752	237.904
697.221	192.47
700.688	5.87891
704.155	93.0205
707.619	59.7822
711.083	11.0938
714.545	90.8311
718.005	184.55
721.464	307.065
724.922	51.3662
728.378	20.3672
731.833	382.573
735.286	148.464
738.738	516.525
742.189	536.689
745.638	913.264
749.085	1208.02
752.531	1130.16
755.976	675.65
759.419	412.088
762.861	411.688
766.302	230.418
769.741	67.3945
773.178	247.121
776.614	149.07
780.049	53.2852
783.482	83.0371
786.914	81.4629
790.345	228.379
793.773	181.022
797.201	178.148
800.627	231.195
804.052	214.484
807.475	131.424
810.897	85.0742
814.317	182.773
817.736	151.357
821.153	259.498
824.569	224.715
827.984	318.213
831.397	278.738
834.808	216.789
838.219	302.861
841.627	246.082
845.035	212.162
848.441	395.562
851.845	111.955
855.248	229.012
858.65	207.268
862.05	90.8809
865.448	199.857
868.846	260.24
872.241	234.014
875.636	288.065
879.029	135.482
882.42	144.641
885.81	35.9688
889.199	103.51
892.586	132.727
895.971	170.639
899.356	167.934
902.738	212.586
906.12	30.4648
909.5	71.8281
912.878	298.24
916.255	67.2461
919.63	327.637
923.004	121.389
926.377	131.32
929.748	209.002
933.118	192.217
936.486	187.938
939.853	160.17
943.218	227.518
946.582	166.225
949.945	273.088
953.306	10.9883
956.665	70.1309
960.023	144.32
963.38	42.3555
966.735	186.158
970.089	92.4551
973.441	337.078
976.792	253.121
980.141	129.148
983.489	248.514
986.836	176.539
990.181	177.918
993.524	77.0547
996.866	368.387
1000.21	241.139
1003.55	191.924
1006.88	122.16
1010.22	214.56
1013.55	207.361
1016.89	267.789
1020.22	305.562
1023.55	36.7344
1026.88	68.2383
1030.21	252.932
1033.53	238.725
1036.86	35.5293
1040.18	38.5137
1043.5	331.947
1046.82	118.527
1050.14	60.2695
1053.46	103.162
1056.78	42.0723
1060.09	62.0352
1063.4	322.027
1066.71	151.848
1070.02	282.031
1073.33	263.947
1076.64	193.916
1079.94	131.818
1083.25	2.33398
1086.55	476.805
1089.85	19.8457
1093.15	51.5078
1096.45	131.889
1099.75	17.0293
1103.04	62.3652
1106.34	117.447
1109.63	36.4004
1112.92	10.8203
1116.21	255.856
1119.5	217.055
1122.78	37.4297
1126.07	209.445
1129.35	173.912
1132.63	124.158
1135.92	57.582
1139.19	280.559
1142.47	38.7832
1145.75	278.502
1149.02	296.254
1152.3	304.041
1155.57	100.967
1158.84	42.6309
1162.11	165.688
1165.38	212.598
1168.64	338.121
1171.91	375.414
1175.17	128.246
1178.43	9.76172
1181.69	54.918
1184.95	175.394
1188.21	354.898
1191.46	195.293
1194.72	102.043
1197.97	194.324
1201.22	42.2695
1204.47	179.195
1207.72	258.527
1210.97	193.457
1214.21	176.492
1217.46	286.516
1220.7	212.066
1223.94	185.434
1227.18	255.93
1230.42	3.50781
1233.65	205.742
1236.89	313.434
1240.12	296.867
1243.35	335.856
1246.59	331.938
1249.81	605.047
1253.04	18.0547
1256.27	134.277
1259.49	115.078
1262.72	293.34
1265.94	494.527
1269.16	111.242
1272.38	145.367
1275.59	295.844
1278.81	392.469
1282.03	270.359
1285.24	27.3086
1288.45	174.887
1291.66	362.496
1294.87	98.4844
1298.08	110.242
