Measurement: Raman, 514 nm, depolarized, Raman Data Processed
Mineral: Corundum
Rruff sample: R040096
Ideal chemistry: Al_2_O_3_
Locality: Sri Lanka
Source: University of Arizona Mineral Museum
Description: Pale purple hexagonal prism
Measured chemistry: Al_2.00_O_3_
Pin_id: L01813
Orientation: Laser parallel to -c* (0 0 -1). Fiducial mark perpendicular to laser is parallel to a [1 0 0]
Raman shift (cm-1)	intensity
113.208	0
118.134	95.4316
123.058	254.512
127.979	133.381
132.898	197.462
137.814	385.585
142.728	251.66
147.639	315.174
152.549	382.559
157.455	270.5
162.359	386.271
167.261	277.449
172.161	251.268
177.058	358.866
181.952	337.752
186.845	381.557
191.734	365.173
196.622	370.628
201.507	610.698
206.389	275.475
211.269	192.857
216.147	99.2627
221.022	392.037
225.895	251.565
230.765	295.242
235.633	242.716
240.498	264.214
245.361	347.537
250.222	133.994
255.08	175.84
259.936	238.909
264.789	114.316
269.64	38.8809
274.488	135.505
279.334	95.9619
284.178	82.625
289.019	96.3574
293.857	95.0889
298.693	106.859
303.527	110.662
308.358	93.4766
313.187	58.29
318.013	137.332
322.837	6.03711
327.659	11.126
332.478	59.8652
337.294	180.259
342.108	108.032
346.92	100.023
351.729	42.2158
356.535	291.255
361.34	46.3115
366.141	318.353
370.94	802.544
375.737	1247.21
380.531	954.747
385.323	354.19
390.113	109.679
394.9	244.584
399.684	323.656
404.466	978.492
409.245	4413.72
414.022	5975.41
418.797	5414.17
423.569	1316.16
428.338	932.444
433.105	599.438
437.87	378.378
442.632	436.963
447.391	501.141
452.149	246.645
456.903	82.5693
461.655	137.052
466.405	132.28
471.152	107.727
475.897	209.417
480.639	92.9316
485.378	136.572
490.116	52.582
494.85	104.005
499.582	84.8438
504.312	83.5762
509.039	293.005
513.764	84.4141
518.486	152.723
523.206	134.923
527.923	132.471
532.638	20.2852
537.35	131.83
542.059	49.0645
546.766	125.766
551.471	216.478
556.173	179.775
560.873	120.856
565.57	432.215
570.264	913.93
574.957	1130.59
579.646	749.574
584.333	79.4434
589.018	100.311
593.7	127.756
598.379	139.363
603.056	28.6602
607.73	24.4297
612.402	21.2988
617.072	282.098
621.739	108.557
626.403	196.447
631.065	84.6523
635.724	241.264
640.381	160.789
645.035	262.594
649.687	173.822
654.336	110.666
658.983	182.242
663.627	185.947
668.268	99.4121
672.907	67.834
677.544	114.019
682.178	346.902
686.809	22.3828
691.438	98.4414
696.065	112.885
700.688	228.594
705.31	271.4
709.929	94.5957
714.545	151.471
719.158	404.783
723.77	274.891
728.378	363.176
732.984	832.709
737.588	1350.65
742.189	2223.63
746.787	2939.2
751.383	2638.48
755.976	1731.1
760.567	1038.36
765.155	574.221
769.741	473.221
774.324	338.391
778.904	500.488
783.482	102.719
788.058	99.1621
792.631	361.617
797.201	281.58
801.769	363.44
806.334	171.543
810.897	189.861
815.457	129.625
820.014	309.203
824.569	275.775
829.122	273.818
833.671	15.0156
838.219	159.393
842.763	144.379
847.306	34.2598
851.845	137.496
856.382	180.881
860.917	179.664
865.448	76.3398
869.978	128.223
874.505	356.137
879.029	77.5293
883.55	74.2559
888.069	123.018
892.586	19.6289
897.1	115.914
901.611	120.522
906.12	187.69
910.626	197.01
915.129	47.5195
919.63	150.594
924.129	20.7734
928.625	11.6914
933.118	353.922
937.609	272.281
942.097	210.768
946.582	66.3281
951.065	45.3828
955.546	244.562
960.023	147.406
964.499	60.6816
968.971	235.711
973.441	68.4512
977.909	268.102
982.374	167.625
986.836	365.539
991.295	206.363
995.753	459.49
1000.21	263.023
1004.66	341.209
1009.11	168.555
1013.55	284.947
1018	259.787
1022.44	202.283
1026.88	99.7344
1031.32	356.272
1035.75	217.711
1040.18	305.035
1044.61	249.582
1049.04	201.205
1053.46	208.75
1057.88	413.008
1062.3	407.185
1066.71	166.178
1071.13	474.469
1075.54	250.195
1079.94	92.6777
1084.35	381.65
1088.75	254.887
1093.15	85.4727
1097.55	328.121
1101.94	267.426
1106.34	302.953
1110.73	234.777
1115.11	83.8281
1119.5	339.891
1123.88	409.539
1128.26	145.133
1132.63	80.3711
1137.01	229.766
1141.38	312.062
1145.75	127.414
1150.12	357.219
1154.48	428.574
1158.84	278.035
1163.2	300.176
1167.55	215.504
1171.91	263.121
1176.26	287.199
1180.61	1.88281
1184.95	310.285
1189.29	349.168
1193.63	166.473
1197.97	140.781
1202.31	222.769
1206.64	403.781
1210.97	313.074
1215.29	229.754
1219.62	114.281
1223.94	464.707
1228.26	150.879
1232.57	304.426
1236.89	164.055
1241.2	79.9844
1245.51	474.191
1249.81	208.902
1254.12	273.371
1258.42	71.7109
1262.72	167.535
1267.01	279.269
1271.3	60.1055
1275.59	158.191
1279.88	419.852
1284.17	242.207
1288.45	87.8242
1292.73	321.25
1297.01	242.281
1301.28	199.379
1305.55	353.301
1309.82	275.07
1314.09	298.742
1318.35	440.434
1322.61	439.762
1326.87	469.031
1331.13	220.012
1335.38	464.613
1339.63	486.086
1343.88	366.656
1348.12	416.711
1352.37	441.258
1356.61	606.527
1360.85	374.957
1365.08	459.922
1369.31	245.391
1373.54	114.238
1377.77	234.465
1381.99	274.523
1386.22	359.102
1390.43	182.219
1394.65	17.168
1398.87	205.297
1403.08	217.141
1407.29	379.898
1411.49	324.41
1415.69	42.7109
1419.89	31.3203
1424.09	136.039
1428.29	172.832
1432.48	50.4844
1436.67	310.137
1440.86	234.312
1445.04	322.648
1449.23	233.094
1453.4	119.812
1457.58	114.059
1461.76	405.828
1465.93	121.215
1470.1	464.664
1474.26	241.543
1478.43	446.102
1482.59	430.797
1486.75	337.863
1490.9	818.102
1495.06	254.559
1499.21	370.769
1503.35	567.859
1507.5	548.102
1511.64	618.051
1515.78	494.695
1519.92	675.477
1524.05	350.387
1528.18	467.582
1532.31	367.731
1536.44	237.465
1540.56	425.102
1544.69	43.5547
1548.8	200.84
1552.92	655.473
1557.03	405.106
1561.14	97.3906
1565.25	477.035
1569.36	279.68
