Measurement: Raman, 514 nm, depolarized, Raman Data Processed
Mineral: Corundum
Rruff sample: R060020
Ideal chemistry: Al_2_O_3_
Locality: Yogo Gulch, Montana, USA
Source: American Museum of Natural History
Description: Water rounded light blue fragment
Measured chemistry: (Al_1.99_Fe^3+^_0.01_)_Î£=2_O_3_ ; Fe^3+^ by charge balance
Pin_id: L01955
Orientation: Laser parallel to c* (0 0 1). Fiducial mark perpendicular to laser is parallel to b [0 1 0]
Raman shift (cm-1)	intensity
179.505	269.246
184.399	204.116
189.29	286.809
194.178	788.455
199.064	495.138
203.948	520.864
208.829	124.12
213.708	15.1797
218.585	131.391
223.459	96.5039
228.33	74.5107
233.199	249.946
238.066	225.07
242.93	241.88
247.792	41.0713
252.651	65.4981
257.508	233.894
262.363	230.345
267.215	118.648
272.064	123.153
276.912	371.47
281.756	491.282
286.598	308.393
291.438	142.619
296.276	46.042
301.111	88.8144
305.943	50.9971
310.773	93.2744
315.601	63.5869
320.426	42.3828
325.248	27.1523
330.068	119.576
334.886	22.8584
339.701	110.644
344.514	55.3897
349.324	24.1787
354.132	135.637
358.938	125.756
363.741	281.919
368.541	230.819
373.339	645.683
378.135	1236.12
382.928	1064.23
387.718	1209.04
392.506	1411.55
397.292	1552.9
402.075	1342.6
406.856	1027.63
411.634	1963.47
416.41	4042.77
421.183	1824.66
425.954	646.219
430.722	502.225
435.488	411.608
440.251	303.49
445.012	306.277
449.77	447.501
454.526	291.779
459.28	269.254
464.03	106.727
468.779	161.74
473.525	2.57812
478.268	53.2852
483.009	233.977
487.747	339.366
492.483	207.642
497.217	313.812
501.948	301.562
506.676	506.383
511.402	991.836
516.125	980.929
520.846	874.667
525.565	668.051
530.281	412.179
534.994	308.904
539.705	213.4
544.413	20.1523
549.119	117.516
553.822	51.2539
558.523	101.744
563.222	183.596
567.917	115.838
572.611	351.877
577.302	497.293
581.99	364.885
586.676	53.3203
591.359	212.938
596.04	203.658
600.718	253.615
605.394	300.926
610.067	414.926
614.737	469.705
619.406	547.106
624.071	1082.93
628.734	1506.26
633.395	2183.29
638.053	2618.49
642.708	2160.64
647.361	1671.16
652.012	989.488
656.66	871.227
661.305	618.734
665.948	320.859
670.588	321.65
675.226	298.127
679.861	312.043
684.494	191.238
689.124	81.9336
693.752	1.0918
698.377	74.7246
702.999	22.0391
707.619	102.199
712.237	225.434
716.852	331.193
721.464	396.164
726.074	144.377
730.681	142.648
735.286	279.182
739.888	756.035
744.488	1248.27
749.085	1566.36
753.68	1308.45
758.272	896.979
762.861	569.439
767.448	501.389
772.033	356.391
776.614	327.6
781.194	362.088
785.77	348.15
790.345	520.594
794.916	431.022
799.485	565.711
804.052	450.685
808.616	578.297
813.177	649.234
817.736	402.074
822.292	304.266
826.846	426.164
831.397	378.658
835.945	244.18
840.491	330.18
845.035	235.42
849.576	276.1
854.114	146.731
858.65	339.461
863.183	247.66
867.713	191.867
872.241	157.002
876.767	126.264
881.29	168.496
885.81	48.2949
890.328	144.639
894.843	119.227
899.356	116.279
903.866	225.85
908.373	111.592
912.878	14.9609
917.38	18.6016
921.88	238.338
926.377	187.756
930.872	192.26
935.364	177.766
939.853	61.6836
944.34	171.592
948.824	160.5
953.306	654.135
957.785	112.555
962.261	355.664
966.735	580.961
971.207	136.629
975.675	240.445
980.141	416.723
984.605	301.152
989.066	716.279
993.524	477.859
997.98	131.938
1002.43	457.803
1006.88	183.199
1011.33	196.508
1015.78	356.695
1020.22	193.199
1024.66	56.6719
1029.1	79.0879
1033.53	197.662
1037.97	369.531
1042.4	385.658
1046.82	319.15
1051.25	226.01
1055.67	391.285
1060.09	257.219
1064.51	484.721
1068.92	117.9
1073.33	20.8379
1077.74	141.635
1082.15	606.039
1086.55	696.859
1090.95	877.674
1095.35	478.676
1099.75	361.072
1104.14	423.824
1108.53	47.0156
1112.92	58.6992
1117.31	567.559
1121.69	161.805
1126.07	278.07
1130.45	212.043
1134.82	207.465
1139.19	378.926
1143.57	451.211
1147.93	173.234
1152.3	470.481
1156.66	318.598
1161.02	32.9336
1165.38	395.203
1169.73	425.137
1174.08	151.992
1178.43	291.898
1182.78	247.617
1187.12	17.2266
1191.46	334.375
1195.8	356.383
1200.14	33.957
1204.47	266.621
1208.8	417.312
1213.13	241.824
1217.46	236.023
1221.78	64.5547
1226.1	191.066
1230.42	244.234
1234.73	94.8828
1239.04	56.9141
1243.35	404.133
1247.66	311.941
1251.97	104.402
1256.27	227.191
1260.57	319.789
1264.86	74.6055
1269.16	24.7383
1273.45	205.41
1277.74	55.7617
1282.03	51.7383
1286.31	342.262
1290.59	114.106
1294.87	551.141
1299.14	423.156
1303.42	497.156
1307.69	118.254
1311.95	394.68
1316.22	174.738
1320.48	331.609
1324.74	540.875
1329	250.18
1333.26	269.434
1337.51	425.812
1341.76	349.617
1346	330.785
1350.25	236.883
1354.49	515.195
1358.73	362.07
1362.96	357.508
1367.2	358.297
1371.43	401.449
1375.66	201.82
1379.88	253.519
1384.11	149.731
1388.33	309.531
1392.54	211.902
1396.76	69.0469
1400.97	442.856
1405.18	552.797
1409.39	33.5547
1413.59	300.273
1417.8	541.043
1421.99	118.5
1426.19	603.699
1430.38	627.449
1434.58	369.918
1438.77	565.535
1442.95	762.383
1447.13	215.094
1451.32	351.258
1455.49	496.074
1459.67	258.691
1463.84	306.176
1468.01	321.941
1472.18	225.644
1476.35	560.273
1480.51	160.844
1484.67	397.945
1488.83	263.656
1492.98	154.699
1497.13	276.738
1501.28	51.0117
1505.43	60.2383
1509.57	212.637
1513.71	103.969
1517.85	86.8555
1521.99	196.992
1526.12	434.309
1530.25	492.238
1534.38	334.019
1538.5	364.91
1542.62	463.414
1546.74	276.375
1550.86	443.019
1554.98	620.758
1559.09	459.34
1563.2	551.055
1567.31	301.266
1571.41	46.3047
