Measurement: Raman, xxx, ccw, Raman Data Processed
Mineral: Corundum
Rruff sample: P000033
Ideal chemistry: Al_2_O_3_
Locality: Virtual
Source: ScottLab
Description: PURPLE OpenSource 20181121
Raman shift (cm-1)	intensity
24.8225	0
30.1258	0
35.429	0
40.7323	0
46.0356	0
51.3389	0
56.6422	0
61.9455	0
67.2487	0
72.552	0
77.8553	0
83.1586	0
88.4619	0
93.7652	0
99.0684	0
104.372	0
109.675	0
114.978	0
120.282	0
125.585	0
130.888	0
136.191	0
141.495	0
146.798	0
152.101	0
157.405	0
162.708	0
168.011	0.0262176
173.314	0.0742832
178.618	0.122349
183.921	0.170414
189.224	0.21848
194.528	0.266545
199.831	0.314611
205.134	0.362677
210.437	0.410742
215.741	0.458808
221.044	0.506873
226.347	0.554939
231.65	0.603004
236.954	0.65107
242.257	0.699136
247.56	0.747201
252.864	0.795267
258.167	0.843332
263.47	0.891398
268.774	0.939463
274.077	0.987529
279.38	1.03559
284.683	1.08366
289.987	1.23604
295.29	1.42754
300.593	1.61904
305.897	1.81054
311.2	2.00204
316.503	2.19354
321.806	2.38504
327.11	2.75353
332.413	3.91848
337.716	5.08344
343.019	6.24839
348.323	7.81512
353.626	10.4724
358.929	15.2071
364.233	25.3563
369.536	56.0869
374.839	317.422
380.142	2040.85
385.446	138.87
390.749	52.3167
396.052	43.5469
401.356	56.8857
406.659	109.665
411.962	444.401
417.265	7779.23
422.569	672.96
427.872	527.102
433.175	455.108
438.478	83.7727
443.782	53.5612
449.085	240.055
454.388	34.9155
459.692	15.897
464.995	10.8964
470.298	8.37088
475.601	6.8055
480.905	5.74098
486.208	4.98016
491.511	4.42098
496.815	4.00488
502.118	3.6961
507.421	3.4722
512.725	3.31957
518.028	3.23084
523.331	3.2043
528.634	3.2443
533.938	3.3634
539.241	3.58764
544.544	3.96917
549.847	4.6176
555.151	5.79171
560.454	8.22603
565.757	14.7733
571.061	47.2694
576.364	465.847
581.667	79.9587
586.971	19.5926
592.274	11.3955
597.577	9.38321
602.88	9.33099
608.184	10.4638
613.487	12.8704
618.79	17.2941
624.093	25.7965
629.397	44.685
634.7	101.1
640.003	386.189
645.307	990.065
650.61	331.816
655.913	92.0165
661.216	42.4965
666.52	25.3604
671.823	17.586
677.126	13.5618
682.429	11.3789
687.733	10.2612
693.036	9.87172
698.339	10.0844
703.643	10.909
708.946	12.4881
714.249	15.1577
719.553	19.6242
724.856	27.4471
730.159	42.5395
735.462	77.0823
740.766	181.893
746.069	528.516
751.372	764.924
756.676	343.004
761.979	121.685
767.282	58.0241
772.585	33.9744
777.889	22.3951
783.192	15.9312
788.495	11.9531
793.798	9.32828
799.102	7.50324
804.405	6.18135
809.708	5.19196
815.012	4.53313
820.315	4.40816
825.618	4.28318
830.921	4.15821
836.225	4.03324
841.528	3.90826
846.831	3.78329
852.135	3.65831
857.438	3.53334
862.741	3.40837
868.044	3.2834
873.348	3.15842
878.651	3.03345
883.954	3.00592
889.258	2.97838
894.561	2.95085
899.864	2.92332
905.167	2.89579
910.471	2.86826
915.774	2.84073
921.077	2.8132
926.381	2.78567
931.684	2.75813
936.987	2.7306
942.29	2.70307
947.594	2.67554
952.897	2.64801
958.2	2.62048
963.504	2.59295
968.807	2.56542
974.11	2.53788
979.413	2.51035
984.717	2.48282
990.02	2.45529
995.323	2.42776
1000.63	2.40023
1005.93	2.3727
1011.23	2.34517
1016.54	2.31763
1021.84	2.2901
1027.14	2.26257
1032.45	2.23504
1037.75	2.20751
1043.05	2.17998
1048.36	2.15245
1053.66	2.12492
1058.96	2.09738
1064.27	2.06985
1069.57	2.04232
1074.87	2.01479
1080.18	1.98726
1085.48	1.95973
1090.78	1.9322
1096.09	1.90467
1101.39	1.87713
1106.69	1.8496
1111.99	1.82207
1117.3	1.79454
1122.6	1.76701
1127.9	1.73948
1133.21	1.71195
1138.51	1.68441
1143.82	1.65688
1149.12	1.62935
1154.42	1.60182
1159.72	1.57429
1165.03	1.54676
1170.33	1.51923
1175.63	1.49169
1180.94	1.46416
1186.24	1.43663
1191.55	1.4091
1196.85	1.38157
1202.15	1.35404
1207.45	1.32651
1212.76	1.29898
1218.06	1.27144
1223.36	1.24391
1228.67	1.21638
1233.97	1.18885
1239.27	1.16132
1244.58	1.13379
1249.88	1.10626
1255.18	1.07873
1260.49	1.0512
1265.79	1.02366
1271.09	0.996132
1276.4	0.968601
1281.7	0.94107
1287	0.913538
1292.31	0.886007
1297.61	0.858476
1302.91	0.830945
1308.22	0.803413
1313.52	0.775882
1318.82	0.74835
1324.13	0.720819
1329.43	0.693288
1334.73	0.665757
1340.04	0.638225
1345.34	0.610694
1350.64	0.583163
1355.95	0.555632
1361.25	0.5281
1366.55	0.500569
1371.86	0.473037
1377.16	0.445506
1382.46	0.417975
1387.77	0.390444
1393.07	0.362912
1398.37	0.335381
1403.68	0.30785
1408.98	0.280319
1414.28	0.252787
1419.59	0.225256
1424.89	0.197724
1430.19	0.170193
1435.5	0.142662
1440.8	0.115131
1446.1	0.0875993
1451.41	0.0600683
1456.71	0.0325367
1462.01	0.00500569
1467.32	0
1472.62	0
1477.92	0
1483.22	0
1488.53	0
1493.83	0
1499.13	0
1504.44	0
1509.74	0
1515.05	0
1520.35	0
1525.65	0
1530.95	0
1536.26	0
1541.56	0
1546.87	0
1552.17	0
1557.47	0
1562.77	0
1568.08	0
1573.38	0
1578.68	0
1583.99	0
1589.29	0
1594.59	0
1599.9	0
1605.2	0
1610.5	0
1615.81	0
1621.11	0
1626.41	0
1631.72	0
1637.02	0
1642.32	0
1647.63	0
1652.93	0
1658.23	0
1663.54	0
1668.84	0
1674.14	0
1679.45	0
1684.75	0
1690.05	0
1695.36	0
1700.66	0
1705.96	0
1711.27	0
1716.57	0
1721.87	0
1727.18	0
1732.48	0
1737.78	0
1743.09	0
1748.39	0
1753.69	0
1759	0
1764.3	0
1769.6	0
1774.91	0
1780.21	0
1785.51	0
1790.82	0
1796.12	0
1801.42	0
1806.72	0
1812.03	0
1817.33	0
1822.63	0
1827.94	0
1833.24	0
1838.55	0
1843.85	0
1849.15	0
1854.45	0
1859.76	0
1865.06	0
1870.37	0
1875.67	0
1880.97	0
1886.28	0
1891.58	0
1896.88	0
1902.18	0
1907.49	0
1912.79	0
1918.09	0
1923.4	0
1928.7	0
1934	0
1939.31	0
1944.61	0
1949.91	0
1955.22	0
1960.52	0
1965.82	0
1971.13	0
1976.43	0
1981.73	0
1987.04	0
1992.34	0
1997.64	0
2002.95	0
2008.25	0
