Measurement: Raman, 514 nm, depolarized, Raman Data Processed
Mineral: Corundum
Rruff sample: R060020
Ideal chemistry: Al_2_O_3_
Locality: Yogo Gulch, Montana, USA
Source: American Museum of Natural History
Description: Water rounded light blue fragment
Measured chemistry: (Al_1.99_Fe^3+^_0.01_)_Î£=2_O_3_ ; Fe^3+^ by charge balance
Pin_id: L01262
Orientation: Laser parallel to -a* (-1 0 0). Fiducial mark perpendicular to laser is parallel to c [0 0 1]
Raman shift (cm-1)	intensity
114.44	0
119.365	56.2598
124.288	150.051
129.209	88.5322
134.127	19.6616
139.043	66.8501
143.956	43.7339
148.867	35.5205
153.775	97.1821
158.681	98.189
163.585	126.649
168.486	112.88
173.385	161.908
178.282	112.236
183.176	176.389
188.067	184.781
192.956	312.315
197.843	176.698
202.727	274.333
207.609	134.876
212.489	151.142
217.366	118.703
222.24	197.255
227.112	152.735
231.982	161.809
236.849	279.981
241.714	235.358
246.577	194.326
251.437	88.0156
256.294	221.423
261.149	251.125
266.002	192.851
270.852	225.698
275.7	58.2427
280.545	125.214
285.388	124.128
290.229	56.9058
295.067	105.483
299.902	47.0269
304.735	20.666
309.566	11.2168
314.394	25.8989
319.22	97.5981
324.043	45.0981
328.864	14.0615
333.682	68.5542
338.498	45.3799
343.311	116.165
348.122	53.4888
352.931	111.353
357.737	106.693
362.54	245.687
367.341	130.798
372.14	507.526
376.936	1514.31
381.73	1028.24
386.521	440.148
391.31	288.04
396.096	356
400.88	298.541
405.661	745.705
410.44	2861.79
415.216	8826.5
419.99	6541.85
424.761	1295.68
429.53	756.133
434.297	333.701
439.061	185.846
443.822	49.4902
448.581	209.61
453.337	213.967
458.091	129.681
462.843	157.835
467.592	118.355
472.338	27.3594
477.082	114.315
481.824	221.385
486.563	232.942
491.3	46.7402
496.034	38.3447
500.765	140.107
505.494	29.6533
510.221	26.5332
514.945	122.163
519.666	58.0478
524.385	79.3252
529.102	171.901
533.816	258.249
538.527	216.49
543.236	158.353
547.943	193.438
552.647	200.202
557.348	242.495
562.047	207.502
566.744	104.853
571.438	331.713
576.129	422.58
580.818	363.276
585.504	280.407
590.188	226.289
594.87	239.173
599.549	413.772
604.225	430.297
608.899	213.286
613.57	388.156
618.239	256.188
622.905	504.723
627.569	537.102
632.23	772.226
636.889	1534.94
641.545	3060.99
646.198	3293.89
650.849	1695.49
655.498	775.161
660.144	548.562
664.787	328.762
669.428	293.989
674.067	218.471
678.703	279.874
683.336	29.8135
687.967	122.562
692.595	43.5176
697.221	39.0674
701.844	84.9814
706.465	53.0254
711.083	97.1094
715.698	36.9033
720.311	99.5752
724.922	61.8584
729.53	153.56
734.135	255.859
738.738	521.627
743.338	791.207
747.936	1082.59
752.531	1362.45
757.124	992.398
761.714	785.869
766.302	765.758
770.887	459.85
775.469	471.881
780.049	553.977
784.626	501.298
789.201	668.95
793.773	564.987
798.343	604.952
802.91	599.796
807.475	752.571
812.037	686.426
816.596	707.627
821.153	581.766
825.707	593.371
830.259	586.014
834.808	419.537
839.355	252.023
843.899	372.639
848.441	292.978
852.98	441.625
857.516	307.879
862.05	328.607
866.581	456.984
871.11	215.732
875.636	197.336
880.159	173.637
884.68	224.516
889.199	314.943
893.714	109.736
898.228	108.268
902.738	75.4141
907.246	148.273
911.752	64.3125
916.255	15.8828
920.755	46.7734
925.253	196.74
929.748	164.037
934.241	113.148
938.731	181.033
943.218	180.141
947.703	176.762
952.186	248.168
956.665	85.1816
961.142	174.752
965.617	66.0137
970.089	14.3379
974.558	180.795
979.025	132.748
983.489	291.682
987.951	140.24
992.41	156.529
996.866	68.7617
1001.32	276.637
1005.77	320.109
1010.22	242.945
1014.67	2.00781
1019.11	156.322
1023.55	358.949
1027.99	193.99
1032.42	262.207
1036.86	285.166
1041.29	278.377
1045.72	374.603
1050.14	317.457
1054.56	315.012
1058.98	212.344
1063.4	115.924
1067.82	164.24
1072.23	247.834
1076.64	79.2988
1081.05	158.996
1085.45	303.578
1089.85	241.705
1094.25	249.379
1098.65	290.168
1103.04	211.875
1107.43	47.6289
1111.82	120.244
1116.21	105.244
1120.59	422.941
1124.97	395.471
1129.35	266.207
1133.73	108.426
1138.1	72.4062
1142.47	90.959
1146.84	55.4727
1151.21	2.81445
1155.57	180.086
1159.93	254.32
1164.29	229.074
1168.64	131.143
1172.99	51.2793
1177.34	237.397
1181.69	226.449
1186.04	211.674
1190.38	237.09
1194.72	105.938
1199.05	336.943
1203.39	195.279
1207.72	65.2852
1212.05	245.102
1216.37	398.434
1220.7	96.7891
1225.02	313.219
1229.34	24.9766
1233.65	292.531
1237.97	329.731
1242.28	350.586
1246.59	444.371
1250.89	269.09
1255.19	37.0586
1259.49	239.766
1263.79	213.754
1268.09	350.719
1272.38	310.875
1276.67	65.3516
1280.95	26.2344
1285.24	397.5
1289.52	152.965
1293.8	9.51172
1298.08	424.961
1302.35	107.152
1306.62	393.957
1310.89	351.508
1315.15	476.703
1319.42	561.293
1323.68	351.027
1327.94	440.133
1332.19	345.977
1336.44	330.805
1340.69	246.758
1344.94	506.898
1349.19	366.262
1353.43	536.922
1357.67	217.176
1361.9	441.965
1366.14	161.074
1370.37	277.93
1374.6	116.606
1378.83	79.5273
1383.05	363.629
1387.27	155.633
1391.49	105.121
1395.7	56.0703
1399.92	4.17578
1404.13	249.258
1408.34	207.992
1412.54	66.3672
1416.74	50.0664
1420.94	77.1836
1425.14	335.336
1429.34	92.4883
1433.53	94.6758
1437.72	177.715
1441.9	334.199
1446.09	457.484
1450.27	597.203
1454.45	489.043
1458.63	487.629
1462.8	588.129
1466.97	617.352
1471.14	440.379
1475.31	505.906
1479.47	307.406
1483.63	543.32
1487.79	499.469
1491.94	636.648
1496.09	248.41
1500.24	269.473
1504.39	532.426
1508.54	223.461
1512.68	177.746
1516.82	99.9766
1520.95	346.406
1525.09	398.301
1529.22	193.062
1533.35	252.164
1537.47	442.074
1541.6	124.531
1545.72	441.273
1549.83	363.578
1553.95	369.133
1558.06	132.832
1562.17	377.949
1566.28	217.633
1570.38	0.621094
