Measurement: Raman, 514 nm, ccw, Raman Data RAW
Mineral: Corundum
Rruff sample: R060020
Ideal chemistry: Al_2_O_3_
Locality: Yogo Gulch, Montana, USA
Source: American Museum of Natural History
Description: Water rounded light blue fragment
Measured chemistry: (Al_1.99_Fe^3+^_0.01_)_Î£=2_O_3_ ; Fe^3+^ by charge balance
Pin_id: L01262
Orientation: Laser parallel to -a* (-1 0 0). Fiducial mark perpendicular to laser is parallel to c [0 0 1]
Raman shift (cm-1)	intensity
114.44	0
119.365	0.372559
124.288	15.98
129.209	40.8496
134.127	50.481
139.043	93.293
143.956	118.226
148.867	61.669
153.775	80.6968
158.681	131.059
163.585	94.668
168.486	130.115
173.385	104.472
178.282	98.6182
183.176	154.435
188.067	172.345
192.956	157.972
197.843	120.597
202.727	296.671
207.609	133.626
212.489	132.882
217.366	115.511
222.24	108.128
227.112	231.538
231.982	156.893
236.849	144.759
241.714	223.935
246.577	138.985
251.437	59.4199
256.294	87.3447
261.149	138.972
266.002	102.615
270.852	88.2471
275.7	14.5571
280.545	77.605
285.388	5.00293
290.229	28.4273
295.067	91.98
299.902	14.9888
304.735	54.8472
309.566	11.1309
314.394	94.7109
319.22	18.5102
324.043	57.5855
328.864	62.7407
333.682	7.68799
338.498	73.6108
343.311	57.0884
348.122	112.054
352.931	190.591
357.737	149.255
362.54	91.6553
367.341	49.5806
372.14	232.53
376.936	332.685
381.73	231.678
386.521	319.631
391.31	278.516
396.096	325.968
400.88	463.486
405.661	1004.83
410.44	4148.33
415.216	13878.3
419.99	9554.09
424.761	1402.75
429.53	273.994
434.297	218.037
439.061	106.97
443.822	88.0874
448.581	1.66016
453.337	92.4253
458.091	34.0908
462.843	6.36865
467.592	158.386
472.338	72.8301
477.082	81.3818
481.824	56.9815
486.563	167.62
491.3	144.821
496.034	85.5049
500.765	25.2881
505.494	54.8916
510.221	12.3262
514.945	103.778
519.666	80.6416
524.385	8.73242
529.102	200.998
533.816	263.626
538.527	263.444
543.236	240.316
547.943	320.607
552.647	241.144
557.348	103.311
562.047	265.156
566.744	168.775
571.438	156.58
576.129	91.293
580.818	295.86
585.504	184.699
590.188	236.764
594.87	256.914
599.549	184.083
604.225	276.153
608.899	130.224
613.57	271.665
618.239	276.523
622.905	587.915
627.569	791.506
632.23	1025.28
636.889	2462.4
641.545	5916.81
646.198	5868.72
650.849	2574.1
655.498	1183.29
660.144	781.669
664.787	393.716
669.428	392.496
674.067	276.44
678.703	266.255
683.336	143.294
687.967	153.939
692.595	131.023
697.221	29.4717
701.844	17.9189
706.465	3.31543
711.083	67.2598
715.698	113.973
720.311	83.3769
724.922	53.2188
729.53	46.6855
734.135	132.822
738.738	296.065
743.338	521.949
747.936	597.533
752.531	726.856
757.124	840.452
761.714	726.49
766.302	608.249
770.887	538.021
775.469	299.871
780.049	381.83
784.626	258.986
789.201	396.74
793.773	537.69
798.343	572.455
802.91	539.99
807.475	686.875
812.037	710.719
816.596	572.204
821.153	559.719
825.707	520.175
830.259	550.34
834.808	314.905
839.355	498.111
843.899	337.759
848.441	382.859
852.98	333.252
857.516	348.389
862.05	325.295
866.581	364.066
871.11	5.33203
875.636	77.9414
880.159	54.5547
884.68	132.588
889.199	125.824
893.714	217.072
898.228	73.2402
902.738	144.211
907.246	139.033
911.752	50.0645
916.255	30.8262
920.755	92.6191
925.253	65.7227
929.748	278.668
934.241	93.8144
938.731	155.572
943.218	209.44
947.703	15.5625
952.186	228.508
956.665	150.926
961.142	65.7324
965.617	19.2285
970.089	13.5488
974.558	22.9102
979.025	100.555
983.489	286.25
987.951	94.1914
992.41	121.084
996.866	63.9785
1001.32	398.553
1005.77	257.633
1010.22	193.478
1014.67	10.7266
1019.11	57.6641
1023.55	187.518
1027.99	166.514
1032.42	171.641
1036.86	92.8301
1041.29	56.6582
1045.72	10.4609
1050.14	142.928
1054.56	257.951
1058.98	52.6445
1063.4	24.2656
1067.82	159.533
1072.23	99.9141
1076.64	135.16
1081.05	84.707
1085.45	338.268
1089.85	48.168
1094.25	207.123
1098.65	2.0293
1103.04	212.562
1107.43	209.471
1111.82	139.453
1116.21	260.916
1120.59	210.949
1124.97	94.5644
1129.35	201.406
1133.73	112.873
1138.1	340.4
1142.47	154.582
1146.84	171.916
1151.21	178.996
1155.57	254.846
1159.93	107.639
1164.29	351.322
1168.64	339.676
1172.99	325.672
1177.34	309.496
1181.69	215.977
1186.04	88.9121
1190.38	211.014
1194.72	189.356
1199.05	18.1523
1203.39	460.357
1207.72	156.728
1212.05	509.258
1216.37	80.3945
1220.7	96.1055
1225.02	33.8203
1229.34	281.34
1233.65	380.043
1237.97	329.816
1242.28	279.246
1246.59	259.434
1250.89	326.996
1255.19	34.8047
1259.49	28.8164
1263.79	356.238
1268.09	202.18
1272.38	206.539
1276.67	80.2031
1280.95	173.652
1285.24	73.7969
1289.52	172.359
1293.8	2.42578
1298.08	108.906
1302.35	278.457
1306.62	252.418
1310.89	525.668
1315.15	538.539
1319.42	374.988
1323.68	393.551
1327.94	239.184
1332.19	260.973
1336.44	286.926
1340.69	133.066
1344.94	349.562
1349.19	142.309
1353.43	379.074
1357.67	275.996
1361.9	163.066
1366.14	496.715
1370.37	98.2773
1374.6	130.008
1378.83	178.762
1383.05	50.8438
1387.27	291.711
1391.49	183.957
1395.7	316.926
1399.92	13.4414
1404.13	33.8867
1408.34	205.531
1412.54	209.805
1416.74	141.887
1420.94	207.535
1425.14	79.9805
1429.34	60.3516
1433.53	0.84375
1437.72	197.363
1441.9	252.734
1446.09	238.777
1450.27	232.363
1454.45	300.684
1458.63	371.398
1462.8	122.211
1466.97	435.469
1471.14	344.027
1475.31	562.723
1479.47	449.691
1483.63	503.379
1487.79	110.164
1491.94	679.656
1496.09	426.231
1500.24	360.141
1504.39	428.32
1508.54	488.211
1512.68	446.535
1516.82	464.91
1520.95	147.457
1525.09	627.055
1529.22	444.594
1533.35	609.031
1537.47	789.125
1541.6	444.992
1545.72	560.785
1549.83	438.41
1553.95	384.293
1558.06	313.606
1562.17	593.949
1566.28	177.703
1570.38	331.949
