Measurement: Raman, 514 nm, depolarized, Raman Data Processed
Mineral: Covellite
Rruff sample: R060306
Ideal chemistry: Cu^1+^S
Locality: 3800' level, Leonard mine, Butte, Silver Bow County, Montana, USA
Source: Michael Scott
Description: Blue iridescent metallic hexagonal plates
Measured chemistry: Cu_1.00_S_1.00_
Pin_id: M00169
Orientation: Laser parallel to -a* (-1 0 0). Fiducial mark perpendicular to laser is parallel to c [0 0 1]
Raman shift (cm-1)	intensity
52.671	0
57.626	48.3198
62.579	14.7636
67.529	38.1669
72.477	212.554
77.423	522.78
82.367	1076.11
87.308	1521.77
92.246	2519.96
97.182	2694.17
102.116	3041.3
107.047	4528.57
111.976	4423.44
116.903	4147.57
121.827	3037.68
126.749	2745.66
131.668	3186.4
136.585	3846.49
141.5	4835.62
146.412	3254.95
151.321	2425.53
156.229	1753.44
161.134	1382.72
166.036	1615.36
170.936	1519.38
175.834	1279.75
180.729	1301.46
185.622	1286
190.512	1107.92
195.4	1060.45
200.286	1012.26
205.169	841.09
210.049	823.436
214.928	784.553
219.803	730.391
224.677	577.335
229.548	561.467
234.416	538.551
239.282	514.72
244.146	577.173
249.007	836.825
253.866	1209.61
258.722	1846.23
263.576	2094.22
268.427	1808.22
273.276	1239.03
278.123	689.749
282.967	422.369
287.809	305.867
292.648	253.227
297.485	105.436
302.319	142.45
307.151	70.3457
311.98	65.0134
316.807	96.4683
321.631	78.6936
326.454	44.6728
331.273	37.698
336.09	10.1633
340.905	15.031
345.717	17.2905
350.527	110.761
355.334	8.20605
360.139	47.5085
364.941	59.9605
369.741	29.9692
374.538	32.8332
379.333	73.467
384.126	126.094
388.916	199.511
393.703	151.893
398.488	149.171
403.271	131.348
408.051	187.372
412.828	189.19
417.603	191.781
422.376	191.121
427.146	314.217
431.914	392.966
436.679	558.346
441.442	983.336
446.202	1784.89
450.96	3087
455.715	5619.65
460.467	9359.8
465.218	17603.5
469.965	41577.6
474.711	54861.6
479.454	21269.2
484.194	8434.64
488.932	4247.84
493.667	2470.7
498.4	1655.08
503.13	1033.79
507.858	805.706
512.583	729.129
517.306	609.517
522.026	457.151
526.744	471.18
531.459	452.11
536.172	429.597
540.882	416.884
545.59	399.493
550.295	331.124
554.998	244.359
559.698	260.77
564.396	218.34
569.091	147.023
573.784	125.736
578.474	65.3359
583.162	169.985
587.847	41.1416
592.529	43.7654
597.209	237.35
601.887	49.8774
606.562	182.332
611.235	19.7002
615.905	110.952
620.572	43.0928
625.237	70.177
629.9	39.0745
634.56	75.9253
639.217	15.7512
643.872	72.4561
648.524	64.6804
653.174	21.4441
657.821	59.9463
662.466	37.5366
667.108	3.11157
671.748	51.9907
676.385	70.7292
681.02	12.1404
685.652	49.6848
690.281	13.0376
694.908	20.4419
699.533	16.406
704.155	91.249
708.774	0.2771
713.391	77.1682
718.005	133.385
722.617	176.481
727.226	201.997
731.833	202.894
736.437	247.755
741.039	236.291
745.638	249.501
750.234	238.062
754.828	244.981
759.419	198.78
764.008	151.906
768.595	138.115
773.178	192.286
777.759	12.2466
782.338	0.339844
786.914	143.541
791.488	57.4805
796.059	130.778
800.627	68.9714
805.193	20.1025
809.756	74.3696
814.317	467.717
818.875	55.8394
823.431	76.239
827.984	27.408
832.534	5.09229
837.082	30.8586
841.627	9.3457
846.17	2.17529
850.71	40.4678
855.248	62.3867
859.783	67.8333
864.316	34.3386
868.846	6.88892
873.373	47.0349
877.898	75.1089
882.42	135.118
886.94	50.0737
891.457	156.992
895.971	215.885
900.483	249.702
904.993	385.647
909.5	609.525
914.004	807.952
918.505	902.49
923.004	1155.89
927.501	1222.4
931.995	973.452
936.486	614.714
940.975	550.592
945.461	374.051
949.945	273.138
954.426	164.484
958.904	74.2058
963.38	59.0523
967.853	68.2324
972.324	174.171
976.792	170.755
981.258	211.679
985.72	168.533
990.181	162.794
994.639	230.937
999.094	192.736
1003.55	305.455
1008	165.324
1012.44	182.315
1016.89	150.433
1021.33	159.678
1025.77	136.621
1030.21	165.448
1034.64	146.747
1039.07	275.569
1043.5	203.519
1047.93	262.134
1052.35	228.063
1056.78	220.141
1061.19	211.888
1065.61	70.7456
1070.02	227.47
1074.43	192.372
1078.84	237
1083.25	348.019
1087.65	313.119
1092.05	198.295
1096.45	112.302
1100.85	129.093
1105.24	127.216
1109.63	107.712
1114.02	173.259
1118.4	528.256
1122.78	732.903
1127.16	633.588
1131.54	138.468
1135.92	57.124
1140.29	47.0908
1144.66	37.9365
1149.02	145.004
1153.39	44.3804
1157.75	36.1982
1162.11	22.062
1166.46	41.2129
1170.82	98.4248
1175.17	40.0518
1179.52	41.3823
1183.86	60.9951
1188.21	28.7358
1192.55	59.3506
1196.89	7.36865
1201.22	6.3418
1205.55	87.2217
1209.88	21.0366
1214.21	44.7895
1218.54	35.499
1222.86	93.1479
1227.18	1.6626
1231.5	1.9707
1235.81	87.3193
1240.12	104.555
1244.43	47.7368
1248.74	101.88
1253.04	92.9692
1257.34	62.0117
1261.64	24.1719
1265.94	97.7178
1270.23	56.376
1274.52	95.9673
1278.81	41.5298
1283.1	78.9517
1287.38	79.5147
1291.66	85.7554
1295.94	182.95
1300.21	145.145
1304.48	171.325
1308.75	127.989
1313.02	152.307
1317.29	205.568
1321.55	123.127
1325.81	128.326
1330.06	58.9009
1334.32	108.436
1338.57	162.269
1342.82	98.8013
1347.06	147.435
1351.31	123.686
1355.55	177.975
1359.79	187.889
1364.02	151.223
1368.26	164.566
1372.49	144.947
1376.71	228.058
1380.94	149.625
1385.16	154.842
1389.38	126.93
1393.6	61.7305
1397.81	40.6592
1402.02	68.6045
1406.23	73.5801
1410.44	94.4292
1414.64	91.6079
1418.85	79.8364
1423.04	86.0796
1427.24	49.5562
1431.43	58.8184
1435.62	95.8911
1439.81	75.9531
1444	67.876
1448.18	97.9102
1452.36	88.1504
1456.54	97.4404
1460.71	49.7192
1464.89	254.045
1469.06	91.5015
1473.22	11.0396
1477.39	146.333
1481.55	113.696
1485.71	41.2222
1489.86	61.728
1494.02	36.3589
1498.17	29.4614
1502.32	14.8984
1506.46	113.432
1510.61	119.308
1514.75	29.6792
1518.88	36.4297
1523.02	81.9194
1527.15	85.5225
1531.28	66.522
1535.41	167.845
1539.53	46.646
1543.66	153.641
1547.78	152.558
1551.89	199.501
1556.01	281.681
1560.12	44.0225
1564.23	52.834
1568.33	46.9263
