Measurement: Raman, 514 nm, depolarized, Raman Data Processed
Mineral: Covellite
Rruff sample: R060129
Ideal chemistry: Cu^1+^S
Locality: Butte, Montana, USA
Source: University of Arizona Mineral Museum
Description: Iridescent blue metallic hexagonal plates
Measured chemistry: Cu_1.00_S_1.00_
Pin_id: L00520
Orientation: Laser parallel to -a* (-1 0 0). Fiducial mark perpendicular to laser is parallel to c [0 0 1]
Raman shift (cm-1)	intensity
126.749	0
131.668	555.738
136.585	1066.75
141.5	739.464
146.412	321.795
151.321	330.532
156.229	47.7747
161.134	29.3545
166.036	117.486
170.936	146.16
175.834	75.145
180.729	168.013
185.622	247.226
190.512	298.222
195.4	446.356
200.286	514.218
205.169	177.635
210.049	31.1897
214.928	54.0664
219.803	4.08838
224.677	12.7876
229.548	20.2927
234.416	20.2505
239.282	50.8059
244.146	149.845
249.007	406.378
253.866	806.712
258.722	1469.74
263.576	1151.92
268.427	814.237
273.276	384.19
278.123	145.127
282.967	57.5461
287.809	114.702
292.648	11.0571
297.485	11.6755
302.319	33.0542
307.151	49.8372
311.98	36.7263
316.807	100.352
321.631	91.5696
326.454	116.58
331.273	84.1392
336.09	1.65405
340.905	24.429
345.717	50.8049
350.527	34.8428
355.334	53.6873
360.139	28.3164
364.941	20.6165
369.741	6.52686
374.538	29.0427
379.333	54.6917
384.126	110.656
388.916	130.52
393.703	101.787
398.488	148.162
403.271	110.671
408.051	90.3196
412.828	195.114
417.603	156.041
422.376	147.876
427.146	336.834
431.914	388.349
436.679	700.386
441.442	1133.39
446.202	2181.67
450.96	3913.57
455.715	6919.98
460.467	13093.5
465.218	30708.5
469.965	57618.3
474.711	40826.3
479.454	15225.9
484.194	6424.97
488.932	3415.65
493.667	2123.48
498.4	1515.79
503.13	1009.9
507.858	839.435
512.583	711.239
517.306	696.285
522.026	619.442
526.744	644.476
531.459	497.928
536.172	512.298
540.882	470.716
545.59	416.543
550.295	424.256
554.998	369.768
559.698	289.896
564.396	247.028
569.091	200.944
573.784	217.742
578.474	192.698
583.162	147.466
587.847	264.309
592.529	255.158
597.209	282.963
601.887	262.717
606.562	278.409
611.235	105.034
615.905	145.585
620.572	33.0603
625.237	39.4651
629.9	44.8469
634.56	14.6489
639.217	3.67334
643.872	19.75
648.524	1.77808
653.174	17.1419
657.821	6.29785
662.466	22.9297
667.108	7.81006
671.748	9.05835
676.385	11.7334
681.02	9.21411
685.652	17.8447
690.281	33.335
694.908	15.4514
699.533	4.2251
704.155	67.281
708.774	16.7393
713.391	40.2854
718.005	85.8606
722.617	115.077
727.226	107.442
731.833	154.026
736.437	191.419
741.039	173.736
745.638	133.745
750.234	163.563
754.828	138.19
759.419	75.6274
764.008	163.861
768.595	85.9214
773.178	110.94
777.759	80.54
782.338	109.509
786.914	68.3672
791.488	63.4182
796.059	49.499
800.627	41.4004
805.193	4.52002
809.756	12.4016
814.317	6.21655
818.875	36.5557
823.431	30.24
827.984	6.28784
832.534	10.7134
837.082	27.0337
841.627	16.6685
846.17	6.3147
850.71	50.2795
855.248	60.7134
859.783	15.1077
864.316	15.4182
868.846	16.6587
873.373	30.8462
877.898	88.9834
882.42	75.0786
886.94	115.14
891.457	181.173
895.971	191.184
900.483	328.178
904.993	397.15
909.5	565.976
914.004	824.765
918.505	1055.97
923.004	1308.59
927.501	1329.55
931.995	1031.88
936.486	768.342
940.975	601.264
945.461	424.92
949.945	375.992
954.426	277.058
958.904	186.04
963.38	200.911
967.853	238.347
972.324	281.475
976.792	300.642
981.258	340.461
985.72	316.2
990.181	346.819
994.639	440.762
999.094	418.719
1003.55	409.938
1008	292.543
1012.44	337.154
1016.89	336.036
1021.33	294.044
1025.77	315.199
1030.21	291.438
1034.64	320.86
1039.07	324.957
1043.5	273.686
1047.93	318.531
1052.35	285.744
1056.78	318.391
1061.19	328.633
1065.61	307.934
1070.02	346.42
1074.43	359.926
1078.84	276.67
1083.25	286.613
1087.65	207.037
1092.05	260.854
1096.45	206.243
1100.85	140.199
1105.24	166.807
1109.63	228.554
1114.02	308.397
1118.4	876.322
1122.78	1152.67
1127.16	636.335
1131.54	131.852
1135.92	53.8603
1140.29	102.172
1144.66	86.9329
1149.02	38.8103
1153.39	42.2859
1157.75	82.8494
1162.11	11.3679
1166.46	9.91992
1170.82	25.6079
1175.17	55.5901
1179.52	31.9099
1183.86	17.8306
1188.21	96.7085
1192.55	29.0476
1196.89	120.29
1201.22	22.5242
1205.55	34.7004
1209.88	69.9194
1214.21	9.47315
1218.54	14.4119
1222.86	84.531
1227.18	72.5396
1231.5	26.5186
1235.81	79.5098
1240.12	50.6973
1244.43	79.6831
1248.74	44.7141
1253.04	87.6272
1257.34	52.3452
1261.64	32.0046
1265.94	37.5454
1270.23	29.1936
1274.52	12.6003
1278.81	30.2129
1283.1	4.57739
1287.38	79.8106
1291.66	54.5623
1295.94	5.44482
1300.21	31.1169
1304.48	73.5786
1308.75	57.7395
1313.02	41.0376
1317.29	112.559
1321.55	34.4966
1325.81	39.4846
1330.06	75.8152
1334.32	120.488
1338.57	66.7388
1342.82	27.9023
1347.06	112.762
1351.31	30.2424
1355.55	94.21
1359.79	122.834
1364.02	141.784
1368.26	148.673
1372.49	52.6445
1376.71	85.4441
1380.94	82.9741
1385.16	103.288
1389.38	43.1846
1393.6	62.054
1397.81	107.636
1402.02	135.296
1406.23	38.7935
1410.44	54.2805
1414.64	111.779
1418.85	188.056
1423.04	108.348
1427.24	124.837
1431.43	109.203
1435.62	204.286
1439.81	60.8813
1444	62.3921
1448.18	124.49
1452.36	96.1594
1456.54	130.714
1460.71	59.0371
1464.89	91.542
1469.06	58.001
1473.22	34.9956
1477.39	51.9961
1481.55	28.3262
1485.71	72.7373
1489.86	45.344
1494.02	123.84
1498.17	111.374
1502.32	43.081
1506.46	27.615
1510.61	53.9094
1514.75	76.9734
1518.88	98.1438
1523.02	40.105
1527.15	44.1865
1531.28	38.0144
1535.41	83.011
1539.53	67.8035
1543.66	11.6374
1547.78	40.7878
1551.89	232.647
1556.01	159.371
1560.12	93.6489
1564.23	2.12793
1568.33	0.728271
1572.43	0
