Measurement: Raman, 514 nm, depolarized, Raman Data Processed
Mineral: Covellite
Rruff sample: R060143
Ideal chemistry: Cu^1+^S
Locality: Butte, Montana, USA
Source: Marcus Origlieri
Description: Irridescent blue to purple hexagonal plates
Measured chemistry: Cu_1.00_S_1.00_
Pin_id: L00760
Orientation: Laser parallel to -a* (-1 0 0). Fiducial mark perpendicular to laser is parallel to -c [0 0 -1]
Raman shift (cm-1)	intensity
164.811	0
169.711	8.22607
174.61	26.0967
179.505	64.8049
184.399	153.088
189.29	267.157
194.178	375.39
199.064	519.526
203.948	319.159
208.829	49.2082
213.708	55.7778
218.585	17.2739
223.459	14.9756
228.33	15.3621
233.199	69.215
238.066	59.0425
242.93	80.2429
247.792	263.08
252.651	593.23
257.508	1783.97
262.363	1230.31
267.215	1032.76
272.064	498.949
276.912	222.084
281.756	117.267
286.598	39.5526
291.438	9.04248
296.276	4.49634
301.111	25.9032
305.943	29.485
310.773	42.7426
315.601	45.1326
320.426	57.0098
325.248	71.1337
330.068	106.878
334.886	83.2155
339.701	70.1521
344.514	21.5427
349.324	12.642
354.132	49.0115
358.938	49.42
363.741	46.2071
368.541	71.7419
373.339	264.624
378.135	67.2131
382.928	94.49
387.718	89.1177
392.506	130.67
397.292	77.4175
402.075	108.328
406.856	186.399
411.634	153.661
416.41	100.086
421.183	121.67
425.954	246.323
430.722	233.892
435.488	378.101
440.251	678.358
445.012	1126.42
449.77	2195.5
454.526	4252.4
459.28	7425.31
464.03	13967.5
468.779	38001.8
473.525	55121.2
478.268	20038.7
483.009	7636.1
487.747	3781.44
492.483	2223.88
497.217	1463.89
501.948	1037.77
506.676	816.932
511.402	638.082
516.125	623.152
520.846	589.498
525.565	565.577
530.281	462.207
534.994	464.628
539.705	445.072
544.413	470.559
549.119	469.599
553.822	401.421
558.523	343.502
563.222	252.898
567.917	268.471
572.611	266.916
577.302	228.187
581.99	194.749
586.676	211.398
591.359	260.156
596.04	365.826
600.718	305.481
605.394	215.123
610.067	159.701
614.737	159.226
619.406	93.686
624.071	60.0707
628.734	89.3777
633.395	6.39758
638.053	53.9932
642.708	52.2897
647.361	19.2404
652.012	27.9587
656.66	81.6316
661.305	15.9462
665.948	22.874
670.588	0.619263
675.226	61.0247
679.861	14.504
684.494	18.2079
689.124	29.7806
693.752	0.168335
698.377	3.28418
702.999	32.3386
707.619	47.5596
712.237	4.77734
716.852	54.9066
721.464	103.772
726.074	161.076
730.681	98.2936
735.286	111.676
739.888	158.195
744.488	132.622
749.085	119.912
753.68	111.205
758.272	128.149
762.861	79.9322
767.448	82.5581
772.033	47.7231
776.614	92.952
781.194	55.9122
785.77	29.3098
790.345	11.9016
794.916	57.4993
799.485	12.4077
804.052	20.98
808.616	8.67944
813.177	55.281
817.736	20.2573
822.292	33.7864
826.846	62.4404
831.397	11.6187
835.945	28.1768
840.491	37.0867
845.035	1.20874
849.576	5.09229
854.114	30.3899
858.65	27.5244
863.183	6.73364
867.713	12.9448
872.241	40.6582
876.767	54.3206
881.29	50.9624
885.81	59.5969
890.328	59.1985
894.843	108.8
899.356	226.415
903.866	304.049
908.373	463.684
912.878	526.153
917.38	852.674
921.88	1037.42
926.377	1214.76
930.872	984.172
935.364	807.434
939.853	545.369
944.34	475.331
948.824	293.627
953.306	249.397
957.785	248.304
962.261	257.945
966.735	275.445
971.207	253.31
975.675	276.215
980.141	347.621
984.605	375.537
989.066	434.913
993.524	429.768
997.98	443.026
1002.43	452.535
1006.88	422.722
1011.33	340.139
1015.78	343.894
1020.22	402.166
1024.66	300.351
1029.1	353.922
1033.53	337.638
1037.97	415.49
1042.4	336.51
1046.82	376.743
1051.25	376.288
1055.67	395.67
1060.09	388.804
1064.51	419.007
1068.92	411.917
1073.33	350.737
1077.74	302.259
1082.15	331.714
1086.55	270.263
1090.95	341.894
1095.35	296.652
1099.75	196.549
1104.14	219.615
1108.53	221.794
1112.92	307.085
1117.31	1081.66
1121.69	1399.64
1126.07	893.399
1130.45	221.286
1134.82	69.6631
1139.19	34.9023
1143.57	101.006
1147.93	36.1824
1152.3	49.4668
1156.66	52.6233
1161.02	14.7085
1165.38	52.322
1169.73	59.9019
1174.08	47.5335
1178.43	24.1536
1182.78	26.9387
1187.12	6.53369
1191.46	2.10522
1195.8	59.6033
1200.14	15.9121
1204.47	59.5686
1208.8	35.0613
1213.13	50.5569
1217.46	34.0344
1221.78	58.6936
1226.1	89.2065
1230.42	51.8721
1234.73	32.4209
1239.04	37.9827
1243.35	58.6438
1247.66	87.2244
1251.97	93.7271
1256.27	20.887
1260.57	48.3892
1264.86	21.4399
1269.16	45.5579
1273.45	65.5085
1277.74	31.4873
1282.03	19.3799
1286.31	33.0061
1290.59	70.0271
1294.87	34.4761
1299.14	63.5305
1303.42	34.1538
1307.69	13.6536
1311.95	148.97
1316.22	106.511
1320.48	42.3999
1324.74	95.3127
1329	108.875
1333.26	35.1645
1337.51	61.1802
1341.76	130.308
1346	29.4663
1350.25	92.5547
1354.49	7.37939
1358.73	111.627
1362.96	74.4924
1367.2	133.438
1371.43	68.313
1375.66	70.04
1379.88	103.305
1384.11	86.1904
1388.33	89.4934
1392.54	96.7771
1396.76	85.9807
1400.97	58.5894
1405.18	70.2314
1409.39	51.6924
1413.59	78.5215
1417.8	2.43018
1421.99	0.602051
1426.19	72.5808
1430.38	84.3525
1434.58	103.147
1438.77	37.8032
1442.95	60.4277
1447.13	107.287
1451.32	79.968
1455.49	75.6306
1459.67	46.2664
1463.84	94.6555
1468.01	80.7673
1472.18	8.0581
1476.35	77.6521
1480.51	42.2915
1484.67	5.75366
1488.83	24.2888
1492.98	54.7156
1497.13	77.4329
1501.28	95.1699
1505.43	128.566
1509.57	80.9546
1513.71	80.4714
1517.85	47.959
1521.99	51.2412
1526.12	70.2339
1530.25	35.1011
1534.38	41.1345
1538.5	44.5078
1542.62	12.041
1546.74	105.881
1550.86	62.6621
1554.98	198.927
1559.09	51.1975
1563.2	19.3665
1567.31	1.96191
1571.41	2.01074
