Measurement: Raman, 514 nm, depolarized, Raman Data Processed
Mineral: Covellite
Rruff sample: R060129
Ideal chemistry: Cu^1+^S
Locality: Butte, Montana, USA
Source: University of Arizona Mineral Museum
Description: Iridescent blue metallic hexagonal plates
Measured chemistry: Cu_1.00_S_1.00_
Pin_id: L00818
Orientation: Laser parallel to c* (0 0 1). Fiducial mark perpendicular to laser is parallel to a [1 0 0]
Raman shift (cm-1)	intensity
170.936	0
174.61	300.248
178.282	251.527
181.952	318.894
185.622	450.744
189.29	612.545
192.956	950.9
196.622	1109.44
200.286	1439.55
203.948	926.359
207.609	150.375
211.269	120.629
214.928	197.951
218.585	96.8887
222.24	35.834
225.895	15.9004
229.548	51.2695
233.199	188.887
236.849	99.1191
240.498	362.199
244.146	457.162
247.792	735.713
251.437	1334.72
255.08	2159.03
258.722	3105.89
262.363	2918.62
266.002	2622.52
269.64	1999.8
273.276	2020.42
276.912	1835.95
280.545	1420.57
284.178	827.342
287.809	879.268
291.438	790.562
295.067	831.738
298.693	559.1
302.319	757.031
305.943	1159.26
309.566	1072.63
313.187	1412.69
316.807	1963.47
320.426	2976.38
324.043	4741.9
327.659	6862.43
331.273	7716.69
334.886	6515.88
338.498	4126.81
342.108	2452.2
345.717	1385.5
349.324	953.246
352.931	1068.98
356.535	1068.29
360.139	1696.96
363.741	1918.29
367.341	2146.68
370.94	2507.26
374.538	2659.17
378.135	2568.09
381.73	2682.33
385.323	1854.76
388.916	1195.3
392.506	639.344
396.096	347.822
399.684	77.7598
403.271	87.791
406.856	81.0566
410.44	15.1074
414.022	87.416
417.603	17.0078
421.183	131.49
424.761	49.9551
428.338	175.557
431.914	165.291
435.488	9.03516
439.061	807.846
442.632	916.229
446.202	1463.72
449.77	2629.58
453.337	3908.17
456.903	5640.06
460.467	8923.15
464.03	15587.3
467.592	27560.4
471.152	32503.6
474.711	20220.8
478.268	10387.1
481.824	5212.39
485.378	2925.78
488.932	2056.28
492.483	1512.43
496.034	987.463
499.582	825.459
503.13	817.613
506.676	648.039
510.221	395.943
513.764	491.908
517.306	226.049
520.846	636.391
524.385	367.443
527.923	469.029
531.459	554.705
534.994	312.4
538.527	250.34
542.059	352.176
545.59	359.238
549.119	201.998
552.647	68.9238
556.173	473.678
559.698	390.928
563.222	120.83
566.744	127.055
570.264	355.434
573.784	537.389
577.302	277.348
580.818	282.816
584.333	36.4297
587.847	122.539
591.359	13.3086
594.87	50.457
598.379	20.1914
601.887	247.059
605.394	174.766
608.899	110.281
612.402	379.039
615.905	256.438
619.406	142.664
622.905	573.938
626.403	316.988
629.9	197.367
633.395	42.3125
636.889	280.348
640.381	282.019
643.872	276.473
647.361	86.918
650.849	345.356
654.336	393.383
657.821	354.715
661.305	582.949
664.787	653.758
668.268	561.641
671.748	520.352
675.226	251.551
678.703	376.644
682.178	125.273
685.652	67.3516
689.124	1.38281
692.595	46.4492
696.065	211.356
699.533	153.277
702.999	63.3438
706.465	384.16
709.929	169.512
713.391	248.012
716.852	312.695
720.311	288.641
723.77	49.0234
727.226	203.098
730.681	185.926
734.135	294.602
737.588	424.367
741.039	344.965
744.488	353.394
747.936	375.309
751.383	182.481
754.828	146.336
758.272	303.856
761.714	484.898
765.155	199.348
768.595	79.6094
772.033	344.113
775.469	166.133
778.904	100.031
782.338	471.106
785.77	419.438
789.201	135.461
792.631	82.0039
796.059	42.9648
799.485	242.41
802.91	300.738
806.334	87.7656
809.756	259.258
813.177	27.1172
816.596	396.856
820.014	107.312
823.431	153.606
826.846	173.566
830.259	32.5586
833.671	79.6367
837.082	251.812
840.491	355.953
843.899	38.043
847.306	52.8086
850.71	246.598
854.114	236.195
857.516	350.223
860.917	228.266
864.316	72.4453
867.713	155.398
871.11	117.301
874.505	19.2812
877.898	199.656
881.29	123.207
884.68	363.32
888.069	263.141
891.457	184.312
894.843	302.41
898.228	109.691
901.611	186.055
904.993	392.043
908.373	580.695
911.752	279.445
915.129	500.074
918.505	1147.52
921.88	1131.5
925.253	926.117
928.625	696.535
931.995	696.184
935.364	623.906
938.731	379.277
942.097	374.121
945.461	238.492
948.824	450.641
952.186	402.816
955.546	230.926
958.904	318.199
962.261	332.492
965.617	144.766
968.971	43.4961
972.324	425.082
975.675	461.602
979.025	431.25
982.374	347.488
985.72	389.688
989.066	406.027
992.41	72
995.753	463.773
999.094	511.988
1002.43	302.894
1005.77	215.356
1009.11	256.422
1012.44	212.016
1015.78	358.164
1019.11	289.926
1022.44	43.3945
1025.77	315.293
1029.1	173.719
1032.42	127.719
1035.75	96.918
1039.07	192.559
1042.4	247.094
1045.72	15.2734
1049.04	82.707
1052.35	293.023
1055.67	518.699
1058.98	304.375
1062.3	64.1523
1065.61	377.641
1068.92	738.996
1072.23	307.828
1075.54	347.727
1078.84	695.086
1082.15	423.785
1085.45	305.934
1088.75	213.856
1092.05	480.727
1095.35	354.781
1098.65	367.758
1101.94	454.219
1105.24	700
1108.53	811.188
1111.82	351.684
1115.11	420.477
1118.4	822.102
1121.69	944.891
1124.97	382.41
1128.26	267.75
1131.54	453.695
1134.82	614.656
1138.1	380.656
1141.38	214.816
1144.66	90.7305
1147.93	367.418
1151.21	79.4102
1154.48	6.37891
1157.75	166.019
1161.02	327.387
1164.29	289.363
1167.55	176.676
1170.82	440.34
1174.08	364.816
1177.34	89.2383
1180.61	266.59
1183.86	501.953
1187.12	324.109
1190.38	418.93
1193.63	122.316
1196.89	69.7656
1200.14	227.168
1203.39	265.195
1206.64	92.5625
1209.88	16.5977
1213.13	557.656
1216.37	611.016
1219.62	60.8008
1222.86	157.785
1226.1	170.106
1229.34	511.293
1232.57	97.0781
1235.81	76.9258
1239.04	553.285
1242.28	579.691
1245.51	374.539
1248.74	280.594
1251.97	460.832
1255.19	532.668
1258.42	777.812
1261.64	330.074
1264.86	771.379
1268.09	627.379
1271.3	187.492
1274.52	10.793
1277.74	221.363
1280.95	270.773
1284.17	171.644
1287.38	489.801
1290.59	156.906
1293.8	637.344
1297.01	607.519
1300.21	713.84
1303.42	514.387
1306.62	393.981
1309.82	666.941
1313.02	417.848
1316.22	624.961
1319.42	583.371
1322.61	906.137
1325.81	368.703
1329	529.387
1332.19	489.844
1335.38	352.406
1338.57	203.996
1341.76	18.3945
1344.94	3.67578
