Measurement: Raman, 514 nm, depolarized, Raman Data Processed
Mineral: Covellite
Rruff sample: R060143
Ideal chemistry: Cu^1+^S
Locality: Butte, Montana, USA
Source: Marcus Origlieri
Description: Irridescent blue to purple hexagonal plates
Measured chemistry: Cu_1.00_S_1.00_
Pin_id: L00879
Orientation: Laser parallel to c* (0 0 1). Fiducial mark perpendicular to laser is parallel to b [0 1 0]
Raman shift (cm-1)	intensity
164.811	0
169.711	230.66
174.61	204.211
179.505	1340.67
184.399	403.647
189.29	740.694
194.178	1409.64
199.064	1665.49
203.948	1373.55
208.829	59.2588
213.708	382.147
218.585	8.94531
223.459	104.058
228.33	102.14
233.199	57.333
238.066	154.696
242.93	262.824
247.792	378.629
252.651	997.03
257.508	2791.06
262.363	2021.1
267.215	1875.24
272.064	1190.64
276.912	1126.15
281.756	852.618
286.598	870.257
291.438	1171.08
296.276	1132.15
301.111	1229.48
305.943	1277.09
310.773	961.957
315.601	916.169
320.426	1050.45
325.248	1557.83
330.068	2114.4
334.886	2600.41
339.701	3047.7
344.514	2172.93
349.324	1646.61
354.132	1345.22
358.938	1033.15
363.741	592.609
368.541	296.903
373.339	414.25
378.135	233.713
382.928	72.6269
387.718	23.7842
392.506	33.4639
397.292	226.52
402.075	852.319
406.856	3476.9
411.634	11347.6
416.41	2517.41
421.183	649.266
425.954	408.141
430.722	622.025
435.488	574.246
440.251	479.438
445.012	773.155
449.77	1837.64
454.526	3463.74
459.28	6009.2
464.03	11884
468.779	33211.2
473.525	43346.9
478.268	16426
483.009	6266.11
487.747	3312.17
492.483	1943.58
497.217	1299.44
501.948	754.87
506.676	646.044
511.402	549.315
516.125	677.689
520.846	583.796
525.565	461.65
530.281	504.044
534.994	705.086
539.705	585.072
544.413	726.986
549.119	554.529
553.822	651.377
558.523	1110.28
563.222	576.762
567.917	608.096
572.611	405.906
577.302	261.431
581.99	436.82
586.676	175.515
591.359	185.087
596.04	476.522
600.718	371.381
605.394	358.376
610.067	255.383
614.737	152.256
619.406	6.88184
624.071	68.0986
628.734	7.17578
633.395	60.3281
638.053	75.3418
642.708	50.1435
647.361	136.159
652.012	223.967
656.66	211.491
661.305	10.8057
665.948	201.84
670.588	71.5762
675.226	60.6865
679.861	112.998
684.494	7.22949
689.124	25.8506
693.752	52.8379
698.377	39.7275
702.999	28.3076
707.619	81.4697
712.237	17.2842
716.852	26.251
721.464	87.2764
726.074	45.2412
730.681	210.206
735.286	197.714
739.888	28.1758
744.488	161.947
749.085	116.024
753.68	346.05
758.272	38.751
762.861	107.901
767.448	223.265
772.033	156.731
776.614	187.815
781.194	109.607
785.77	185.966
790.345	126.913
794.916	199.432
799.485	302.502
804.052	375.229
808.616	426.82
813.177	537.377
817.736	345.323
822.292	530.316
826.846	515.404
831.397	293.756
835.945	226.645
840.491	283.203
845.035	302.115
849.576	265.675
854.114	118.105
858.65	85.6631
863.183	35.8984
867.713	92.6221
872.241	20.5615
876.767	24.1445
881.29	41.96
885.81	43.0752
890.328	78.7031
894.843	211.626
899.356	389.394
903.866	479.63
908.373	447.97
912.878	733.748
917.38	1032.88
921.88	1146.33
926.377	1143.15
930.872	912.2
935.364	650.418
939.853	500.89
944.34	451.555
948.824	367.685
953.306	402.312
957.785	274.26
962.261	498.801
966.735	356.99
971.207	385.714
975.675	445.081
980.141	273.944
984.605	485.347
989.066	395.157
993.524	439.798
997.98	333.794
1002.43	585.131
1006.88	300.493
1011.33	325.183
1015.78	284.996
1020.22	183.954
1024.66	298.601
1029.1	217.955
1033.53	263.188
1037.97	430.514
1042.4	206.21
1046.82	295.218
1051.25	353.601
1055.67	407.299
1060.09	430.886
1064.51	257.262
1068.92	517.259
1073.33	289.262
1077.74	347.534
1082.15	448.757
1086.55	366.588
1090.95	234.874
1095.35	479.117
1099.75	618.499
1104.14	361.36
1108.53	538.739
1112.92	355.039
1117.31	548.885
1121.69	638.914
1126.07	433.971
1130.45	236.102
1134.82	179.558
1139.19	348.365
1143.57	225.539
1147.93	236.245
1152.3	208.079
1156.66	20.0664
1161.02	127.009
1165.38	222.298
1169.73	49.542
1174.08	94.8418
1178.43	172.186
1182.78	90.5723
1187.12	221.987
1191.46	167.305
1195.8	100.599
1200.14	39.4824
1204.47	52.5898
1208.8	15.4141
1213.13	74.4258
1217.46	106.929
1221.78	61.8643
1226.1	93.3623
1230.42	205.467
1234.73	20.4629
1239.04	110.387
1243.35	11.4072
1247.66	21.8994
1251.97	50.5996
1256.27	155.053
1260.57	102.56
1264.86	30.71
1269.16	151.637
1273.45	65.3525
1277.74	49.876
1282.03	41.1309
1286.31	223.2
1290.59	189.981
1294.87	218.827
1299.14	106.557
1303.42	284.118
1307.69	236.61
1311.95	144.982
1316.22	188.999
1320.48	170.819
1324.74	3.81934
1329	124.324
1333.26	105.064
1337.51	170.772
1341.76	71.4717
1346	87.1631
1350.25	57.957
1354.49	130.878
1358.73	80.958
1362.96	35.6904
1367.2	87.0332
1371.43	123.34
1375.66	261.388
1379.88	134.933
1384.11	284.819
1388.33	142.859
1392.54	259.554
1396.76	32.1914
1400.97	148.569
1405.18	155.272
1409.39	49.126
1413.59	118.939
1417.8	120.696
1421.99	280.961
1426.19	133.05
1430.38	355.552
1434.58	400.258
1438.77	496.798
1442.95	643.049
1447.13	575.158
1451.32	663.124
1455.49	490.346
1459.67	469.153
1463.84	448.022
1468.01	383.054
1472.18	347.1
1476.35	487.69
1480.51	398.326
1484.67	109.972
1488.83	303.897
1492.98	266.172
1497.13	228.072
1501.28	6.70508
1505.43	86.5518
1509.57	206.815
1513.71	62.1016
1517.85	246.527
1521.99	45.5996
1526.12	18.293
1530.25	30.8086
1534.38	154.275
1538.5	125.113
1542.62	163.726
1546.74	55.1377
1550.86	405.488
1554.98	822.401
1559.09	155.274
1563.2	251.695
1567.31	134.175
1571.41	110.189
