Measurement: Raman, 514 nm, depolarized, Raman Data Processed
Mineral: Covellite
Rruff sample: R060306
Ideal chemistry: Cu^1+^S
Locality: 3800' level, Leonard mine, Butte, Silver Bow County, Montana, USA
Source: Michael Scott
Description: Blue iridescent metallic hexagonal plates
Measured chemistry: Cu_1.00_S_1.00_
Pin_id: M00422
Orientation: Laser parallel to -c* (0 0 -1). Fiducial mark perpendicular to laser is parallel to a [1 0 0]
Raman shift (cm-1)	intensity
92.246	0
97.182	22.4961
102.116	691.931
107.047	3646.57
111.976	3660.05
116.903	4023.71
121.827	1877.02
126.749	1792.51
131.668	3099.4
136.585	6150.69
141.5	7991.69
146.412	3768.3
151.321	1729.96
156.229	1212.61
161.134	666.664
166.036	1155.76
170.936	851.193
175.834	815.106
180.729	846.236
185.622	890.13
190.512	1214.51
195.4	1608.99
200.286	1660.32
205.169	873.226
210.049	135.408
214.928	9.13086
219.803	65.5
224.677	8.21582
229.548	188.176
234.416	47.169
239.282	102.307
244.146	33.1191
249.007	20.583
253.866	586.814
258.722	1107.25
263.576	1403.92
268.427	1212.14
273.276	827.58
278.123	599.263
282.967	307.099
287.809	239.44
292.648	367.55
297.485	205.587
302.319	189.685
307.151	229.057
311.98	117.458
316.807	142.33
321.631	204.618
326.454	238.917
331.273	261.2
336.09	125.454
340.905	313.64
345.717	207.743
350.527	264.752
355.334	386.197
360.139	319.014
364.941	338.843
369.741	286.919
374.538	288.546
379.333	277.262
384.126	144.972
388.916	210.592
393.703	248.034
398.488	281.393
403.271	263.467
408.051	122.532
412.828	15.7559
417.603	135.008
422.376	101.367
427.146	106.906
431.914	281.485
436.679	411.086
441.442	595.832
446.202	1257.51
450.96	2353.33
455.715	4369.99
460.467	7567.06
465.218	14650.2
469.965	39808.1
474.711	48688.8
479.454	17874.7
484.194	7342.29
488.932	3867.24
493.667	2332.39
498.4	1500.84
503.13	1404.75
507.858	1096.43
512.583	965.09
517.306	1053.88
522.026	973.1
526.744	806.396
531.459	822.911
536.172	858.502
540.882	775.834
545.59	709.963
550.295	723.917
554.998	598.207
559.698	620.352
564.396	534.691
569.091	419.615
573.784	409.522
578.474	392.977
583.162	71.2041
587.847	186.637
592.529	96.6035
597.209	154.64
601.887	155.822
606.562	157.108
611.235	201.571
615.905	170.103
620.572	88.6904
625.237	124.327
629.9	189.102
634.56	86.125
639.217	53.9688
643.872	137.779
648.524	102.519
653.174	77.6572
657.821	68.8506
662.466	49.5801
667.108	107.006
671.748	50.1875
676.385	26.2158
681.02	7.87012
685.652	23.9766
690.281	51.9639
694.908	48.8603
699.533	114.627
704.155	57.3623
708.774	83.3545
713.391	69.7832
718.005	86.626
722.617	265.426
727.226	71.333
731.833	120.699
736.437	274.211
741.039	233.766
745.638	242.576
750.234	333.527
754.828	169.884
759.419	231.217
764.008	342.237
768.595	58.8428
773.178	255.221
777.759	229.285
782.338	174.032
786.914	159.466
791.488	151.575
796.059	130.26
800.627	171.411
805.193	105.223
809.756	181.429
814.317	91.0742
818.875	248.023
823.431	129.259
827.984	245.816
832.534	162.766
837.082	32.248
841.627	166.542
846.17	254.102
850.71	138.806
855.248	70.6973
859.783	119.659
864.316	9.25195
868.846	118.736
873.373	102.978
877.898	45.1338
882.42	160.179
886.94	192.046
891.457	142.87
895.971	237.657
900.483	363.418
904.993	407.736
909.5	647.547
914.004	874.319
918.505	1038.13
923.004	1347.02
927.501	1357.52
931.995	923.009
936.486	520.097
940.975	443.575
945.461	382.242
949.945	284.944
954.426	148.875
958.904	287.212
963.38	181.384
967.853	253.13
972.324	366.971
976.792	239.811
981.258	400.551
985.72	289.607
990.181	296.402
994.639	414.481
999.094	339.147
1003.55	510.538
1008	407.501
1012.44	387.327
1016.89	323.843
1021.33	277.152
1025.77	393.685
1030.21	305.451
1034.64	301.413
1039.07	335.012
1043.5	361.484
1047.93	463.034
1052.35	534.8
1056.78	317.407
1061.19	362.485
1065.61	241.475
1070.02	474.747
1074.43	317.727
1078.84	366.787
1083.25	352.011
1087.65	494.749
1092.05	357.296
1096.45	307.275
1100.85	394.683
1105.24	259.799
1109.63	342.073
1114.02	336.549
1118.4	835.667
1122.78	1044.37
1127.16	787.285
1131.54	495.182
1135.92	174.173
1140.29	119.262
1144.66	143.315
1149.02	50.5957
1153.39	17.9531
1157.75	55.4775
1162.11	198.968
1166.46	0.117188
1170.82	78.9981
1175.17	8.41895
1179.52	65.1289
1183.86	113.501
1188.21	45.877
1192.55	118.248
1196.89	122.513
1201.22	32.2422
1205.55	83.8164
1209.88	60.3652
1214.21	42.9062
1218.54	187.427
1222.86	133.952
1227.18	12.416
1231.5	94.8291
1235.81	85.2305
1240.12	73.6045
1244.43	9.94629
1248.74	183.219
1253.04	12.3818
1257.34	145.523
1261.64	25.6396
1265.94	176.705
1270.23	48.7178
1274.52	92.5889
1278.81	46.6855
1283.1	18.8398
1287.38	51.3086
1291.66	163.591
1295.94	278.815
1300.21	35.7197
1304.48	306
1308.75	173.983
1313.02	113.05
1317.29	203.005
1321.55	143.932
1325.81	101.593
1330.06	227.113
1334.32	69.6211
1338.57	142.18
1342.82	151.957
1347.06	149.989
1351.31	207.504
1355.55	169.244
1359.79	170.923
1364.02	255.208
1368.26	213.995
1372.49	136.422
1376.71	231.266
1380.94	223.278
1385.16	167.076
1389.38	159.599
1393.6	69.5752
1397.81	163.53
1402.02	135.531
1406.23	115.353
1410.44	213.88
1414.64	74.9297
1418.85	146.414
1423.04	187.867
1427.24	132.276
1431.43	51.6728
1435.62	182.667
1439.81	327.344
1444	4.75977
1448.18	45.1855
1452.36	48.4492
1456.54	71.042
1460.71	160.603
1464.89	81.1182
1469.06	135.626
1473.22	124.081
1477.39	29.6045
1481.55	223.039
1485.71	91.46
1489.86	132.143
1494.02	68.0713
1498.17	199.274
1502.32	104.704
1506.46	11.457
1510.61	144.09
1514.75	217.191
1518.88	182.44
1523.02	82.1621
1527.15	103.845
1531.28	207.05
1535.41	75.6875
1539.53	156.474
1543.66	217.272
1547.78	272.504
1551.89	284.531
1556.01	421.773
1560.12	159.869
1564.23	223.393
1568.33	242.258
