Measurement: Raman, 514 nm, depolarized, Raman Data Processed
Mineral: Creedite
Rruff sample: R050141
Ideal chemistry: Ca_3_Al_2_(S^6+^O_4_)(OH)_2_F_8_2H_2_O
Locality: Mina de Navidad, Rodeo, Durango, Mexico
Source: Dave Bunk Minerals
Description: Radiating group of bladed crystals
Measured chemistry: Ca_3.00_Al_2.00_(S_1.00_O_4_)(OH)_2_(F_7.31_(OH)_0.69_)_Σ=8_·2H_2_O ; OH estimated by stoichiometry and charge balance OH=10-F
Pin_id: L00475
Orientation: Laser parallel to (1 0 1). Fiducial mark perpendicular to laser is parallel to b [0 1 0]
Raman shift (cm-1)	intensity
82.27	0
86.461	4.931
90.65	87.513
94.838	113.068
99.023	166.355
103.206	185.641
107.387	384.33
111.566	709.313
115.744	334.277
119.919	425.579
124.092	907.465
128.263	1633.49
132.432	2564.66
136.599	1410.32
140.764	765.316
144.927	694.393
149.088	759.073
153.247	680.04
157.404	329.398
161.559	313.896
165.711	487.292
169.862	769.775
174.011	1096.41
178.158	1168.75
182.303	1035.35
186.446	1296.12
190.587	2204.94
194.726	1811.79
198.862	907.48
202.997	818.441
207.13	652.792
211.261	673.585
215.39	943.483
219.517	838.354
223.642	755.198
227.765	543.013
231.886	205.788
236.005	75.034
240.122	115.644
244.237	41.193
248.35	29.1
252.461	42.645
256.57	21.193
260.677	0.073
264.782	19.131
268.885	27.716
272.986	28.872
277.085	17.477
281.182	77.099
285.278	315.728
289.371	365.345
293.462	199.92
297.552	139.421
301.639	187.844
305.724	131.197
309.808	5.517
313.889	12.677
317.969	96.796
322.046	15.841
326.122	63.222
330.196	56.604
334.267	65.787
338.337	75.945
342.405	103.831
346.471	308.588
350.535	448.343
354.597	136.094
358.657	41.842
362.715	56.567
366.771	239.256
370.825	303.777
374.877	204.142
378.928	114.517
382.976	81.946
387.023	103.401
391.067	53.896
395.11	132.452
399.15	148.036
403.189	236.523
407.226	33.729
411.261	7.983
415.294	31.85
419.325	82.967
423.354	46.012
427.381	2.632
431.406	194.266
435.43	390.862
439.451	780.706
443.471	1144.41
447.488	1532.14
451.504	1722.89
455.518	1414.67
459.53	1564.47
463.54	1580.3
467.548	1403.16
471.554	1329.86
475.558	1793.69
479.561	3634.92
483.561	6129.07
487.559	4753.65
491.556	2249.1
495.551	1096.3
499.544	744.968
503.535	511.218
507.524	306.532
511.511	154.91
515.496	245.352
519.48	532.86
523.461	734.434
527.441	983.075
531.418	1297.79
535.394	1389.59
539.368	974.471
543.34	621.778
547.311	513.592
551.279	485.023
555.245	411.05
559.21	234.994
563.173	149.523
567.133	88.111
571.092	161.946
575.049	275.852
579.005	173.397
582.958	72.462
586.909	344.758
590.859	774.324
594.807	1434.07
598.753	3217.96
602.697	5029.97
606.639	3001.07
610.579	1332.3
614.518	551.597
618.454	280.971
622.389	378.406
626.322	1350.91
630.253	2461.68
634.182	1624.12
638.109	512.822
642.035	324.596
645.958	549.483
649.88	661.513
653.8	710.664
657.718	1046.89
661.634	1534.16
665.549	1822.47
669.461	1262.83
673.372	742.23
677.281	443.668
681.188	267.143
685.093	170.654
688.997	153.651
692.898	26.615
696.798	86.593
700.696	28.234
704.592	159.548
708.486	36.148
712.378	8.076
716.269	120.241
720.158	57.73
724.045	152.09
727.93	99.758
731.813	253.834
735.694	177.911
739.574	240.27
743.452	450.791
747.328	536.816
751.202	596.653
755.075	620.089
758.945	694.517
762.814	948.378
766.681	1263.37
770.546	1134.26
774.409	821.219
778.271	501.296
782.131	411.07
785.989	410.034
789.845	343.816
793.699	137.706
797.552	65.39
801.402	149.021
805.251	263.599
809.098	334.12
812.944	319.582
816.787	403.985
820.629	385.327
824.469	359.609
828.307	453.827
832.144	374.982
835.978	152.074
839.811	28.101
843.642	22.048
847.472	75.901
851.299	125.336
855.125	162.976
858.949	69.456
862.771	55.235
866.591	52.283
870.41	55.837
874.227	188.613
878.042	162.764
881.855	49.398
885.667	17.062
889.476	100.356
893.284	58.68
897.09	165.851
900.895	12.836
904.698	53.288
908.499	55.278
912.298	47.262
916.095	173.705
919.891	183.545
923.685	75.928
927.477	26.081
931.267	1.181
935.056	108.207
938.843	278.18
942.628	348.116
946.411	240.051
950.193	289.919
953.973	160.751
957.751	398.546
961.527	619.299
965.302	844.03
969.075	1128.74
972.846	1324.41
976.615	2442.08
980.383	5103.71
984.149	16591.3
987.913	54198.9
991.675	24596
995.436	7112.9
999.195	2844.76
1002.95	1482.13
1006.71	979.875
1010.46	743.233
1014.21	723.864
1017.96	582.934
1021.71	337.413
1025.46	208.959
1029.2	289.12
1032.95	372.347
1036.69	461.231
1040.43	532.123
1044.17	422.812
1047.9	229.406
1051.64	45.199
1055.37	218.537
1059.1	180.012
1062.83	280.651
1066.56	213.905
1070.29	140.927
1074.01	21.348
1077.73	57.45
1081.46	97.834
1085.17	249.686
1088.89	338.652
1092.61	293.744
1096.32	169.896
1100.04	77.085
1103.75	68.386
1107.46	132.769
1111.16	260.449
1114.87	447.904
1118.57	696.114
1122.28	1242.14
1125.98	2001.37
1129.67	2862.55
1133.37	6024
1137.07	8942.55
1140.76	5354.64
1144.45	2653.02
1148.14	1324.39
1151.83	628.569
1155.52	418.575
1159.21	302.906
1162.89	198.734
1166.57	282.422
1170.25	374.943
1173.93	683.276
1177.61	772.105
1181.28	1686.72
1184.96	3299.78
1188.63	1828.28
1192.3	756.501
1195.97	493.265
1199.64	349.038
1203.3	277.687
1206.97	349.875
1210.63	110.844
1214.29	106.387
1217.95	20.58
1221.6	119.472
1225.26	226.609
1228.91	326.458
1232.57	400.817
1236.21	336.909
1239.86	117.884
1243.51	50.67
1247.16	15.164
1250.8	40.459
1254.44	105.837
1258.08	181.143
1261.72	228.54
1265.36	262.884
1268.99	251.158
1272.63	166.097
1276.26	23.292
1279.89	12.183
1283.52	5.964
1287.15	142.829
1290.77	326.19
1294.4	365.106
1298.02	294.901
1301.64	230.205
1305.26	37.865
1308.88	26.332
1312.49	32.401
1316.11	61.664
1319.72	139.048
1323.33	179.588
1326.94	163.943
1330.55	238.133
1334.15	164.826
1337.76	141.631
1341.36	22.745
1344.96	31.064
1348.56	95.59
1352.16	158.731
1355.75	253
1359.35	305.02
1362.94	383.772
1366.53	383.331
1370.12	310.373
1373.71	125.735
1377.3	56.537
1380.88	53.843
1384.46	83.372
1388.05	141.635
1391.63	197.423
1395.2	395.84
1398.78	380.4
1402.36	476.346
1405.93	307.207
1409.5	290.384
1413.07	207.845
1416.64	32.817
1420.21	44.977
1423.78	53.82
1427.34	94.044
1430.9	298.119
1434.46	256.271
1438.02	479.561
1441.58	522.9
1445.13	368.764
1448.69	263.418
1452.24	166.438
1455.79	143.975
1459.34	114.515
1462.89	106.053
1466.44	116.377
1469.98	286.651
1473.53	449.382
1477.07	517.102
1480.61	498.255
1484.14	464.049
1487.68	421.369
1491.22	350.516
1494.75	216.16
1498.28	54.484
1501.81	23.667
1505.34	55.569
1508.87	207.067
1512.4	230.65
1515.92	226.271
1519.44	266.039
