Measurement: Raman, 514 nm, depolarized, Raman Data Processed
Mineral: Creedite
Rruff sample: R050141
Ideal chemistry: Ca_3_Al_2_(S^6+^O_4_)(OH)_2_F_8_2H_2_O
Locality: Mina de Navidad, Rodeo, Durango, Mexico
Source: Dave Bunk Minerals
Description: Radiating group of bladed crystals
Measured chemistry: Ca_3.00_Al_2.00_(S_1.00_O_4_)(OH)_2_(F_7.31_(OH)_0.69_)_Σ=8_·2H_2_O ; OH estimated by stoichiometry and charge balance OH=10-F
Pin_id: L00203
Orientation: Laser parallel to c* (0 0 1). Fiducial mark perpendicular to laser is parallel to -a [-1 0 0]
Raman shift (cm-1)	intensity
101.812	0
105.994	2.752
110.174	178.401
114.351	153.727
118.527	490.329
122.701	115.725
126.873	551.025
131.042	1380.48
135.21	833.441
139.376	398.464
143.539	278.928
147.701	120.13
151.861	12.322
156.018	68.209
160.174	17.051
164.327	59.953
168.479	383.156
172.628	741.989
176.776	528.46
180.922	476.225
185.065	527.651
189.207	918.786
193.346	1075.06
197.484	485.359
201.619	330.625
205.753	231.4
209.884	184.435
214.014	504.403
218.141	567.217
222.267	246.413
226.391	98.532
230.512	53.537
234.632	25.292
238.749	51.267
242.865	15.417
246.979	92.934
251.09	27.117
255.2	81.417
259.308	102.648
263.414	17.468
267.517	30.845
271.619	14.653
275.719	73.436
279.817	105.347
283.913	139.994
288.007	181.415
292.099	255.741
296.189	146.318
300.277	46.61
304.363	83.243
308.447	122.254
312.529	81.079
316.609	26.749
320.687	27.471
324.764	80.369
328.838	21.295
332.91	18.097
336.981	56.239
341.049	114.778
345.116	159.906
349.18	303.522
353.243	239.566
357.304	205.24
361.362	151.67
365.419	174.226
369.474	358.064
373.527	410.414
377.578	254.192
381.627	123.245
385.674	194.72
389.719	252.19
393.762	258.111
397.804	248.635
401.843	325.105
405.881	325.737
409.916	158.338
413.95	70.541
417.981	68.305
422.011	151.364
426.039	108.791
430.065	81.829
434.089	255.29
438.111	620.74
442.131	909.584
446.149	809.509
450.166	1025.09
454.18	921.567
458.193	979.745
462.203	943.337
466.212	660.95
470.219	689.337
474.224	985.35
478.227	1438.14
482.228	2483.22
486.227	2745.21
490.224	1522.41
494.22	706.961
498.213	350.865
502.205	221.306
506.194	252.41
510.182	228.702
514.168	207.166
518.152	277.561
522.134	389.588
526.114	605.005
530.093	743.004
534.069	703.714
538.044	548.927
542.017	444.937
545.987	343.194
549.956	137.45
553.923	115.702
557.889	99.416
561.852	131.692
565.813	105.3
569.773	32.13
573.731	78.867
577.686	157.562
581.64	256.052
585.593	217.808
589.543	378.813
593.491	879.214
597.438	1991.68
601.382	3902.2
605.325	2478.74
609.266	861.274
613.205	507.797
617.142	385.332
621.078	269.873
625.011	327.426
628.943	934.991
632.872	886.87
636.8	350.178
640.726	189.849
644.651	94.261
648.573	146.284
652.494	200.189
656.412	140.197
660.329	82.989
664.244	7.764
668.157	96.52
672.069	161.253
675.978	159
679.886	117.587
683.792	30.282
687.696	26.232
691.598	55.507
695.498	42.159
699.397	28.229
703.293	77.851
707.188	2.68
711.081	11.946
714.972	6.818
718.862	5.566
722.749	38.965
726.635	33.53
730.519	90.572
734.401	129.849
738.281	49.364
742.16	46.894
746.036	69.289
749.911	182.703
753.784	191.965
757.655	169.969
761.525	181.367
765.392	153.727
769.258	227.89
773.122	221.083
776.984	170.237
780.844	77.352
784.703	4.573
788.56	70.431
792.415	94.377
796.268	155.252
800.119	18.074
803.969	3.155
807.816	19.548
811.662	124.207
815.506	182.606
819.349	119.954
823.189	54.503
827.028	70.618
830.865	81.087
834.7	79.431
838.534	124.723
842.365	78.906
846.195	31.418
850.023	16.235
853.85	25.984
857.674	134.051
861.497	93.892
865.318	47.689
869.137	27.898
872.955	16.616
876.77	67.652
880.584	99.509
884.396	18.393
888.207	3.961
892.015	0.76
895.822	19.527
899.627	102.321
903.43	73.095
907.232	61.83
911.032	1.285
914.83	1.604
918.626	16.105
922.42	122.767
926.213	125.411
930.004	34.061
933.793	27.712
937.581	63.196
941.366	62.723
945.15	106.683
948.932	190.327
952.713	229.33
956.491	129.331
960.268	187.836
964.044	267.901
967.817	580.637
971.589	841.365
975.359	1351.13
979.127	2153.91
982.893	5726.68
986.658	26230.6
990.421	19552.4
994.183	4871.02
997.942	1984.24
1001.7	1014
1005.46	512.015
1009.21	354.181
1012.96	253.452
1016.71	338.245
1020.46	347.731
1024.21	256.319
1027.96	196.936
1031.7	197.606
1035.44	202.81
1039.18	296.769
1042.92	359.459
1046.66	327.263
1050.39	184.522
1054.13	61.479
1057.86	10.243
1061.59	18.513
1065.32	108.532
1069.05	175.66
1072.77	138.822
1076.49	166.959
1080.22	147.904
1083.94	271.095
1087.65	332.463
1091.37	276.624
1095.09	156.791
1098.8	164.249
1102.51	72.603
1106.22	22.961
1109.93	17.799
1113.63	30.267
1117.34	150.989
1121.04	309.52
1124.74	513.949
1128.44	869.272
1132.14	1353.87
1135.84	2321.34
1139.53	1373.66
1143.22	611.741
1146.91	289.549
1150.61	257.686
1154.29	239.849
1157.98	133.542
1161.66	59.269
1165.35	22.976
1169.03	16.141
1172.71	94.412
1176.38	193.03
1180.06	387.437
1183.73	707.451
1187.41	487.879
1191.08	165.18
1194.75	21.045
1198.41	37.306
1202.08	15.31
1205.74	105.327
1209.41	137.599
1213.07	174.683
1216.73	114.796
1220.38	26.915
1224.04	7.885
1227.69	57.557
1231.35	68.499
1235	77.2
1238.65	169.879
1242.3	204.353
1245.94	189.923
1249.59	99.318
1253.23	80.453
1256.87	10.468
1260.51	88.21
1264.15	121.299
1267.78	177.537
1271.42	202.586
1275.05	233.534
1278.68	171.282
1282.31	76.949
1285.94	13.407
1289.56	8.458
1293.19	3.081
1296.81	26.407
1300.43	148.593
1304.05	226.535
1307.67	139.34
1311.29	112.041
1314.9	97.615
1318.52	20.876
1322.13	42.469
1325.74	16.654
1329.34	79.699
1332.95	118.64
1336.56	179.423
1340.16	206.732
1343.76	190.25
1347.36	85.469
1350.96	28.62
1354.56	51.759
1358.15	25.185
1361.74	71.08
1365.34	133.591
1368.93	174.669
1372.52	77.515
1376.1	226.308
1379.69	203.182
1383.27	141.048
1386.85	54.808
1390.43	40.469
1394.01	25.752
1397.59	52.205
1401.17	98.208
1404.74	150.492
1408.31	202.896
1411.88	146.159
1415.45	259.393
1419.02	196.638
1422.59	153.229
1426.15	86.818
1429.71	2.91
1433.28	9.349
1436.84	77.429
1440.39	110.963
1443.95	297.709
1447.5	335.677
1451.06	321.824
1454.61	316.974
1458.16	227.812
1461.71	201.872
1465.26	100.284
1468.8	111.991
1472.34	41.833
1475.89	71.752
1479.43	103.737
1482.97	225.694
1486.5	192.935
1490.04	281.798
1493.57	185.14
1497.11	204.246
1500.64	200.061
1504.17	123.228
1507.69	34.017
1511.22	43.308
1514.74	0.614
1518.27	0
