Measurement: Raman, 514 nm, depolarized, Raman Data Processed
Mineral: Creedite
Rruff sample: R050141
Ideal chemistry: Ca_3_Al_2_(S^6+^O_4_)(OH)_2_F_8_2H_2_O
Locality: Mina de Navidad, Rodeo, Durango, Mexico
Source: Dave Bunk Minerals
Description: Radiating group of bladed crystals
Measured chemistry: Ca_3.00_Al_2.00_(S_1.00_O_4_)(OH)_2_(F_7.31_(OH)_0.69_)_Σ=8_·2H_2_O ; OH estimated by stoichiometry and charge balance OH=10-F
Pin_id: L00115
Orientation: Laser parallel to -b* (0 -1 0). Fiducial mark perpendicular to laser is parallel to c [0 0 1]
Raman shift (cm-1)	intensity
96.233	0
100.418	58.314
104.6	86.115
108.781	151.666
112.959	447.743
117.136	232.549
121.31	156.349
125.482	148.703
129.653	249.178
133.821	150.852
137.987	6.969
142.152	74.905
146.314	232.476
150.474	199.155
154.633	226.239
158.789	169.573
162.943	170.828
167.095	131.563
171.246	251.41
175.394	452.266
179.54	377.836
183.684	242.068
187.826	568.029
191.967	821.983
196.105	368.033
200.241	91.648
204.375	122.485
208.507	172.146
212.638	19.534
216.766	90.853
220.892	194.396
225.016	273.067
229.139	78.814
233.259	127.653
237.377	148.541
241.493	21.57
245.608	85.58
249.72	112.723
253.83	130.793
257.939	11.8
262.045	72.93
266.15	51.878
270.252	22.945
274.353	16.621
278.451	96.686
282.548	194.015
286.642	146.524
290.735	8.842
294.826	92.852
298.914	163.572
303.001	31.713
307.086	5.962
311.168	150.626
315.249	176.254
319.328	61.236
323.405	118.903
327.48	3.783
331.553	103.193
335.624	15.001
339.693	1.793
343.76	149.413
347.826	261.995
351.889	79.832
355.95	53.241
360.01	156.478
364.067	205.8
368.123	141.249
372.176	171.153
376.228	209.193
380.277	252.482
384.325	48.258
388.371	70.06
392.415	305.278
396.457	385.467
400.497	158.625
404.535	134.634
408.571	143.763
412.605	221.859
416.638	82.923
420.668	56.957
424.697	233.977
428.723	366.987
432.748	386.975
436.77	913.427
440.791	2301.34
444.81	1913.2
448.827	900.021
452.842	423.052
456.855	353.003
460.867	544.665
464.876	363.312
468.883	164.627
472.889	195.142
476.892	449.121
480.894	683.344
484.894	595.842
488.892	375.52
492.888	294.421
496.882	313.218
500.874	145.558
504.865	40.138
508.853	37.01
512.84	286.124
516.824	212.202
520.807	7.234
524.788	15.772
528.767	227.15
532.744	219.125
536.719	329.36
540.693	112.215
544.664	152.444
548.634	313.345
552.601	337.912
556.567	112.464
560.531	49.549
564.493	247.125
568.453	300.832
572.412	263.511
576.368	110.23
580.323	141.689
584.275	401.394
588.226	404.229
592.175	364.961
596.122	512.753
600.068	1555.51
604.011	1919.27
607.952	885.009
611.892	238.743
615.83	146.531
619.766	297.336
623.7	460.176
627.632	304.049
631.563	51.731
635.491	250.624
639.418	367.064
643.343	492.255
647.266	426.438
651.187	296.67
655.106	524.175
659.024	827.989
662.939	1068.27
666.853	830.626
670.765	486.59
674.675	451.924
678.583	460.222
682.49	333.209
686.394	136.908
690.297	5.207
694.198	76.548
698.097	329.978
701.995	367.659
705.89	56.13
709.784	53.151
713.675	159.167
717.565	235.595
721.453	293.691
725.34	138.258
729.224	36.003
733.107	132.036
736.988	324.922
740.867	410.54
744.744	148.378
748.62	32.226
752.493	116.519
756.365	417.123
760.235	551.929
764.103	531.75
767.969	298.521
771.834	316.109
775.697	380.954
779.558	465.025
783.417	390.883
787.274	78.885
791.13	42.4
794.983	172.941
798.835	323.431
802.686	367.876
806.534	160.293
810.38	28.32
814.225	84.99
818.068	298.293
821.909	433.594
825.749	404.87
829.586	162.119
833.422	40.353
837.256	54.562
841.088	299.703
844.919	340.565
848.748	158.526
852.575	64.702
856.4	67.642
860.223	169.821
864.045	334.849
867.864	273.856
871.682	132.25
875.499	98.701
879.313	65.09
883.126	304.486
886.937	398.095
890.746	337.818
894.553	125.186
898.359	51.569
902.163	96.866
905.965	131.198
909.765	357.868
913.564	405.108
917.361	135.3
921.156	71.573
924.949	31.445
928.74	238.423
932.53	509.366
936.318	360.296
940.104	125.37
943.889	11.224
947.672	69.677
951.453	341.398
955.232	567.224
959.01	503.043
962.785	346.481
966.559	197.281
970.332	231.091
974.102	623.898
977.871	1051.71
981.638	2219.53
985.404	8296.25
989.167	13373
992.929	3922.53
996.689	1199.34
1000.45	924.114
1004.2	759.85
1007.96	617.773
1011.71	295.823
1015.46	65.905
1019.21	69.109
1022.96	295.824
1026.71	544.25
1030.45	557.832
1034.19	393.989
1037.94	141.345
1041.68	154.952
1045.41	262.933
1049.15	363.982
1052.88	643.466
1056.62	375.194
1060.35	271.443
1064.08	158.72
1067.8	75.969
1071.53	173.021
1075.25	460.47
1078.97	590.046
1082.7	474.251
1086.41	378.415
1090.13	149.625
1093.85	23.865
1097.56	114.123
1101.27	272.403
1104.98	605.883
1108.69	578.488
1112.4	277.137
1116.1	115.813
1119.81	68.363
1123.51	316.521
1127.21	651.771
1130.91	1121.18
1134.61	2113.75
1138.3	2147.73
1141.99	979.577
1145.68	345.866
1149.38	187.445
1153.06	177.354
1156.75	566.426
1160.43	582.985
1164.12	603.689
1167.8	478.756
1171.48	179.272
1175.16	3.542
1178.83	78.646
1182.51	298.617
1186.18	559.746
1189.85	130.423
1193.52	562.568
1197.19	368.742
1200.86	248.875
1204.52	71.637
1208.19	4.241
1211.85	0
