Measurement: Raman, 514 nm, depolarized, Raman Data Processed
Mineral: Creedite
Rruff sample: R050141
Ideal chemistry: Ca_3_Al_2_(S^6+^O_4_)(OH)_2_F_8_2H_2_O
Locality: Mina de Navidad, Rodeo, Durango, Mexico
Source: Dave Bunk Minerals
Description: Radiating group of bladed crystals
Measured chemistry: Ca_3.00_Al_2.00_(S_1.00_O_4_)(OH)_2_(F_7.31_(OH)_0.69_)_Σ=8_·2H_2_O ; OH estimated by stoichiometry and charge balance OH=10-F
Pin_id: L00255
Orientation: Laser parallel to a* (1 0 0). Fiducial mark perpendicular to laser is parallel to b [0 1 0]
Raman shift (cm-1)	intensity
99.023	0
103.206	47.852
107.387	73.323
111.566	513.696
115.744	184.144
119.919	231.472
124.092	513.089
128.263	724.223
132.432	1242.14
136.599	552.58
140.764	222.612
144.927	76.64
149.088	169.719
153.247	120.945
157.404	70.512
161.559	24.497
165.711	152.431
169.862	389.668
174.011	783.66
178.158	619.334
182.303	632.473
186.446	989.308
190.587	2307.91
194.726	1878.13
198.862	779.525
202.997	400.421
207.13	261.388
211.261	257.414
215.39	387.646
219.517	211.259
223.642	226.097
227.765	164.943
231.886	21.16
236.005	21.74
240.122	5.092
244.237	79.928
248.35	40.927
252.461	52.43
256.57	120.468
260.677	34.465
264.782	92.154
268.885	42.568
272.986	36.331
277.085	5.236
281.182	27.047
285.278	142.723
289.371	265.344
293.462	151.76
297.552	79.498
301.639	176.411
305.724	261.683
309.808	258.477
313.889	321.697
317.969	269.758
322.046	226.46
326.122	93.78
330.196	37.128
334.267	100.56
338.337	75.376
342.405	12.633
346.471	94.061
350.535	180.623
354.597	183.565
358.657	132.194
362.715	150.579
366.771	211.718
370.825	317.066
374.877	177.684
378.928	126.854
382.976	165.633
387.023	217.408
391.067	146.305
395.11	162.563
399.15	235.457
403.189	327.407
407.226	166.061
411.261	65.112
415.294	130.447
419.325	196.458
423.354	196.953
427.381	220.355
431.406	501.386
435.43	1306.19
439.451	3584.97
443.471	3835.97
447.488	1749.72
451.504	1223.06
455.518	795.299
459.53	822.355
463.54	842.897
467.548	738.064
471.554	669.52
475.558	675.563
479.561	1246.07
483.561	2377.78
487.559	1717.75
491.556	747.116
495.551	316.66
499.544	220.15
503.535	261.122
507.524	165.022
511.511	66.258
515.496	89.487
519.48	249.854
523.461	403.678
527.441	459.635
531.418	528.177
535.394	609.452
539.368	568.171
543.34	330.844
547.311	157.875
551.279	197.965
555.245	211.863
559.21	164.076
563.173	120.431
567.133	167.694
571.092	244
575.049	222.591
579.005	151.133
582.958	40.518
586.909	164.291
590.859	449.261
594.807	787.351
598.753	1029.86
602.697	952.178
606.639	544.014
610.579	307.278
614.518	163.56
618.454	24.858
622.389	51.184
626.322	347.572
630.253	1031.48
634.182	495.534
638.109	120.849
642.035	73.27
645.958	205.835
649.88	258.01
653.8	235.546
657.718	224.088
661.634	522.706
665.549	777.287
669.461	583.018
673.372	389.753
677.281	161.498
681.188	64.448
685.093	203.95
688.997	144.794
692.898	77.948
696.798	16.403
700.696	6.274
704.592	26.973
708.486	60.524
712.378	4.009
716.269	89.414
720.158	71.953
724.045	54.254
727.93	113.307
731.813	109.118
735.694	1.952
739.574	16.292
743.452	61.908
747.328	228.573
751.202	193.299
755.075	23.775
758.945	0.933
762.814	134.461
766.681	262.947
770.546	232.454
774.409	120.479
778.271	59.828
782.131	39.315
785.989	138.469
789.845	176.983
793.699	64.987
797.552	31.883
801.402	9.292
805.251	110.432
809.098	155.082
812.944	134.624
816.787	85.107
820.629	34.529
824.469	130.886
828.307	190.181
832.144	170.41
835.978	93.57
839.811	52.615
843.642	42.568
847.472	83.358
851.299	152.966
855.125	168.385
858.949	114.266
862.771	35.648
866.591	17.484
870.41	78.223
874.227	215.102
878.042	158.267
881.855	64.895
885.667	25.063
889.476	56.078
893.284	96.923
897.09	120.767
900.895	137.379
904.698	4.972
908.499	50.48
912.298	43.693
916.095	117.216
919.891	142.689
923.685	157.122
927.477	20.518
931.267	2.869
935.056	86.073
938.843	135.918
942.628	236.504
946.411	191.801
950.193	133.847
953.973	80.47
957.751	139.442
961.527	263.971
965.302	454.142
969.075	589.172
972.846	582.115
976.615	948.169
980.383	1998.12
984.149	7066.06
987.913	26455.8
991.675	9432.91
995.436	2471.72
999.195	1004.36
1002.95	473.397
1006.71	381.935
1010.46	348.358
1014.21	369.353
1017.96	243.467
1021.71	136.628
1025.46	21.578
1029.2	64.688
1032.95	63.913
1036.69	220.283
1040.43	256.74
1044.17	100.591
1047.9	73.14
1051.64	78.379
1055.37	14.357
1059.1	58.438
1062.83	160.049
1066.56	188.632
1070.29	183.09
1074.01	57.676
1077.73	106.002
1081.46	214.772
1085.17	573.374
1088.89	531.03
1092.61	393.45
1096.32	189.31
1100.04	106.072
1103.75	39.065
1107.46	37.094
1111.16	87.25
1114.87	218.219
1118.57	329.036
1122.28	372.986
1125.98	657.572
1129.67	818.51
1133.37	1877.35
1137.07	2942.53
1140.76	1723.42
1144.45	904.349
1148.14	505.765
1151.83	293.909
1155.52	138.748
1159.21	125.481
1162.89	0.675
1166.57	162.625
1170.25	185.998
1173.93	358.532
1177.61	477.656
1181.28	867.954
1184.96	1591.04
1188.63	954.576
1192.3	232.797
1195.97	216.593
1199.64	266.475
1203.3	271.305
1206.97	209.589
1210.63	191.042
1214.29	73.16
1217.95	4.295
1221.6	73.052
1225.26	81.513
1228.91	183.964
1232.57	253.421
1236.21	262.136
1239.86	199.152
1243.51	59.804
1247.16	8.361
1250.8	54.653
1254.44	88.28
1258.08	132.874
1261.72	232.279
1265.36	46.156
1268.99	50.848
1272.63	119.679
1276.26	85.646
1279.89	11.251
1283.52	28.813
1287.15	52.525
1290.77	187.585
1294.4	210.287
1298.02	276.647
1301.64	305.232
1305.26	134.721
1308.88	82.551
1312.49	10.414
1316.11	28.192
1319.72	121.837
1323.33	185.374
1326.94	218.816
1330.55	303.304
1334.15	201.534
1337.76	159.619
1341.36	116.572
1344.96	25.599
1348.56	67.344
1352.16	10.428
1355.75	119.822
1359.35	238.116
1362.94	327.948
1366.53	329.418
1370.12	271.199
1373.71	121.634
1377.3	48.715
1380.88	12.822
1384.46	50.035
1388.05	103.05
1391.63	158.604
1395.2	341.415
1398.78	347.152
1402.36	356.628
1405.93	323.541
1409.5	224.041
1413.07	177.217
1416.64	90.895
1420.21	7.894
1423.78	78.056
1427.34	137.057
1430.9	263.195
1434.46	246.021
1438.02	338.187
1441.58	430.017
1445.13	354.767
1448.69	351.023
1452.24	231.443
1455.79	99.641
1459.34	134.585
1462.89	135.465
1466.44	149.786
1469.98	212.957
1473.53	321.286
1477.07	380.606
1480.61	390.472
1484.14	356.882
1487.68	308.051
1491.22	248.103
1494.75	162.397
1498.28	91.75
1501.81	0.403
1505.34	1.493
1508.87	97.647
1512.4	115.357
1515.92	156.916
1519.44	121.738
