Measurement: Raman, 514 nm, depolarized, Raman Data Processed
Mineral: Crocoite
Rruff sample: R040053
Ideal chemistry: Pb^2+^Cr^6+^O_4_
Locality: Dundas, Tasmania
Source: Bob Downs
Description: Reddish-orange prismatic crystal
Measured chemistry: (Pb_.995_Mn_.005_)CrO_4_
Pin_id: L00142
Orientation: Laser parallel to c* (0 0 1). Fiducial mark perpendicular to laser is parallel to a [1 0 0]
Raman shift (cm-1)	intensity
66.157	0
70.349	154.951
74.54	8.466
78.729	113.334
82.916	46.132
87.101	92.476
91.284	171.785
95.465	286.756
99.644	291.834
103.82	208.141
107.995	142.533
112.168	169.823
116.339	524.521
120.508	410.537
124.675	238.179
128.84	302.517
133.003	622.857
137.164	750.826
141.323	634.934
145.48	596.58
149.635	518.03
153.788	554.954
157.939	527.368
162.088	493.089
166.235	459.149
170.38	414.711
174.523	375.757
178.664	343.278
182.803	230.537
186.94	241.267
191.076	233.116
195.209	148.076
199.34	137.036
203.47	138.74
207.597	91.136
211.722	69.184
215.846	72.829
219.967	52.06
224.087	3.127
228.204	32.479
232.32	72.206
236.434	13.533
240.545	57.613
244.655	49.486
248.763	5.781
252.869	30.948
256.973	46.379
261.075	131.233
265.175	143.258
269.273	187.791
273.369	161.632
277.463	180.731
281.556	252.538
285.646	313.797
289.734	305.444
293.821	285.512
297.905	345.543
301.988	399.121
306.069	418.029
310.147	480.304
314.224	562.22
318.299	644.215
322.372	900.094
326.443	1501.03
330.512	1270.36
334.579	1336.32
338.645	2495.95
342.708	1565.04
346.769	1625.79
350.829	1526.73
354.887	769.322
358.942	702.535
362.996	741.469
367.048	650.347
371.098	728.593
375.146	1631.5
379.192	2195.55
383.236	898.252
387.279	594.36
391.319	548.724
395.358	608.985
399.394	836.375
403.429	715.732
407.462	462.58
411.493	423.765
415.522	386.851
419.549	298.706
423.575	329.713
427.598	355.581
431.619	320.098
435.639	346.836
439.657	348.514
443.673	332.052
447.687	341.966
451.699	334.965
455.709	316.323
459.717	354.323
463.724	327.45
467.728	293.165
471.731	224.608
475.732	273.769
479.731	314.306
483.728	253.899
487.723	232.852
491.716	256.172
495.708	277.803
499.697	218.013
503.685	187.635
507.671	197.083
511.655	248.059
515.637	253.607
519.617	207.686
523.596	133.285
527.572	181.585
531.547	155.535
535.52	167.573
539.491	111.643
543.46	111.719
547.427	189.451
551.393	151.191
555.356	112.958
559.318	86.235
563.278	87.208
567.236	133.24
571.192	86.343
575.147	55.04
579.099	76.062
583.05	113.004
586.999	50.09
590.946	33.932
594.891	13.936
598.834	6.338
602.776	42.569
606.715	44.783
610.653	13.774
614.589	7.265
618.523	20.823
622.456	38.463
626.386	4.075
630.315	23.485
634.242	19.012
638.167	43.63
642.09	51.8
646.012	12.848
649.931	26.538
653.849	9.174
657.765	40.779
661.679	45.702
665.592	48.437
669.502	20.744
673.411	24.659
677.318	28.088
681.223	62.48
685.126	45.318
689.028	14.81
692.927	49.271
696.825	100.633
700.721	61.018
704.616	49.07
708.508	59.826
712.399	1.533
716.288	105.967
720.175	106.656
724.06	79.542
727.944	28.295
731.825	66.25
735.705	110.414
739.584	188.326
743.46	166.277
747.334	123.927
751.207	120.06
755.078	219
758.947	264.931
762.815	228.332
766.68	236.477
770.544	236.539
774.406	315.065
778.267	423.139
782.125	538.607
785.982	620.434
789.837	724.566
793.69	871.082
797.542	1108.34
801.391	1392.26
805.239	1577.82
809.085	1757.52
812.93	2205.15
816.772	2961.66
820.613	4306.22
824.452	6199.16
828.29	7782.27
832.125	10401.1
835.959	17120.2
839.791	27517.7
843.621	23005.5
847.45	15695.2
851.277	13905
855.102	13864.8
858.925	11795
862.746	8715.44
866.566	6368
870.384	4727.35
874.2	3548.18
878.015	2813.11
881.828	2531.95
885.639	2266.23
889.448	2070.43
893.256	1657.31
897.061	1294.41
900.865	1083.27
904.668	955.434
908.468	953.585
912.267	802.942
916.064	666.398
919.86	551.041
923.653	497.843
927.445	438.788
931.236	429.284
935.024	377.508
938.811	327.556
942.596	220.062
946.379	109.703
950.161	127.197
953.94	227.082
957.719	213.525
961.495	152.078
965.27	81.437
969.043	77.941
972.814	46.582
976.583	110.354
980.351	191.878
984.117	168.927
987.882	84.387
991.644	29.868
995.405	64.17
999.165	51.095
1002.92	185.312
1006.68	174.74
1010.43	140.41
1014.18	5.489
1017.93	31.703
1021.68	21.467
1025.43	75.545
1029.18	115.628
1032.92	64.899
1036.66	25.71
1040.4	33.857
1044.14	34.552
1047.88	39.818
1051.62	76.267
1055.35	177.787
1059.08	108.259
1062.81	93.857
1066.54	76.418
1070.27	20.821
1073.99	81.824
1077.72	132.39
1081.44	112.972
1085.16	93.768
1088.88	81.288
1092.59	103.796
1096.31	26.669
1100.02	26.323
1103.73	28.824
1107.44	91.165
1111.15	106.34
1114.86	68.711
1118.57	31.788
1122.27	248.06
1125.97	137.422
1129.67	91.42
1133.37	99.399
1137.07	171.114
1140.76	102
1144.45	11.646
1148.15	57.779
1151.84	9.37
1155.53	60.792
1159.21	105.98
1162.9	158.923
1166.58	41.927
1170.26	86.329
1173.94	113.527
1177.62	69.979
1181.3	3.992
1184.97	104.526
1188.65	202.726
1192.32	198.073
1195.99	232.475
1199.66	206.353
1203.33	122.207
1206.99	87.431
1210.65	103.071
1214.32	148.756
1217.98	200.756
1221.64	252.083
1225.29	290.136
1228.95	237.36
1232.6	200.653
1236.26	133.2
1239.91	137.299
1243.56	161.215
1247.2	250.707
1250.85	329.856
1254.49	298.373
1258.13	207.936
1261.78	130.04
1265.41	95.777
1269.05	85.313
1272.69	129.631
1276.32	124.169
1279.95	200.126
1283.59	286.603
1287.21	301.179
1290.84	194.56
1294.47	168.976
1298.09	74.267
1301.72	77.86
1305.34	69.567
1308.96	132.063
1312.58	94.052
1316.19	75.358
1319.81	114.256
1323.42	85.687
1327.03	138.368
1330.64	27.482
1334.25	13.469
1337.86	24.242
1341.46	51.201
1345.07	106.111
1348.67	151.383
1352.27	143.495
1355.87	179.346
1359.46	151.144
1363.06	60.54
1366.65	61.297
1370.25	32.325
1373.84	35.927
1377.43	45.021
1381.02	135.256
1384.6	220.367
1388.18	204.296
1391.77	253.944
1395.35	215.416
1398.93	152.537
1402.51	47.603
1406.08	61.353
1409.66	63.179
1413.23	97.542
1416.8	112.925
1420.37	151.149
1423.94	323.669
1427.51	260.832
1431.08	299.935
1434.64	221.028
1438.2	134.666
1441.76	57.183
1445.32	39.534
1448.88	7.694
1452.43	14.619
1455.99	32.926
1459.54	217.619
1463.09	312.111
1466.64	240.038
1470.19	173.622
1473.74	213.006
1477.28	274.29
1480.83	133.98
1484.37	101.148
1487.91	48.332
1491.45	42.419
1494.98	101.853
1498.52	79.568
1502.05	181.146
1505.59	289.144
1509.12	333.697
1512.65	227.483
1516.17	206.186
1519.7	335.15
1523.23	141.412
1526.75	96.723
1530.27	48.932
1533.79	1.067
