Measurement: Raman, 514 nm, depolarized, Raman Data Processed
Mineral: Crocoite
Rruff sample: R050044
Ideal chemistry: Pb^2+^Cr^6+^O_4_
Locality: Red Ledge mine, Dundas, Tasmania
Source: Eugene Schlepp
Description: Red crystal fragment
Measured chemistry: Pb_1.02_Cr_0.99_O_4_
Pin_id: L00200
Orientation: Laser parallel to c* (0 0 1). Fiducial mark perpendicular to laser is parallel to -a [-1 0 0]
Raman shift (cm-1)	intensity
162.224	0
166.391	4.648
170.557	6.522
174.72	16.846
178.881	62.257
183.04	55.62
187.197	37.198
191.351	60.265
195.504	54.728
199.654	25.429
203.801	7.614
207.947	18.009
212.09	18.292
216.232	34.987
220.37	32.102
224.507	34.307
228.642	24.903
232.774	25.399
236.904	20.713
241.032	5.046
245.158	1.195
249.282	0.527
253.403	10.049
257.522	2.696
261.639	1.407
265.754	7.865
269.866	17.821
273.977	14.56
278.085	3.964
282.191	14.382
286.295	13.915
290.397	6.933
294.496	9.408
298.594	10.853
302.689	25.987
306.782	31.92
310.873	36.977
314.961	51.182
319.048	95.223
323.132	197.174
327.214	491.398
331.294	652.179
335.372	476.906
339.448	1014.44
343.521	1175.56
347.593	524.497
351.662	863.211
355.729	711.553
359.794	169.807
363.857	151.733
367.917	130.131
371.976	124.345
376.032	308.089
380.086	1126.11
384.138	551.607
388.188	178.823
392.236	101.57
396.282	100.049
400.325	201.834
404.366	372.119
408.406	173.605
412.443	76.157
416.478	65.741
420.511	52.009
424.541	31.332
428.57	46.042
432.596	28.758
436.621	43.226
440.643	56.835
444.663	66.405
448.681	62.873
452.697	55.531
456.711	50.556
460.723	35.802
464.732	55.625
468.74	72.143
472.745	43.533
476.748	55.2
480.749	55.272
484.749	50.948
488.745	51.608
492.74	34.699
496.733	40.045
500.724	60.691
504.712	40.711
508.699	40.957
512.683	57.584
516.666	40.635
520.646	38.804
524.624	40.589
528.6	51.349
532.574	64.025
536.546	38.621
540.516	38.135
544.484	57.57
548.449	36.933
552.413	24.222
556.374	33.438
560.334	36.586
564.291	10.669
568.247	35.687
572.2	24.639
576.151	23.453
580.1	16.165
584.047	0.691
587.992	5.242
591.935	23.557
595.876	0.122
599.815	20.711
603.752	5.414
607.686	4.757
611.619	12.167
615.55	8.318
619.478	27.698
623.405	9.997
627.329	2.41
631.252	5.952
635.172	12.504
639.091	10.168
643.007	26.929
646.921	9.196
650.834	8.32
654.744	3.659
658.652	12.672
662.558	10.229
666.462	7.922
670.365	0.064
674.265	4.262
678.163	0.603
682.059	1.062
685.953	16.82
689.845	10.568
693.735	24.351
697.623	20.916
701.509	26.669
705.393	32.346
709.275	44.863
713.155	15.42
717.032	32.089
720.908	41.532
724.782	56.524
728.654	43.586
732.524	36.046
736.392	41.543
740.258	55.634
744.122	68.03
747.984	99.509
751.844	91.19
755.701	109.756
759.557	121.146
763.411	130.046
767.263	143.935
771.113	133.548
774.961	205.563
778.807	209.366
782.651	241.078
786.493	319.359
790.333	404.365
794.171	476.722
798.007	587.176
801.841	715.375
805.673	824.341
809.504	940.81
813.332	1167.62
817.158	1465.18
820.982	2005.5
824.804	2940.01
828.625	4054.68
832.443	5359.44
836.259	8300.35
840.074	15023.3
843.886	16950.4
847.697	10877.6
851.505	8621.83
855.312	8868.15
859.117	8266.74
862.919	6051.2
866.72	4276.72
870.519	3178.32
874.315	2449.1
878.11	1990.85
881.903	1622.85
885.694	1439.76
889.483	1220.7
893.27	1020.25
897.056	927.35
900.839	779.635
904.62	691.417
908.399	592.773
912.177	482.252
915.952	456.785
919.726	345.419
923.497	289.041
927.267	311.005
931.035	237.948
934.801	206.116
938.565	220.226
942.327	191.634
946.087	157.894
949.845	169.962
953.601	129.468
957.355	101.862
961.108	104.593
964.858	99.443
968.607	60.599
972.353	76.144
976.098	66.347
979.841	57.726
983.582	69.915
987.321	47.08
991.058	48.872
994.793	27.521
998.526	38.885
1002.26	38.15
1005.99	29.486
1009.72	40.676
1013.44	36.898
1017.16	12.03
1020.89	5.652
1024.61	5.7
1028.33	37.091
1032.04	2.485
1035.76	32.961
1039.47	14.435
1043.18	42.926
1046.89	1.562
1050.59	16.029
1054.3	13.511
1058	11.081
1061.7	21.672
1065.4	22.281
1069.1	21.458
1072.8	15.947
1076.49	15.189
1080.18	11.151
1083.87	7.496
1087.56	32.144
1091.24	0.855
1094.93	1.506
1098.61	10.142
1102.29	9.231
1105.97	13.372
1109.65	9.96
1113.32	3.531
1117	27.053
1120.67	1.556
1124.34	4.006
1128	4.435
1131.67	6.171
1135.33	41.157
1139	15.435
1142.66	19.344
1146.32	3.805
1149.97	6.909
1153.63	26.029
1157.28	27.913
1160.93	7.219
1164.58	31.344
1168.23	43.234
1171.87	32.813
1175.52	56.577
1179.16	37.773
1182.8	27.703
1186.43	44.575
1190.07	43.085
1193.71	49.975
1197.34	75.189
1200.97	99.42
1204.6	60.722
1208.22	57.449
1211.85	47.25
1215.47	56.826
1219.1	54.785
1222.71	88.454
1226.33	58.483
1229.95	51.429
1233.56	82.719
1237.18	49.925
1240.79	55.178
1244.4	37.791
1248	56.361
1251.61	55.305
1255.21	71.428
1258.81	68.204
1262.41	73.855
1266.01	66.994
1269.61	50.857
1273.2	50.351
1276.8	59.391
1280.39	55.852
1283.98	37.613
1287.56	60.077
1291.15	42.177
1294.73	28.777
1298.31	38.36
1301.89	31.909
1305.47	3.732
1309.05	7.002
1312.62	12.41
1316.2	16.553
1319.77	29.774
1323.34	28.944
1326.91	36.065
1330.47	26.141
1334.04	16.173
1337.6	19.145
1341.16	17.07
1344.72	3.937
1348.27	19.847
1351.83	24.703
1355.38	53.407
1358.93	48.022
1362.48	24.574
1366.03	24.298
1369.58	13.758
1373.12	5.665
1376.67	12.456
1380.21	21.016
1383.75	12.147
1387.28	29.242
1390.82	31.308
1394.35	17.172
1397.89	32.392
1401.42	19.469
1404.94	10.586
1408.47	2.648
1412	11.313
1415.52	24.431
1419.04	49.867
1422.56	29.492
1426.08	56.795
1429.6	27.096
1433.11	40.786
1436.63	20.704
1440.14	19.301
1443.65	43.135
1447.15	27.194
1450.66	10.09
1454.16	11.233
1457.67	34.916
1461.17	45.586
1464.67	67.342
1468.16	36.25
1471.66	66.696
1475.15	67.138
1478.65	71.031
1482.14	27.994
1485.63	30.821
1489.11	0.901
1492.6	14.65
1496.08	29.219
1499.56	37.729
1503.04	0.219
1506.52	44.82
1510	60.865
1513.47	50.01
1516.95	0
