Measurement: Raman, 514 nm, depolarized, Raman Data Processed
Mineral: Crocoite
Rruff sample: R050044
Ideal chemistry: Pb^2+^Cr^6+^O_4_
Locality: Red Ledge mine, Dundas, Tasmania
Source: Eugene Schlepp
Description: Red crystal fragment
Measured chemistry: Pb_1.02_Cr_0.99_O_4_
Pin_id: L00482
Orientation: Laser parallel to (-1 0 -1). Fiducial mark perpendicular to laser is parallel to b [0 1 0]
Raman shift (cm-1)	intensity
162.224	0
166.391	50.896
170.557	22.302
174.72	79.603
178.881	63.796
183.04	41.577
187.197	84.843
191.351	99.73
195.504	48.898
199.654	28.92
203.801	48.011
207.947	50.416
212.09	28.023
216.232	47.966
220.37	68.177
224.507	80.572
228.642	17.727
232.774	27.719
236.904	26.196
241.032	33.655
245.158	12.776
249.282	36.277
253.403	22.111
257.522	46.162
261.639	17.687
265.754	22.456
269.866	8.555
273.977	35.549
278.085	21.386
282.191	35.058
286.295	34.521
290.397	50.818
294.496	29.212
298.594	64.754
302.689	26.393
306.782	43.742
310.873	83.198
314.961	125.822
319.048	133.904
323.132	308.577
327.214	476.229
331.294	546.191
335.372	669.211
339.448	1047.83
343.521	989.768
347.593	1170
351.662	1410.81
355.729	1024.23
359.794	1131.72
363.857	989.851
367.917	702.553
371.976	692.508
376.032	1504.41
380.086	2224.22
384.138	1126.69
388.188	524.478
392.236	339.974
396.282	421.555
400.325	603.959
404.366	708.03
408.406	366.704
412.443	282.539
416.478	195.928
420.511	183.203
424.541	116.421
428.57	178.727
432.596	140.398
436.621	170.031
440.643	178.93
444.663	185.915
448.681	207.369
452.697	216.286
456.711	188.603
460.723	203.244
464.732	224.742
468.74	236.623
472.745	159.921
476.748	210.786
480.749	231.904
484.749	199.069
488.745	148.07
492.74	219.346
496.733	168.195
500.724	185.718
504.712	189.091
508.699	184.39
512.683	175.984
516.666	179.28
520.646	191.282
524.624	155
528.6	102.436
532.574	155.581
536.546	122.448
540.516	127.042
544.484	130.364
548.449	116.425
552.413	83.228
556.374	54.765
560.334	117.033
564.291	44.066
568.247	57.827
572.2	55.329
576.151	36.583
580.1	15.209
584.047	17.049
587.992	3.6
591.935	1.882
595.876	22.673
599.815	24.443
603.752	37.503
607.686	45.19
611.619	34.164
615.55	53.546
619.478	62.319
623.405	0.595
627.329	41.219
631.252	10.468
635.172	24.802
639.091	25.485
643.007	36.036
646.921	26.691
650.834	5.596
654.744	5.996
658.652	18.293
662.558	35.597
666.462	113.769
670.365	46.899
674.265	17.837
678.163	75.789
682.059	82.462
685.953	89.813
689.845	155.28
693.735	199.736
697.623	224.12
701.509	290.498
705.393	261.917
709.275	259.878
713.155	245.311
717.032	284.919
720.908	316.268
724.782	354.942
728.654	284.992
732.524	408.828
736.392	372.456
740.258	386.046
744.122	480.777
747.984	454.224
751.844	469.524
755.701	604.411
759.557	650.006
763.411	731.929
767.263	767.6
771.113	805.372
774.961	833.188
778.807	962.836
782.651	1074.89
786.493	1191.23
790.333	1366.94
794.171	1698.3
798.007	1950.2
801.841	2206.51
805.673	2459.65
809.504	2933.17
813.332	3434.95
817.158	4354.85
820.982	5634.79
824.804	7614.45
828.625	10850.5
832.443	16266.8
836.259	27893.5
840.074	43380.6
843.886	42078.1
847.697	28866
851.505	21404.3
855.312	18973.1
859.117	15702.2
862.919	11711.7
866.72	8341.62
870.519	6157.94
874.315	4807.63
878.11	3797.7
881.903	3032.13
885.694	2610.91
889.483	2324.06
893.27	2012.61
897.056	1793.56
900.839	1624.02
904.62	1604.81
908.399	1375.19
912.177	1280.88
915.952	1195.02
919.726	883.605
923.497	876.139
927.267	824.188
931.035	678.167
934.801	576.571
938.565	498.369
942.327	471.525
946.087	420.281
949.845	358.292
953.601	319.537
957.355	273.209
961.108	252.185
964.858	224.358
968.607	258.733
972.353	213.922
976.098	237.482
979.841	218.044
983.582	197.126
987.321	272.112
991.058	186.971
994.793	137.223
998.526	121.52
1002.26	69.659
1005.99	60.856
1009.72	79.459
1013.44	99.675
1017.16	26.842
1020.89	53.731
1024.61	50.331
1028.33	21.16
1032.04	10.048
1035.76	51.037
1039.47	8.006
1043.18	23.552
1046.89	5.419
1050.59	5.862
1054.3	46.441
1058	11.149
1061.7	36.964
1065.4	72.897
1069.1	27.058
1072.8	11.94
1076.49	54.244
1080.18	77.494
1083.87	38.807
1087.56	70.353
1091.24	42.643
1094.93	40.043
1098.61	17.499
1102.29	32.049
1105.97	65.377
1109.65	19.803
1113.32	19.238
1117	13.677
1120.67	2.935
1124.34	25.657
1128	27.524
1131.67	19.445
1135.33	2.486
1139	17.768
1142.66	20.083
1146.32	35.096
1149.97	82.951
1153.63	19.794
1157.28	28.685
1160.93	36.337
1164.58	17.914
1168.23	41.348
1171.87	119.179
1175.52	43.459
1179.16	55.975
1182.8	90.609
1186.43	115.638
1190.07	131.825
1193.71	155.427
1197.34	181.747
1200.97	237.279
1204.6	213.063
1208.22	235.264
1211.85	226.284
1215.47	210.695
1219.1	233.423
1222.71	254.02
1226.33	179.321
1229.95	139.065
1233.56	233.801
1237.18	195.258
1240.79	193.53
1244.4	166.974
1248	194.281
1251.61	214.045
1255.21	200.016
1258.81	268.949
1262.41	286.643
1266.01	183.365
1269.61	217.461
1273.2	201.762
1276.8	174.72
1280.39	226.383
1283.98	141.146
1287.56	109.85
1291.15	108.693
1294.73	116.7
1298.31	88.782
1301.89	88.483
1305.47	25.728
1309.05	29.565
1312.62	110.417
1316.2	1.192
1319.77	74.447
1323.34	105.381
1326.91	109.069
1330.47	101.617
1334.04	8.098
1337.6	11.919
1341.16	44.673
1344.72	37.321
1348.27	76.592
1351.83	31.09
1355.38	30.457
1358.93	93.052
1362.48	83.477
1366.03	26.702
1369.58	47.785
1373.12	17.165
1376.67	28.651
1380.21	125.181
1383.75	76.748
1387.28	48.017
1390.82	88.884
1394.35	85.45
1397.89	63.916
1401.42	46.847
1404.94	78.785
1408.47	87.26
1412	72.298
1415.52	124.351
1419.04	63.386
1422.56	70.227
1426.08	78.664
1429.6	92.381
1433.11	88.088
1436.63	43.914
1440.14	36.128
1443.65	90.489
1447.15	40.401
1450.66	18.283
1454.16	83.886
1457.67	98.228
1461.17	63.538
1464.67	91.419
1468.16	97.596
1471.66	124.472
1475.15	74.917
1478.65	99.811
1482.14	5.036
1485.63	168.468
1489.11	46.069
1492.6	41.085
1496.08	60.185
1499.56	14.828
1503.04	133.967
1506.52	106.983
1510	103.804
1513.47	103.287
1516.95	0
