Measurement: Raman, 514 nm, depolarized, Raman Data Processed
Mineral: Crocoite
Rruff sample: R040053
Ideal chemistry: Pb^2+^Cr^6+^O_4_
Locality: Dundas, Tasmania
Source: Bob Downs
Description: Reddish-orange prismatic crystal
Measured chemistry: (Pb_.995_Mn_.005_)CrO_4_
Pin_id: L00166
Orientation: Laser parallel to -a* (-1 0 0). Fiducial mark perpendicular to laser is parallel to b [0 1 0]
Raman shift (cm-1)	intensity
61.962	0
66.157	33.304
70.349	13.046
74.54	294.522
78.729	327.969
82.916	417.356
87.101	691.833
91.284	1066.68
95.465	845.732
99.644	681.478
103.82	680.828
107.995	714.045
112.168	953.818
116.339	979.809
120.508	1337.67
124.675	1956.15
128.84	3142.65
133.003	3886.1
137.164	3151.55
141.323	2040.01
145.48	1485.47
149.635	1202.6
153.788	835.685
157.939	664.727
162.088	664.937
166.235	558.727
170.38	548.725
174.523	498.426
178.664	457.154
182.803	448.078
186.94	420.838
191.076	395.142
195.209	301.677
199.34	277.407
203.47	251.278
207.597	203.251
211.722	178.313
215.846	161.457
219.967	128.651
224.087	82.913
228.204	87.966
232.32	65.655
236.434	47.392
240.545	31.333
244.655	0.926
248.763	84.405
252.869	3.184
256.973	11.614
261.075	28.871
265.175	9.508
269.273	0.647
273.369	27.577
277.463	43.315
281.556	14.833
285.646	26.895
289.734	22.596
293.821	43.311
297.905	8.024
301.988	15.383
306.069	96.594
310.147	128.158
314.224	142.297
318.299	206.221
322.372	300.06
326.443	357.448
330.512	789.556
334.579	1532.36
338.645	873.739
342.708	1019.84
346.769	1085.22
350.829	1185.9
354.887	1951.27
358.942	1352.77
362.996	799.128
367.048	842.176
371.098	1770.29
375.146	1809.14
379.192	645.779
383.236	424.431
387.279	388.475
391.319	455.718
395.358	995.577
399.394	835.414
403.429	340.581
407.462	157.907
411.493	175.601
415.522	140.727
419.549	191.656
423.575	186.35
427.598	226.298
431.619	224.502
435.639	155.536
439.657	215.098
443.673	270.643
447.687	283.51
451.699	296.711
455.709	244.468
459.717	224.826
463.724	235.045
467.728	193.834
471.731	273.855
475.732	223.451
479.731	215.261
483.728	201.586
487.723	201.304
491.716	237.043
495.708	205.657
499.697	188.855
503.685	178.644
507.671	197.258
511.655	194.326
515.637	192.859
519.617	185.95
523.596	189.61
527.572	205.842
531.547	155.641
535.52	193.018
539.491	102.95
543.46	213.405
547.427	147.432
551.393	75.042
555.356	153.217
559.318	170.985
563.278	128.328
567.236	75.229
571.192	40.647
575.147	41.458
579.099	69.898
583.05	23.266
586.999	28.993
590.946	15.31
594.891	28.614
598.834	14.257
602.776	20.343
606.715	27.271
610.653	29.488
614.589	22.759
618.523	18.454
622.456	31.614
626.386	2.282
630.315	17.602
634.242	0.617
638.167	0.076
642.09	8.376
646.012	22.376
649.931	89.16
653.849	59.253
657.765	9.192
661.679	47.069
665.592	0.892
669.502	127.457
673.411	94.811
677.318	150.697
681.223	80.487
685.126	161.332
689.028	288.443
692.927	348.096
696.825	352.423
700.721	304.57
704.616	411.639
708.508	462.389
712.399	417.823
716.288	517.877
720.175	491.087
724.06	483.335
727.944	513.901
731.825	523.295
735.705	522.346
739.584	570.158
743.46	697.717
747.334	612.955
751.207	737.643
755.078	826.737
758.947	931.152
762.815	795.959
766.68	974.433
770.544	1002.2
774.406	1184.46
778.267	1209.46
782.125	1400.85
785.982	1576.41
789.837	2002.03
793.69	2127.44
797.542	2323.99
801.391	2517.77
805.239	2767.55
809.085	3163.67
812.93	3958.15
816.772	5481.73
820.613	7676.88
824.452	10952.3
828.29	17688.4
832.125	36055
835.959	58112.1
839.791	40229.8
843.621	21298.1
847.45	15326.9
851.277	13206.2
855.102	10036.4
858.925	6856.69
862.746	4967.4
866.566	3819.2
870.384	2880.97
874.2	2483.26
878.015	2256.46
881.828	2126.77
885.639	1968.62
889.448	1701.98
893.256	1496.75
897.061	1532.22
900.865	1397.26
904.668	1505.17
908.468	1368.3
912.267	1102.18
916.064	919.559
919.86	815.529
923.653	752.076
927.445	705.149
931.236	571.731
935.024	389.673
938.811	333.205
942.596	331.161
946.379	261.58
950.161	388.446
953.94	125.715
957.719	357.506
961.495	150.6
965.27	210.645
969.043	362.492
972.814	397.607
976.583	453.18
980.351	271.132
984.117	277.15
987.882	27.893
991.644	93.177
995.405	168.449
999.165	235.611
1002.92	261.515
1006.68	79.577
1010.43	123.197
1014.18	43.604
1017.93	237.106
1021.68	258.769
1025.43	230.129
1029.18	93.906
1032.92	160.396
1036.66	87.222
1040.4	48.733
1044.14	122.419
1047.88	195.335
1051.62	392.35
1055.35	194.582
1059.08	48.161
1062.81	43.123
1066.54	151.513
1070.27	217.949
1073.99	306.448
1077.72	292.384
1081.44	258.968
1085.16	190.6
1088.88	57.18
1092.59	144.253
1096.31	226.784
1100.02	242.272
1103.73	247.951
1107.44	290.371
1111.15	62.131
1114.86	306.104
1118.57	326.242
1122.27	174.818
1125.97	180.044
1129.67	100.937
1133.37	19.943
1137.07	101.9
1140.76	106.781
1144.45	33.068
1148.15	81.854
1151.84	213.871
1155.53	87.241
1159.21	149.488
1162.9	67.804
1166.58	49.504
1170.26	73.562
1173.94	13.353
1177.62	101.531
1181.3	243.587
1184.97	408.508
1188.65	374.12
1192.32	352.845
1195.99	207.996
1199.66	210.574
1203.33	384.148
1206.99	441.52
1210.65	496.555
1214.32	383.758
1217.98	438.074
1221.64	454.68
1225.29	344.178
1228.95	301.716
1232.6	319.632
1236.26	287.23
1239.91	416.265
1243.56	435.208
1247.2	472.733
1250.85	497.983
1254.49	299.458
1258.13	358.37
1261.78	339.76
1265.41	301.544
1269.05	401.853
1272.69	416.061
1276.32	358.393
1279.95	316.788
1283.59	395.043
1287.21	347.995
1290.84	140.185
1294.47	129.001
1298.09	209.672
1301.72	288.501
1305.34	312.456
1308.96	240.306
1312.58	189.08
1316.19	128.124
1319.81	37.666
1323.42	115.81
1327.03	96.572
1330.64	9.545
1334.25	48.018
1337.86	355.561
1341.46	71.92
1345.07	252.846
1348.67	216.407
1352.27	199.529
1355.87	182.436
1359.46	5.353
1363.06	66.405
1366.65	77.762
1370.25	11.551
1373.84	209.135
1377.43	179.392
1381.02	269.351
1384.6	288.941
1388.18	228.804
1391.77	99.218
1395.35	91.283
1398.93	176.192
1402.51	79.944
1406.08	142.807
1409.66	155.814
1413.23	238.045
1416.8	247.494
1420.37	284.427
1423.94	246.503
1427.51	308.119
1431.08	198.126
1434.64	92.151
1438.2	30.365
1441.76	94.186
1445.32	85.092
1448.88	214.234
1452.43	205.439
1455.99	350.653
1459.54	272.006
1463.09	363.455
1466.64	513.953
1470.19	219.622
1473.74	516.487
1477.28	103.688
1480.83	110.168
1484.37	98.185
1487.91	204.844
1491.45	70.63
1494.98	240.137
1498.52	200.014
1502.05	429.465
1505.59	270.214
1509.12	341.962
1512.65	155.094
1516.17	157.281
1519.7	23.677
1523.23	12.103
1526.75	3.915
1530.27	93.856
1533.79	0
