Measurement: Raman, 514 nm, depolarized, Raman Data Processed
Mineral: Crocoite
Rruff sample: R050044
Ideal chemistry: Pb^2+^Cr^6+^O_4_
Locality: Red Ledge mine, Dundas, Tasmania
Source: Eugene Schlepp
Description: Red crystal fragment
Measured chemistry: Pb_1.02_Cr_0.99_O_4_
Pin_id: L00130
Orientation: Laser parallel to b* (0 1 0). Fiducial mark perpendicular to laser is parallel to -c [0 0 -1]
Raman shift (cm-1)	intensity
163.613	0
167.78	71.674
171.945	39.114
176.108	71.745
180.268	96.243
184.426	110.216
188.582	125.396
192.736	140.145
196.887	129.912
201.036	59.819
205.184	93.857
209.328	84.147
213.471	73.4
217.611	88.995
221.75	87.156
225.886	71.493
230.019	74.2
234.151	125.473
238.281	16.15
242.408	49.491
246.533	39.191
250.656	45.376
254.776	17.057
258.895	6.067
263.011	14.27
267.125	19.51
271.237	31.32
275.346	5.66
279.454	1.68
283.559	56.598
287.662	9.51
291.763	37.88
295.862	18.405
299.959	55.35
304.053	46.948
308.146	79.337
312.236	121.364
316.324	133.675
320.409	231.917
324.493	321.434
328.574	414.374
332.654	507.547
336.731	827.516
340.806	1187.34
344.879	1025.64
348.949	825.09
353.018	901.298
357.084	1269.74
361.148	1517.16
365.21	1138.79
369.27	845.185
373.328	924.565
377.384	1671.86
381.437	1344.79
385.488	711.303
389.538	391.72
393.585	370.411
397.63	382.977
401.672	600.562
405.713	407.628
409.752	294.517
413.788	207.716
417.822	168.667
421.854	182.713
425.884	171.508
429.912	145.446
433.938	139.269
437.962	155.881
441.983	230.075
446.003	220.617
450.02	248.085
454.035	237.867
458.048	274.306
462.059	245.402
466.068	288.912
470.075	206.719
474.08	308.997
478.082	302.26
482.083	333.124
486.081	290.102
490.077	312.827
494.072	300.426
498.064	273.102
502.054	202.337
506.041	329.133
510.027	231.656
514.011	231.598
517.993	200.115
521.972	197.221
525.95	227.926
529.925	254.237
533.898	167.156
537.869	181.697
541.839	183.871
545.806	204.689
549.771	243.176
553.734	315.346
557.694	259.203
561.653	200.754
565.61	103.003
569.565	76.933
573.517	139.474
577.468	98.17
581.416	24.841
585.362	28.68
589.307	36.105
593.249	4.048
597.189	67.801
601.127	49.4
605.064	4.998
608.998	40.905
612.93	20.611
616.86	8.127
620.787	72.638
624.713	60.524
628.637	65.016
632.559	66.743
636.479	4.356
640.396	19.996
644.312	48.296
648.226	16.842
652.137	20.044
656.047	64.602
659.954	31.89
663.86	85.521
667.763	15.591
671.665	94.296
675.564	59.116
679.462	107.534
683.357	161.252
687.25	190.659
691.142	231.738
695.031	326.369
698.918	362.327
702.804	393.598
706.687	409.255
710.568	436.411
714.447	499.591
718.325	435.807
722.2	533.103
726.073	436.173
729.944	543.56
733.814	627.77
737.681	681.818
741.546	700.092
745.409	681.815
749.27	709.03
753.13	737.893
756.987	895.054
760.842	940.769
764.695	923.329
768.547	997.979
772.396	999.122
776.243	1084.35
780.089	1220.15
783.932	1336.91
787.773	1383.48
791.613	1662.96
795.45	1800.93
799.285	2190.9
803.119	2422.66
806.95	2781.67
810.78	3368.46
814.607	4290.93
818.433	5815.78
822.256	9533.9
826.078	14812.5
829.898	16991.6
833.715	21831.1
837.531	31271.2
841.345	35141.8
845.157	28323
848.966	20614.7
852.774	14047
856.58	10379.8
860.384	7433.19
864.186	5416.98
867.986	4066.28
871.784	3203.05
875.581	2574.25
879.375	2283.9
883.167	2105
886.957	1883.55
890.746	1727.55
894.532	1615.05
898.317	1471.06
902.099	1534.6
905.88	1274.76
909.659	1249.56
913.435	1133.97
917.21	1007.98
920.983	993.553
924.754	867.705
928.523	839.376
932.29	821.625
936.056	622.757
939.819	632.1
943.58	539.908
947.34	508.563
951.097	422.152
954.853	432.245
958.606	395.551
962.358	369.811
966.108	330.858
969.856	366.604
973.602	299.47
977.346	310.551
981.088	291.852
984.828	232.922
988.567	108.223
992.303	107.966
996.038	132.853
999.77	143.785
1003.5	110.289
1007.23	69.323
1010.96	30.619
1014.68	48.232
1018.4	81.036
1022.13	56.471
1025.85	69.822
1029.56	112.199
1033.28	74.678
1036.99	83.543
1040.7	61.402
1044.41	103.723
1048.12	54.929
1051.83	95.294
1055.53	87.798
1059.24	123.434
1062.94	139.179
1066.63	73.012
1070.33	16.928
1074.03	65.919
1077.72	83.984
1081.41	33.12
1085.1	5.351
1088.79	13.61
1092.47	56.907
1096.16	2.183
1099.84	88.399
1103.52	111.561
1107.2	52.242
1110.87	2.308
1114.55	23.438
1118.22	3.642
1121.89	11.123
1125.56	35.323
1129.23	42.036
1132.89	52.632
1136.56	87.693
1140.22	79.248
1143.88	78.812
1147.53	66.51
1151.19	45.399
1154.84	27.516
1158.5	53.234
1162.15	56.266
1165.8	42.153
1169.44	41.532
1173.09	71.584
1176.73	89.444
1180.37	77.954
1184.01	193.41
1187.65	158.324
1191.28	210.965
1194.92	232.98
1198.55	293.183
1202.18	230.21
1205.81	265.766
1209.43	365.108
1213.06	389.104
1216.68	340.427
1220.3	257.527
1223.92	274.49
1227.54	302.475
1231.15	241.828
1234.77	292.866
1238.38	211.62
1241.99	281.959
1245.6	311.36
1249.21	372.311
1252.81	321.153
1256.41	268.646
1260.01	325.763
1263.61	218.092
1267.21	301.787
1270.81	299.83
1274.4	330.452
1277.99	225.629
1281.58	167.522
1285.17	111.468
1288.76	111.191
1292.34	69.759
1295.93	187.822
1299.51	132.978
1303.09	175.35
1306.66	165.43
1310.24	148.43
1313.82	70.312
1317.39	115.254
1320.96	63.346
1324.53	32.714
1328.09	47.713
1331.66	39.443
1335.22	58.335
1338.79	72.14
1342.35	93.572
1345.9	55.624
1349.46	82.477
1353.01	134.083
1356.57	67.034
1360.12	32.645
1363.67	44.922
1367.21	94.928
1370.76	113.503
1374.3	108.777
1377.85	80.082
1381.39	128.514
1384.93	137.252
1388.46	68.459
1392	87.371
1395.53	64.712
1399.06	50.578
1402.59	25.26
1406.12	88.606
1409.65	129.183
1413.17	162.494
1416.69	108.615
1420.22	62.016
1423.74	4.866
1427.25	17.597
1430.77	95.527
1434.28	57.576
1437.8	66.669
1441.31	116.98
1444.82	88.899
1448.32	16.634
1451.83	138.952
1455.33	89.013
1458.83	192.664
1462.34	159.327
1465.83	110.707
1469.33	39.354
1472.83	151.443
1476.32	163.285
1479.81	94.5
1483.3	104.346
1486.79	135.763
1490.28	162.202
1493.76	138.628
1497.24	155.483
1500.72	96.449
1504.2	142.418
1507.68	58.712
1511.16	87.23
1514.63	4.391
1518.1	0.612
