Measurement: Raman, 514 nm, depolarized, Raman Data Processed
Mineral: Crocoite
Rruff sample: R040053
Ideal chemistry: Pb^2+^Cr^6+^O_4_
Locality: Dundas, Tasmania
Source: Bob Downs
Description: Reddish-orange prismatic crystal
Measured chemistry: (Pb_.995_Mn_.005_)CrO_4_
Pin_id: L00292
Orientation: Laser parallel to (-1 0 -1). Fiducial mark perpendicular to laser is parallel to -b [0 -1 0]
Raman shift (cm-1)	intensity
106.604	0
110.777	54.657
114.949	190.592
119.119	203.086
123.286	314.351
127.452	575.866
131.615	1139.99
135.777	1578.52
139.937	1429.58
144.094	926.85
148.25	558.048
152.403	380.958
156.555	281.765
160.705	139.665
164.853	103.953
168.998	78.089
173.142	75.199
177.284	82.55
181.424	98.004
185.562	80.322
189.698	78.115
193.831	69.937
197.963	21.385
202.093	55.319
206.221	50.878
210.347	40.042
214.472	29.793
218.594	44.261
222.714	2.77
226.832	4.757
230.948	17.704
235.063	18.966
239.175	32.232
243.286	10.729
247.394	7.866
251.501	8.218
255.605	6.828
259.708	5.301
263.808	52.519
267.907	3.625
272.004	40.275
276.099	7.677
280.192	7.333
284.283	32.095
288.372	26.029
292.459	19.993
296.544	35.994
300.627	38.569
304.709	45.981
308.788	92.231
312.865	95.543
316.941	146.261
321.015	250.663
325.086	397.087
329.156	387.295
333.224	440.011
337.29	817.499
341.354	750.812
345.416	820.276
349.476	1182.41
353.534	781.461
357.591	836.078
361.645	768.483
365.698	505.514
369.748	536.168
373.797	1086.82
377.844	1907.47
381.889	793.788
385.932	343.292
389.973	267.039
394.012	234.697
398.049	528.485
402.084	704.663
406.118	335.15
410.15	221.256
414.179	183.114
418.207	118.123
422.233	154.345
426.257	150.622
430.279	123.796
434.299	124.221
438.318	188.132
442.334	166.019
446.349	159.605
450.361	150.224
454.372	187.681
458.381	198.598
462.388	167.423
466.394	162.852
470.397	139.906
474.398	182.753
478.398	186.24
482.396	143.276
486.391	138.256
490.385	167.409
494.377	151.338
498.368	119.288
502.356	202.988
506.342	169.933
510.327	136.405
514.31	158.817
518.291	115.565
522.27	120.071
526.247	125.344
530.222	111.39
534.196	150.209
538.167	74.812
542.137	138.191
546.105	89.354
550.071	106.306
554.035	75.058
557.998	92.604
561.958	35.973
565.917	74.123
569.874	31.104
573.829	54.893
577.782	29.128
581.733	17.33
585.683	11.91
589.63	32.729
593.576	20.994
597.52	3.29
601.462	2.371
605.402	14.794
609.341	27.293
613.277	20.169
617.212	24.551
621.145	2.036
625.076	13.674
629.006	12.748
632.933	9.655
636.859	25.496
640.783	1.747
644.705	4.313
648.625	15.445
652.543	9.72
656.46	69.682
660.375	16.832
664.288	6.276
668.199	12.916
672.108	0.981
676.016	29.765
679.921	9.439
683.825	56.271
687.727	107.042
691.628	78.676
695.526	186.224
699.423	175.914
703.318	165.314
707.211	166.78
711.102	211.101
714.992	162.454
718.879	170.09
722.765	158.359
726.649	191.095
730.532	257.9
734.412	239.862
738.291	256.791
742.168	278.199
746.043	322.005
749.916	323.87
753.788	327.863
757.658	433.04
761.526	358.921
765.392	491.012
769.257	471.958
773.119	478.742
776.98	534.622
780.839	615.392
784.697	679.635
788.552	714.292
792.406	1077.25
796.258	1226.32
800.108	1336.47
803.957	1500.06
807.804	1709.64
811.649	1873.05
815.492	2430.81
819.333	2992.13
823.173	4182.59
827.011	5854.95
830.847	8514.95
834.681	16367.2
838.514	34679.8
842.345	36562.7
846.174	19795.8
850.001	13379.3
853.827	13033.2
857.651	12317.8
861.473	8632.13
865.293	5677.14
869.112	4057.99
872.928	3100.08
876.744	2332.47
880.557	1956.09
884.369	1529.18
888.178	1390.32
891.987	1225.76
895.793	1137.53
899.598	1074.75
903.401	1015.95
907.202	907.58
911.001	696.703
914.799	653.875
918.595	540.338
922.389	455.134
926.182	521.242
929.972	357.618
933.761	327.291
937.549	276.233
941.334	191.434
945.118	217.89
948.9	254.612
952.681	132.56
956.459	108.731
960.236	140.119
964.012	82.724
967.785	153.531
971.557	112.541
975.327	114.761
979.095	155.18
982.862	140.122
986.627	108.048
990.39	155.309
994.152	105.961
997.912	109.326
1001.67	69.378
1005.43	19.418
1009.18	55.371
1012.93	25.477
1016.68	81.855
1020.43	66.832
1024.18	41.774
1027.93	61.402
1031.67	19.627
1035.42	17.066
1039.16	39.25
1042.9	104.061
1046.63	74.07
1050.37	42.319
1054.11	57.522
1057.84	5.209
1061.57	99.125
1065.3	119.512
1069.03	137.944
1072.75	74.413
1076.47	26.907
1080.2	54.458
1083.92	51.011
1087.64	15.628
1091.36	86.188
1095.07	50.749
1098.79	107.839
1102.5	89.401
1106.21	50.898
1109.92	36.361
1113.62	77.782
1117.33	35.155
1121.04	54.478
1124.74	251.764
1128.44	28.045
1132.14	83.554
1135.83	14.313
1139.53	30.404
1143.22	22.586
1146.92	47.199
1150.61	56.408
1154.3	2.438
1157.98	1.516
1161.67	9.389
1165.35	47.333
1169.04	74.63
1172.72	8.843
1176.4	117.87
1180.07	101.893
1183.75	84.054
1187.42	90.598
1191.1	144.841
1194.77	62.688
1198.44	100.833
1202.1	198.049
1205.77	161.744
1209.43	172.601
1213.1	207.009
1216.76	169.27
1220.42	210.91
1224.07	131.227
1227.73	220.508
1231.38	189.638
1235.04	184.495
1238.69	194.053
1242.34	87.342
1245.99	176.88
1249.63	177.399
1253.28	181.496
1256.92	234.569
1260.56	222.525
1264.2	186.509
1267.84	182.709
1271.48	195.607
1275.11	206.974
1278.74	120.984
1282.38	219.718
1286.01	98.213
1289.63	52.697
1293.26	157.392
1296.89	137.971
1300.51	117.058
1304.13	73.727
1307.75	67.864
1311.37	116.283
1314.99	18.156
1318.6	79.214
1322.22	68.549
1325.83	23.971
1329.44	91.042
1333.05	75.141
1336.66	45.368
1340.26	16.061
1343.87	12.562
1347.47	39.799
1351.07	2.236
1354.67	33.46
1358.27	37.908
1361.86	77.393
1365.46	86.183
1369.05	20.89
1372.64	46.384
1376.23	38.675
1379.82	39.708
1383.41	0.8
1386.99	126.227
1390.57	95.743
1394.16	5.593
1397.74	102.631
1401.32	50.322
1404.89	37.586
1408.47	74.782
1412.04	5.965
1415.61	149.939
1419.18	72.623
1422.75	39.915
1426.32	34.002
1429.89	6.842
1433.45	1.201
1437.01	129.749
1440.58	111.143
1444.13	49.875
1447.69	120.405
1451.25	36.271
1454.81	68.993
1458.36	101.953
1461.91	140.687
1465.46	47.992
1469.01	116.044
1472.56	106.034
1476.1	66.487
1479.64	55.225
1483.19	81.682
1486.73	86.08
1490.27	81.544
1493.81	179.537
1497.34	44.746
1500.88	115.83
1504.41	124.361
1507.94	16.068
1511.47	17.482
1515	59.531
1518.53	37.34
1522.05	80.422
1525.57	59.381
1529.1	37.206
1532.62	78.164
