Measurement: Raman, 514 nm, depolarized, Raman Data Processed
Mineral: Crocoite
Rruff sample: R050044
Ideal chemistry: Pb^2+^Cr^6+^O_4_
Locality: Red Ledge mine, Dundas, Tasmania
Source: Eugene Schlepp
Description: Red crystal fragment
Measured chemistry: Pb_1.02_Cr_0.99_O_4_
Pin_id: L00274
Orientation: Laser parallel to a* (1 0 0). Fiducial mark perpendicular to laser is parallel to b [0 1 0]
Raman shift (cm-1)	intensity
165.002	0
169.169	1.377
173.333	45.239
177.495	25.644
181.654	105.824
185.812	113.898
189.967	101.988
194.12	86.899
198.271	36.699
202.419	100.509
206.565	43.103
210.71	35.075
214.851	69.522
218.991	11.575
223.129	27.183
227.264	40.33
231.397	34.65
235.528	45.19
239.656	49.654
243.783	23.34
247.907	22.773
252.029	33.514
256.149	39.583
260.267	11.859
264.382	34.226
268.496	3.603
272.607	23.933
276.716	31.1
280.823	38.088
284.927	1.134
289.03	47.446
293.13	39.188
297.228	20.848
301.324	4.273
305.418	39.482
309.509	49.434
313.599	54.933
317.686	57.411
321.771	143.028
325.854	137.865
329.934	223.375
334.013	324.515
338.089	677.48
342.164	931.994
346.236	565.941
350.306	715.395
354.373	723.352
358.439	960.815
362.503	1228.56
366.564	890.062
370.623	564.36
374.68	664.223
378.735	1188.35
382.788	980.088
386.838	440.101
390.887	277.023
394.933	263.292
398.977	391.424
403.02	692.182
407.059	477.521
411.097	224.257
415.133	135.747
419.167	136.221
423.198	155.633
427.227	144.182
431.254	152.105
435.28	112.236
439.303	151.467
443.323	152.117
447.342	147.685
451.359	133.902
455.373	178.943
459.386	192.745
463.396	182.345
467.404	130.994
471.41	186.106
475.414	200.99
479.416	157.348
483.416	182.075
487.413	184.443
491.409	157.06
495.402	147.732
499.394	153.554
503.383	185.777
507.37	177.856
511.355	126.62
515.338	169.088
519.319	167.344
523.298	137.244
527.275	113.865
531.25	75.206
535.222	125.405
539.193	101.065
543.161	100.615
547.128	96.912
551.092	72.957
555.054	104.756
559.014	98.317
562.972	71.64
566.928	64.719
570.882	67.55
574.834	71.084
578.784	40.219
582.732	24.11
586.677	3.804
590.621	11.075
594.563	3.418
598.502	22.838
602.44	12.251
606.375	27.416
610.308	8.833
614.24	23.088
618.169	46.065
622.096	33.816
626.021	8.312
629.945	13.675
633.866	9.122
637.785	43.391
641.702	2.292
645.617	1.469
649.53	13.146
653.441	51.95
657.35	31.023
661.256	0.062
665.161	47.712
669.064	23.671
672.965	72.66
676.864	52.335
680.76	62.916
684.655	83.446
688.548	133.047
692.438	191.427
696.327	158.745
700.214	197.078
704.098	285.98
707.981	261.677
711.861	265.048
715.74	350.103
719.617	302.098
723.491	248.327
727.364	356.979
731.234	314.058
735.103	323.289
738.969	380.196
742.834	382.548
746.697	379.696
750.557	499.781
754.416	523.92
758.272	536.199
762.127	513.542
765.979	605.97
769.83	715.583
773.679	719.412
777.525	759.848
781.37	730.372
785.213	829.658
789.053	1047.17
792.892	1154.85
796.729	1412.57
800.563	1569.98
804.396	1645.49
808.227	1862.79
812.056	2058.53
815.883	2384.48
819.708	3274.69
823.531	4162.18
827.352	6009.94
831.17	8744.9
834.988	14341.3
838.803	28198
842.616	36925
846.427	23462.3
850.236	13649.9
854.043	10167.9
857.849	8706.33
861.652	6439.06
865.453	4326.15
869.253	3262.55
873.05	2531.47
876.846	2153.53
880.639	1733.93
884.431	1604.63
888.22	1475.74
892.008	1319.55
895.794	1233.2
899.578	1178.24
903.36	1001.65
907.14	1017.45
910.918	990.671
914.694	829.264
918.468	828.249
922.24	684.607
926.011	555.37
929.779	495.539
933.546	482.262
937.31	452.139
941.073	397.431
944.833	300.021
948.592	299.319
952.349	238.49
956.104	240.052
959.857	160.344
963.608	163.368
967.357	170.749
971.105	208.972
974.85	197.382
978.594	188.322
982.335	173.713
986.075	96.88
989.812	151.822
993.548	111.812
997.282	60.89
1001.01	23.439
1004.74	39.288
1008.47	23.119
1012.2	2.603
1015.92	23.643
1019.65	19.54
1023.37	26.232
1027.09	44.923
1030.8	0.23
1034.52	50.402
1038.23	4.134
1041.94	7.732
1045.65	44.366
1049.36	61.552
1053.06	72.438
1056.77	43.442
1060.47	87.55
1064.17	52.764
1067.87	61.088
1071.56	29.485
1075.26	41.974
1078.95	67.525
1082.64	33.14
1086.33	61.823
1090.02	56.59
1093.7	14.631
1097.38	52.158
1101.07	2.04
1104.74	13.235
1108.42	21.559
1112.1	1.349
1115.77	38.878
1119.44	3.022
1123.11	4.361
1126.78	20.192
1130.45	29.333
1134.11	79.968
1137.78	203.386
1141.44	229.462
1145.1	15.314
1148.75	19.395
1152.41	9.943
1156.06	29.5
1159.71	25.237
1163.36	29.977
1167.01	36.634
1170.66	26.645
1174.3	53.491
1177.94	112.944
1181.58	88.241
1185.22	68.624
1188.86	62.272
1192.49	45.721
1196.13	70.558
1199.76	141.364
1203.39	254.061
1207.02	238.371
1210.64	187.847
1214.27	259.427
1217.89	265.853
1221.51	187.41
1225.13	198.999
1228.74	171.609
1232.36	200.764
1235.97	187.725
1239.58	136.868
1243.19	175.025
1246.8	153.985
1250.41	156.47
1254.01	171.379
1257.61	215.66
1261.21	182.587
1264.81	244.665
1268.41	244.556
1272.01	223.771
1275.6	133.145
1279.19	96.352
1282.78	119.086
1286.37	141.845
1289.95	86.51
1293.54	51.873
1297.12	76.047
1300.7	57.196
1304.28	66.023
1307.86	64.816
1311.43	80.074
1315.01	23.262
1318.58	25.411
1322.15	40.942
1325.72	75.191
1329.28	66.832
1332.85	80.414
1336.41	57.426
1339.97	25.606
1343.53	39.511
1347.09	90.148
1350.64	30.616
1354.2	80.811
1357.75	107.687
1361.3	98.314
1364.85	67.7
1368.4	11.063
1371.94	76.01
1375.48	43.728
1379.03	51.547
1382.57	51.227
1386.11	65.235
1389.64	72.907
1393.18	93.034
1396.71	108.125
1400.24	157.848
1403.77	123.134
1407.3	114.855
1410.82	59.097
1414.35	29.463
1417.87	67.043
1421.39	50.438
1424.91	35.89
1428.43	58.123
1431.94	100.774
1435.45	142.424
1438.97	143.284
1442.48	73.111
1445.98	99.34
1449.49	124.208
1453	98.673
1456.5	73.29
1460	21.26
1463.5	61.115
1467	38.097
1470.49	105.634
1473.99	135.691
1477.48	63.154
1480.97	123.605
1484.46	151.394
1487.95	63.731
1491.44	71.293
1494.92	72.014
1498.4	24.079
1501.88	51.42
1505.36	4.384
1508.84	32.212
1512.32	33.879
1515.79	44.712
1519.26	0
