Measurement: Raman, 514 nm, depolarized, Raman Data Processed
Mineral: Crocoite
Rruff sample: R040053
Ideal chemistry: Pb^2+^Cr^6+^O_4_
Locality: Dundas, Tasmania
Source: Bob Downs
Description: Reddish-orange prismatic crystal
Measured chemistry: (Pb_.995_Mn_.005_)CrO_4_
Pin_id: L00229
Orientation: Laser parallel to -b* (0 -1 0). Fiducial mark perpendicular to laser is parallel to -c [0 0 -1]
Raman shift (cm-1)	intensity
82.916	0
87.101	6.206
91.284	136.163
95.465	394.566
99.644	483.452
103.82	275.651
107.995	97.937
112.168	110.61
116.339	146.53
120.508	224.047
124.675	383.361
128.84	699.85
133.003	1346.32
137.164	1887.28
141.323	1484.44
145.48	943.462
149.635	652.153
153.788	438.622
157.939	286.608
162.088	226.048
166.235	147.494
170.38	151.528
174.523	139.199
178.664	223.514
182.803	234.598
186.94	250.541
191.076	186.027
195.209	180.403
199.34	154.795
203.47	129.661
207.597	75.381
211.722	46.212
215.846	56.675
219.967	49.181
224.087	22.56
228.204	48.079
232.32	22.918
236.434	36.696
240.545	30.724
244.655	31.599
248.763	17.556
252.869	14.838
256.973	50.565
261.075	7.927
265.175	17.451
269.273	21.363
273.369	10.007
277.463	23.478
281.556	3.821
285.646	0.77
289.734	12.648
293.821	8.564
297.905	25.127
301.988	85.762
306.069	71.918
310.147	76.378
314.224	65.001
318.299	128.825
322.372	576.821
326.443	244.695
330.512	320.839
334.579	669.926
338.645	1223.99
342.708	835.82
346.769	636.776
350.829	748.58
354.887	743.156
358.942	1463.27
362.996	906.158
367.048	569.1
371.098	505.407
375.146	1376.04
379.192	1832.02
383.236	609.363
387.279	304.415
391.319	296.775
395.358	340.954
399.394	470.696
403.429	415.116
407.462	209.53
411.493	140.58
415.522	168.387
419.549	124.603
423.575	144.468
427.598	117.255
431.619	131.713
435.639	130.524
439.657	153.802
443.673	122.273
447.687	178.199
451.699	144.973
455.709	200.148
459.717	112.052
463.724	199.074
467.728	517.419
471.731	151.808
475.732	148.649
479.731	130.402
483.728	118.141
487.723	162.722
491.716	125.931
495.708	167.856
499.697	131.576
503.685	145.058
507.671	117.97
511.655	126.139
515.637	128.914
519.617	161.459
523.596	120.78
527.572	81.875
531.547	113.735
535.52	88.363
539.491	107.76
543.46	98.926
547.427	78.87
551.393	64.615
555.356	74.07
559.318	70.776
563.278	48.371
567.236	74.208
571.192	73.831
575.147	31.334
579.099	17.555
583.05	15.425
586.999	4.035
590.946	34.2
594.891	30.747
598.834	9.194
602.776	4.013
606.715	28.396
610.653	2.861
614.589	33.239
618.523	180.286
622.456	26.217
626.386	0.092
630.315	16.859
634.242	54.392
638.167	42.073
642.09	19.312
646.012	13.48
649.931	26.775
653.849	42.806
657.765	7.248
661.679	9.565
665.592	20.732
669.502	14.805
673.411	48.769
677.318	27.043
681.223	23.021
685.126	45.661
689.028	41.164
692.927	129.703
696.825	201.484
700.721	161.459
704.616	170.616
708.508	187.47
712.399	259.447
716.288	243.587
720.175	202.606
724.06	234.478
727.944	243.897
731.825	201.254
735.705	246.945
739.584	198.106
743.46	271.303
747.334	258.886
751.207	327.728
755.078	353.833
758.947	408.709
762.815	465.724
766.68	411.586
770.544	489.053
774.406	468.193
778.267	523.803
782.125	598.122
785.982	559.722
789.837	764.773
793.69	786.278
797.542	985.476
801.391	1090.27
805.239	1226.96
809.085	1481.4
812.93	1690.71
816.772	2155.2
820.613	3166.2
824.452	4508.9
828.29	5976.96
832.125	8119.23
835.959	15354.8
839.791	28140.6
843.621	23386.7
847.45	12683.1
851.277	9999.83
855.102	10216.8
858.925	8924.09
862.746	5800.8
866.566	3821.6
870.384	2804.69
874.2	2038.07
878.015	1601.69
881.828	1345.57
885.639	1262.72
889.448	1181.17
893.256	1075.89
897.061	923.125
900.865	888.395
904.668	800.953
908.468	799.822
912.267	757.926
916.064	629.334
919.86	591.079
923.653	487.132
927.445	435.078
931.236	331.098
935.024	283.005
938.811	328.547
942.596	298.048
946.379	158.828
950.161	113.892
953.94	134.258
957.719	67.785
961.495	148.553
965.27	69.61
969.043	73.817
972.814	173.236
976.583	136.862
980.351	178.687
984.117	168.715
987.882	198.01
991.644	103.072
995.405	91.315
999.165	56.85
1002.92	130.725
1006.68	100.843
1010.43	94.121
1014.18	105.264
1017.93	48.591
1021.68	47.04
1025.43	56.735
1029.18	123.816
1032.92	56.993
1036.66	134.109
1040.4	46.524
1044.14	18.944
1047.88	14.677
1051.62	51.397
1055.35	160.23
1059.08	130.146
1062.81	6.128
1066.54	59.184
1070.27	61.298
1073.99	84.468
1077.72	119.717
1081.44	111.461
1085.16	133.74
1088.88	150.003
1092.59	5.515
1096.31	93.775
1100.02	1.967
1103.73	82.394
1107.44	56.639
1111.15	104.145
1114.86	9.373
1118.57	77.657
1122.27	300.787
1125.97	213.145
1129.67	34.813
1133.37	21.861
1137.07	10.622
1140.76	22.362
1144.45	107.946
1148.15	18.261
1151.84	10.263
1155.53	3.861
1159.21	23.383
1162.9	26.945
1166.58	19.515
1170.26	9.58
1173.94	38.264
1177.62	13.448
1181.3	31.068
1184.97	69.366
1188.65	91.866
1192.32	120.687
1195.99	157.446
1199.66	162.748
1203.33	101.026
1206.99	131.672
1210.65	141.566
1214.32	150.076
1217.98	123.341
1221.64	171.494
1225.29	258.222
1228.95	213.059
1232.6	159.667
1236.26	84.483
1239.91	157.633
1243.56	140.27
1247.2	163.94
1250.85	183.988
1254.49	237.253
1258.13	206.168
1261.78	175.082
1265.41	198.512
1269.05	104.951
1272.69	196.247
1276.32	154.149
1279.95	82.383
1283.59	186.964
1287.21	149.766
1290.84	175.843
1294.47	132.555
1298.09	123.753
1301.72	89.628
1305.34	10.566
1308.96	28.113
1312.58	43.11
1316.19	20.019
1319.81	66.712
1323.42	81.252
1327.03	87.685
1330.64	30.788
1334.25	35.548
1337.86	58.12
1341.46	17.389
1345.07	27.651
1348.67	51.133
1352.27	75.578
1355.87	110.879
1359.46	60.879
1363.06	114.792
1366.65	108.417
1370.25	40.73
1373.84	10.674
1377.43	84.623
1381.02	54.161
1384.6	90.826
1388.18	61.235
1391.77	98.486
1395.35	84.508
1398.93	91.699
1402.51	67.705
1406.08	85.255
1409.66	71.239
1413.23	46.101
1416.8	90.438
1420.37	152.909
1423.94	144.072
1427.51	143.796
1431.08	94.673
1434.64	152.789
1438.2	115.361
1441.76	87.355
1445.32	57.254
1448.88	12.256
1452.43	64.814
1455.99	66.637
1459.54	69.536
1463.09	99
1466.64	120.674
1470.19	169.09
1473.74	87.233
1477.28	92.253
1480.83	106.305
1484.37	131.764
1487.91	16.373
1491.45	44.771
1494.98	17.35
1498.52	124.851
1502.05	50.804
1505.59	143.354
1509.12	77.825
1512.65	45.665
1516.17	87.182
1519.7	111.498
1523.23	58.404
1526.75	46.776
1530.27	48.575
1533.79	0.494
