Measurement: Raman, 514 nm, depolarized, Raman Data Processed
Mineral: Cubic zirconia
Rruff sample: R040142
Ideal chemistry: ZrO_2_
Locality: synthetic
Source: Bob Downs
Description: Fragment of a colorless single crystal
Measured chemistry: (Zr_0.86_Y_0.17_Hf_0.01_)O_2_
Pin_id: L00509
Orientation: Laser parallel to a* (1 0 0). Fiducial mark perpendicular to laser is parallel to -b [0 -1 0]
Raman shift (cm-1)	intensity
304.709	0
308.788	249.09
312.865	148.168
316.941	798.109
321.015	78.297
325.086	7.301
329.156	295.047
333.224	1075.79
337.29	1502.66
341.354	2495.35
345.416	3453.3
349.476	4348.57
353.534	3959.47
357.591	3393.39
361.645	3269.6
365.698	3824.19
369.748	3667.42
373.797	4378.48
377.844	5271.46
381.889	5137.48
385.932	4543.49
389.973	4214.02
394.012	4212.25
398.049	3527.49
402.084	2396.01
406.118	1906.98
410.15	1359.55
414.179	1362.96
418.207	836.547
422.233	909.445
426.257	680.746
430.279	240.098
434.299	32.561
438.318	357.414
442.334	325.016
446.349	45.549
450.361	189.762
454.372	100.521
458.381	104.594
462.388	844.43
466.394	1141.75
470.397	1263.88
474.398	1893.7
478.398	2431.15
482.396	2982.95
486.391	3324.73
490.385	3544.65
494.377	3952.32
498.368	4507.16
502.356	4588.4
506.342	5125.51
510.327	5398.51
514.31	6157.76
518.291	6643.31
522.27	6894.64
526.247	7271.58
530.222	7922.93
534.196	8556.86
538.167	9152.34
542.137	9121.42
546.105	10016.7
550.071	10659.5
554.035	11170.5
557.998	11429.7
561.958	12177.1
565.917	13099.9
569.874	14163.9
573.829	14643.5
577.782	14817.1
581.733	16503.9
585.683	17827.6
589.63	19633.3
593.576	20443.7
597.52	22184.1
601.462	24568.5
605.402	26580.5
609.341	27761.9
613.277	28748
617.212	29822.8
621.145	30021.1
625.076	29358.1
629.006	26317
632.933	22185.7
636.859	18157.7
640.783	14600.4
644.705	11669.5
648.625	9659.07
652.543	8327.51
656.46	7507.41
660.375	7019.32
664.288	6866.07
668.199	6505.86
672.108	6588.27
676.016	6332.07
679.921	6675.28
683.825	6748.09
687.727	6366.37
691.628	6309.1
695.526	5995.32
699.423	5996.01
703.318	5613.66
707.211	5216.58
711.102	4925.73
714.992	4411.43
718.879	4213.88
722.765	3653.12
726.649	3239.23
730.532	2492.28
734.412	2032.29
738.291	1939.19
742.168	1673.05
746.043	1293.91
749.916	1052.02
753.788	727.631
757.658	680.803
761.526	591.67
765.392	270.023
769.257	165.49
773.119	222.742
776.98	145.395
780.839	182.943
784.697	715.859
788.552	255.406
792.406	240.711
796.258	401.465
800.108	267.902
803.957	489.699
807.804	287.145
811.649	349.455
815.492	396.322
819.333	27.436
823.173	101.992
827.011	110.211
830.847	199.623
834.681	36.447
838.514	29.129
842.345	293.049
846.174	553.129
850.001	461.248
853.827	57.545
857.651	242.107
861.473	265.068
865.293	396.527
869.112	676.584
872.928	275.312
876.744	192.805
880.557	339.15
884.369	372.482
888.178	672.07
891.987	837.443
895.793	778.158
899.598	895.736
903.401	908.555
907.202	1619.14
911.001	1817.26
914.799	1786.94
918.595	1925.17
922.389	2106.68
926.182	2473.74
929.972	3403.86
933.761	4513.72
937.549	6375.09
941.334	8833.84
945.118	11864.8
948.9	15454.7
952.681	18554.2
956.459	19928.2
960.236	19887.6
964.012	16336.3
967.785	12741.6
971.557	9242.66
975.327	6564.33
979.095	4837.85
982.862	4124.25
986.627	4148.46
990.39	5051.27
994.152	6949.98
997.912	9192.4
1001.67	12259
1005.43	14969.2
1009.18	17524.4
1012.93	19593.3
1016.68	20605.3
1020.43	20990.1
1024.18	20308.1
1027.93	19509.3
1031.67	18223.8
1035.42	17591.1
1039.16	15681.3
1042.9	13864.3
1046.63	13140.2
1050.37	12719
1054.11	14640.5
1057.84	15804.7
1061.57	16391.8
1065.3	17101.7
1069.03	17484.4
1072.75	17940
1076.47	18668.6
1080.2	19020.5
1083.92	19325.9
1087.64	18915
1091.36	18048
1095.07	17374.6
1098.79	16474.5
1102.5	15967.7
1106.21	15224.2
1109.92	14234
1113.62	12657.6
1117.33	11746
1121.04	10429.7
1124.74	9229.45
1128.44	7916.77
1132.14	7438.53
1135.83	6658.62
1139.53	6105.47
1143.22	5209.02
1146.92	4602.48
1150.61	4423.26
1154.3	4584.83
1157.98	4272.06
1161.67	4621.51
1165.35	4610.61
1169.04	4454.63
1172.72	4748.1
1176.4	4589.98
1180.07	4504.36
1183.75	4745.15
1187.42	4975.37
1191.1	5063.57
1194.77	5412.25
1198.44	5057.88
1202.1	5023.34
1205.77	4825.26
1209.43	4416.67
1213.1	4430.31
1216.76	4048.23
1220.42	4158.23
1224.07	3962.26
1227.73	3579.44
1231.38	3064.67
1235.04	2414.22
1238.69	1963.7
1242.34	1816.29
1245.99	1423.07
1249.63	1387.63
1253.28	1170.18
1256.92	879.83
1260.56	756.266
1264.2	407.299
1267.84	43.883
1271.48	14.215
1275.11	78.303
1278.74	289.574
1282.38	52.713
1286.01	23.279
1289.63	105.02
1293.26	276.123
1296.89	313.611
1300.51	336.861
1304.13	428.32
1307.75	474.822
1311.37	218.135
1314.99	308.934
1318.6	96.873
1322.22	22.143
1325.83	165.305
1329.44	104.125
1333.05	150.4
1336.66	173.246
1340.26	62.633
1343.87	211.582
1347.47	59.607
1351.07	491.324
1354.67	716.977
1358.27	686.773
1361.86	440.916
1365.46	549.668
1369.05	295.311
1372.64	154.318
1376.23	424.273
1379.82	571.99
1383.41	764.379
1386.99	1221.42
1390.57	1549.73
1394.16	1619.8
1397.74	1515.29
1401.32	1574.83
1404.89	1584.12
1408.47	1417.15
1412.04	1262.72
1415.61	1295.35
1419.18	1302.56
1422.75	1405.34
1426.32	1451.95
1429.89	1516.89
1433.45	1436.61
1437.01	1513.5
1440.58	1149.82
1444.13	1293.58
1447.69	870.164
1451.25	897.742
1454.81	1169.24
1458.36	1349.53
1461.91	1563.22
1465.46	1617.99
1469.01	1963.37
1472.56	1573.63
1476.1	1757.47
1479.64	1186.99
1483.19	1037.23
1486.73	643.176
1490.27	692.418
1493.81	428.434
1497.34	273.289
1500.88	355.473
1504.41	710.418
1507.94	784.891
1511.47	752.004
1515	809.266
