Measurement: Raman, 514 nm, depolarized, Raman Data Processed
Mineral: Cuprite
Rruff sample: R050384
Ideal chemistry: Cu^1+^_2_O
Locality: Lavender Pit, Bisbee, Warren District, Cochise County, Arizona, USA
Source: University of Arizona Mineral Museum
Description: Deep red to nearly black cubes
Measured chemistry: Cu_2.00_O
Pin_id: M00339
Orientation: Laser parallel to b* (0 1 0). Fiducial mark perpendicular to laser is parallel to c [0 0 1]
Raman shift (cm-1)	intensity
53.91	0
58.864	363.831
63.817	188.443
68.767	271.053
73.714	113.134
78.659	452.812
83.602	1126.88
88.542	1257.02
93.48	2145.79
98.416	2707.94
103.349	3748.4
108.28	5758.95
113.208	4561.68
118.134	3983.82
123.058	3961.55
127.979	4167.79
132.898	5341.39
137.814	5903
142.728	6508.12
147.639	5826.36
152.549	5032.9
157.455	4907.85
162.359	4260.25
167.261	3886.11
172.161	4252.42
177.058	4877.12
181.952	5861.19
186.845	7489.6
191.734	7648.32
196.622	9052.45
201.507	9544.46
206.389	10071.8
211.269	14415.5
216.147	18244.1
221.022	13398.8
225.895	6838.02
230.765	4630.44
235.633	3368
240.498	2256.51
245.361	1652.8
250.222	1134.76
255.08	747.249
259.936	1371.18
264.789	369.478
269.64	318.096
274.488	359.961
279.334	285.962
284.178	179.046
289.019	388.19
293.857	467.389
298.693	505.637
303.527	397.924
308.358	413.241
313.187	344.575
318.013	289.919
322.837	207.215
327.659	64.5977
332.478	10.0967
337.294	62.9678
342.108	85.4067
346.92	105.265
351.729	49.1323
356.535	150.654
361.34	85.02
366.141	61.7393
370.94	52.436
375.737	107.66
380.531	449.947
385.323	574.441
390.113	825.342
394.9	1184.24
399.684	1388.38
404.466	1871.03
409.245	1951.43
414.022	1828.82
418.797	1582.21
423.569	1287.59
428.338	1049.96
433.105	813.337
437.87	703.71
442.632	455.089
447.391	429.474
452.149	418.868
456.903	304.275
461.655	356.733
466.405	439.229
471.152	483.913
475.897	625.689
480.639	774.925
485.378	545.294
490.116	362.975
494.85	392.433
499.582	320.743
504.312	273.228
509.039	133.066
513.764	251.941
518.486	97.7295
523.206	14.2769
527.923	216.924
532.638	34.7012
537.35	60.8086
542.059	74.5391
546.766	64.6773
551.471	177.689
556.173	198.101
560.873	264.731
565.57	235.591
570.264	278.174
574.957	309.031
579.646	323.785
584.333	190.689
589.018	320.812
593.7	356.187
598.379	473.239
603.056	815.555
607.73	1086.76
612.402	1699.69
617.072	2210.3
621.739	2687.18
626.403	2785.64
631.065	2644.55
635.724	2383.6
640.381	2272.45
645.035	2069.3
649.687	1708.27
654.336	1170.64
658.983	893.654
663.627	680.582
668.268	501.527
672.907	480.919
677.544	275.264
682.178	395.807
686.809	289.701
691.438	387.518
696.065	144.416
700.688	169.808
705.31	85.0947
709.929	157.879
714.545	186.938
719.158	117.064
723.77	131.749
728.378	108.381
732.984	147.28
737.588	27.3506
742.189	244.399
746.787	21.5635
751.383	32.0576
755.976	20.9629
760.567	102.21
765.155	50.2402
769.741	99.3721
774.324	162.981
778.904	92.2334
783.482	210.785
788.058	207.591
792.631	254.086
797.201	223.914
801.769	193.08
806.334	256.972
810.897	120.337
815.457	190.304
820.014	152.75
824.569	76.6465
829.122	99.9912
833.671	97.668
838.219	81.0312
842.763	108.339
847.306	65.2578
851.845	106.256
856.382	138
860.917	63.084
865.448	112.814
869.978	79.0205
874.505	63.9629
879.029	48.0254
883.55	94.5898
888.069	105.951
892.586	71.0019
897.1	124.998
901.611	21.2031
906.12	134.11
910.626	119.619
915.129	48.0371
919.63	56.6191
924.129	1.31543
928.625	43.3223
933.118	124.176
937.609	125.294
942.097	73.2852
946.582	105.389
951.065	271.817
955.546	24.9131
960.023	15.1094
964.499	35.9062
968.971	107.599
973.441	17.3125
977.909	47.5078
982.374	118.929
986.836	78.0469
991.295	214.425
995.753	122.338
1000.21	236.249
1004.66	268.966
1009.11	246.128
1013.55	444.062
1018	350.377
1022.44	304.039
1026.88	392.043
1031.32	371.781
1035.75	513.97
1040.18	274.792
1044.61	567.092
1049.04	538.914
1053.46	432.526
1057.88	631.213
1062.3	412.004
1066.71	403.119
1071.13	460.484
1075.54	446.121
1079.94	333.594
1084.35	404.103
1088.75	341.849
1093.15	303.463
1097.55	380.499
1101.94	371.415
1106.34	197.385
1110.73	215.894
1115.11	312.256
1119.5	353.111
1123.88	460.211
1128.26	224.385
1132.63	32.3242
1137.01	311.793
1141.38	36.6035
1145.75	19.9355
1150.12	80.291
1154.48	1.9668
1158.84	65.6894
1163.2	145.619
1167.55	171.473
1171.91	233.231
1176.26	10.3281
1180.61	145.656
1184.95	135.147
1189.29	41.918
1193.63	43.3516
1197.97	228.99
1202.31	245.635
1206.64	50.4512
1210.97	343.652
1215.29	247.496
1219.62	76.5781
1223.94	355.369
1228.26	193.924
1232.57	230.555
1236.89	318.746
1241.2	228.652
1245.51	355.334
1249.81	174.148
1254.12	243.361
1258.42	366.041
1262.72	287.496
1267.01	452.902
1271.3	601.606
1275.59	227.082
1279.88	472.176
1284.17	390.99
1288.45	7.10547
1292.73	360.086
1297.01	279.725
1301.28	278.172
1305.55	541.785
1309.82	443.19
1314.09	307.674
1318.35	440.029
1322.61	327.365
1326.87	168.494
1331.13	297.76
1335.38	355.92
1339.63	409.922
1343.88	280.615
1348.12	242.984
1352.37	405.898
1356.61	437.139
1360.85	256.424
1365.08	178.264
1369.31	113.475
1373.54	187.934
1377.77	106.801
1381.99	32.7266
1386.22	50.543
1390.43	45.0273
1394.65	32.7422
1398.87	84.1094
1403.08	27.2852
1407.29	322.59
1411.49	59.3867
1415.69	232.176
1419.89	181.109
1424.09	138.223
1428.29	463.016
1432.48	153.305
1436.67	623.629
1440.86	444.289
1445.04	676.481
1449.23	375.199
1453.4	639.992
1457.58	705.074
1461.76	285.113
1465.93	729.152
1470.1	329.012
1474.26	418.914
1478.43	881.719
1482.59	232.812
1486.75	308.332
1490.9	268.641
1495.06	338.859
1499.21	105.809
1503.35	169.734
1507.5	23.4453
1511.64	162.914
1515.78	266.875
1519.92	345.695
