Measurement: Raman, 514 nm, depolarized, Raman Data Processed
Mineral: Cuprite
Rruff sample: R050374
Ideal chemistry: Cu^1+^_2_O
Locality: unknown
Source: Eugene Schlepp
Description: Aggregate of deep red cubes
Measured chemistry: Cu_2.00_O
Pin_id: M00318
Orientation: Laser parallel to -a* (-1 0 0). Fiducial mark perpendicular to laser is parallel to b [0 1 0]
Raman shift (cm-1)	intensity
84.837	0
89.777	1353.55
94.714	3105.43
99.649	3894.95
104.582	4620.57
109.512	3954.86
114.44	3292.68
119.365	2961.53
124.288	2567.16
129.209	3448.39
134.127	4718.69
139.043	6396.06
143.956	6109.5
148.867	5073.24
153.775	4629.27
158.681	3658.22
163.585	2738.79
168.486	2726.69
173.385	3852.92
178.282	5496.05
183.176	8000.39
188.067	9588.56
192.956	10363.9
197.843	12951.2
202.727	13322.8
207.609	17147
212.489	23452.6
217.366	24378.3
222.24	12431.3
227.112	7124.47
231.982	4371.66
236.849	2618.54
241.714	1427.21
246.577	390.184
251.437	90.7734
256.294	132.18
261.149	304.039
266.002	379.902
270.852	431.422
275.7	423.371
280.545	172.387
285.388	157.148
290.229	42.8086
295.067	303.566
299.902	132.418
304.735	240.977
309.566	234.828
314.394	405.109
319.22	352.906
324.043	323.094
328.864	206.902
333.682	87.1719
338.498	175.098
343.311	269.867
348.122	173.156
352.931	267.109
357.737	323.582
362.54	578.379
367.341	419.805
372.14	682.129
376.936	1273.95
381.73	1258.91
386.521	1809.52
391.31	2472.42
396.096	3037.34
400.88	3214.21
405.661	3723.42
410.44	3774.89
415.216	3495.83
419.99	2881.48
424.761	2583.46
429.53	2495.27
434.297	1860.1
439.061	1516.19
443.822	1210.41
448.581	1273.66
453.337	1711.24
458.091	1663.52
462.843	1678.51
467.592	1690.94
472.338	1896.23
477.082	1925.83
481.824	2107.89
486.563	1815.87
491.3	1367.32
496.034	1781.71
500.765	1589.29
505.494	1578.18
510.221	1950.22
514.945	1440.83
519.666	1639.3
524.385	1889.64
529.102	1553.88
533.816	1468.06
538.527	1537.21
543.236	1530.72
547.943	1893.47
552.647	1884.48
557.348	2102.51
562.047	2064.69
566.744	2260.96
571.438	2186.25
576.129	1822.62
580.818	1402.62
585.504	870.422
590.188	1131
594.87	1247.54
599.549	1310.24
604.225	2155.53
608.899	2483.34
613.57	3412.14
618.239	4291.53
622.905	5051.58
627.569	4664.73
632.23	4661.15
636.889	4119.97
641.545	3373.99
646.198	2938.39
650.849	2238.27
655.498	1941.52
660.144	1614.15
664.787	1110.23
669.428	1062.56
674.067	914.164
678.703	557.988
683.336	323.016
687.967	280.199
692.595	353.504
697.221	582.875
701.844	478.617
706.465	57.543
711.083	53.6406
715.698	25.8281
720.311	181.035
724.922	405.891
729.53	80.9922
734.135	37.8867
738.738	57.6953
743.338	156.398
747.936	79.3984
752.531	48.2773
757.124	105.027
761.714	57.4336
766.302	10.2344
770.887	225.613
775.469	182.781
780.049	179.324
784.626	391.906
789.201	330.941
793.773	488.992
798.343	494.965
802.91	283.625
807.475	300.019
812.037	244.883
816.596	342.582
821.153	181.496
825.707	202.871
830.259	295.102
834.808	164.41
839.355	299.473
843.899	110.988
848.441	106.43
852.98	276.035
857.516	137.125
862.05	244.644
866.581	189.852
871.11	298.277
875.636	120.606
880.159	11.5195
884.68	33.5703
889.199	122.223
893.714	202.16
898.228	65.3008
902.738	338.379
907.246	178.531
911.752	352.703
916.255	116.738
920.755	487.969
925.253	223.305
929.748	109.758
934.241	400.148
938.731	323.566
943.218	420.164
947.703	447.918
952.186	387.879
956.665	363.082
961.142	640.539
965.617	574.199
970.089	813.059
974.558	585.754
979.025	423.531
983.489	431.816
987.951	750.688
992.41	673.191
996.866	636.945
1001.32	798.168
1005.77	799.949
1010.22	670.375
1014.67	1012.28
1019.11	833.91
1023.55	1013.29
1027.99	1157.83
1032.42	1225.27
1036.86	1151.95
1041.29	1130.83
1045.72	1447.67
1050.14	1454.25
1054.56	1480.71
1058.98	1387.25
1063.4	1264.96
1067.82	1290.98
1072.23	1257.75
1076.64	1152.69
1081.05	1007.43
1085.45	1152.04
1089.85	1092.72
1094.25	862.871
1098.65	956.684
1103.04	1000.28
1107.43	898.359
1111.82	725.719
1116.21	1055.12
1120.59	781.012
1124.97	794.922
1129.35	892.234
1133.73	586.059
1138.1	679.668
1142.47	365.734
1146.84	431.805
1151.21	275.609
1155.57	209.84
1159.93	0.636719
1164.29	225.269
1168.64	123.918
1172.99	59.0703
1177.34	58.6797
1181.69	390.016
1186.04	67.1016
1190.38	387.731
1194.72	344.754
1199.05	451.031
1203.39	418.484
1207.72	467.305
1212.05	268.516
1216.37	219.664
1220.7	280.535
1225.02	206.832
1229.34	488.769
1233.65	437.254
1237.97	425.477
1242.28	130.394
1246.59	167.562
1250.89	11.2188
1255.19	251.695
1259.49	278.426
1263.79	207.336
1268.09	104.207
1272.38	173.738
1276.67	216.129
1280.95	376.25
1285.24	223.219
1289.52	644.41
1293.8	12.4766
1298.08	101.422
1302.35	25.5312
1306.62	182.906
1310.89	4.36328
1315.15	169.027
1319.42	194.473
1323.68	257.625
1327.94	135.578
1332.19	244.531
1336.44	154.492
1340.69	38.7227
1344.94	373.672
1349.19	232.379
1353.43	297.945
1357.67	136.805
1361.9	165.949
1366.14	237.266
1370.37	830.457
1374.6	399.402
1378.83	86.25
1383.05	355.512
1387.27	16.418
1391.49	232.629
1395.7	320.375
1399.92	51.25
1404.13	219.293
1408.34	295.488
1412.54	465.766
1416.74	8.57422
1420.94	19.9141
1425.14	177.695
1429.34	63.3867
1433.53	156.938
1437.72	121.316
1441.9	154.606
1446.09	160.918
1450.27	266.867
1454.45	91.8242
1458.63	260.703
1462.8	191.602
1466.97	199.309
1471.14	25.9297
1475.31	16.5547
1479.47	384.938
1483.63	89.5234
1487.79	148.961
1491.94	216.984
1496.09	300.484
1500.24	107.742
1504.39	127.941
1508.54	307.207
1512.68	267.422
1516.82	534.281
1520.95	228.301
1525.09	506.606
1529.22	488.277
1533.35	191.559
1537.47	229.394
1541.6	434.785
1545.72	280.156
1549.83	547.953
1553.95	1524.59
1558.06	504.266
1562.17	142.578
1566.28	299.375
1570.38	424.609
