Measurement: Raman, 514 nm, depolarized, Raman Data Processed
Mineral: Danburite
Rruff sample: R040013
Ideal chemistry: CaB_2_Si_2_O_8_
Locality: Charcas, San Luis Potosi, Mexico
Source: Marcus Origlieri
Description: Colorless prismatic single crystal
Measured chemistry: Ca_1.00_B_2.00_Si_2.00_O_8_
Pin_id: M00010
Orientation: Laser parallel to a* (1 0 0). Fiducial mark perpendicular to laser is parallel to b [0 1 0]
Raman shift (cm-1)	intensity
90.003	0
94.188	37.305
98.37	68.684
102.55	43.877
106.729	108.967
110.905	185.42
115.079	380.559
119.251	1057.83
123.422	4189.91
127.59	5620.48
131.756	3708.92
135.92	499.68
140.082	290.09
144.242	13.323
148.4	529.987
152.556	1453.44
156.71	180.924
160.862	1395.66
165.012	6448.94
169.16	2563.8
173.306	960.195
177.449	4652.99
181.591	13177.1
185.731	4612.48
189.869	1095.53
194.005	778.466
198.139	897.642
202.271	2929
206.4	2986.5
210.528	2332.11
214.654	802.809
218.778	57.569
222.9	33.443
227.019	285.522
231.137	77.807
235.253	182.093
239.367	1294.43
243.479	5246.68
247.589	5089.82
251.697	1336.07
255.803	510.75
259.906	176.04
264.008	31.735
268.108	126.836
272.206	67.77
276.302	51.258
280.396	30.679
284.488	9.371
288.578	57.354
292.666	131.457
296.753	298.188
300.837	485.939
304.919	1633.55
308.999	2813.98
313.077	3602.26
317.154	1532.4
321.228	537.415
325.3	249.309
329.371	176.09
333.439	425.763
337.506	831.333
341.57	2694.78
345.633	10161.4
349.693	11343.3
353.752	3089.49
357.809	968.312
361.863	442.794
365.916	236.289
369.967	189.64
374.016	98.425
378.063	28.758
382.108	104.698
386.151	185.654
390.192	331.982
394.231	590.117
398.269	371.166
402.304	214.112
406.337	174.982
410.369	109.781
414.398	407.508
418.426	736.167
422.452	1504.76
426.475	1457.18
430.497	570.958
434.517	349.092
438.535	654.12
442.551	769.968
446.565	237.938
450.577	129.301
454.588	13.402
458.596	144.381
462.602	169.075
466.607	374.681
470.61	811.2
474.61	3056.63
478.609	11492
482.606	8359.31
486.601	1994.58
490.594	665.809
494.585	241
498.575	158.199
502.562	137.403
506.548	55.577
510.531	17.303
514.513	13.276
518.493	13.381
522.47	2.364
526.446	49.012
530.421	12.438
534.393	45.441
538.363	19.411
542.331	32.108
546.298	32.714
550.263	85.634
554.225	271.492
558.186	547.292
562.145	1260.03
566.103	762.606
570.058	505.128
574.011	529.7
577.963	583.227
581.912	745.688
585.86	952.174
589.806	1478.7
593.75	2346.35
597.692	4125.53
601.632	8674.75
605.571	23453.3
609.507	49059.2
613.442	30983.1
617.375	11968.9
621.306	6284.7
625.235	6500.48
629.162	6196.22
633.087	3107.95
637.011	1659.8
640.932	1193.8
644.852	953.856
648.77	877.232
652.686	631.627
656.6	450.02
660.513	350.285
664.423	379.149
668.332	324.714
672.239	228.641
676.144	159.582
680.047	59.817
683.948	190.988
687.848	214.401
691.746	120.241
695.641	63.524
699.535	24.842
703.427	131.945
707.318	186.687
711.206	136.386
715.093	126.043
718.978	172.662
722.861	133.242
726.742	137.786
730.621	38.293
734.499	43.765
738.374	51.201
742.248	63.604
746.12	144.972
749.99	99.305
753.859	92.594
757.725	30.166
761.59	114.963
765.453	241.057
769.314	289.127
773.174	484.181
777.031	312.203
780.887	159.192
784.741	107.152
788.593	157.083
792.443	88.941
796.291	48.694
800.138	72.62
803.983	2.898
807.826	31.326
811.667	53.54
815.507	7.405
819.344	47.465
823.18	12.649
827.014	17.095
830.847	127.828
834.677	46.539
838.506	48.762
842.333	28.89
846.158	83.572
849.981	159.313
853.803	137.927
857.623	181.719
861.441	171.538
865.257	129.42
869.071	100.333
872.884	205.266
876.695	257.214
880.504	107.181
884.311	48.156
888.117	121.163
891.92	282.194
895.722	367.259
899.523	577.356
903.321	670.553
907.118	680.474
910.913	844.736
914.706	1211.06
918.497	1542.45
922.287	1474.88
926.075	1040.37
929.861	693.896
933.645	621.474
937.428	780.104
941.208	1337.74
944.987	2153.28
948.765	2480.67
952.54	1660.03
956.314	1045.83
960.086	985.125
963.856	1280.19
967.625	2095.68
971.392	3904.06
975.157	3767.8
978.92	1938.22
982.682	1131.71
986.441	852.189
990.199	715.698
993.956	732.49
997.71	671.379
1001.46	944.085
1005.21	1627.19
1008.96	2543.48
1012.71	1362.96
1016.46	624.418
1020.2	328.549
1023.94	306.259
1027.68	153.077
1031.42	152.987
1035.16	204
1038.9	183.2
1042.63	206.507
1046.36	89.037
1050.09	31.58
1053.82	29.282
1057.55	80.098
1061.27	207.055
1065	227.659
1068.72	188.889
1072.44	200.255
1076.16	189.716
1079.87	229.312
1083.59	379.056
1087.3	541.902
1091.01	768.856
1094.72	938.194
1098.43	1410.38
1102.14	1848.68
1105.84	2325.1
1109.55	2168.66
1113.25	1630.39
1116.94	1175.25
1120.64	1003.24
1124.34	670.374
1128.03	368.682
1131.73	284.084
1135.42	232.828
1139.11	234.394
1142.8	140.204
1146.48	264.967
1150.16	201.013
1153.85	61.889
1157.53	60.856
1161.21	90.873
1164.88	10.815
1168.56	133.691
1172.23	243.119
1175.91	213.83
1179.58	209.108
1183.25	110.147
1186.91	84.101
1190.58	62.157
1194.24	64.178
1197.91	154.108
1201.57	174.791
1205.23	184.482
1208.88	183.74
1212.54	96.119
1216.19	87.612
1219.85	79.221
1223.5	133.396
1227.14	234.606
1230.79	342.417
1234.44	356.255
1238.08	320.468
1241.72	197.106
1245.37	184.338
1249	152.042
1252.64	134.488
1256.28	262.482
1259.91	291.714
1263.54	312.727
1267.17	313.412
1270.8	259.205
1274.43	69.889
1278.06	28.994
1281.68	14.639
1285.3	106.025
1288.92	110.032
1292.54	273.859
1296.16	259.3
1299.78	218.684
1303.39	207.625
1307	138.471
1310.61	51.092
1314.22	34.965
1317.83	128.328
1321.44	112.475
1325.04	151.442
1328.64	190.2
1332.24	203.718
1335.85	190.949
1339.44	107.115
1343.04	9.894
1346.63	2.928
1350.23	36.373
1353.82	35.187
1357.41	140.143
1360.99	156.527
1364.58	309.932
1368.17	263.359
1371.75	76.934
1375.33	55.937
1378.91	97.288
1382.49	25.448
1386.07	81.763
1389.64	114.943
1393.21	123.985
1396.79	156.804
1400.36	305.07
1403.92	288.145
1407.49	242.004
1411.06	173.473
1414.62	176.388
1418.18	32.682
1421.74	85.426
1425.3	91.417
1428.86	204.488
1432.42	284.037
1435.97	361.887
1439.52	459.533
1443.07	474.623
1446.62	569.496
1450.17	452.495
1453.72	396.839
1457.26	276.468
1460.81	284.009
1464.35	252.921
1467.89	319.373
1471.42	279.131
1474.96	323.752
1478.49	500.218
1482.03	501.621
1485.56	399.636
1489.09	283
1492.62	250.093
1496.15	190.786
1499.67	114.55
1503.2	72.797
1506.72	90.581
1510.24	9.173
1513.76	181.964
1517.28	0
