Measurement: Raman, 514 nm, depolarized, Raman Data Processed
Mineral: Danburite
Rruff sample: R040013
Ideal chemistry: CaB_2_Si_2_O_8_
Locality: Charcas, San Luis Potosi, Mexico
Source: Marcus Origlieri
Description: Colorless prismatic single crystal
Measured chemistry: Ca_1.00_B_2.00_Si_2.00_O_8_
Pin_id: M00012
Orientation: Laser parallel to c* (0 0 1). Fiducial mark perpendicular to laser is parallel to a [1 0 0]
Raman shift (cm-1)	intensity
80.232	0
84.421	247.45
88.608	232.734
92.793	220.029
96.976	319.819
101.157	305.271
105.336	250.595
109.513	717.595
113.688	817.786
117.861	2580.13
122.032	7598.21
126.201	11198.9
130.367	7438.95
134.532	2134.1
138.695	3260.46
142.856	1047.26
147.014	11.596
151.171	160.896
155.325	23.988
159.478	890.959
163.629	6534.17
167.777	7047.6
171.924	549.442
176.068	30.346
180.211	439.128
184.351	715.106
188.49	2011.23
192.626	2414.58
196.761	435.249
200.893	442.042
205.024	1684.9
209.152	6477.39
213.279	5959.98
217.403	1213.92
221.526	316.236
225.646	250.322
229.765	643.381
233.881	1343.06
237.996	5360.16
242.108	18504.3
246.219	30343
250.328	9274.66
254.434	2855.55
258.539	1437.75
262.641	671.907
266.742	205.692
270.84	325.025
274.937	1562.05
279.032	2182.83
283.125	423.818
287.215	0.935
291.304	67.355
295.391	14.565
299.476	28.275
303.558	304.839
307.639	1369.95
311.718	2630.63
315.795	1277.22
319.87	315.023
323.943	20.383
328.014	8.387
332.083	57.389
336.15	347.622
340.215	1206.43
344.279	5335.9
348.34	9828.77
352.399	3403.68
356.457	986.327
360.512	404.097
364.565	114.447
368.617	70.457
372.666	147.277
376.714	0.65
380.76	45.221
384.803	65.547
388.845	134.538
392.885	119.033
396.923	54.417
400.959	332.38
404.993	1036.29
409.025	918.133
413.055	761.877
417.084	1549.53
421.11	3693.05
425.134	4937.43
429.157	2128.65
433.177	982.709
437.196	2032.61
441.213	4469.36
445.227	1982.97
449.24	745.933
453.251	513.65
457.26	688.187
461.267	955.219
465.272	506.166
469.276	450.978
473.277	789.657
477.276	3006.39
481.274	3636.36
485.27	901.832
489.263	270.906
493.255	122.442
497.245	10.004
501.233	49.582
505.219	7.63
509.203	100.684
513.186	33.465
517.166	51.868
521.145	3.556
525.121	71.603
529.096	51.298
533.069	111.928
537.04	57.31
541.009	111.131
544.976	160.095
548.941	112.551
552.905	94.872
556.866	272.187
560.826	893.098
564.784	880.815
568.74	452.801
572.694	502.584
576.646	749.614
580.596	1116.94
584.544	1275.56
588.491	1479.94
592.435	2200.08
596.378	3710.81
600.319	7081.24
604.258	17330.8
608.195	43479.9
612.131	39998.9
616.064	16667.8
619.995	8126.53
623.925	6925.18
627.853	9113.65
631.779	5429.29
635.703	3161.51
639.625	1945.09
643.546	1430.73
647.464	1125.54
651.381	1015.88
655.296	883.985
659.209	576.642
663.12	390.418
667.029	289.246
670.937	337.773
674.842	369.258
678.746	177.339
682.648	119.209
686.548	138.53
690.447	189.629
694.343	183.527
698.238	126.771
702.13	44.032
706.021	0.587
709.91	157.981
713.798	98.618
717.683	83.025
721.567	1.189
725.448	81.122
729.328	113.853
733.206	153.337
737.083	191.612
740.957	42.734
744.83	48.771
748.701	229.693
752.57	293.513
756.437	204.232
760.302	134.866
764.166	124.391
768.027	388.784
771.887	717.048
775.745	705.184
779.602	245.193
783.456	31.079
787.309	26.837
791.16	109.411
795.009	169.746
798.856	96.939
802.702	45.06
806.545	17.307
810.387	8.718
814.227	114.66
818.065	172.831
821.902	26.214
825.737	62.395
829.569	31.283
833.401	147.853
837.23	172.073
841.057	158.229
844.883	33.156
848.707	43.043
852.529	132.023
856.35	351.438
860.168	525.812
863.985	368.255
867.8	67.506
871.613	151.745
875.425	295.622
879.234	384.87
883.042	347.849
886.848	290.387
890.653	289.129
894.455	574.097
898.256	993.119
902.055	1468.76
905.852	1504.75
909.648	1189.73
913.442	951.075
917.233	1029.03
921.024	806.989
924.812	674.963
928.599	459.951
932.384	542.012
936.167	488.82
939.948	921.662
943.728	1733.13
947.506	2639.77
951.282	2189.2
955.056	1232.4
958.829	754.498
962.6	721.678
966.369	1638.39
970.136	3642.72
973.902	5177.23
977.666	2846.3
981.428	1390.94
985.188	899.486
988.947	710.387
992.704	601.889
996.459	819.817
1000.21	1312.41
1003.96	1749.02
1007.71	2822.51
1011.46	1727.19
1015.21	802.082
1018.95	824.111
1022.7	1096.31
1026.44	1210.66
1030.18	799.137
1033.91	331.762
1037.65	124.538
1041.39	166.44
1045.12	214.552
1048.85	189.667
1052.58	42.049
1056.31	39.688
1060.03	138.285
1063.76	24.506
1067.48	234.093
1071.2	556.842
1074.92	722.718
1078.63	939.779
1082.35	764.285
1086.06	618.271
1089.78	827.872
1093.49	1361.65
1097.19	1992.57
1100.9	2972.62
1104.61	3873.86
1108.31	3738.26
1112.01	2762.83
1115.71	1901.61
1119.41	1435.59
1123.11	1155.79
1126.8	973.152
1130.5	693.667
1134.19	399.362
1137.88	119.186
1141.57	75.193
1145.25	78.317
1148.94	248.511
1152.62	270.773
1156.3	368.502
1159.98	407.159
1163.66	383.627
1167.34	485.59
1171.01	808.188
1174.68	1192.85
1178.36	1172.56
1182.02	960.329
1185.69	630.202
1189.36	429.977
1193.02	112.416
1196.69	1.744
1200.35	87.282
1204.01	148.115
1207.66	211.465
1211.32	366.97
1214.98	344.441
1218.63	126.299
1222.28	78.032
1225.93	98.879
1229.58	52.632
1233.22	186.693
1236.87	416.988
1240.51	540.076
1244.15	444.281
1247.79	373.346
1251.43	290.278
1255.07	167.694
1258.7	57.381
1262.33	285.435
1265.96	395.21
1269.59	588.404
1273.22	571.549
1276.85	573.124
1280.47	397.726
1284.1	157.813
1287.72	54.783
1291.34	63.568
1294.95	93.756
1298.57	317.88
1302.19	339.98
1305.8	323.68
1309.41	451.238
1313.02	425.715
1316.63	298.085
1320.23	213.346
1323.84	152.451
1327.44	151.408
1331.05	143.182
1334.64	275.775
1338.24	320.189
1341.84	335.327
1345.43	227.592
1349.03	130.756
1352.62	23.934
1356.21	61.402
1359.8	19.165
1363.39	79.348
1366.97	208.577
1370.56	327.655
1374.14	244.531
1377.72	454.987
1381.3	380.189
1384.87	172.362
1388.45	145.481
1392.02	18.542
1395.6	68.499
1399.17	59.369
1402.74	167.156
1406.3	356.872
1409.87	533.623
1413.43	511.703
1417	547.123
1420.56	443.499
1424.12	267.926
1427.67	127.992
1431.23	205.288
1434.79	264.77
1438.34	318.964
1441.89	764.896
1445.44	1044.87
1448.99	1298.27
1452.54	1353.38
1456.08	1396.53
1459.62	1199.21
1463.17	886.657
1466.71	597.65
1470.24	382.163
1473.78	338.775
1477.32	278.994
1480.85	419.134
1484.38	513.008
1487.91	558.981
1491.44	461.402
1494.97	523.571
1498.5	318.28
1502.02	309.782
1505.54	193.977
1509.07	220.6
1512.59	24.15
1516.1	0.921
