Measurement: Raman, 514 nm, depolarized, Raman Data Processed
Mineral: Danburite
Rruff sample: R040013
Ideal chemistry: CaB_2_Si_2_O_8_
Locality: Charcas, San Luis Potosi, Mexico
Source: Marcus Origlieri
Description: Colorless prismatic single crystal
Measured chemistry: Ca_1.00_B_2.00_Si_2.00_O_8_
Pin_id: M00009
Orientation: Laser parallel to b* (0 1 0). Fiducial mark perpendicular to laser is parallel to -c [0 0 -1]
Raman shift (cm-1)	intensity
91.398	0
95.582	108.43
99.764	401.822
103.943	756.599
108.121	897.535
112.297	1613.52
116.47	2479.29
120.642	3827.29
124.811	5818.12
128.979	1917.38
133.144	600.629
137.307	197.536
141.469	85.444
145.628	32.564
149.786	28.748
153.941	158.163
158.094	15.168
162.245	954.142
166.395	2744.9
170.542	666.371
174.687	1711.49
178.83	8947.28
182.972	15776.9
187.111	4077.66
191.248	2913.29
195.383	2538.79
199.516	527.169
203.647	838.135
207.777	3763.2
211.904	6906.95
216.029	1876.68
220.152	850.423
224.273	1998.21
228.392	2853.66
232.509	1146.29
236.625	2617.01
240.738	9748.99
244.849	24237.3
248.958	13232.1
253.065	3774.44
257.171	1402.14
261.274	406.94
265.375	122.294
269.475	100.421
273.572	8.089
277.667	67.597
281.76	329.758
285.852	619.921
289.941	1359.41
294.029	3313.5
298.114	2807.64
302.198	915.777
306.279	878.229
310.359	2054.28
314.436	2278.52
318.512	813.384
322.586	190.521
326.657	332.329
330.727	618.049
334.795	387.661
338.861	489.334
342.924	2192.39
346.986	6736.23
351.046	4060.75
355.104	800.624
359.16	198.472
363.214	117.146
367.267	14.4
371.317	129.078
375.365	50.964
379.411	100.501
383.456	0.602
387.498	1.099
391.539	18.273
395.577	163.668
399.614	227.293
403.649	58.625
407.681	179.967
411.712	533.245
415.741	857.457
419.768	1898.61
423.793	3768.63
427.816	2628.11
431.837	1080.66
435.857	1019.34
439.874	3436.46
443.889	3125.31
447.903	1054.5
451.914	321.556
455.924	590.475
459.932	1411.26
463.938	749.9
467.941	459.406
471.943	806.813
475.944	4005.24
479.942	10813.8
483.938	4512.36
487.932	990.828
491.925	469.142
495.915	346.332
499.904	250.422
503.891	81.348
507.876	0.13
511.859	139.732
515.84	396.136
519.819	243.275
523.796	12.938
527.771	86.028
531.745	256.913
535.716	140.588
539.686	40.141
543.654	62.869
547.62	183.804
551.584	372.509
555.546	398.857
559.506	633.729
563.465	920.465
567.421	773.897
571.376	872.733
575.329	537.318
579.279	606.236
583.228	984.464
587.175	1568.62
591.121	2067.97
595.064	2702
599.006	4714.81
602.945	10838.6
606.883	29582.3
610.819	42835.8
614.753	21069.1
618.685	9352.28
622.615	7275.33
626.544	10538.2
630.471	8110.98
634.395	3526.02
638.318	2258.49
642.239	2032.6
646.158	2094.78
650.076	1736.8
653.991	1104.38
657.905	975.945
661.817	806.484
665.726	589.336
669.635	519.994
673.541	337.003
677.445	285.673
681.348	365.429
685.248	205.788
689.147	133.482
693.044	27.966
696.94	15.568
700.833	335.906
704.724	202.569
708.614	57.367
712.502	32.249
716.388	132.003
720.272	171.388
724.155	220.325
728.035	119.017
731.914	52.402
735.791	15.987
739.666	274.263
743.539	322.409
747.41	330.403
751.28	131.704
755.148	15.908
759.014	413.538
762.878	601.185
766.74	408.816
770.601	616.427
774.46	774.016
778.316	641.585
782.172	339.137
786.025	326.679
789.876	64.76
793.726	38.032
797.574	179.125
801.42	456.287
805.264	373.462
809.107	150.548
812.947	27.604
816.786	75.308
820.623	271.738
824.459	438.833
828.292	646.01
832.124	263.278
835.954	120.604
839.782	397.792
843.608	754.741
847.433	1068.03
851.255	824.076
855.076	926.822
858.895	1081.61
862.713	1370.12
866.528	1398.4
870.342	1306.23
874.154	831.779
877.965	591.566
881.773	696.468
885.58	1011.11
889.385	1430.05
893.188	1525.81
896.989	1945.36
900.789	1709.96
904.587	1391.26
908.383	1384.63
912.177	1170.17
915.97	873.151
919.76	594.261
923.55	165.983
927.337	157.427
931.122	459.041
934.906	460.829
938.688	542.796
942.468	412.491
946.247	343.01
950.023	525.505
953.798	568.189
957.572	711.065
961.343	818.42
965.113	731.682
968.881	1381.91
972.647	3135.56
976.411	2049.41
980.174	1043.46
983.935	667.701
987.694	702.139
991.452	616.772
995.207	641.613
998.961	1181.85
1002.71	1847.16
1006.46	977.338
1010.21	640.984
1013.96	258.705
1017.71	38.513
1021.45	260.521
1025.19	473.56
1028.93	802.096
1032.67	679.766
1036.41	467.613
1040.14	696.036
1043.87	217.39
1047.61	155.698
1051.34	236.638
1055.06	399.469
1058.79	428.816
1062.52	148.473
1066.24	207.997
1069.96	22.357
1073.68	177.499
1077.4	577.544
1081.11	1187.77
1084.83	1338.51
1088.54	1109.08
1092.25	1049.17
1095.96	1370.1
1099.67	2161.13
1103.37	3152.23
1107.08	4103.4
1110.78	3814.72
1114.48	2656.1
1118.18	1737.55
1121.88	1039.09
1125.57	820.681
1129.27	702.309
1132.96	623.976
1136.65	655.688
1140.34	607.447
1144.02	389.438
1147.71	21.13
1151.39	76.787
1155.07	125.275
1158.76	256.865
1162.43	485.135
1166.11	575.939
1169.79	467.091
1173.46	317.825
1177.13	118.424
1180.8	48.945
1184.47	49.616
1188.14	280.076
1191.8	565.905
1195.46	504.01
1199.13	622.244
1202.79	339.099
1206.45	63.655
1210.1	278.245
1213.76	248.465
1217.41	466.377
1221.06	744.568
1224.71	783.314
1228.36	801.531
1232.01	514.553
1235.65	389.375
1239.3	236.998
1242.94	244.93
1246.58	532.762
1250.22	890.227
1253.85	1107.67
1257.49	1045.58
1261.12	953.043
1264.75	609.934
1268.38	567.516
1272.01	554.09
1275.64	590.879
1279.27	648.131
1282.89	755.73
1286.51	741.586
1290.13	996.996
1293.75	726.832
1297.37	416.85
1300.98	93.203
1304.6	43.158
1308.21	228.488
1311.82	518.119
1315.43	895.604
1319.03	1152.16
1322.64	1113.31
1326.24	615.309
1329.85	587.014
1333.44	31.961
1337.04	73.955
1340.64	52.955
1344.24	54.525
1347.83	222.066
1351.42	542.025
1355.01	452.137
1358.6	452.277
1362.19	402.588
1365.78	72.877
1369.36	134.014
1372.94	52.83
1376.53	83.418
1380.1	210.475
1383.68	574.137
1387.26	657.551
1390.83	900.699
1394.41	823.578
1397.98	636.186
1401.55	478.496
1405.12	230.225
1408.68	51.623
1412.25	193.18
1415.81	184.883
1419.37	316.684
1422.93	678.898
1426.49	792.02
1430.05	1110.84
1433.6	1246.58
1437.15	1386.41
1440.71	1528.81
1444.26	1489.34
1447.81	1443.2
1451.35	1560.07
1454.9	1934.35
1458.44	2208.62
1461.98	2009.52
1465.53	1969.95
1469.07	1880.68
1472.6	1623.36
1476.14	1413.55
1479.67	985.533
1483.21	831.283
1486.74	479.557
1490.27	368.789
1493.8	130.135
1497.32	136.117
1500.85	447.854
1504.37	616.244
1507.89	475.064
1511.41	847.064
1514.93	829.873
