Measurement: Raman, 514 nm, depolarized, Raman Data Processed
Mineral: Datolite
Rruff sample: R050033
Ideal chemistry: CaB(SiO_4_)(OH)
Locality: Westfield, Massachusetts, USA
Source: University of Arizona Mineral Museum
Description: Group of pale green single crystals
Measured chemistry: Ca_1.00_B_1.00_Si_1.00_O_4_(OH) ; trace amounts of Al and Na; B measured and corrected according to stoichiometry;  OH estimated by stoichiometry end charge balance
Pin_id: L00153
Orientation: Laser parallel to -a* (-1 0 0). Fiducial mark perpendicular to laser is parallel to -b [0 -1 0]
Raman shift (cm-1)	intensity
52.937	0
57.132	27.068
61.325	113.269
65.515	25.989
69.704	0.004
73.891	30.558
78.076	24.256
82.26	25.055
86.441	24.636
90.62	11.559
94.797	5.376
98.973	68.773
103.146	97.54
107.318	99.981
111.487	100.906
115.655	117.147
119.821	140.299
123.984	166.422
128.146	302.761
132.306	813.91
136.464	681.947
140.62	300.079
144.774	316.244
148.927	605.657
153.077	1488.21
157.226	2125.06
161.372	9140.83
165.517	25305.1
169.659	6769.52
173.8	2495.98
177.939	3630.51
182.076	1194.1
186.211	583.754
190.344	1385.44
194.475	1466.15
198.605	536.882
202.732	452.662
206.858	479.801
210.981	1345.1
215.103	4921.49
219.223	9899.14
223.341	1898.44
227.457	487.95
231.571	290.734
235.684	101.11
239.794	28.979
243.902	2.719
248.009	6.768
252.114	29.963
256.217	85.515
260.318	36.794
264.417	61.989
268.514	331.902
272.609	804.801
276.703	493.675
280.794	236.535
284.884	587.384
288.972	2547.23
293.058	4535.07
297.142	1450.92
301.224	420.766
305.304	135.621
309.383	114.48
313.46	64.328
317.534	90.051
321.607	188.514
325.678	609.871
329.747	1861.27
333.815	2678.69
337.88	809.158
341.944	201.658
346.005	68.235
350.065	39.556
354.123	104.562
358.179	330.192
362.234	542.905
366.286	356.582
370.337	271.016
374.386	558.497
378.432	1085.66
382.478	1125.21
386.521	2180.92
390.562	5525.62
394.602	4971.3
398.639	1662.99
402.675	660.585
406.709	364.458
410.742	206.312
414.772	136.813
418.8	223.915
422.827	781.594
426.852	599.027
430.875	137.828
434.896	94.637
438.916	254.454
442.933	257.29
446.949	271.142
450.963	820.002
454.975	2829.87
458.985	4067.76
462.994	1239.75
467	375.757
471.005	154.86
475.008	137.074
479.009	155.374
483.009	367.783
487.006	1287.28
491.002	2831.83
494.996	1238.46
498.988	285.134
502.978	62.826
506.967	23.521
510.953	13.814
514.938	55.324
518.921	1.942
522.903	110.18
526.882	92.418
530.86	24.362
534.836	52.279
538.81	27.317
542.782	134.588
546.753	432.489
550.721	1452.38
554.688	2163.27
558.653	1169.16
562.617	838.036
566.578	310.923
570.538	85.84
574.496	20.797
578.452	65.827
582.407	138.972
586.359	361.145
590.31	873.308
594.259	1143.46
598.206	756.09
602.152	464.91
606.096	214.022
610.038	76.12
613.978	51.202
617.916	67.775
621.853	87.227
625.788	88.243
629.721	116.25
633.652	141.4
637.582	269.225
641.51	376.842
645.436	580.293
649.36	1133.21
653.282	2188.9
657.203	2408.39
661.122	2167.05
665.039	3090.61
668.955	4291.52
672.869	3417.99
676.781	2735.89
680.691	3212.3
684.599	5616.67
688.506	15896.6
692.411	39475.4
696.314	21538.8
700.216	6874.96
704.115	3038.13
708.013	1783.26
711.91	1106.35
715.804	734.405
719.697	494.428
723.588	363.428
727.477	244.397
731.365	236.337
735.25	197.201
739.134	249.094
743.017	212.998
746.897	136.875
750.776	58.714
754.653	83.51
758.529	79.244
762.402	63.935
766.274	62.589
770.144	3.792
774.013	37.737
777.88	24.084
781.745	20.693
785.608	46.69
789.47	58.92
793.329	21.361
797.188	5.008
801.044	13.798
804.899	20.754
808.752	32.826
812.603	46.009
816.452	150.82
820.3	237.615
824.146	519.434
827.991	997.352
831.834	679.341
835.675	319.323
839.514	172.3
843.352	106.297
847.187	93.372
851.022	49.489
854.854	172.626
858.685	246.769
862.514	425.921
866.341	552.084
870.167	668.511
873.991	1160.45
877.813	2094
881.634	2816.77
885.453	2344.39
889.27	1526.99
893.086	1146.35
896.9	972.588
900.712	1116.92
904.522	1510.27
908.331	2227.16
912.138	4380.87
915.944	9424.31
919.747	9747.77
923.549	5301.1
927.35	2802.3
931.148	1964.48
934.945	1756.93
938.741	1361.98
942.534	1107.79
946.326	1032.09
950.117	1075.31
953.905	1149.14
957.692	1030.67
961.478	760.179
965.261	659.266
969.043	695.604
972.823	1013.04
976.602	1669.57
980.379	3596.21
984.154	7548.97
987.928	6172.83
991.7	2763.86
995.47	1260.93
999.239	678.191
1003.01	458.596
1006.77	251.145
1010.53	108.811
1014.3	50.599
1018.06	28.517
1021.82	66.535
1025.57	63.636
1029.33	36.809
1033.08	26.054
1036.83	18.627
1040.59	70.237
1044.33	9.843
1048.08	73.574
1051.83	145.062
1055.57	206.664
1059.31	240.356
1063.05	443.147
1066.79	943.023
1070.53	2226.98
1074.27	7216.03
1078	13315.2
1081.73	5302.52
1085.46	1806
1089.19	792.671
1092.92	471.2
1096.64	332.258
1100.37	285.47
1104.09	266.996
1107.81	161.883
1111.53	94.427
1115.25	73.899
1118.97	70.693
1122.68	104.028
1126.39	155.737
1130.1	183.828
1133.81	260.486
1137.52	304.284
1141.23	302.86
1144.93	395.781
1148.64	510.178
1152.34	689.271
1156.04	1093.25
1159.74	1484.56
1163.43	1936.11
1167.13	2643.6
1170.82	3423.37
1174.51	3718.72
1178.2	2744.72
1181.89	1711.59
1185.58	1138.33
1189.26	824.66
1192.95	667.183
1196.63	640.838
1200.31	697.338
1203.99	794.867
1207.67	744.271
1211.34	539.718
1215.02	409.144
1218.69	331.596
1222.36	245.959
1226.03	100.313
1229.7	76.838
1233.36	47.339
1237.03	68.145
1240.69	84.356
1244.35	132.541
1248.01	119.681
1251.67	99.765
1255.33	47.773
1258.98	4.308
1262.64	23.345
1266.29	4.772
1269.94	0.528
1273.59	58.417
1277.23	65.716
1280.88	109.68
1284.53	96.771
1288.17	9.811
1291.81	39.426
1295.45	28.657
1299.09	69.192
1302.72	16.561
1306.36	44.776
1309.99	85.867
1313.62	131.823
1317.25	86.684
1320.88	90.457
1324.51	61.172
1328.13	47.765
1331.75	76.191
1335.38	72.521
1339	110.789
1342.62	161.857
1346.23	119.94
1349.85	123.913
1353.46	57.794
1357.08	83.852
1360.69	57.557
1364.3	76.205
1367.9	12.991
1371.51	122.317
1375.12	150.4
1378.72	75.229
1382.32	170.89
1385.92	179.084
1389.52	146.733
1393.12	139.911
1396.71	103.367
1400.31	116.951
1403.9	53.823
1407.49	37.288
1411.08	86.997
1414.67	66.192
1418.25	132.606
1421.84	156.384
1425.42	101.426
1429	124.148
1432.58	57.436
1436.16	20.566
1439.74	76.56
1443.32	6.405
1446.89	87.058
1450.46	72.364
1454.03	171.169
1457.6	162.188
1461.17	185.949
1464.74	198.489
1468.3	118.657
1471.87	44.495
1475.43	29.843
1478.99	32.859
1482.55	10.01
1486.1	34.02
1489.66	67.326
1493.21	48.616
1496.77	138.617
1500.32	162.188
1503.87	100.606
1507.41	97.867
1510.96	150.022
1514.51	74.442
1518.05	75.483
1521.59	8.346
1525.13	0
