Measurement: Raman, 514 nm, depolarized, Raman Data Processed
Mineral: Datolite
Rruff sample: R050136
Ideal chemistry: CaB(SiO_4_)(OH)
Locality: Charcas, San Luis Potosi, Mexico
Source: Dave Bunk Minerals
Description: Pale green tabular crystals
Measured chemistry: Ca_1.00_BSi_1.00_O_4_(OH) ; trace amounts of Fe; B and OH estimated by stoichiometry end charge balance
Pin_id: L00087
Orientation: Laser parallel to (-1 0 -1). Fiducial mark perpendicular to laser is parallel to -b [0 -1 0]
Raman shift (cm-1)	intensity
90.65	0
94.838	54.808
99.023	58.964
103.206	37.465
107.387	95.586
111.566	85.299
115.744	168.529
119.919	96.728
124.092	85.225
128.263	99.775
132.432	1216.09
136.599	1473.8
140.764	190.559
144.927	9.893
149.088	71.596
153.247	674.547
157.404	838.799
161.559	2501.46
165.711	22226.6
169.862	4619.42
174.011	1107.32
178.158	2536.09
182.303	979.529
186.446	294.724
190.587	357.305
194.726	524.827
198.862	327.797
202.997	437.166
207.13	142.59
211.261	446.309
215.39	1255.67
219.517	6357.81
223.642	901.003
227.765	221
231.886	78.463
236.005	20.441
240.122	77.844
244.237	2.622
248.35	22.305
252.461	48.259
256.57	49.275
260.677	7.918
264.782	116.189
268.885	240.904
272.986	889.339
277.085	868.967
281.182	255.923
285.278	193.72
289.371	674.424
293.462	2174.45
297.552	610.348
301.639	228.443
305.724	181.961
309.808	177.367
313.889	135.733
317.969	193.495
322.046	486.44
326.122	477.423
330.196	715.09
334.267	1724.44
338.337	691.581
342.405	349.311
346.471	297.461
350.535	338.015
354.597	722.743
358.657	1670.78
362.715	3247.74
366.771	1999.88
370.825	1034.29
374.877	727.811
378.928	742.265
382.976	816.401
387.023	1925.21
391.067	5933.48
395.11	5725.85
399.15	1765.98
403.189	849.092
407.226	514.87
411.261	299.41
415.294	213.331
419.325	407.463
423.354	1689.03
427.381	1630.33
431.406	320.631
435.43	227.773
439.451	392.809
443.471	225.558
447.488	52.299
451.504	49.653
455.518	204.582
459.53	347.264
463.54	41.493
467.548	1.287
471.554	56.043
475.558	45.033
479.561	53.909
483.561	86.477
487.559	530.289
491.556	1682.07
495.551	693.775
499.544	81.414
503.535	48.575
507.524	86.74
511.511	3.446
515.496	5.401
519.48	9.607
523.461	245.514
527.441	222.334
531.418	7.087
535.394	60.247
539.368	48.767
543.34	76.535
547.311	143.711
551.279	324.809
555.245	793.888
559.21	518.009
563.173	568.221
567.133	192.586
571.092	19.864
575.049	67.5
579.005	152.306
582.958	276.333
586.909	524.399
590.859	1488.62
594.807	2483.65
598.753	1645.06
602.697	1288.58
606.639	590.16
610.579	197.383
614.518	170.126
618.454	110.13
622.389	137.844
626.322	101.829
630.253	169.107
634.182	217.092
638.109	273.229
642.035	326.258
645.958	861.078
649.88	2171.24
653.8	2799.46
657.718	2976.62
661.634	2221.04
665.549	1759.5
669.461	2589.19
673.372	2319.36
677.281	1903.8
681.188	2055.12
685.093	3743.46
688.997	10971.8
692.898	35609.1
696.798	20997.1
700.696	5792.41
704.592	2312.94
708.486	1372.07
712.378	879.17
716.269	605.244
720.158	307.287
724.045	184.297
727.93	188.425
731.813	248.231
735.694	187.139
739.574	95.008
743.452	45.833
747.328	93.611
751.202	158.336
755.075	136.993
758.945	104.589
762.814	240.147
766.681	420.685
770.546	219.199
774.409	132.674
778.271	73.075
782.131	77.562
785.989	88.39
789.845	8.465
793.699	27.188
797.552	46.585
801.402	87.258
805.251	52.395
809.098	31.702
812.944	139.854
816.787	183.339
820.629	104.832
824.469	280.358
828.307	711.897
832.144	672.436
835.978	313.983
839.811	221.524
843.642	87.097
847.472	24.699
851.299	101.354
855.125	287.065
858.949	573.795
862.771	1082.54
866.591	1084.26
870.41	400.958
874.227	245.641
878.042	443.307
881.855	519.959
885.667	450.604
889.476	309.529
893.284	280.089
897.09	462.547
900.895	718.135
904.698	1010.65
908.499	1525.79
912.298	2938.76
916.095	7126.31
919.891	9154.86
923.685	4981.39
927.477	2509.59
931.267	1639.51
935.056	1431.37
938.843	1141.24
942.628	899.649
946.411	847.485
950.193	886.411
953.973	707.846
957.751	473.291
961.527	393.776
965.302	348.511
969.075	539.1
972.846	790.026
976.615	1062.96
980.383	1943.92
984.149	4236.36
987.913	3653.46
991.675	1721.81
995.436	937.603
999.195	695.025
1002.95	622.128
1006.71	383.04
1010.46	188.632
1014.21	228.142
1017.96	256.497
1021.71	352.002
1025.46	222.39
1029.2	68.798
1032.95	8.225
1036.69	14.332
1040.43	118.118
1044.17	227.708
1047.9	220.272
1051.64	234.853
1055.37	126.468
1059.1	115.122
1062.83	314.812
1066.56	643.542
1070.29	1541.3
1074.01	4080.07
1077.73	7884.06
1081.46	4345.17
1085.17	1755.58
1088.89	715.783
1092.61	478.373
1096.32	421.839
1100.04	319.494
1103.75	239.642
1107.46	85.301
1111.16	74.002
1114.87	80.473
1118.57	45.254
1122.28	309.379
1125.98	274.983
1129.67	183.444
1133.37	37.076
1137.07	36.847
1140.76	75.376
1144.45	21.481
1148.14	103.745
1151.83	218.964
1155.52	187.323
1159.21	133.298
1162.89	69.047
1166.57	31.767
1170.25	133.312
1173.93	216.801
1177.61	316.842
1181.28	363.457
1184.96	334.809
1188.63	199.165
1192.3	83.108
1195.97	114.407
1199.64	207.067
1203.3	451.059
1206.97	560.219
1210.63	517.725
1214.29	406.268
1217.95	316.98
1221.6	50.131
1225.26	34.046
1228.91	18.662
1232.57	174.14
1236.21	287.045
1239.86	305.385
1243.51	261.625
1247.16	223.745
1250.8	126.34
1254.44	12.277
1258.08	52.902
1261.72	76.485
1265.36	114.286
1268.99	271.345
1272.63	322.579
1276.26	327.925
1279.89	205.141
1283.52	60.76
1287.15	40.227
1290.77	41.32
1294.4	44.538
1298.02	180.931
1301.64	310.417
1305.26	328.171
1308.88	212.928
1312.49	190.62
1316.11	123.265
1319.72	12.781
1323.33	56.189
1326.94	62.499
1330.55	56.57
1334.15	193.549
1337.76	309.277
1341.36	318.963
1344.96	290.548
1348.56	136.552
1352.16	7.053
1355.75	24.735
1359.35	3.516
1362.94	39.741
1366.53	241.522
1370.12	327.158
1373.71	324.786
1377.3	404.936
1380.88	332.315
1384.46	157.16
1388.05	123.652
1391.63	9.446
1395.2	33.237
1398.78	78.667
1402.36	168.152
1405.93	328.199
1409.5	353.889
1413.07	360.312
1416.64	401.996
1420.21	266.936
1423.78	127.849
1427.34	75.752
1430.9	41.795
1434.46	57.204
1438.02	56.351
1441.58	234.185
1445.13	462.721
1448.69	440.735
1452.24	555.518
1455.79	487.663
1459.34	396.623
1462.89	318.675
1466.44	157.861
1469.98	22.242
1473.53	13.212
1477.07	70.13
1480.61	223.714
1484.14	288.074
1487.68	397.675
1491.22	427.965
1494.75	389.262
1498.28	353.096
1501.81	256.607
1505.34	233.4
1508.87	41.215
1512.4	2.138
1515.92	0
