Measurement: Raman, 514 nm, depolarized, Raman Data Processed
Mineral: Datolite
Rruff sample: R050033
Ideal chemistry: CaB(SiO_4_)(OH)
Locality: Westfield, Massachusetts, USA
Source: University of Arizona Mineral Museum
Description: Group of pale green single crystals
Measured chemistry: Ca_1.00_B_1.00_Si_1.00_O_4_(OH) ; trace amounts of Al and Na; B measured and corrected according to stoichiometry;  OH estimated by stoichiometry end charge balance
Pin_id: L00095
Orientation: Laser parallel to -b* (0 -1 0). Fiducial mark perpendicular to laser is parallel to c [0 0 1]
Raman shift (cm-1)	intensity
52.937	0
57.132	69.677
61.325	89.962
65.515	172.702
69.704	38.609
73.891	100.749
78.076	164.977
82.26	187.768
86.441	144.638
90.62	43.938
94.797	25.631
98.973	3.486
103.146	2.381
107.318	22.838
111.487	148.323
115.655	160.155
119.821	82.241
123.984	87.731
128.146	403.505
132.306	1667.07
136.464	1584.94
140.62	284.194
144.774	136.921
148.927	432.027
153.077	1398.07
157.226	1059.76
161.372	2038.19
165.517	5922.13
169.659	1960.92
173.8	966.506
177.939	1931.92
182.076	466.261
186.211	84.372
190.344	55.196
194.475	35.83
198.605	29.718
202.732	23.99
206.858	2.932
210.981	128.811
215.103	1063.18
219.223	2917.97
223.341	768.885
227.457	588.594
231.571	1046.96
235.684	377.894
239.794	60.39
243.902	6.938
248.009	8.221
252.114	1.634
256.217	11.594
260.318	27.62
264.417	75.812
268.514	233.601
272.609	699.184
276.703	673.581
280.794	357.384
284.884	685.536
288.972	2772.17
293.058	5808.67
297.142	2075.13
301.224	597.421
305.304	282.605
309.383	171.497
313.46	137.136
317.534	157.67
321.607	217.848
325.678	570.82
329.747	1676.7
333.815	2001.5
337.88	652.217
341.944	195.86
346.005	119.427
350.065	63.562
354.123	84.246
358.179	126.495
362.234	154.341
366.286	196.052
370.337	385.802
374.386	1205.5
378.432	3065.11
382.478	2084
386.521	1789.66
390.562	3986.11
394.602	3916.38
398.639	1267.47
402.675	453.942
406.709	233.432
410.742	132.195
414.772	79.212
418.8	59.357
422.827	74.186
426.852	56.048
430.875	44.011
434.896	40.782
438.916	64.182
442.933	119.07
446.949	234.119
450.963	634.135
454.975	2505.1
458.985	4308.05
462.994	1341.03
467	445.027
471.005	183.944
475.008	135.507
479.009	130.059
483.009	265.103
487.006	907.192
491.002	1745.51
494.996	1122.31
498.988	298.319
502.978	98.293
506.967	35.782
510.953	7.619
514.938	1.54
518.921	41.248
522.903	47.676
526.882	43.021
530.86	11.61
534.836	6.789
538.81	28.765
542.782	132.291
546.753	421.793
550.721	1382.28
554.688	2273.74
558.653	978.188
562.617	324.632
566.578	165.099
570.538	129.626
574.496	111.872
578.452	195.043
582.407	332.203
586.359	756.385
590.31	1911.56
594.259	2657.68
598.206	1468.05
602.152	622.852
606.096	309.971
610.038	131.469
613.978	94.51
617.916	115.25
621.853	123.579
625.788	138.765
629.721	128.837
633.652	151.465
637.582	207.042
641.51	252.315
645.436	366.448
649.36	435.217
653.282	610.974
657.203	932.719
661.122	1520.45
665.039	2953.12
668.955	4798.47
672.869	4224.72
676.781	3673.12
680.691	4479.77
684.599	8122.16
688.506	22874.9
692.411	63619.6
696.314	41445.1
700.216	12940.8
704.115	5233.52
708.013	2818.24
711.91	1764.97
715.804	1111.72
719.697	801.476
723.588	528.258
727.477	394.102
731.365	282.997
735.25	270.944
739.134	232.962
743.017	181.004
746.897	95.063
750.776	83.133
754.653	36.213
758.529	10.205
762.402	2.62
766.274	13.438
770.144	24.513
774.013	37.567
777.88	15.209
781.745	5.111
785.608	6.491
789.47	30.959
793.329	26.535
797.188	16.29
801.044	51.832
804.899	27.946
808.752	108.074
812.603	183.115
816.452	326.372
820.3	662.546
824.146	1415.74
827.991	2658.97
831.834	1980.27
835.675	758.691
839.514	305.204
843.352	204.793
847.187	217.429
851.022	223.102
854.854	355.803
858.685	655.454
862.514	1261.3
866.341	1608.09
870.167	1385.99
873.991	2003.96
877.813	3253.08
881.634	4296.16
885.453	3478.61
889.27	2153.83
893.086	1273.72
896.9	923.143
900.712	858.223
904.522	992.334
908.331	1460.48
912.138	2818.62
915.944	6394.99
919.747	7496.1
923.549	4047.27
927.35	2166.84
931.148	1646.38
934.945	1729.69
938.741	1441.46
942.534	1000.04
946.326	678.126
950.117	660.909
953.905	617.582
957.692	479.34
961.478	440.164
965.261	464.057
969.043	573.017
972.823	940.047
976.602	1707.15
980.379	3757.32
984.154	8673.56
987.928	7895.9
991.7	3297.34
995.47	1547.9
999.239	843.602
1003.01	497.404
1006.77	310.296
1010.53	123.282
1014.3	157.327
1018.06	25.389
1021.82	2.869
1025.57	0.182
1029.33	26.495
1033.08	25.216
1036.83	45.949
1040.59	61.712
1044.33	10.486
1048.08	42.751
1051.83	123.084
1055.57	179.489
1059.31	272.976
1063.05	451.538
1066.79	866.186
1070.53	2021.91
1074.27	6398.74
1078	13758.7
1081.73	5766.8
1085.46	1837.02
1089.19	823.36
1092.92	430.801
1096.64	314.386
1100.37	245.13
1104.09	199.004
1107.81	162.945
1111.53	151.951
1115.25	141.99
1118.97	165.18
1122.68	191.405
1126.39	214.699
1130.1	295.063
1133.81	411.935
1137.52	517.36
1141.23	616.101
1144.93	785.654
1148.64	1008.39
1152.34	1401.45
1156.04	2104.5
1159.74	3053.1
1163.43	4386.47
1167.13	6547.5
1170.82	9238.31
1174.51	10517.9
1178.2	8164.81
1181.89	5067.71
1185.58	3047.2
1189.26	1917.17
1192.95	1301.29
1196.63	942.487
1200.31	648.638
1203.99	537.691
1207.67	386.2
1211.34	317.841
1215.02	282.265
1218.69	243.511
1222.36	194.833
1226.03	124.13
1229.7	141.547
1233.36	89.067
1237.03	134.393
1240.69	85.726
1244.35	109.029
1248.01	44.479
1251.67	68.92
1255.33	60.385
1258.98	66.984
1262.64	26.602
1266.29	19.878
1269.94	16.405
1273.59	21.16
1277.23	1.384
1280.88	43.962
1284.53	19.934
1288.17	15.018
1291.81	13.021
1295.45	3.04
1299.09	4.784
1302.72	31.555
1306.36	19.4
1309.99	28.156
1313.62	26.622
1317.25	75.376
1320.88	72.773
1324.51	59.719
1328.13	57.619
1331.75	33.915
1335.38	60.182
1339	16.392
1342.62	67.587
1346.23	20.627
1349.85	43.586
1353.46	88.453
1357.08	76.43
1360.69	68.186
1364.3	32.795
1367.9	35.812
1371.51	23.269
1375.12	33.704
1378.72	45.875
1382.32	61.873
1385.92	55.638
1389.52	83.121
1393.12	65.561
1396.71	38.956
1400.31	46.268
1403.9	27.161
1407.49	15.157
1411.08	18.267
1414.67	5.755
1418.25	19.972
1421.84	56.28
1425.42	35.156
1429	56.959
1432.58	58.687
1436.16	21.562
1439.74	24.596
1443.32	37.439
1446.89	0.4
1450.46	29.49
1454.03	48.146
1457.6	65.997
1461.17	87.133
1464.74	92.959
1468.3	68.315
1471.87	94.967
1475.43	51.072
1478.99	36.845
1482.55	10.72
1486.1	43.228
1489.66	28.427
1493.21	64.213
1496.77	36.125
1500.32	16.714
1503.87	53.092
1507.41	55.29
1510.96	61.063
1514.51	67.972
1518.05	25.282
1521.59	3.223
1525.13	21.398
