Measurement: Raman, 514 nm, depolarized, Raman Data Processed
Mineral: Datolite
Rruff sample: R050136
Ideal chemistry: CaB(SiO_4_)(OH)
Locality: Charcas, San Luis Potosi, Mexico
Source: Dave Bunk Minerals
Description: Pale green tabular crystals
Measured chemistry: Ca_1.00_BSi_1.00_O_4_(OH) ; trace amounts of Fe; B and OH estimated by stoichiometry end charge balance
Pin_id: L00270
Orientation: Laser parallel to -c* (0 0 -1). Fiducial mark perpendicular to laser is parallel to -a [-1 0 0]
Raman shift (cm-1)	intensity
95.465	0
99.644	1.307
103.82	33.235
107.995	77.772
112.168	94.1
116.339	161.354
120.508	115.333
124.675	258.2
128.84	737.96
133.003	1772.69
137.164	1153.15
141.323	394.741
145.48	242.531
149.635	283.874
153.788	563.992
157.939	2688.04
162.088	9319.02
166.235	17977
170.38	5313.12
174.523	1906.95
178.664	1595.9
182.803	606.805
186.94	324.81
191.076	426.966
195.209	347.304
199.34	242.834
203.47	265.779
207.597	373.77
211.722	1036.86
215.846	2878.15
219.967	4492.61
224.087	1181.24
228.204	637.365
232.32	600.763
236.434	165.307
240.545	53.443
244.655	26.88
248.763	4.674
252.869	25.238
256.973	34.626
261.075	10.909
265.175	21.161
269.273	122.545
273.369	290.213
277.463	215.255
281.556	76.221
285.646	208.458
289.734	804.902
293.821	1224.51
297.905	343.237
301.988	48.062
306.069	41.06
310.147	69.069
314.224	20.107
318.299	48.649
322.372	195.405
326.443	287.177
330.512	654.967
334.579	958.771
338.645	335.533
342.708	122.086
346.769	137.383
350.829	238.493
354.887	702.873
358.942	1584.92
362.996	2279.5
367.048	1346.98
371.098	761.468
375.146	900.261
379.192	1394.95
383.236	1266.01
387.279	2343.26
391.319	4536.5
395.358	3656.73
399.394	1479.93
403.429	544.112
407.462	234.256
411.493	155.548
415.522	135.245
419.549	330.227
423.575	813.195
427.598	655.715
431.619	237.73
435.639	390.729
439.657	744.704
443.673	466.655
447.687	179.572
451.699	183.447
455.709	572.277
459.717	797.058
463.724	311.799
467.728	99.292
471.731	53.927
475.732	66.457
479.731	176.92
483.728	466.846
487.723	1419.81
491.716	2571.77
495.708	1153.76
499.697	346.782
503.685	129.746
507.671	84.647
511.655	7.445
515.637	46.973
519.617	64.305
523.596	92.492
527.572	52.004
531.547	0.662
535.52	59.474
539.491	63.963
543.46	1.779
547.427	125.22
551.393	298.124
555.356	459.962
559.318	258.731
563.278	209.432
567.236	72.065
571.192	102.628
575.147	93.149
579.099	181.663
583.05	394.165
586.999	1100.62
590.946	2387.22
594.891	2669.66
598.834	1645.96
602.776	1038.88
606.715	526.983
610.653	247.015
614.589	164.973
618.523	163.892
622.456	140.871
626.386	161.197
630.315	202.177
634.242	303.531
638.167	265.567
642.09	380.249
646.012	584.328
649.931	1058.6
653.849	1585.94
657.765	1817.39
661.679	2111.81
665.592	3412.05
669.502	4977.63
673.411	3989.28
677.318	3298.66
681.223	4209.32
685.126	8041.82
689.028	22554.9
692.927	48287
696.825	28431.6
700.721	9318.92
704.616	3786.47
708.508	2060.56
712.399	1289.58
716.288	787.537
720.175	502.424
724.06	381.239
727.944	311.624
731.825	278.38
735.705	176.083
739.584	149.732
743.46	42.34
747.334	127.892
751.207	87.379
755.078	9.802
758.947	98.143
762.815	312.424
766.68	387.646
770.544	83.812
774.406	1.921
778.267	33.055
782.125	38.181
785.982	36.511
789.837	51.133
793.69	62.023
797.542	28.251
801.391	22.666
805.239	104.214
809.085	56.94
812.93	40.985
816.772	135.026
820.613	308.053
824.452	705.079
828.29	1209.19
832.125	904.358
835.959	397.307
839.791	84.619
843.621	127.732
847.45	164.922
851.277	107.234
855.102	256.646
858.925	651.083
862.746	1163.52
866.566	1449.95
870.384	980.369
874.2	1245.79
878.015	1989.46
881.828	2403.91
885.639	2048.24
889.448	1266.61
893.256	810.078
897.061	679.837
900.865	677.018
904.668	871.53
908.468	1433.28
912.267	2733.59
916.064	6316.02
919.86	7466.47
923.653	4171.92
927.445	2165.46
931.236	1400.59
935.024	1139.2
938.811	884.501
942.596	666.406
946.379	544.038
950.161	504.784
953.94	490.316
957.719	442.161
961.495	340.177
965.27	381.572
969.043	562.109
972.814	811.256
976.583	1340.42
980.351	3105.58
984.117	6678.33
987.882	6237.63
991.644	2855.01
995.405	1338.55
999.165	835.218
1002.92	877.997
1006.68	663.864
1010.43	419.889
1014.18	257.028
1017.93	95.273
1021.68	17.567
1025.43	84.095
1029.18	1.817
1032.92	17.512
1036.66	48.809
1040.4	2.858
1044.14	67.498
1047.88	80.828
1051.62	160.193
1055.35	229.621
1059.08	409.103
1062.81	572.621
1066.54	869.171
1070.27	2170.75
1073.99	5837.35
1077.72	12028
1081.44	7897.64
1085.16	3379.79
1088.88	1260.23
1092.59	575.38
1096.31	337.914
1100.02	141.414
1103.73	160.428
1107.44	65.332
1111.15	51.427
1114.86	78.217
1118.57	19.981
1122.27	2.129
1125.97	95.46
1129.67	61.028
1133.37	125.326
1137.07	85.082
1140.76	270.704
1144.45	273.201
1148.15	439.941
1151.84	601.77
1155.53	1087.6
1159.21	1463.56
1162.9	2337.95
1166.58	3537.64
1170.26	5237.41
1173.94	6075.77
1177.62	4813.56
1181.3	2863.02
1184.97	1716.46
1188.65	1159.46
1192.32	776.789
1195.99	498.899
1199.66	509.422
1203.33	415.808
1206.99	461.571
1210.65	255.351
1214.32	215.436
1217.98	215.955
1221.64	143.399
1225.29	129.712
1228.95	49.919
1232.6	95.04
1236.26	144.042
1239.91	92.962
1243.56	133.782
1247.2	64.473
1250.85	64.238
1254.49	58.604
1258.13	5.818
1261.78	142.171
1265.41	169.736
1269.05	85.784
1272.69	10.668
1276.32	61.353
1279.95	20.66
1283.59	75.76
1287.21	1.134
1290.84	20.652
1294.47	15.856
1298.09	8.387
1301.72	13.602
1305.34	53.856
1308.96	67.626
1312.58	88.894
1316.19	155.959
1319.81	193.847
1323.42	139.583
1327.03	30.158
1330.64	57.581
1334.25	61.303
1337.86	117.982
1341.46	3.989
1345.07	24.161
1348.67	10.514
1352.27	101.057
1355.87	3.494
1359.46	124.824
1363.06	216.082
1366.65	159.421
1370.25	222.626
1373.84	261.654
1377.43	151.397
1381.02	126.142
1384.6	138.858
1388.18	223.474
1391.77	76.144
1395.35	221.767
1398.93	244.756
1402.51	98.708
1406.08	104.225
1409.66	65.722
1413.23	130.89
1416.8	138.525
1420.37	168.025
1423.94	232.351
1427.51	198.647
1431.08	175.564
1434.64	139.348
1438.2	232.224
1441.76	182.347
1445.32	212.599
1448.88	177.345
1452.43	29.422
1455.99	223.627
1459.54	203.38
1463.09	179.628
1466.64	155.1
1470.19	150.298
1473.74	214.021
1477.28	143.294
1480.83	134.005
1484.37	150.83
1487.91	121.036
1491.45	79.049
1494.98	80.796
1498.52	102.428
1502.05	82.204
1505.59	6.351
1509.12	19.439
1512.65	24.754
1516.17	7.361
