Measurement: Raman, 514 nm, depolarized, Raman Data Processed
Mineral: Datolite
Rruff sample: R050136
Ideal chemistry: CaB(SiO_4_)(OH)
Locality: Charcas, San Luis Potosi, Mexico
Source: Dave Bunk Minerals
Description: Pale green tabular crystals
Measured chemistry: Ca_1.00_BSi_1.00_O_4_(OH) ; trace amounts of Fe; B and OH estimated by stoichiometry end charge balance
Pin_id: L00284
Orientation: Laser parallel to -b* (0 -1 0). Fiducial mark perpendicular to laser is parallel to c [0 0 1]
Raman shift (cm-1)	intensity
90.65	0
94.838	20.615
99.023	50.915
103.206	41.019
107.387	141.406
111.566	131.655
115.744	189.553
119.919	119.878
124.092	181.024
128.263	456.616
132.432	1823.07
136.599	877.202
140.764	208.311
144.927	120.229
149.088	447.974
153.247	1310.76
157.404	603.061
161.559	1976.02
165.711	5233.6
169.862	978.562
174.011	849.371
178.158	1553.67
182.303	227.984
186.446	15.523
190.587	63.229
194.726	40.053
198.862	9.048
202.997	22.731
207.13	42.522
211.261	202.379
215.39	1186.18
219.517	1931.51
223.642	401.781
227.765	586.271
231.886	735.806
236.005	142.332
240.122	27.771
244.237	1.098
248.35	5.689
252.461	4.753
256.57	9.615
260.677	0.178
264.782	16.956
268.885	237.344
272.986	672.903
277.085	390.849
281.182	236.562
285.278	594.102
289.371	2853.45
293.462	3919.63
297.552	1012.63
301.639	357.421
305.724	163.994
309.808	86.323
313.889	77.192
317.969	119.896
322.046	202.496
326.122	562.997
330.196	1619.4
334.267	1402.46
338.337	339.147
342.405	72.454
346.471	5.749
350.535	9.556
354.597	58.96
358.657	73.374
362.715	169.033
366.771	207.94
370.825	341.456
374.877	1124.29
378.928	2541.63
382.976	1510.27
387.023	1979.8
391.067	4107.25
395.11	2565.64
399.15	901.977
403.189	343.738
407.226	154.001
411.261	83.648
415.294	81.171
419.325	39.862
423.354	67.876
427.381	44.924
431.406	20.701
435.43	52.386
439.451	110.976
443.471	114.481
447.488	237.902
451.504	726.241
455.518	2604.5
459.53	2663.73
463.54	781.946
467.548	299.145
471.554	159.268
475.558	72.247
479.561	102.194
483.561	292.39
487.559	887.573
491.556	1550.74
495.551	574.871
499.544	182.952
503.535	70.849
507.524	49.711
511.511	52.241
515.496	52.554
519.48	3.352
523.461	16.182
527.441	32.777
531.418	12.493
535.394	1.303
539.368	54.81
543.34	94.879
547.311	393.908
551.279	1278.9
555.245	1659.85
559.21	570.764
563.173	193.644
567.133	56.535
571.092	87.46
575.049	74.224
579.005	133.578
582.958	333.356
586.909	804.31
590.859	1974.89
594.807	2118.44
598.753	980.45
602.697	391.477
606.639	201.501
610.579	119.501
614.518	116.269
618.454	109.514
622.389	132.189
626.322	173.34
630.253	163.433
634.182	188.262
638.109	181.569
642.035	224.258
645.958	318.881
649.88	417.072
653.8	610.749
657.718	835.39
661.634	1328
665.549	2794.44
669.461	3778.36
673.372	2978.37
677.281	2640.64
681.188	3731.37
685.093	7893.23
688.997	24833.2
692.898	50364.3
696.798	21666.4
700.696	7331.79
704.592	3441.19
708.486	1921.57
712.378	1101.93
716.269	690.291
720.158	516.653
724.045	395.012
727.93	305.375
731.813	286.752
735.694	231.161
739.574	128.62
743.452	154.1
747.328	121.596
751.202	122.085
755.075	63.564
758.945	23.029
762.814	39.482
766.681	51.923
770.546	0.667
774.409	15.384
778.271	66.208
782.131	1.806
785.989	9.277
789.845	9.485
793.699	31.103
797.552	31.392
801.402	12.985
805.251	49.333
809.098	133.627
812.944	130.922
816.787	265.219
820.629	553.518
824.469	1382.87
828.307	2193.27
832.144	1203.74
835.978	450.27
839.811	223.856
843.642	141.5
847.472	189.179
851.299	280.884
855.125	390.603
858.949	620.339
862.771	1149.09
866.591	1115.94
870.41	1139.3
874.227	1879.2
878.042	2867.28
881.855	3136.85
885.667	2259.72
889.476	1403.51
893.284	953.937
897.09	710.545
900.895	716.499
904.698	814.471
908.499	1234.46
912.298	2632.48
916.095	5762.51
919.891	5493.57
923.685	2745.34
927.477	1456.23
931.267	1193.45
935.056	1263.65
938.843	1083.96
942.628	758.241
946.411	602.08
950.193	460.158
953.973	366.878
957.751	357.056
961.527	355.582
965.302	415.165
969.075	533.804
972.846	876.501
976.615	1589.27
980.383	3648.11
984.149	7229.03
987.913	4868
991.675	2109.07
995.436	1030.23
999.195	506.544
1002.95	269.925
1006.71	141.376
1010.46	92.92
1014.21	69.542
1017.96	89.237
1021.71	3.02
1025.46	20.227
1029.2	21.407
1032.95	24.553
1036.69	26.295
1040.43	23.126
1044.17	23.91
1047.9	3.682
1051.64	75.49
1055.37	112.356
1059.1	260.281
1062.83	435.262
1066.56	909.302
1070.29	2304.4
1074.01	7017.59
1077.73	8631.91
1081.46	2928.34
1085.17	1088.88
1088.89	562.545
1092.61	356.337
1096.32	208.257
1100.04	92.289
1103.75	95.064
1107.46	17.308
1111.16	23.571
1114.87	97.904
1118.57	132.305
1122.28	261.965
1125.98	186.292
1129.67	226.096
1133.37	267.835
1137.07	349.584
1140.76	555.038
1144.45	692.889
1148.14	991.215
1151.83	1232.56
1155.52	1734.69
1159.21	2448.67
1162.89	3777.12
1166.57	5694.02
1170.25	8012.36
1173.93	8027.65
1177.61	5606.52
1181.28	3229.65
1184.96	1848.15
1188.63	1154.3
1192.3	765.839
1195.97	590.317
1199.64	507.546
1203.3	349.62
1206.97	360.718
1210.63	238.847
1214.29	204.333
1217.95	176.166
1221.6	119.48
1225.26	158.731
1228.91	113.885
1232.57	218.003
1236.21	164.988
1239.86	89.38
1243.51	16.283
1247.16	25.475
1250.8	7.468
1254.44	54.554
1258.08	84.557
1261.72	127.875
1265.36	123.689
1268.99	123.238
1272.63	68.931
1276.26	71.306
1279.89	26.448
1283.52	42.829
1287.15	45.359
1290.77	3.199
1294.4	66.181
1298.02	111.128
1301.64	106.989
1305.26	58.763
1308.88	4.448
1312.49	19.84
1316.11	39.706
1319.72	45.153
1323.33	82.432
1326.94	121.637
1330.55	129.67
1334.15	105.599
1337.76	84.957
1341.36	82.764
1344.96	41.462
1348.56	39.044
1352.16	43.511
1355.75	49.873
1359.35	94.616
1362.94	87.748
1366.53	146.779
1370.12	111.597
1373.71	59.304
1377.3	93.881
1380.88	4.425
1384.46	78.463
1388.05	28.971
1391.63	73.427
1395.2	130.509
1398.78	87.139
1402.36	87.867
1405.93	163.867
1409.5	90.64
1413.07	30.936
1416.64	62.722
1420.21	14.8
1423.78	24.028
1427.34	41.252
1430.9	69.128
1434.46	74.562
1438.02	191.291
1441.58	211.94
1445.13	215.552
1448.69	198.464
1452.24	122.694
1455.79	184.968
1459.34	153.054
1462.89	139.917
1466.44	36.942
1469.98	112.741
1473.53	78.423
1477.07	113.066
1480.61	192.458
1484.14	172.531
1487.68	152.531
1491.22	103.217
1494.75	49.556
1498.28	6.008
1501.81	8.719
1505.34	6.924
1508.87	4.347
1512.4	36.066
1515.92	31.313
