Measurement: Raman, 514 nm, depolarized, Raman Data Processed
Mineral: Datolite
Rruff sample: R050033
Ideal chemistry: CaB(SiO_4_)(OH)
Locality: Westfield, Massachusetts, USA
Source: University of Arizona Mineral Museum
Description: Group of pale green single crystals
Measured chemistry: Ca_1.00_B_1.00_Si_1.00_O_4_(OH) ; trace amounts of Al and Na; B measured and corrected according to stoichiometry;  OH estimated by stoichiometry end charge balance
Pin_id: M00292
Orientation: Laser parallel to (1 0 1). Fiducial mark perpendicular to laser is parallel to b [0 1 0]
Raman shift (cm-1)	intensity
49.184	0
53.401	22.779
57.617	74.662
61.83	140.039
66.041	146.234
70.25	84.157
74.456	165.667
78.661	157.36
82.863	120.821
87.064	113.812
91.262	10.722
95.458	9.804
99.652	18.317
103.843	40.059
108.033	60.359
112.22	47.295
116.406	83.758
120.589	86.756
124.77	55.812
128.949	493.021
133.126	1615.49
137.301	715.075
141.473	106.902
145.644	80.3
149.812	268.96
153.979	722.463
158.143	2113.28
162.305	9035.5
166.465	15337.9
170.623	3873.45
174.778	2073.52
178.932	2365.47
183.083	767.821
187.233	494.348
191.38	1158.71
195.525	776.942
199.669	476.049
203.81	251.087
207.949	378.063
212.085	1085.92
216.22	3250.79
220.353	3693.1
224.483	824.512
228.612	512.831
232.738	367.989
236.863	104.962
240.985	13.212
245.105	26.874
249.223	17.696
253.339	26.344
257.453	38.229
261.565	28.665
265.675	98.504
269.783	382.799
273.888	567.989
277.992	240.914
282.093	127.994
286.193	373.155
290.29	1481.89
294.386	1605.22
298.479	522.796
302.57	147.247
306.659	48.19
310.746	15.716
314.831	32.908
318.914	155.133
322.995	384.798
327.074	461.345
331.151	832.833
335.226	624.261
339.299	242.644
343.37	181.971
347.438	321.378
351.505	503.433
355.57	1155.48
359.632	2604.01
363.693	3291.06
367.751	1870.07
371.808	1031.52
375.862	1084.82
379.914	1433.12
383.965	1382.1
388.013	2714.27
392.06	5100.65
396.104	3513.88
400.146	1372.22
404.186	586.386
408.225	329.925
412.261	214.623
416.295	273.53
420.327	732.404
424.357	1890.48
428.386	1029.16
432.412	441.518
436.436	658.2
440.458	967.862
444.478	481.815
448.496	218.246
452.513	300.862
456.527	698.453
460.539	645.005
464.549	236.371
468.557	66.496
472.563	44.663
476.567	38.151
480.57	103.987
484.57	314.726
488.568	1060.57
492.564	1488.51
496.558	577.533
500.551	178.611
504.541	51.707
508.529	6.205
512.515	17.148
516.5	8.15
520.482	70.808
524.462	221.759
528.441	52.702
532.417	35.368
536.391	37.596
540.364	31.045
544.334	13.659
548.303	122.669
552.269	349.995
556.234	492.322
560.197	535.655
564.157	475.029
568.116	181.494
572.073	131.073
576.027	136.777
579.98	212.622
583.931	480.642
587.88	1198.75
591.827	2666.88
595.772	2749.01
599.715	1819.16
603.656	1280.31
607.595	603.482
611.532	301.659
615.468	178.631
619.401	114.726
623.332	113.235
627.262	137.39
631.189	184.275
635.115	246.981
639.039	314.484
642.96	517.347
646.88	922.394
650.798	1884.83
654.714	3100.17
658.628	2703.44
662.54	2347.16
666.45	3114.81
670.358	3839.64
674.264	3521.22
678.169	3493.31
682.071	4799.41
685.972	9992.5
689.87	29119.2
693.767	48249.8
697.662	22261.8
701.555	8185.53
705.446	3823.54
709.335	2142.54
713.222	1310.54
717.107	875.255
720.99	590.52
724.872	410.502
728.751	302.498
732.629	230.516
736.504	237.544
740.378	208.573
744.25	200.593
748.12	133.597
751.988	103.585
755.854	123.557
759.719	219.514
763.581	511.456
767.442	437.383
771.3	183.295
775.157	55.192
779.012	27.075
782.865	27.084
786.716	28.411
790.565	20.934
794.413	21.653
798.258	39.567
802.102	48.724
805.943	26.112
809.783	7.32
813.621	2.65
817.457	90.931
821.292	244.21
825.124	626.5
828.954	884.813
832.783	521.133
836.61	217.453
840.435	105.774
844.258	86.113
848.079	137.56
851.898	211.115
855.715	390.743
859.531	834.394
863.345	1464.06
867.157	1274.73
870.967	981.428
874.775	1214.14
878.581	1797.69
882.386	1994.49
886.188	1450.58
889.989	976.718
893.788	727.003
897.585	658.822
901.38	792.662
905.174	1222.52
908.965	2056.41
912.755	4465.32
916.543	8455.25
920.329	7364.21
924.113	3973.2
927.895	2206.22
931.676	1646.27
935.454	1450.9
939.231	1174.13
943.006	944.087
946.78	847.054
950.551	775.635
954.32	743.637
958.088	670.296
961.854	601.698
965.618	561.992
969.38	693.607
973.141	1072.28
976.9	1865.04
980.656	4138.91
984.411	7162.88
988.165	4704.95
991.916	2156.11
995.665	1130.41
999.413	780.846
1003.16	704.409
1006.9	561.102
1010.65	351.897
1014.39	154.804
1018.12	84.8
1021.86	17.875
1025.6	13.969
1029.33	34.754
1033.06	14.527
1036.79	15.116
1040.52	7.986
1044.25	49.356
1047.97	54.772
1051.69	86.271
1055.41	195.851
1059.13	320.51
1062.85	592.248
1066.57	1187.06
1070.28	2835.96
1073.99	7963.93
1077.7	10153
1081.41	5801.1
1085.12	2358.34
1088.82	977.739
1092.52	490.305
1096.22	303.037
1099.92	165.945
1103.62	95.04
1107.32	69.312
1111.01	27.15
1114.7	3.26
1118.39	32.235
1122.08	58.301
1125.77	49.531
1129.45	71.884
1133.14	90.42
1136.82	145.216
1140.5	223.893
1144.18	324.437
1147.85	497.317
1151.53	685.353
1155.2	971.429
1158.87	1369.81
1162.54	2047.19
1166.21	3038.92
1169.88	4367.51
1173.54	4606.56
1177.2	3481.39
1180.86	2189.49
1184.52	1360.59
1188.18	904.893
1191.83	735.073
1195.49	699.902
1199.14	710.793
1202.79	706.365
1206.44	548.014
1210.08	436.603
1213.73	307.258
1217.37	230.882
1221.01	177.297
1224.65	125.133
1228.29	89.762
1231.93	75.392
1235.56	93.02
1239.19	65.647
1242.83	35.29
1246.46	21.003
1250.08	31.678
1253.71	29.472
1257.33	22.13
1260.96	24.936
1264.58	5.426
1268.19	15.682
1271.81	19.719
1275.43	19.549
1279.04	7.78
1282.65	2.988
1286.27	22.824
1289.87	12.785
1293.48	5.749
1297.09	6.912
1300.69	13.786
1304.29	1.663
1307.89	4.829
1311.49	25.315
1315.09	43.641
1318.68	41.93
1322.28	80.282
1325.87	59.548
1329.46	79.655
1333.05	48.737
1336.63	40.735
1340.22	51.69
1343.8	35.541
1347.38	38.317
1350.96	50.192
1354.54	57.032
1358.12	38.635
1361.69	77.12
1365.26	60.537
1368.83	74.851
1372.4	80.099
1375.97	76.264
1379.54	76.53
1383.1	65.821
1386.66	36.965
1390.23	61.05
1393.79	51.667
1397.34	60.355
1400.9	39.231
1404.45	47.53
1408.01	33.393
1411.56	5.646
1415.11	14.863
1418.66	13.252
1422.2	5.426
1425.75	4.488
1429.29	35.406
1432.83	17.195
1436.37	15.726
1439.91	15.215
1443.44	15.569
1446.98	22.86
1450.51	17.024
1454.04	30.991
1457.57	28.455
1461.1	3.405
1464.63	6.801
1468.15	44.833
1471.67	31.255
1475.19	27.721
1478.71	30.708
1482.23	49.9
1485.75	38.445
1489.26	0.65
1492.78	19.364
1496.29	2.456
1499.8	16
1503.31	23.456
1506.81	30.809
1510.32	19.382
1513.82	25.967
1517.32	45.938
1520.82	0
