Measurement: Raman, 514 nm, depolarized, Raman Data Processed
Mineral: Datolite
Rruff sample: R050033
Ideal chemistry: CaB(SiO_4_)(OH)
Locality: Westfield, Massachusetts, USA
Source: University of Arizona Mineral Museum
Description: Group of pale green single crystals
Measured chemistry: Ca_1.00_B_1.00_Si_1.00_O_4_(OH) ; trace amounts of Al and Na; B measured and corrected according to stoichiometry;  OH estimated by stoichiometry end charge balance
Pin_id: L00195
Orientation: Laser parallel to c* (0 0 1). Fiducial mark perpendicular to laser is parallel to a [1 0 0]
Raman shift (cm-1)	intensity
52.937	0
57.132	40.298
61.325	100.106
65.515	111.719
69.704	112.446
73.891	185.435
78.076	127.847
82.26	66.387
86.441	9.579
90.62	0.679
94.797	51.316
98.973	100.458
103.146	178.015
107.318	248.364
111.487	284.275
115.655	387.627
119.821	493.909
123.984	481.112
128.146	609.849
132.306	1495.19
136.464	1579.26
140.62	615.6
144.774	599.137
148.927	629.8
153.077	901.522
157.226	1281.01
161.372	5549.44
165.517	24327.6
169.659	7913.24
173.8	1815.08
177.939	2017.93
182.076	662.681
186.211	334.985
190.344	532.983
194.475	556.4
198.605	214.791
202.732	210.157
206.858	214.54
210.981	512.047
215.103	2036.79
219.223	7446.66
223.341	1780.02
227.457	730.998
231.571	985.396
235.684	385.385
239.794	99.465
243.902	36.775
248.009	38.32
252.114	6.122
256.217	21.026
260.318	49.619
264.417	52.008
268.514	65.422
272.609	258.055
276.703	200.662
280.794	61.204
284.884	135.679
288.972	757.089
293.058	1969.44
297.142	678.739
301.224	161.987
305.304	25.182
309.383	19.689
313.46	7.675
317.534	20.174
321.607	147.83
325.678	167.167
329.747	475.441
333.815	1222.69
337.88	531.92
341.944	213.132
346.005	253.302
350.065	316.497
354.123	472.565
358.179	1319.03
362.234	2631.05
366.286	1759.58
370.337	921.335
374.386	1234.66
378.432	2690.93
382.478	2121.1
386.521	2391.07
390.562	6198.65
394.602	6909.12
398.639	2422.51
402.675	932.653
406.709	468.83
410.742	278.921
414.772	219.411
418.8	253.179
422.827	541.545
426.852	627.713
430.875	296.187
434.896	461.126
438.916	1284.21
442.933	961.937
446.949	374.648
450.963	221.589
454.975	358.482
458.985	736.373
462.994	341.172
467	194.346
471.005	109.846
475.008	134.725
479.009	253.95
483.009	521.567
487.006	1438.68
491.002	4022.79
494.996	2226.92
498.988	680.017
502.978	266.075
506.967	97.093
510.953	49.071
514.938	50.987
518.921	5.82
522.903	13.519
526.882	42.894
530.86	2.511
534.836	41.314
538.81	36.38
542.782	27.337
546.753	109.975
550.721	420.573
554.688	767.132
558.653	295.654
562.617	130.14
566.578	36.599
570.538	37.036
574.496	36.45
578.452	56.856
582.407	146.288
586.359	386.806
590.31	1024.36
594.259	1384.88
598.206	898.365
602.152	682.82
606.096	401.245
610.038	157.638
613.978	33.997
617.916	53.322
621.853	119.348
625.788	151.5
629.721	141.048
633.652	131.276
637.582	234.146
641.51	280.768
645.436	445.637
649.36	557.223
653.282	844.902
657.203	1279.9
661.122	1845.85
665.039	3734.74
668.955	6604.32
672.869	5586.03
676.781	4203.06
680.691	4521.73
684.599	7218.86
688.506	18601.1
692.411	54193.8
696.314	37467.2
700.216	11564
704.115	4580.3
708.013	2384.72
711.91	1425.13
715.804	889.506
719.697	633.86
723.588	498.116
727.477	340.213
731.365	207.296
735.25	140.552
739.134	174.922
743.017	123.274
746.897	93.605
750.776	65.917
754.653	31.212
758.529	114.489
762.402	255.75
766.274	295.996
770.144	117.182
774.013	25.402
777.88	23.427
781.745	22.445
785.608	27.719
789.47	40.266
793.329	49.009
797.188	12.894
801.044	35.073
804.899	19.035
808.752	71.772
812.603	43.58
816.452	234.393
820.3	601.227
824.146	1304.09
827.991	2644.99
831.834	1992.92
835.675	735.934
839.514	349.003
843.352	226.171
847.187	96.451
851.022	135.864
854.854	96.379
858.685	211.93
862.514	582.515
866.341	810.136
870.167	728.796
873.991	975.033
877.813	1660.23
881.634	2377.52
885.453	2064.47
889.27	1308.8
893.086	767.207
896.9	583.177
900.712	524.193
904.522	659.258
908.331	1102.37
912.138	2307.54
915.944	5541.75
919.747	7309.02
923.549	3913.35
927.35	1944.74
931.148	1202.3
934.945	993.996
938.741	692.964
942.534	515.895
946.326	392.508
950.117	425.235
953.905	458.739
957.692	452.693
961.478	489.756
965.261	416.968
969.043	500.317
972.823	768.502
976.602	1534.86
980.379	3515.54
984.154	8588.27
987.928	8690.18
991.7	3711.26
995.47	1762.48
999.239	1100.85
1003.01	967.403
1006.77	815.091
1010.53	511.94
1014.3	213.929
1018.06	6.078
1021.82	42.351
1025.57	20.275
1029.33	48.831
1033.08	27.357
1036.83	2.116
1040.59	21.357
1044.33	32.247
1048.08	15.945
1051.83	129.737
1055.57	307.626
1059.31	413.605
1063.05	638.67
1066.79	1186.82
1070.53	2484.06
1074.27	7317.38
1078	17601.8
1081.73	10746.3
1085.46	4470.02
1089.19	1686.95
1092.92	1071.09
1096.64	394.456
1100.37	227.213
1104.09	182.866
1107.81	184.733
1111.53	110.54
1115.25	38.181
1118.97	36.621
1122.68	28.562
1126.39	3.175
1130.1	12.12
1133.81	130.037
1137.52	240.751
1141.23	316.244
1144.93	322.001
1148.64	394.201
1152.34	632.162
1156.04	1020.27
1159.74	1555.16
1163.43	2392.62
1167.13	3686.66
1170.82	5306.06
1174.51	6395.72
1178.2	4966.7
1181.89	3060.62
1185.58	1885.8
1189.26	1232.3
1192.95	817.308
1196.63	639.983
1200.31	458.401
1203.99	394.966
1207.67	260.342
1211.34	199.731
1215.02	197.097
1218.69	185.526
1222.36	159.925
1226.03	164.194
1229.7	130.451
1233.36	79.127
1237.03	83.579
1240.69	14.024
1244.35	37.129
1248.01	37.285
1251.67	105.396
1255.33	151.472
1258.98	45.706
1262.64	87.223
1266.29	39.116
1269.94	12.264
1273.59	18.928
1277.23	38.395
1280.88	106.52
1284.53	161.31
1288.17	79.352
1291.81	52.228
1295.45	31.835
1299.09	20.729
1302.72	81.255
1306.36	8.298
1309.99	10.479
1313.62	87.18
1317.25	91.792
1320.88	104.352
1324.51	168.669
1328.13	118.874
1331.75	113.016
1335.38	23.96
1339	44.783
1342.62	33.563
1346.23	79.129
1349.85	115.577
1353.46	114.975
1357.08	96.985
1360.69	85.001
1364.3	107.059
1367.9	121.989
1371.51	98.35
1375.12	43.087
1378.72	62.494
1382.32	113.698
1385.92	125.714
1389.52	140.997
1393.12	170.295
1396.71	184.556
1400.31	106.302
1403.9	43.266
1407.49	10.478
1411.08	55.963
1414.67	24.194
1418.25	70.444
1421.84	143.038
1425.42	144.15
1429	99.984
1432.58	148.251
1436.16	85.196
1439.74	36.621
1443.32	47.036
1446.89	70.961
1450.46	78.009
1454.03	155.387
1457.6	54.236
1461.17	181.927
1464.74	161.604
1468.3	232.984
1471.87	222.565
1475.43	169.394
1478.99	155.263
1482.55	79.147
1486.1	96.421
1489.66	62.084
1493.21	32.148
1496.77	9.672
1500.32	65.955
1503.87	69.272
1507.41	94.363
1510.96	189.803
1514.51	179.637
1518.05	118.711
1521.59	168.846
1525.13	0
