Measurement: Raman, 514 nm, depolarized, Raman Data Processed
Mineral: Datolite
Rruff sample: R050136
Ideal chemistry: CaB(SiO_4_)(OH)
Locality: Charcas, San Luis Potosi, Mexico
Source: Dave Bunk Minerals
Description: Pale green tabular crystals
Measured chemistry: Ca_1.00_BSi_1.00_O_4_(OH) ; trace amounts of Fe; B and OH estimated by stoichiometry end charge balance
Pin_id: L00362
Orientation: Laser parallel to a* (1 0 0). Fiducial mark perpendicular to laser is parallel to b [0 1 0]
Raman shift (cm-1)	intensity
90.65	0
94.838	66.29
99.023	19.852
103.206	23.63
107.387	86.754
111.566	83.677
115.744	103.841
119.919	18.067
124.092	8.88
128.263	155.175
132.432	970.151
136.599	507.894
140.764	112.096
144.927	1276.37
149.088	499.538
153.247	1751.94
157.404	2041.88
161.559	10284.6
165.711	30325.7
169.862	5454.56
174.011	2461.9
178.158	4168.9
182.303	1160.89
186.446	672.151
190.587	1742.63
194.726	1466.28
198.862	638.053
202.997	423.198
207.13	526.183
211.261	1618.93
215.39	5353.64
219.517	9382.95
223.642	1657.64
227.765	460.391
231.886	243.012
236.005	54.764
240.122	7.519
244.237	35.947
248.35	32.582
252.461	53.852
256.57	42.018
260.677	25.837
264.782	65.315
268.885	475.383
272.986	1043.37
277.085	535.133
281.182	243.726
285.278	632.12
289.371	2812.88
293.462	4297.88
297.552	1253.65
301.639	434.11
305.724	210.283
309.808	121.209
313.889	99.91
317.969	157.406
322.046	326.723
326.122	585.885
330.196	1933.82
334.267	2970.05
338.337	775.653
342.405	198.554
346.471	104.734
350.535	131.295
354.597	254.917
358.657	512.217
362.715	785.864
366.771	428.429
370.825	347.924
374.877	492.128
378.928	987.089
382.976	1132.68
387.023	2596.96
391.067	6464.18
395.11	4321.35
399.15	1504.29
403.189	655.511
407.226	328.333
411.261	205.004
415.294	182.412
419.325	376.015
423.354	1073.87
427.381	593.771
431.406	185.375
435.43	129.908
439.451	177.356
443.471	157.724
447.488	274.013
451.504	770.229
455.518	2999.51
459.53	3214.88
463.54	916.285
467.548	315.739
471.554	141.345
475.558	130.534
479.561	162.064
483.561	506.234
487.559	1678.53
491.556	2931.84
495.551	1004.13
499.544	278.412
503.535	95.657
507.524	17.305
511.511	75.322
515.496	60.525
519.48	79.19
523.461	216.857
527.441	72.487
531.418	44.931
535.394	39.536
539.368	36.657
543.34	116.795
547.311	441.895
551.279	1618.96
555.245	2204.98
559.21	1246.98
563.173	789.984
567.133	213.098
571.092	98.332
575.049	39.651
579.005	63.067
582.958	57.639
586.909	368.276
590.859	936.888
594.807	1090.48
598.753	665.156
602.697	484.046
606.639	216.708
610.579	74.139
614.518	39.626
618.454	7.304
622.389	13.77
626.322	121.089
630.253	161.148
634.182	198.359
638.109	270.889
642.035	433.286
645.958	812.567
649.88	1612.74
653.8	2823.53
657.718	2630.47
661.634	2447.33
665.549	3730.32
669.461	4757.61
673.372	3279.18
677.281	2560.87
681.188	3273.28
685.093	6369.6
688.997	19576.1
692.898	41240.9
696.798	17871.9
700.696	5855.94
704.592	2739.01
708.486	1572.02
712.378	946.984
716.269	616.893
720.158	447.752
724.045	330.561
727.93	271.337
731.813	241.812
735.694	166.476
739.574	86.966
743.452	114.594
747.328	97.161
751.202	92.667
755.075	36.107
758.945	26.478
762.814	87.78
766.681	170.021
770.546	55.966
774.409	23.397
778.271	53.878
782.131	44.444
785.989	39.172
789.845	44.763
793.699	28.527
797.552	19.047
801.402	35.764
805.251	19.345
809.098	48.34
812.944	119.247
816.787	150.106
820.629	293.927
824.469	748.751
828.307	1250.64
832.144	785.54
835.978	284.411
839.811	134.25
843.642	35.085
847.472	86.984
851.299	144.913
855.125	163.823
858.949	254.715
862.771	362.589
866.591	459.449
870.41	698.683
874.227	1317.6
878.042	2227.76
881.855	2659.2
885.667	2089.98
889.476	1416.71
893.284	1096.48
897.09	1104.32
900.895	1185.29
904.698	1459.01
908.499	2413.52
912.298	5168.9
916.095	11316.7
919.891	10805.5
923.685	5336.2
927.477	2669.18
931.267	1873.97
935.056	1704.39
938.843	1523.8
942.628	1246.17
946.411	1245.01
950.193	1118.35
953.973	1098.14
957.751	969.081
961.527	822.521
965.302	800.713
969.075	830.996
972.846	1094.49
976.615	1867.09
980.383	4074.79
984.149	8248.58
987.913	5584.46
991.675	2404.45
995.436	1054.55
999.195	530.767
1002.95	269.081
1006.71	165.553
1010.46	94.13
1014.21	50.819
1017.96	125.61
1021.71	5.521
1025.46	17.581
1029.2	75.58
1032.95	4.581
1036.69	23.464
1040.43	106.508
1044.17	34.58
1047.9	55.705
1051.64	108.897
1055.37	68.163
1059.1	215.502
1062.83	573.921
1066.56	1105.43
1070.29	2790.01
1074.01	8659.67
1077.73	11531.4
1081.46	3951.36
1085.17	1415.47
1088.89	736.755
1092.61	547.235
1096.32	350.984
1100.04	203.861
1103.75	120.803
1107.46	69.176
1111.16	62.243
1114.87	48.247
1118.57	212.227
1122.28	264.757
1125.98	166.954
1129.67	134.518
1133.37	151.578
1137.07	202.316
1140.76	340.375
1144.45	486.477
1148.14	605.723
1151.83	828.245
1155.52	1015.03
1159.21	1335.44
1162.89	1895.55
1166.57	2801.86
1170.25	3822.07
1173.93	3755.98
1177.61	2653.2
1181.28	1561.28
1184.96	963.174
1188.63	658.117
1192.3	563.959
1195.97	668.81
1199.64	952.766
1203.3	1059.48
1206.97	899.324
1210.63	619.731
1214.29	414.405
1217.95	263.896
1221.6	149.267
1225.26	168.539
1228.91	171.862
1232.57	220.357
1236.21	157.618
1239.86	181.733
1243.51	58.901
1247.16	46.186
1250.8	5.125
1254.44	42.007
1258.08	16.678
1261.72	135.441
1265.36	111.163
1268.99	134.332
1272.63	59.412
1276.26	62.248
1279.89	34.902
1283.52	54.35
1287.15	7.605
1290.77	72.283
1294.4	66.927
1298.02	91.855
1301.64	131.561
1305.26	103.2
1308.88	2.177
1312.49	4.094
1316.11	14.24
1319.72	55.27
1323.33	119.213
1326.94	200.043
1330.55	165.76
1334.15	225.328
1337.76	112.766
1341.36	153.084
1344.96	44.29
1348.56	34.733
1352.16	15.767
1355.75	3.605
1359.35	187.675
1362.94	201.209
1366.53	330.42
1370.12	230.545
1373.71	120.256
1377.3	158.653
1380.88	107.264
1384.46	93.493
1388.05	55.851
1391.63	132.158
1395.2	135.466
1398.78	192.058
1402.36	174.443
1405.93	295.83
1409.5	122.129
1413.07	75.988
1416.64	99.101
1420.21	28.03
1423.78	20.118
1427.34	19.655
1430.9	23.065
1434.46	140.076
1438.02	179.81
1441.58	255.477
1445.13	202.577
1448.69	273.737
1452.24	155.841
1455.79	177.293
1459.34	56.093
1462.89	48.498
1466.44	53.88
1469.98	188.601
1473.53	102.314
1477.07	116.08
1480.61	239.87
1484.14	284.467
1487.68	230.29
1491.22	168.752
1494.75	135.3
1498.28	4.604
1501.81	90.914
1505.34	25.386
1508.87	1.628
1512.4	3.832
1515.92	87.412
