Measurement: Raman, 514 nm, ccw, Raman Data Processed
Mineral: Descloizite
Rruff sample: R050037
Ideal chemistry: Pb^2+^Zn^2+^V^5+^O_4_(OH)
Locality: Berg Aukas mine, Namibia
Source: Eugene Schlepp
Description: Group of brown thin tabular single crystals
Measured chemistry: Pb_1.00_(Zn_0.98_Cu_0.02_)_Σ=1_((V_0.98_As_0.02_)_Σ=1_O_4_)(OH) ; OH estimated by difference and stoichiometry
Pin_id: L00538
Orientation: Laser parallel to -b* (0 -1 0). Fiducial mark perpendicular to laser is parallel to c [0 0 1]
Raman shift (cm-1)	intensity
64.81	0
69.754	122.815
74.695	168.292
79.634	73.3273
84.571	25.7722
89.505	75.2222
94.437	824.759
99.366	3386.83
104.293	10245.4
109.218	20355.2
114.14	13731.5
119.06	5711.21
123.977	5493.01
128.892	8200.49
133.805	13920.3
138.715	20528.3
143.623	23041
148.528	18706
153.431	12129.8
158.331	7463.11
163.229	5082.28
168.125	3719.38
173.018	3006.42
177.909	2478.36
182.797	2779.14
187.683	3860.68
192.566	4615
197.447	2909.04
202.326	1794.74
207.202	1341.46
212.075	806.566
216.947	677.057
221.815	564.802
226.682	458.803
231.546	320.19
236.407	427.205
241.266	344.519
246.123	383.695
250.977	347.421
255.829	359.512
260.678	547.885
265.525	717.42
270.369	963.009
275.211	1386.44
280.05	2052.6
284.887	3518.33
289.722	6171.55
294.554	11368.2
299.383	18534.4
304.21	20075.9
309.035	12723.7
313.857	6837.14
318.677	4907.52
323.494	4756.98
328.309	5341.78
333.121	7506.39
337.931	10908.4
342.738	12943.1
347.543	10121.3
352.346	6183.07
357.146	4526.64
361.943	4198.15
366.738	4102.38
371.531	5427.27
376.321	9026.52
381.108	16980.3
385.893	26813.5
390.676	22628.3
395.456	10371.7
400.234	4239.85
405.009	1909.94
409.782	950.502
414.552	482.979
419.32	307.203
424.085	238.13
428.847	364.227
433.608	650.85
438.365	625.985
443.121	337.853
447.873	61.402
452.624	17.1039
457.371	29.3364
462.117	25.4042
466.859	27.5562
471.6	19.0933
476.337	17.9529
481.073	35.6973
485.805	3.77948
490.536	132.378
495.263	132.562
499.989	35.9699
504.711	42.2758
509.432	3.67975
514.149	36.6616
518.865	11.7875
523.577	33.8461
528.287	16.0749
532.995	19.3767
537.7	14.4993
542.403	33.5734
547.103	2.50568
551.801	4.7688
556.496	23.8379
561.188	41.3763
565.878	69.1127
570.566	57.9326
575.251	67.8949
579.933	80.0015
584.613	92.2736
589.291	104.669
593.966	1.97449
598.638	12.071
603.308	51.8917
607.975	18.715
612.64	95.2764
617.302	16.1559
621.962	70.481
626.619	13.5851
631.274	9.53278
635.926	84.9982
640.576	89.695
645.223	43.72
649.867	71.8585
654.509	40.0411
659.149	15.8831
663.786	14.542
668.42	26.4302
673.052	28.4027
677.681	106.791
682.308	183.498
686.932	469.775
691.554	842.596
696.173	1151.46
700.79	1575.91
705.404	2023.88
710.015	1822.61
714.624	1279.65
719.231	708.354
723.835	466.397
728.436	432.834
733.035	442.97
737.631	505.738
742.225	738.01
746.816	1123.39
751.404	1615.97
755.99	2760.86
760.574	4592.45
765.155	8768.43
769.733	18115.8
774.309	34955.7
778.882	45271
783.452	29914.9
788.021	16301
792.586	10401.2
797.149	8419.95
801.709	7324.6
806.267	6605.23
810.823	6916.18
815.375	8795.01
819.925	11448.4
824.473	12638.4
829.018	15090.4
833.56	21705.3
838.1	43988
842.638	109651
847.172	221705
851.704	152068
856.234	47471.9
860.761	19316.1
865.285	11106.7
869.807	7250.3
874.327	5254.64
878.843	3937.03
883.357	3091.79
887.869	2612.32
892.378	2503.9
896.884	2415.41
901.388	2091.07
905.889	1719.11
910.388	1187.66
914.884	832.425
919.378	664.023
923.869	450.462
928.357	322.261
932.843	274.343
937.326	207.707
941.806	228.348
946.284	86.364
950.76	56.4751
955.233	76.7773
959.703	9.74011
964.171	2.10425
968.636	18.3492
973.098	4.5238
977.558	6.43219
982.015	54.7087
986.47	40.3342
990.922	5.91644
995.372	3.69855
999.818	7.3689
1004.26	6.28381
1008.7	38.8715
1013.14	33.9457
1017.58	65.7581
1022.01	20.8344
1026.44	10.3488
1030.87	54.2993
1035.3	86.1541
1039.72	66.9907
1044.14	134.753
1048.56	40.4283
1052.98	84.9844
1057.39	146.422
1061.8	109.738
1066.21	130.926
1070.62	109.978
1075.02	132.27
1079.42	212.246
1083.82	141.64
1088.21	215.048
1092.6	163.102
1096.99	151.212
1101.38	95.316
1105.77	153.285
1110.15	153.681
1114.53	125.001
1118.9	163.257
1123.28	94.3901
1127.65	95.6055
1132.02	121.874
1136.38	169.43
1140.75	93.2432
1145.11	197.624
1149.47	171.667
1153.82	153.374
1158.17	132.169
1162.53	89.9067
1166.87	122.399
1171.22	97.6661
1175.56	140.259
1179.9	181.794
1184.24	95.6125
1188.57	64.2492
1192.91	127.133
1197.23	57.9626
1201.56	130.742
1205.89	92.0411
1210.21	114.536
1214.53	61.2733
1218.84	91.8439
1223.16	59.4226
1227.47	55.9487
1231.78	50.1775
1236.08	21.0602
1240.39	68.8104
1244.69	45.9011
1248.99	119.177
1253.28	36.0001
1257.57	8.28271
1261.87	53.1386
1266.15	24.4656
1270.44	19.7983
1274.72	83.1027
1279	59.8217
1283.28	19.1986
1287.55	27.3084
1291.82	69.6013
1296.09	40.1829
1300.36	16.8851
1304.62	32.5671
1308.88	80.9689
1313.14	43.1838
1317.4	43.498
1321.65	77.4351
1325.9	0.660522
1330.15	21.9281
1334.4	53.022
1338.64	54.4656
1342.88	27.6699
1347.12	90.1944
1351.35	69.0781
1355.59	28.6858
1359.82	49.8961
1364.04	64.4583
1368.27	47.5529
1372.49	86.3233
1376.71	9.3158
1380.92	60.2393
1385.14	78.058
1389.35	56.6684
1393.56	53.2069
1397.76	82.6909
1401.97	15.7153
1406.17	34.7594
1410.37	34.6885
1414.56	26.0885
1418.75	11.1628
1422.94	0.559814
1427.13	66.5852
1431.32	27.1333
1435.5	50.1541
1439.68	49.7846
1443.86	43.4381
1448.03	67.3382
1452.2	23.1646
1456.37	64.0041
1460.54	49.8518
1464.7	58.2077
1468.86	63.2368
1473.02	81.1137
1477.17	39.3844
1481.33	10.9968
1485.48	93.2865
1489.63	28.1749
1493.77	8.84973
1497.91	38.9535
1502.05	27.7668
1506.19	18.9379
1510.33	34.3907
1514.46	86.3455
1518.59	77.5378
1522.71	98.0529
1526.84	13.2322
1530.96	34.5477
1535.08	46.9996
1539.19	6.06433
1543.31	86.54
1547.42	102.583
1551.53	105.534
1555.63	57.3408
1559.73	47.004
1563.83	52.6707
1567.93	41.5869
1572.03	83.4417
1576.12	49.1884
