Measurement: Raman, 514 nm, ccw, Raman Data Processed
Mineral: Descloizite
Rruff sample: R050037
Ideal chemistry: Pb^2+^Zn^2+^V^5+^O_4_(OH)
Locality: Berg Aukas mine, Namibia
Source: Eugene Schlepp
Description: Group of brown thin tabular single crystals
Measured chemistry: Pb_1.00_(Zn_0.98_Cu_0.02_)_Σ=1_((V_0.98_As_0.02_)_Σ=1_O_4_)(OH) ; OH estimated by difference and stoichiometry
Pin_id: m00197
Orientation: Laser parallel to c* (0 0 1). Fiducial mark perpendicular to laser is parallel to -a [-1 0 0]
Raman shift (cm-1)	intensity
64.81	0
69.754	118.198
74.695	12.3769
79.634	31.956
84.571	24.5343
89.505	26.7789
94.437	171.935
99.366	408.899
104.293	736.958
109.218	1042.28
114.14	1449.23
119.06	1787.52
123.977	2205.97
128.892	1817.48
133.805	1924.95
138.715	2058.29
143.623	1804.63
148.528	1371.43
153.431	1084.86
158.331	805.254
163.229	726.695
168.125	657.233
173.018	643.884
177.909	517.64
182.797	415.495
187.683	347.437
192.566	359.46
197.447	296.55
202.326	270.69
207.202	342.903
212.075	278.236
216.947	138.843
221.815	178.073
226.682	156.683
231.546	76.1883
236.407	139.758
241.266	134.884
246.123	101.132
250.977	106.438
255.829	117.707
260.678	258.911
265.525	310.962
270.369	405.846
275.211	702.467
280.05	976.819
284.887	1793.82
289.722	3182.53
294.554	5460.95
299.383	8045
304.21	8509.73
309.035	5972.19
313.857	3710.34
318.677	2620.12
323.494	2604.52
328.309	2815.56
333.121	3535.16
337.931	4391.41
342.738	4382.46
347.543	3413.12
352.346	2326.36
357.146	1854.94
361.943	1506.52
366.738	911.674
371.531	707.786
376.321	643.808
381.108	811.083
385.893	1112.26
390.676	712.032
395.456	398.898
400.234	247.644
405.009	133.378
409.782	152.362
414.552	144.672
419.32	396.514
424.085	627.994
428.847	1252.96
433.608	2019.81
438.365	1981.18
443.121	1191.15
447.873	573.509
452.624	367.036
457.371	260.646
462.117	205.38
466.859	192.075
471.6	183.463
476.337	68.4075
481.073	90.4196
485.805	101.928
490.536	7.25903
495.263	39.9363
499.989	0.716125
504.711	16.6344
509.432	17.2875
514.149	1.8905
518.865	30.7422
523.577	19.8139
528.287	26.0701
532.995	7.41589
537.7	46.7756
542.403	29.443
547.103	2.85675
551.801	39.3312
556.496	24.023
561.188	32.2667
565.878	75.0536
570.566	10.558
575.251	35.2095
579.933	39.4711
584.613	11.2914
589.291	80.4722
593.966	9.97766
598.638	23.0563
603.308	24.2916
607.975	17.9526
612.64	7.17889
617.302	39.2704
621.962	21.4443
626.619	29.1625
631.274	23.267
635.926	33.898
640.576	27.5841
645.223	44.3601
649.867	5.67542
654.509	2.87927
659.149	27.2432
663.786	59.5757
668.42	60.7135
673.052	206.218
677.681	284.843
682.308	476.017
686.932	793.44
691.554	1353.87
696.173	2155.83
700.79	2978.77
705.404	3843.22
710.015	4089.25
714.624	3381.95
719.231	2478.5
723.835	1808.95
728.436	1520.03
733.035	1294.06
737.631	1358.94
742.225	1517.24
746.816	1919.06
751.404	2516.2
755.99	3541.54
760.574	5655.97
765.155	9950.2
769.733	19343.1
774.309	34543
778.882	42587.2
783.452	30689.2
788.021	17461.9
792.586	11128.5
797.149	8122.74
801.709	7007.52
806.267	7265.88
810.823	10223.8
815.375	17904.4
819.925	23177.5
824.473	14977.2
829.018	10702.5
833.56	12003.4
838.1	19433.7
842.638	38715.3
847.172	59445.1
851.704	37836.8
856.234	14111.7
860.761	6756.02
865.285	4214.92
869.807	3009.38
874.327	2343.51
878.843	1906.22
883.357	1849.64
887.869	1953.16
892.378	2042.43
896.884	1965.49
901.388	1583.13
905.889	1082.38
910.388	681.235
914.884	637.562
919.378	619.431
923.869	528.829
928.357	419.766
932.843	375.066
937.326	299.706
941.806	302.674
946.284	271.933
950.76	153.234
955.233	129.792
959.703	76.2444
964.171	80.6425
968.636	39.3661
973.098	1.99573
977.558	58.9158
982.015	51.0308
986.47	62.4961
990.922	13.3915
995.372	0.638672
999.818	3.75915
1004.26	25.7266
1008.7	5.31873
1013.14	13.7202
1017.58	46.7922
1022.01	47.6428
1026.44	58.4829
1030.87	50.3726
1035.3	63.3073
1039.72	95.2571
1044.14	155.217
1048.56	69.2366
1052.98	160.282
1057.39	143.332
1061.8	144.39
1066.21	111.435
1070.62	113.428
1075.02	87.3607
1079.42	154.222
1083.82	99.957
1088.21	88.5945
1092.6	129.13
1096.99	67.5582
1101.38	29.8787
1105.77	98.2074
1110.15	90.9695
1114.53	89.9092
1118.9	109.242
1123.28	22.1835
1127.65	3.09155
1132.02	66.1246
1136.38	23.2987
1140.75	36.7932
1145.11	132.618
1149.47	97.9182
1153.82	60.3263
1158.17	95.4434
1162.53	78.8567
1166.87	28.7432
1171.22	75.0304
1175.56	89.8477
1179.9	163.553
1184.24	84.2443
1188.57	124.625
1192.91	65.9052
1197.23	99.3135
1201.56	144.874
1205.89	149.561
1210.21	113.756
1214.53	158.195
1218.84	145.178
1223.16	161.786
1227.47	129.107
1231.78	99.7126
1236.08	124.922
1240.39	171.703
1244.69	124.408
1248.99	142.495
1253.28	87.9946
1257.57	61.0876
1261.87	125.86
1266.15	31.6174
1270.44	26.5798
1274.72	56.6098
1279	119.615
1283.28	36.0684
1287.55	43.5985
1291.82	11.6691
1296.09	89.2905
1300.36	22.877
1304.62	1.60278
1308.88	45.7766
1313.14	21.876
1317.4	11.1662
1321.65	89.3229
1325.9	34.3819
1330.15	27.542
1334.4	36.1982
1338.64	84.8635
1342.88	71.0591
1347.12	89.9789
1351.35	63.2311
1355.59	73.9406
1359.82	171.559
1364.04	132.783
1368.27	133.159
1372.49	125.963
1376.71	101.215
1380.92	135.183
1385.14	130.742
1389.35	141.934
1393.56	142.203
1397.76	164.07
1401.97	58.4725
1406.17	111.862
1410.37	103.986
1414.56	88.4222
1418.75	9.25684
1422.94	132.57
1427.13	35.8049
1431.32	39.8203
1435.5	42.3274
1439.68	9.35348
1443.86	0.931885
1448.03	40.3735
1452.2	21.8207
1456.37	10.6129
1460.54	31.7711
1464.7	7.7356
1468.86	34.6011
1473.02	38.2313
1477.17	48.9525
1481.33	28.2016
1485.48	89.6202
1489.63	26.6862
1493.77	32.8256
1497.91	141.235
1502.05	74.9009
1506.19	79.3314
1510.33	121.392
1514.46	166.022
1518.59	171.521
1522.71	163.08
1526.84	156.615
1530.96	91.8174
1535.08	134.576
1539.19	121.989
1543.31	78.0356
1547.42	175.892
1551.53	155.681
1555.63	54.5936
1559.73	80.6992
1563.83	89.3838
1567.93	43.9033
1572.03	68.5435
1576.12	0.556152
