Measurement: Raman, 514 nm, depolarized, Raman Data Processed
Mineral: Descloizite
Rruff sample: R050037
Ideal chemistry: Pb^2+^Zn^2+^V^5+^O_4_(OH)
Locality: Berg Aukas mine, Namibia
Source: Eugene Schlepp
Description: Group of brown thin tabular single crystals
Measured chemistry: Pb_1.00_(Zn_0.98_Cu_0.02_)_Σ=1_((V_0.98_As_0.02_)_Σ=1_O_4_)(OH) ; OH estimated by difference and stoichiometry
Pin_id: L00538
Orientation: Laser parallel to -b* (0 -1 0). Fiducial mark perpendicular to laser is parallel to c [0 0 1]
Raman shift (cm-1)	intensity
64.81	0
69.754	141.292
74.695	194.641
79.634	51.913
84.571	39.5479
89.505	129.843
94.437	1385.73
99.366	6692.59
104.293	21936
109.218	46385.4
114.14	33994.5
119.06	12072.4
123.977	7228.39
128.892	7297.15
133.805	10751.3
138.715	15105.5
143.623	16886.9
148.528	13563
153.431	8939.14
158.331	5792.39
163.229	3919.03
168.125	2952.16
173.018	2488.78
177.909	2285.86
182.797	2846.32
187.683	3859.07
192.566	4158.04
197.447	2709.13
202.326	1726.55
207.202	1176.85
212.075	812.441
216.947	487.511
221.815	454.493
226.682	286.695
231.546	197.055
236.407	209.901
241.266	206.792
246.123	270.047
250.977	269.448
255.829	327.704
260.678	528.643
265.525	790.062
270.369	1179.82
275.211	1770.77
280.05	2790.76
284.887	4401.65
289.722	7623.33
294.554	13618.8
299.383	21777.2
304.21	23924.2
309.035	16774.9
313.857	11890.3
318.677	11880.1
323.494	12515.4
328.309	12012.7
333.121	14447.8
337.931	22035.4
342.738	28429.8
347.543	22127.2
352.346	12641.8
357.146	7598.11
361.943	5521.28
366.738	4691.62
371.531	4860.58
376.321	6215.6
381.108	9759.08
385.893	14452.4
390.676	11509
395.456	5156.31
400.234	2184.99
405.009	1170.43
409.782	644.046
414.552	429.381
419.32	780.974
424.085	1554.31
428.847	2977.09
433.608	5143.29
438.365	4915.33
443.121	2438.39
447.873	1006.06
452.624	481.785
457.371	250.24
462.117	106.845
466.859	4.76794
471.6	43.2283
476.337	83.9884
481.073	73.879
485.805	19.4074
490.536	130.572
495.263	123.095
499.989	85.8633
504.711	62.8689
509.432	20.4311
514.149	36.2418
518.865	8.26453
523.577	35.3948
528.287	25.1244
532.995	15.6358
537.7	0.011902
542.403	2.47217
547.103	43.8476
551.801	37.1342
556.496	40.3381
561.188	12.5121
565.878	92.6765
570.566	84.9467
575.251	39.2689
579.933	65.5263
584.613	54.7557
589.291	85.9271
593.966	27.068
598.638	106.157
603.308	59.4059
607.975	0.558716
612.64	54.1365
617.302	6.00842
621.962	4.09204
626.619	16.7581
631.274	39.517
635.926	22.5955
640.576	28.0355
645.223	72.4017
649.867	13.4169
654.509	23.0542
659.149	3.47376
663.786	21.7814
668.42	21.2098
673.052	57.0659
677.681	63.8876
682.308	192.527
686.932	406.295
691.554	611.493
696.173	905.638
700.79	1302.26
705.404	1593.68
710.015	1617.99
714.624	1159.95
719.231	794.696
723.835	602.472
728.436	693.897
733.035	692.745
737.631	899.997
742.225	1143.16
746.816	1517.42
751.404	2149.16
755.99	3377.48
760.574	5676.74
765.155	10263.3
769.733	20536.6
774.309	39562.4
778.882	51017.8
783.452	33967.8
788.021	18649.8
792.586	12539.9
797.149	10690
801.709	9154.73
806.267	7688.76
810.823	7766.62
815.375	9890.51
819.925	13005.9
824.473	12934
829.018	14613.6
833.56	20917.8
838.1	41733.7
842.638	105984
847.172	216072
851.704	147242
856.234	46020.8
860.761	19150.2
865.285	11100.5
869.807	7492.37
874.327	5455.14
878.843	4662.06
883.357	4025.03
887.869	3429.44
892.378	3464.5
896.884	3162.75
901.388	2669.49
905.889	2093.72
910.388	1520.44
914.884	1089.53
919.378	778.935
923.869	645.648
928.357	461.656
932.843	431.934
937.326	335.462
941.806	230.65
946.284	187.248
950.76	17.5411
955.233	46.8282
959.703	8.69263
964.171	0.161255
968.636	5.56836
973.098	24.0193
977.558	63.6732
982.015	58.5636
986.47	66.0098
990.922	31.8514
995.372	2.05469
999.818	2.3971
1004.26	1.02991
1008.7	32.0328
1013.14	20.1197
1017.58	90.4515
1022.01	28.7583
1026.44	52.9425
1030.87	72.0148
1035.3	130.025
1039.72	115.011
1044.14	135.923
1048.56	122.789
1052.98	138.579
1057.39	194.255
1061.8	167.832
1066.21	184.286
1070.62	167.597
1075.02	178.788
1079.42	184.825
1083.82	147.364
1088.21	161.606
1092.6	181.083
1096.99	129.876
1101.38	111.277
1105.77	186.677
1110.15	145.012
1114.53	113.098
1118.9	123.791
1123.28	75.2416
1127.65	47.6257
1132.02	142.811
1136.38	148.236
1140.75	72.3438
1145.11	212.843
1149.47	166.938
1153.82	135.987
1158.17	122.568
1162.53	101.989
1166.87	68.8046
1171.22	55.8482
1175.56	85.6774
1179.9	152.22
1184.24	95.8815
1188.57	155.072
1192.91	93.5184
1197.23	55.2619
1201.56	133.771
1205.89	63.0171
1210.21	109.292
1214.53	125.985
1218.84	124.53
1223.16	111.245
1227.47	111.635
1231.78	65.8052
1236.08	33.8639
1240.39	60.472
1244.69	47.2991
1248.99	130.865
1253.28	88.5764
1257.57	78.0547
1261.87	47.3497
1266.15	48.721
1270.44	56.1294
1274.72	97.0268
1279	64.563
1283.28	31.0096
1287.55	17.4467
1291.82	61.7693
1296.09	34.4329
1300.36	33.7279
1304.62	73.2963
1308.88	64.9928
1313.14	25.5136
1317.4	16.7437
1321.65	72.3652
1325.9	22.1743
1330.15	13.8461
1334.4	74.7165
1338.64	28.1367
1342.88	27.8517
1347.12	42.0275
1351.35	43.7879
1355.59	27.9874
1359.82	119.715
1364.04	37.5816
1368.27	63.4923
1372.49	97.0137
1376.71	18.3558
1380.92	81.358
1385.14	93.3124
1389.35	100.05
1393.56	89.3428
1397.76	118.405
1401.97	4.71783
1406.17	51.8421
1410.37	83.2155
1414.56	95.2488
1418.75	2.5899
1422.94	66.9726
1427.13	27.1466
1431.32	15.7732
1435.5	30.2819
1439.68	5.30054
1443.86	55.1871
1448.03	34.5852
1452.2	18.6923
1456.37	37.0966
1460.54	20.672
1464.7	17.5689
1468.86	29.8107
1473.02	9.57532
1477.17	68.3635
1481.33	31.4215
1485.48	53.1658
1489.63	55.3745
1493.77	30.4716
1497.91	48.0944
1502.05	28.5417
1506.19	20.0881
1510.33	32.6968
1514.46	71.155
1518.59	75.2498
1522.71	71.2714
1526.84	56.7082
1530.96	24.8094
1535.08	73.4408
1539.19	86.0037
1543.31	136.829
1547.42	105.97
1551.53	169.934
1555.63	30.8482
1559.73	102.375
1563.83	6.80457
1567.93	27.107
1572.03	45.0171
1576.12	28.4311
