Measurement: Raman, 514 nm, depolarized, Raman Data Processed
Mineral: Descloizite
Rruff sample: R050037
Ideal chemistry: Pb^2+^Zn^2+^V^5+^O_4_(OH)
Locality: Berg Aukas mine, Namibia
Source: Eugene Schlepp
Description: Group of brown thin tabular single crystals
Measured chemistry: Pb_1.00_(Zn_0.98_Cu_0.02_)_Σ=1_((V_0.98_As_0.02_)_Σ=1_O_4_)(OH) ; OH estimated by difference and stoichiometry
Pin_id: m00197
Orientation: Laser parallel to c* (0 0 1). Fiducial mark perpendicular to laser is parallel to -a [-1 0 0]
Raman shift (cm-1)	intensity
64.81	0
69.754	128.94
74.695	60.8581
79.634	10.4575
84.571	8.0096
89.505	26.7758
94.437	417
99.366	1638.82
104.293	4624.98
109.218	8351.04
114.14	6498.83
119.06	4083.84
123.977	4294.78
128.892	4671.41
133.805	6746.56
138.715	9076.05
143.623	9813.3
148.528	8019.4
153.431	5418.67
158.331	3411.65
163.229	2451.52
168.125	1934.33
173.018	1586.11
177.909	1264.85
182.797	1295.51
187.683	1831.06
192.566	1971.45
197.447	1348.65
202.326	847.612
207.202	761.457
212.075	454.767
216.947	334.824
221.815	367.053
226.682	215.174
231.546	160.342
236.407	258.549
241.266	216.974
246.123	237.347
250.977	186.47
255.829	236.191
260.678	374.504
265.525	429.295
270.369	623.539
275.211	895.066
280.05	1295.79
284.887	2173.62
289.722	3800.55
294.554	6935.59
299.383	10885.7
304.21	11501.8
309.035	7975.96
313.857	5079.13
318.677	4115.23
323.494	4577.22
328.309	5887.16
333.121	8247.07
337.931	10930
342.738	11274.4
347.543	8778.92
352.346	6538.84
357.146	6259.94
361.943	6382.12
366.738	4340.48
371.531	3378.55
376.321	4339.37
381.108	7369.18
385.893	11128.7
390.676	9317.36
395.456	4417.35
400.234	1918.74
405.009	918.259
409.782	439.826
414.552	263.813
419.32	285.762
424.085	444.655
428.847	608.373
433.608	1100.41
438.365	1027.4
443.121	637.235
447.873	201.248
452.624	138.759
457.371	26.9967
462.117	47.3104
466.859	79.0234
471.6	9.59955
476.337	4.08697
481.073	31.3914
485.805	18.9742
490.536	68.3444
495.263	8.55505
499.989	91.5476
504.711	38.997
509.432	4.03906
514.149	46.4627
518.865	19.301
523.577	28.6609
528.287	41.496
532.995	8.78332
537.7	21.6168
542.403	23.7834
547.103	3.81122
551.801	1.68152
556.496	11.5756
561.188	26.1108
565.878	54.9806
570.566	13.231
575.251	16.7199
579.933	8.49268
584.613	25.6012
589.291	2.0611
593.966	28.4577
598.638	23.7302
603.308	26.3472
607.975	7.27545
612.64	31.2028
617.302	14.7985
621.962	23.4788
626.619	69.1245
631.274	30.0014
635.926	17.8359
640.576	15.5101
645.223	11.739
649.867	21.5767
654.509	62.1182
659.149	54.8109
663.786	19.906
668.42	67.2133
673.052	85.5536
677.681	278.894
682.308	468.745
686.932	896.075
691.554	1494.43
696.173	2120.57
700.79	2638.08
705.404	2834.22
710.015	2721.93
714.624	2047.96
719.231	1417.68
723.835	1015.95
728.436	848.135
733.035	712.116
737.631	792.999
742.225	925.774
746.816	1283.95
751.404	1763.89
755.99	2676.87
760.574	4400.87
765.155	7869.22
769.733	15805.4
774.309	29293.5
778.882	36937.4
783.452	26043.2
788.021	14732.4
792.586	9305.44
797.149	6997.71
801.709	5836.58
806.267	5892.11
810.823	7434.3
815.375	11542
819.925	15204.4
824.473	12387.5
829.018	11745.2
833.56	15644.1
838.1	28875.5
842.638	66376.3
847.172	121047
851.704	81091.5
856.234	27189.4
860.761	12003.9
865.285	6880.2
869.807	4703.54
874.327	3468.76
878.843	2724.94
883.357	2201.2
887.869	1843.97
892.378	1949.31
896.884	1891.48
901.388	1609.47
905.889	1222.61
910.388	879.95
914.884	712.467
919.378	514.273
923.869	427.942
928.357	357.946
932.843	351.447
937.326	260.027
941.806	237.87
946.284	136.952
950.76	72.4564
955.233	98.1163
959.703	5.8573
964.171	10.2184
968.636	31.167
973.098	36.0609
977.558	45.9857
982.015	34.9367
986.47	43.4269
990.922	26.7233
995.372	73.1851
999.818	17.6233
1004.26	56.3438
1008.7	28.2443
1013.14	29.3842
1017.58	71.6936
1022.01	26.5055
1026.44	34.0566
1030.87	22.516
1035.3	70.0468
1039.72	47.4843
1044.14	141.867
1048.56	62.2136
1052.98	104.513
1057.39	139.728
1061.8	74.8563
1066.21	149.873
1070.62	89.7706
1075.02	87.5662
1079.42	72.6882
1083.82	147.764
1088.21	119.154
1092.6	104.385
1096.99	110.26
1101.38	87.7659
1105.77	99.7921
1110.15	146.355
1114.53	83.4468
1118.9	155.303
1123.28	111.418
1127.65	70.7796
1132.02	84.0977
1136.38	98.8032
1140.75	65.6646
1145.11	143.799
1149.47	125.601
1153.82	81.6731
1158.17	74.9442
1162.53	94.2363
1166.87	55.1044
1171.22	95.2554
1175.56	92.6617
1179.9	123.511
1184.24	63.3683
1188.57	101.611
1192.91	60.1542
1197.23	55.9956
1201.56	120.599
1205.89	125.183
1210.21	101.798
1214.53	149.592
1218.84	103.376
1223.16	86.6746
1227.47	123.194
1231.78	52.2496
1236.08	52.3893
1240.39	66.4925
1244.69	90.4235
1248.99	112.007
1253.28	38.8144
1257.57	54.6328
1261.87	46.0159
1266.15	63.7072
1270.44	80.4974
1274.72	49.4952
1279	41.5336
1283.28	29.3332
1287.55	15.3226
1291.82	54.0667
1296.09	48.2505
1300.36	19.0587
1304.62	71.1478
1308.88	46.7891
1313.14	26.7958
1317.4	20.0009
1321.65	77.1991
1325.9	9.00568
1330.15	47.086
1334.4	18.776
1338.64	59.0935
1342.88	35.1898
1347.12	69.4612
1351.35	33.0039
1355.59	4.27618
1359.82	143.497
1364.04	96.907
1368.27	79.8103
1372.49	72.2612
1376.71	59.2435
1380.92	90.2657
1385.14	88.9522
1389.35	117.397
1393.56	76.2814
1397.76	149.814
1401.97	67.5668
1406.17	70.0939
1410.37	69.6946
1414.56	82.7247
1418.75	38.3334
1422.94	55.58
1427.13	83.8871
1431.32	18.7915
1435.5	73.1683
1439.68	42.1703
1443.86	29.5359
1448.03	35.603
1452.2	76.131
1456.37	29.9967
1460.54	10.9084
1464.7	10.4203
1468.86	42.7333
1473.02	32.9067
1477.17	39.0073
1481.33	42.7998
1485.48	86.4824
1489.63	26.3196
1493.77	35.8768
1497.91	1.43524
1502.05	28.9532
1506.19	73.3035
1510.33	56.9995
1514.46	104.84
1518.59	129.146
1522.71	76.5297
1526.84	67.3149
1530.96	69.0952
1535.08	53.375
1539.19	90.8726
1543.31	60.0337
1547.42	80.9
1551.53	109.344
1555.63	49.2784
1559.73	105.684
1563.83	32.53
1567.93	53.1735
1572.03	32.1799
1576.12	61.0056
