Measurement: Raman, 514 nm, ccw, Raman Data Processed
Mineral: Descloizite
Rruff sample: R050037
Ideal chemistry: Pb^2+^Zn^2+^V^5+^O_4_(OH)
Locality: Berg Aukas mine, Namibia
Source: Eugene Schlepp
Description: Group of brown thin tabular single crystals
Measured chemistry: Pb_1.00_(Zn_0.98_Cu_0.02_)_Σ=1_((V_0.98_As_0.02_)_Σ=1_O_4_)(OH) ; OH estimated by difference and stoichiometry
Pin_id: L00538
Orientation: Laser parallel to -b* (0 -1 0). Fiducial mark perpendicular to laser is parallel to c [0 0 1]
Raman shift (cm-1)	intensity
64.81	0
69.754	98.564
74.695	111.713
79.634	79.4775
84.571	32.9912
89.505	122.852
94.437	973.408
99.366	4408.71
104.293	14132.8
109.218	30856.5
114.14	24677
119.06	8775.72
123.977	5038
128.892	5325.52
133.805	7552.99
138.715	10997.2
143.623	12239
148.528	10234
153.431	7079.07
158.331	4468.58
163.229	3144.22
168.125	2432.55
173.018	2078.59
177.909	2033.29
182.797	2443.59
187.683	3418.42
192.566	4106.73
197.447	3186.51
202.326	2062.94
207.202	1438.39
212.075	838.573
216.947	583.228
221.815	414.877
226.682	274.675
231.546	92.4907
236.407	227.651
241.266	120.03
246.123	151.044
250.977	120.425
255.829	241.936
260.678	382.521
265.525	545.046
270.369	834.365
275.211	1191.32
280.05	1818.86
284.887	2969.84
289.722	5258.24
294.554	9210.03
299.383	14809.2
304.21	16810.6
309.035	11975.4
313.857	8530.35
318.677	8293.51
323.494	8790.81
328.309	8421.51
333.121	9955.88
337.931	14897.7
342.738	19874.4
347.543	16218.3
352.346	9361.89
357.146	5534.44
361.943	3910.45
366.738	3376.15
371.531	3437.56
376.321	4520.52
381.108	7014.29
385.893	10157.5
390.676	8423.78
395.456	3911.68
400.234	1874.03
405.009	1128.27
409.782	641.872
414.552	374.378
419.32	523.958
424.085	947.316
428.847	2060.38
433.608	3508.48
438.365	3571.48
443.121	1823.57
447.873	741.119
452.624	284.365
457.371	150.409
462.117	68.8617
466.859	25.675
471.6	31.7551
476.337	55.085
481.073	47.7969
485.805	0.151306
490.536	74.1727
495.263	97.3383
499.989	69.6597
504.711	22.3697
509.432	1.96356
514.149	12.4542
518.865	29.2924
523.577	27.0462
528.287	8.29315
532.995	44.4864
537.7	26.3017
542.403	14.3093
547.103	30.3882
551.801	8.38959
556.496	71.0004
561.188	58.6775
565.878	71.5746
570.566	32.757
575.251	63.1293
579.933	80.7333
584.613	65.5791
589.291	43.6382
593.966	59.8847
598.638	66.919
603.308	27.9732
607.975	17.7361
612.64	25.2985
617.302	4.33484
621.962	3.81574
626.619	28.9135
631.274	3.15466
635.926	32.7937
640.576	0.402954
645.223	9.55072
649.867	20.2993
654.509	36.8404
659.149	22.4439
663.786	1.83856
668.42	8.35327
673.052	59.7859
677.681	70.4342
682.308	138.869
686.932	258.049
691.554	417.111
696.173	674.086
700.79	940.791
705.404	1152.03
710.015	1154.47
714.624	836.485
719.231	606.927
723.835	503.888
728.436	485.171
733.035	488.507
737.631	657.802
742.225	824.036
746.816	1117.69
751.404	1603.95
755.99	2490.76
760.574	4211.98
765.155	7648.62
769.733	15484
774.309	29132.4
778.882	38125.7
783.452	26816.2
788.021	15053
792.586	10914.8
797.149	10542.9
801.709	9385.37
806.267	6951.45
810.823	6295.23
815.375	7721.56
819.925	10107.4
824.473	9904.03
829.018	11036.1
833.56	15470.7
838.1	30498.6
842.638	75537.3
847.172	157867
851.704	118058
856.234	37423.6
860.761	15217.8
865.285	9317.03
869.807	6135.15
874.327	4483.62
878.843	3843.14
883.357	3404.25
887.869	3113.48
892.378	3551.55
896.884	3070.86
901.388	2374.14
905.889	1811.8
910.388	1274.86
914.884	862.211
919.378	604.816
923.869	497.685
928.357	446.824
932.843	373.19
937.326	273.769
941.806	281.555
946.284	157.531
950.76	63.6824
955.233	15.0055
959.703	35.4199
964.171	55.0769
968.636	29.6608
973.098	39.3037
977.558	80.0461
982.015	63.9546
986.47	80.4128
990.922	15.9163
995.372	1.20728
999.818	17.6374
1004.26	41.2777
1008.7	25.3922
1013.14	8.87646
1017.58	78.2281
1022.01	16.447
1026.44	4.58765
1030.87	73.5969
1035.3	84.5544
1039.72	79.4755
1044.14	147.466
1048.56	95.5942
1052.98	130.346
1057.39	171.021
1061.8	128.651
1066.21	158.183
1070.62	83.6103
1075.02	102.989
1079.42	167.304
1083.82	135.496
1088.21	122.264
1092.6	177.331
1096.99	130.757
1101.38	169.381
1105.77	93.33
1110.15	136.883
1114.53	94.1469
1118.9	102.754
1123.28	114.069
1127.65	52.2234
1132.02	123.228
1136.38	130.535
1140.75	93.2779
1145.11	173.819
1149.47	136.162
1153.82	80.9871
1158.17	113.89
1162.53	89.7699
1166.87	65.4235
1171.22	15.4721
1175.56	57.5613
1179.9	127.511
1184.24	89.8104
1188.57	124.041
1192.91	56.9592
1197.23	41.4504
1201.56	67.3661
1205.89	158.717
1210.21	92.3415
1214.53	106.646
1218.84	116.498
1223.16	90.8438
1227.47	68.3978
1231.78	73.9406
1236.08	39.196
1240.39	69.02
1244.69	84.3634
1248.99	143.289
1253.28	47.7565
1257.57	45.8289
1261.87	48.9477
1266.15	47.0465
1270.44	40.3472
1274.72	89.1327
1279	78.7022
1283.28	63.8382
1287.55	29.063
1291.82	64.0053
1296.09	9.48785
1300.36	60.4435
1304.62	68.9818
1308.88	78.1952
1313.14	5.68127
1317.4	7.97528
1321.65	82.9551
1325.9	52.0685
1330.15	24.7364
1334.4	26.9456
1338.64	65.725
1342.88	69.4496
1347.12	50.0809
1351.35	15.5646
1355.59	39.9435
1359.82	41.2417
1364.04	62.4365
1368.27	48.9793
1372.49	43.3938
1376.71	22.3198
1380.92	87.7291
1385.14	78.4932
1389.35	95.5245
1393.56	39.2126
1397.76	71.7969
1401.97	10.9697
1406.17	71.0186
1410.37	45.7602
1414.56	135.396
1418.75	7.89032
1422.94	39.6315
1427.13	32.7657
1431.32	7.52313
1435.5	64.2103
1439.68	3.95111
1443.86	18.3402
1448.03	47.6726
1452.2	40.3915
1456.37	12.7424
1460.54	36.0929
1464.7	51.2678
1468.86	28.3195
1473.02	37.4499
1477.17	1.16125
1481.33	46.0824
1485.48	55.7789
1489.63	26.1452
1493.77	3.8147
1497.91	68.2246
1502.05	28.5424
1506.19	5.69757
1510.33	71.6434
1514.46	83.459
1518.59	127.321
1522.71	106.682
1526.84	57.6608
1530.96	108.474
1535.08	85.449
1539.19	50.0524
1543.31	97.3453
1547.42	125.639
1551.53	163.619
1555.63	62.794
1559.73	83.6861
1563.83	50.1487
1567.93	57.1976
1572.03	4.39142
1576.12	36.512
