Measurement: Raman, 514 nm, ccw, Raman Data Processed
Mineral: Descloizite
Rruff sample: R050037
Ideal chemistry: Pb^2+^Zn^2+^V^5+^O_4_(OH)
Locality: Berg Aukas mine, Namibia
Source: Eugene Schlepp
Description: Group of brown thin tabular single crystals
Measured chemistry: Pb_1.00_(Zn_0.98_Cu_0.02_)_Σ=1_((V_0.98_As_0.02_)_Σ=1_O_4_)(OH) ; OH estimated by difference and stoichiometry
Pin_id: m00433
Orientation: Laser parallel to -a* (-1 0 0). Fiducial mark perpendicular to laser is parallel to b [0 1 0]
Raman shift (cm-1)	intensity
64.81	0
69.754	114.638
74.695	86.248
79.634	8.73968
84.571	12.6428
89.505	96.456
94.437	439.264
99.366	1097.94
104.293	2026.09
109.218	2957.99
114.14	3369.36
119.06	4015.61
123.977	4252.41
128.892	4265.52
133.805	4723.74
138.715	4939.88
143.623	4339.03
148.528	3464.08
153.431	2656.62
158.331	2329.19
163.229	2118.97
168.125	1690.05
173.018	1488.48
177.909	1212.23
182.797	952.273
187.683	831.579
192.566	713.125
197.447	573.88
202.326	583.812
207.202	553.893
212.075	527.043
216.947	523.134
221.815	400.273
226.682	363.034
231.546	130.553
236.407	274.665
241.266	223.608
246.123	300.889
250.977	307.332
255.829	382.77
260.678	689.158
265.525	870.4
270.369	1189.35
275.211	1667.84
280.05	2535.79
284.887	4210.11
289.722	7732.75
294.554	13784.8
299.383	21716.1
304.21	21499.9
309.035	13724
313.857	8372.49
318.677	6229.27
323.494	5844.35
328.309	5987.69
333.121	7316.24
337.931	9411.09
342.738	9518.24
347.543	6817.99
352.346	4542.26
357.146	3408.55
361.943	2509.5
366.738	1672.61
371.531	1244.08
376.321	1172.17
381.108	1925.59
385.893	2575.15
390.676	1774.63
395.456	823.08
400.234	383.339
405.009	104.031
409.782	92.1731
414.552	243.543
419.32	729.674
424.085	1412.05
428.847	2989.12
433.608	5304.15
438.365	4556.14
443.121	2603.34
447.873	1422.46
452.624	788.375
457.371	640.989
462.117	515.378
466.859	419.595
471.6	300.238
476.337	194.616
481.073	105.893
485.805	33.791
490.536	47.5134
495.263	98.2297
499.989	12.1707
504.711	24.0466
509.432	21.8398
514.149	49.2266
518.865	3.87549
523.577	78.1123
528.287	6.33557
532.995	12.3926
537.7	19.8975
542.403	6.77344
547.103	56.6491
551.801	46.7617
556.496	54.2599
561.188	65.9224
565.878	93.781
570.566	64.8529
575.251	48.1178
579.933	39.4955
584.613	20.8567
589.291	17.1689
593.966	57.5408
598.638	20.3762
603.308	8.64917
607.975	23.4651
612.64	7.24585
617.302	67.2104
621.962	66.1448
626.619	133.513
631.274	45.6934
635.926	3.07031
640.576	31.5115
645.223	4.84033
649.867	58.3972
654.509	24.8508
659.149	1.12744
663.786	4.70068
668.42	114.426
673.052	348.492
677.681	607.085
682.308	993.635
686.932	1659.69
691.554	2795.97
696.173	4406.07
700.79	6855.77
705.404	9050.68
710.015	9454.27
714.624	7802.23
719.231	5810.51
723.835	4318.65
728.436	3487.16
733.035	3205.14
737.631	3129.04
742.225	3536.19
746.816	4317.31
751.404	5705.97
755.99	8186.72
760.574	12807.6
765.155	22927.3
769.733	44457.3
774.309	81533.7
778.882	97759.6
783.452	65608.7
788.021	37361
792.586	23894.8
797.149	17774.4
801.709	14804.7
806.267	14543.3
810.823	18802.5
815.375	31927.5
819.925	42251.3
824.473	26122.2
829.018	21621.2
833.56	27384
838.1	45789.8
842.638	95536.7
847.172	139690
851.704	68100.6
856.234	26443.2
860.761	13988.6
865.285	8966.91
869.807	6234.53
874.327	4794.56
878.843	4091.7
883.357	3766.09
887.869	3577.22
892.378	3849.4
896.884	3789.76
901.388	2867.27
905.889	1976.88
910.388	1430.6
914.884	1387.28
919.378	1106.91
923.869	1041.42
928.357	868.884
932.843	671.038
937.326	506.466
941.806	561.127
946.284	363.008
950.76	353.219
955.233	286.313
959.703	110.686
964.171	55.5005
968.636	15.291
973.098	40.8777
977.558	92.4946
982.015	166.402
986.47	87.3372
990.922	113.653
995.372	106.647
999.818	87.1106
1004.26	22.5527
1008.7	1.7561
1013.14	15.376
1017.58	53.356
1022.01	91.1672
1026.44	89.0835
1030.87	216.086
1035.3	220.194
1039.72	187.47
1044.14	313.782
1048.56	288.18
1052.98	310.582
1057.39	350.94
1061.8	258.312
1066.21	272.646
1070.62	349.887
1075.02	193.016
1079.42	266.018
1083.82	240.783
1088.21	263.539
1092.6	214.021
1096.99	188.311
1101.38	159.193
1105.77	214.194
1110.15	176.963
1114.53	135.766
1118.9	143.112
1123.28	69.5618
1127.65	31.981
1132.02	51.3848
1136.38	87.0603
1140.75	35.8359
1145.11	124.394
1149.47	154.005
1153.82	161.663
1158.17	66.9836
1162.53	78.3767
1166.87	147.861
1171.22	258.151
1175.56	211.957
1179.9	189.695
1184.24	68.6138
1188.57	107.635
1192.91	99.1667
1197.23	126.916
1201.56	171.52
1205.89	208.016
1210.21	171.521
1214.53	215.011
1218.84	215.684
1223.16	212.042
1227.47	204.209
1231.78	120.259
1236.08	126.359
1240.39	171.427
1244.69	185.531
1248.99	193.174
1253.28	156.099
1257.57	40.9194
1261.87	70.9692
1266.15	77.0441
1270.44	17.8141
1274.72	5.04773
1279	31.8761
1283.28	64.0649
1287.55	27.2237
1291.82	25.4071
1296.09	74.8687
1300.36	44.4988
1304.62	65.4222
1308.88	13.0222
1313.14	29.0934
1317.4	18.7701
1321.65	53.3107
1325.9	7.35986
1330.15	34.0858
1334.4	16.4426
1338.64	50.3037
1342.88	92.325
1347.12	129.755
1351.35	28.6073
1355.59	115.225
1359.82	108.065
1364.04	177.446
1368.27	183.63
1372.49	216.225
1376.71	236.796
1380.92	221.856
1385.14	271.954
1389.35	264.403
1393.56	262
1397.76	282.584
1401.97	137.471
1406.17	212.875
1410.37	252.741
1414.56	294.481
1418.75	148.477
1422.94	111.07
1427.13	85.075
1431.32	86.4724
1435.5	98.3434
1439.68	93.6826
1443.86	62.041
1448.03	26.7174
1452.2	47.7859
1456.37	2.51819
1460.54	124.358
1464.7	2.40295
1468.86	52.2688
1473.02	64.785
1477.17	8.88586
1481.33	6.0022
1485.48	130.856
1489.63	54.0226
1493.77	173.033
1497.91	156.292
1502.05	170.474
1506.19	217.105
1510.33	223.871
1514.46	339.34
1518.59	301.786
1522.71	309.944
1526.84	260.213
1530.96	216.356
1535.08	284.155
1539.19	288.551
1543.31	243.639
1547.42	304.686
1551.53	336.456
1555.63	250.43
1559.73	203.585
1563.83	123.697
1567.93	5.93726
1572.03	68.4072
1576.12	4.99219
