Measurement: Raman, 514 nm, ccw, Raman Data Processed
Mineral: Descloizite
Rruff sample: R050037
Ideal chemistry: Pb^2+^Zn^2+^V^5+^O_4_(OH)
Locality: Berg Aukas mine, Namibia
Source: Eugene Schlepp
Description: Group of brown thin tabular single crystals
Measured chemistry: Pb_1.00_(Zn_0.98_Cu_0.02_)_Σ=1_((V_0.98_As_0.02_)_Σ=1_O_4_)(OH) ; OH estimated by difference and stoichiometry
Pin_id: m00433
Orientation: Laser parallel to -a* (-1 0 0). Fiducial mark perpendicular to laser is parallel to b [0 1 0]
Raman shift (cm-1)	intensity
64.81	0
69.754	155.928
74.695	71.057
79.634	11.9957
84.571	1.25946
89.505	114.588
94.437	1127.2
99.366	4357.8
104.293	14854.5
109.218	31770.3
114.14	18554.7
119.06	8601.7
123.977	6549.08
128.892	5237.43
133.805	5520.49
138.715	6478.02
143.623	6443.83
148.528	5769.65
153.431	5368.28
158.331	5936.25
163.229	5410.72
168.125	3761.79
173.018	2570.45
177.909	1958.68
182.797	1719.42
187.683	1773.62
192.566	1426.24
197.447	880.22
202.326	607.544
207.202	661.509
212.075	511.383
216.947	388.526
221.815	340.102
226.682	239.062
231.546	107.565
236.407	180.611
241.266	128.066
246.123	189.107
250.977	113.511
255.829	275.069
260.678	345.608
265.525	505.019
270.369	893.194
275.211	1156.99
280.05	1783.34
284.887	2978.12
289.722	5184.3
294.554	9321.89
299.383	14394.8
304.21	14650.2
309.035	10291.8
313.857	7780.8
318.677	8075.07
323.494	8337.58
328.309	8171.45
333.121	9751.52
337.931	14108.4
342.738	16390.4
347.543	11949
352.346	7221.86
357.146	4728.09
361.943	3397.48
366.738	2480.38
371.531	2142.77
376.321	2065.72
381.108	2599.88
385.893	3018.47
390.676	2063.71
395.456	961.362
400.234	406.507
405.009	164.942
409.782	174.081
414.552	281
419.32	687.15
424.085	1386.91
428.847	2784.51
433.608	4535.01
438.365	3848.99
443.121	1942.1
447.873	840.315
452.624	385.916
457.371	308.332
462.117	194.149
466.859	110.221
471.6	73.1727
476.337	22.7894
481.073	42.5057
485.805	1.5481
490.536	45.2504
495.263	109.763
499.989	66.1107
504.711	59.0272
509.432	18.1268
514.149	14.6438
518.865	5.36694
523.577	6.60632
528.287	10.2134
532.995	5.91846
537.7	33.906
542.403	37.3131
547.103	1.72083
551.801	87.2495
556.496	43.9847
561.188	56.9321
565.878	84.1182
570.566	8.59119
575.251	20.2368
579.933	47.0782
584.613	45.1372
589.291	104.224
593.966	16.4645
598.638	34.269
603.308	9.95569
607.975	44.8669
612.64	40.0048
617.302	24.2346
621.962	12.4368
626.619	49.1597
631.274	31.783
635.926	57.4619
640.576	10.62
645.223	17.4236
649.867	18.5172
654.509	2.5282
659.149	10.6025
663.786	110.482
668.42	58.5461
673.052	88.1175
677.681	204.304
682.308	384.542
686.932	664.254
691.554	1054.6
696.173	1831.54
700.79	2725.4
705.404	3817.67
710.015	4681.77
714.624	4693.93
719.231	3713.49
723.835	2602.14
728.436	2122.01
733.035	1893
737.631	1906.05
742.225	2040.89
746.816	2331.49
751.404	3118.35
755.99	4222.72
760.574	6501.28
765.155	10867.5
769.733	20679.9
774.309	37671.2
778.882	45398.6
783.452	30609.1
788.021	17472.9
792.586	11350.4
797.149	8630.94
801.709	7234.23
806.267	7266.24
810.823	9078.01
815.375	14993.5
819.925	20341.7
824.473	14744.5
829.018	14228.5
833.56	19258.4
838.1	35043.9
842.638	76199.5
847.172	125071
851.704	62974.8
856.234	22991
860.761	11472.3
865.285	7160.03
869.807	5109.47
874.327	3865.46
878.843	3318.03
883.357	2971.94
887.869	2724.57
892.378	2672.27
896.884	2646.6
901.388	2168.56
905.889	1620.25
910.388	1214.54
914.884	918.345
919.378	803.626
923.869	722.311
928.357	655.406
932.843	473.86
937.326	263.651
941.806	339.761
946.284	283.172
950.76	67.8682
955.233	194.832
959.703	39.0461
964.171	67.5193
968.636	12.0657
973.098	85.4725
977.558	132.418
982.015	97.7843
986.47	94.4537
990.922	66.7647
995.372	0.574219
999.818	1.33899
1004.26	5.40845
1008.7	35.9739
1013.14	35.5579
1017.58	101.74
1022.01	67
1026.44	72.2405
1030.87	152.476
1035.3	168.712
1039.72	81.9445
1044.14	187.182
1048.56	85.4357
1052.98	208.674
1057.39	200.864
1061.8	227.977
1066.21	190.03
1070.62	171.032
1075.02	136.974
1079.42	212.837
1083.82	164.585
1088.21	168.216
1092.6	168.709
1096.99	80.8769
1101.38	113.154
1105.77	156.263
1110.15	88.9623
1114.53	122.418
1118.9	144.541
1123.28	76.5347
1127.65	15.2031
1132.02	21.0483
1136.38	75.2053
1140.75	94.9833
1145.11	130.609
1149.47	93.3508
1153.82	110.821
1158.17	37.3957
1162.53	80.738
1166.87	61.9124
1171.22	48.3289
1175.56	103.361
1179.9	128.279
1184.24	101.303
1188.57	140.199
1192.91	88.4448
1197.23	46.106
1201.56	114.165
1205.89	142.011
1210.21	125.158
1214.53	118.505
1218.84	172.948
1223.16	47.6631
1227.47	114.001
1231.78	128.185
1236.08	92.2256
1240.39	134.483
1244.69	130.048
1248.99	130.441
1253.28	58.7712
1257.57	48.8523
1261.87	40.9788
1266.15	54.7642
1270.44	60.4622
1274.72	30.3589
1279	57.3944
1283.28	49.673
1287.55	1.89648
1291.82	35.1574
1296.09	7.70117
1300.36	16.3446
1304.62	78.7228
1308.88	27.5476
1313.14	50.7391
1317.4	15.3325
1321.65	40.256
1325.9	18.8665
1330.15	17.3389
1334.4	6.85889
1338.64	37.2721
1342.88	50.811
1347.12	65.5063
1351.35	48.208
1355.59	80.6464
1359.82	62.6455
1364.04	84.0818
1368.27	113.203
1372.49	87.8289
1376.71	1.13586
1380.92	79.5175
1385.14	107.983
1389.35	148.001
1393.56	123.54
1397.76	162.316
1401.97	78.4436
1406.17	127.983
1410.37	103.053
1414.56	127.228
1418.75	99.9351
1422.94	113.215
1427.13	38.7112
1431.32	59.9426
1435.5	70.1403
1439.68	2.9679
1443.86	28.9217
1448.03	33.7502
1452.2	16.1859
1456.37	18.1204
1460.54	50.4922
1464.7	12.5447
1468.86	44.6176
1473.02	44.8597
1477.17	3.14905
1481.33	91.9835
1485.48	107.792
1489.63	28.6743
1493.77	103.724
1497.91	100.965
1502.05	80.3711
1506.19	111.237
1510.33	141.649
1514.46	219.324
1518.59	203.765
1522.71	199.087
1526.84	154.112
1530.96	144.949
1535.08	181.673
1539.19	170.18
1543.31	136.49
1547.42	243.021
1551.53	217.379
1555.63	163.969
1559.73	208.25
1563.83	90.6656
1567.93	87.6211
1572.03	117.318
1576.12	66.7428
