Measurement: Raman, 514 nm, ccw, Raman Data Processed
Mineral: Descloizite
Rruff sample: R050037
Ideal chemistry: Pb^2+^Zn^2+^V^5+^O_4_(OH)
Locality: Berg Aukas mine, Namibia
Source: Eugene Schlepp
Description: Group of brown thin tabular single crystals
Measured chemistry: Pb_1.00_(Zn_0.98_Cu_0.02_)_Σ=1_((V_0.98_As_0.02_)_Σ=1_O_4_)(OH) ; OH estimated by difference and stoichiometry
Pin_id: L00538
Orientation: Laser parallel to -b* (0 -1 0). Fiducial mark perpendicular to laser is parallel to c [0 0 1]
Raman shift (cm-1)	intensity
64.81	0
69.754	193.382
74.695	283.021
79.634	117.796
84.571	55.8605
89.505	206.409
94.437	2236.24
99.366	12251.7
104.293	41912.6
109.218	91122
114.14	71536.9
119.06	24567
123.977	12058.3
128.892	10257.3
133.805	13129.4
138.715	17470.3
143.623	18859
148.528	15236.1
153.431	9972.08
158.331	6212.55
163.229	4220.93
168.125	3172.34
173.018	2661.28
177.909	2597.23
182.797	3158.54
187.683	4233.64
192.566	3716.41
197.447	1629.73
202.326	910.843
207.202	732.597
212.075	545.894
216.947	528.326
221.815	484.202
226.682	361.009
231.546	290.35
236.407	370.966
241.266	409.846
246.123	445.395
250.977	550.625
255.829	786.027
260.678	1178.23
265.525	1597.92
270.369	2257.93
275.211	3291.01
280.05	4838.01
284.887	7857.8
289.722	13101.4
294.554	22954.7
299.383	35811.6
304.21	40508.1
309.035	29839.2
313.857	23080.6
318.677	24739.3
323.494	27104.4
328.309	25116.8
333.121	29101.2
337.931	43941.7
342.738	57840.2
347.543	46438.4
352.346	25903.2
357.146	14741.9
361.943	9769.03
366.738	7756.14
371.531	6603.93
376.321	6542.01
381.108	7847.53
385.893	9785.5
390.676	7015.47
395.456	2976.88
400.234	1331.05
405.009	752.232
409.782	505.861
414.552	712.677
419.32	1584.55
424.085	3457.57
428.847	7045.12
433.608	11911.3
438.365	11720.8
443.121	5963.95
447.873	2468.52
452.624	1190.38
457.371	657.76
462.117	331.854
466.859	137.267
471.6	66.9247
476.337	130.097
481.073	104.921
485.805	56.4647
490.536	159.765
495.263	173.497
499.989	124.347
504.711	46.8438
509.432	84.8923
514.149	48.5752
518.865	6.97302
523.577	12.0743
528.287	36.8539
532.995	12.3935
537.7	35.6007
542.403	48.5615
547.103	78.3931
551.801	151.98
556.496	113.341
561.188	130.51
565.878	69.4979
570.566	69.1007
575.251	79.2012
579.933	61.8201
584.613	90.9679
589.291	77.6586
593.966	72.9165
598.638	22.7224
603.308	49.9153
607.975	3.56299
612.64	73.1969
617.302	49.6123
621.962	39.2512
626.619	84.0046
631.274	22.6619
635.926	17.3669
640.576	25.7068
645.223	83.9977
649.867	44.9418
654.509	100.59
659.149	44.2191
663.786	57.808
668.42	25.5758
673.052	61.932
677.681	179.548
682.308	248.069
686.932	528.446
691.554	720.657
696.173	1121.47
700.79	1616.2
705.404	2097.81
710.015	1918.71
714.624	1496.01
719.231	1208.61
723.835	1009.49
728.436	1103.07
733.035	1318.83
737.631	1518.39
742.225	1916.63
746.816	2508.65
751.404	3712.47
755.99	5541.91
760.574	8581.66
765.155	15625.5
769.733	31121.5
774.309	59903.1
778.882	78437.4
783.452	52830.3
788.021	28108
792.586	17337.7
797.149	12986.4
801.709	10726
806.267	9854.68
810.823	10622.4
815.375	14425
819.925	19845.5
824.473	18495.8
829.018	20324.6
833.56	28777.2
838.1	57480.5
842.638	146323
847.172	297238
851.704	213783
856.234	66058.4
860.761	26444.6
865.285	14687.7
869.807	9664.22
874.327	7673.61
878.843	6883.38
883.357	5991.85
887.869	4759.85
892.378	4437.22
896.884	4076.81
901.388	3636.25
905.889	3068.52
910.388	2249.55
914.884	1670.07
919.378	1160.01
923.869	1052.34
928.357	793.037
932.843	758.081
937.326	565.448
941.806	361.113
946.284	243.053
950.76	74.2418
955.233	55.6564
959.703	9.23193
964.171	73.2267
968.636	86.0876
973.098	75.5349
977.558	96.4403
982.015	79.9662
986.47	93.7449
990.922	79.6837
995.372	16.2545
999.818	3.27576
1004.26	26.4235
1008.7	16.8185
1013.14	55.7703
1017.58	114.003
1022.01	91.9769
1026.44	142.862
1030.87	144.628
1035.3	220.104
1039.72	180.826
1044.14	192.124
1048.56	275.387
1052.98	288.503
1057.39	332.452
1061.8	275.313
1066.21	248.02
1070.62	205.531
1075.02	229.826
1079.42	253.903
1083.82	233.75
1088.21	212.381
1092.6	270.782
1096.99	122.103
1101.38	139.08
1105.77	186.344
1110.15	148.063
1114.53	144.462
1118.9	159.293
1123.28	63.7279
1127.65	145.37
1132.02	147.596
1136.38	80.8458
1140.75	136.95
1145.11	216.868
1149.47	186.895
1153.82	146.073
1158.17	62.6043
1162.53	123.955
1166.87	90.0596
1171.22	47.6693
1175.56	26.0789
1179.9	166.76
1184.24	131.243
1188.57	166.083
1192.91	205.891
1197.23	180.708
1201.56	148.123
1205.89	141.043
1210.21	148.788
1214.53	112.165
1218.84	89.3851
1223.16	123.728
1227.47	116.695
1231.78	115.622
1236.08	86.6102
1240.39	114.141
1244.69	162.323
1248.99	144.538
1253.28	111.018
1257.57	118.558
1261.87	38.254
1266.15	52.5882
1270.44	43.2037
1274.72	125.516
1279	118.45
1283.28	62.531
1287.55	37.0453
1291.82	22.9962
1296.09	26.1819
1300.36	7.31128
1304.62	106.948
1308.88	62.0696
1313.14	4.15527
1317.4	28.0627
1321.65	30.6431
1325.9	32.151
1330.15	25.7523
1334.4	13.5045
1338.64	69.6693
1342.88	0.172546
1347.12	82.6071
1351.35	64.4291
1355.59	16.7507
1359.82	138.104
1364.04	57.7772
1368.27	128.342
1372.49	56.3846
1376.71	41.2177
1380.92	88.0493
1385.14	55.1276
1389.35	125.823
1393.56	69.0558
1397.76	129.831
1401.97	24.1672
1406.17	87.1375
1410.37	66.7599
1414.56	90.0161
1418.75	1.49756
1422.94	49.0852
1427.13	42.9324
1431.32	20.195
1435.5	72.4955
1439.68	14.2614
1443.86	0.203125
1448.03	18.5026
1452.2	26.6627
1456.37	39.1366
1460.54	82.5645
1464.7	49.8894
1468.86	76.1291
1473.02	57.2739
1477.17	28.6852
1481.33	54.3317
1485.48	88.8666
1489.63	38.6116
1493.77	80.074
1497.91	95.2221
1502.05	39.6101
1506.19	68.2958
1510.33	82.8201
1514.46	166.3
1518.59	125.346
1522.71	169.796
1526.84	97.4495
1530.96	122.013
1535.08	122.415
1539.19	98.0483
1543.31	177.315
1547.42	183.705
1551.53	197.118
1555.63	108.454
1559.73	74.9293
1563.83	29.3479
1567.93	43.3563
1572.03	20.6391
1576.12	1.11865
