Measurement: Raman, 514 nm, ccw, Raman Data Processed
Mineral: Descloizite
Rruff sample: R050037
Ideal chemistry: Pb^2+^Zn^2+^V^5+^O_4_(OH)
Locality: Berg Aukas mine, Namibia
Source: Eugene Schlepp
Description: Group of brown thin tabular single crystals
Measured chemistry: Pb_1.00_(Zn_0.98_Cu_0.02_)_Σ=1_((V_0.98_As_0.02_)_Σ=1_O_4_)(OH) ; OH estimated by difference and stoichiometry
Pin_id: m00433
Orientation: Laser parallel to -a* (-1 0 0). Fiducial mark perpendicular to laser is parallel to b [0 1 0]
Raman shift (cm-1)	intensity
64.81	0
69.754	189.356
74.695	232.974
79.634	2.31525
84.571	17.8821
89.505	286.685
94.437	2204.81
99.366	9873.59
104.293	36449.8
109.218	84828.6
114.14	50268.3
119.06	20037.4
123.977	12173.3
128.892	9732.18
133.805	11160.7
138.715	13692.4
143.623	13749.3
148.528	11035.3
153.431	7747.38
158.331	5404.73
163.229	4090.67
168.125	3149.32
173.018	2586.71
177.909	2550.75
182.797	2922.36
187.683	3789.47
192.566	2911
197.447	1435.83
202.326	1073.92
207.202	828.971
212.075	760.295
216.947	642.587
221.815	575.803
226.682	337.022
231.546	257.647
236.407	141.902
241.266	199.989
246.123	361.735
250.977	399.665
255.829	532.367
260.678	845.69
265.525	1179.36
270.369	1627.14
275.211	2544.85
280.05	3928.32
284.887	6289.39
289.722	10382
294.554	18131.2
299.383	28992.9
304.21	29974.3
309.035	21432.2
313.857	17825.4
318.677	20116
323.494	21659.6
328.309	20284.5
333.121	23893.3
337.931	35670.8
342.738	43727.2
347.543	32759.4
352.346	19062.7
357.146	11824.3
361.943	8337.36
366.738	6532.85
371.531	5802.67
376.321	5610.34
381.108	6778.8
385.893	8203.29
390.676	5877.44
395.456	2827.72
400.234	1439.63
405.009	902.39
409.782	794.106
414.552	1030.13
419.32	1817.54
424.085	3384.42
428.847	6497.06
433.608	10465.1
438.365	9074.83
443.121	4418.82
447.873	1928.39
452.624	1045.9
457.371	608.839
462.117	363.333
466.859	179.977
471.6	80.7524
476.337	7.6709
481.073	91.2441
485.805	49.873
490.536	108.914
495.263	161.269
499.989	138.252
504.711	89.469
509.432	56.3208
514.149	120.66
518.865	91.7847
523.577	85.2429
528.287	19.7252
532.995	28.1315
537.7	101.544
542.403	65.6102
547.103	31.736
551.801	135.519
556.496	71.5724
561.188	152.362
565.878	93.941
570.566	66.2568
575.251	73.615
579.933	56.7683
584.613	9.59168
589.291	59.5552
593.966	14.1211
598.638	1.47363
603.308	89.5684
607.975	29.9453
612.64	25.2784
617.302	20.2881
621.962	23.9377
626.619	51.6343
631.274	16.4131
635.926	44.4979
640.576	68.7562
645.223	45.9458
649.867	35.8364
654.509	77.7671
659.149	11.6592
663.786	76.6838
668.42	98.3486
673.052	116.49
677.681	214.308
682.308	357.073
686.932	565.749
691.554	843.736
696.173	1242.37
700.79	1843.81
705.404	2218.04
710.015	2353.68
714.624	2332.43
719.231	1945.4
723.835	1838.02
728.436	1890.95
733.035	1944.34
737.631	2244.14
742.225	2691.34
746.816	3276.82
751.404	4346.77
755.99	6070.61
760.574	8986.13
765.155	14863.8
769.733	27591.5
774.309	50975.9
778.882	63054.3
783.452	42488.1
788.021	24431
792.586	16033.8
797.149	12121.8
801.709	10485.6
806.267	10267.7
810.823	12566.9
815.375	20040
819.925	27943.1
824.473	22416.3
829.018	23984.2
833.56	34154.4
838.1	64980.8
842.638	145853
847.172	256131
851.704	135096
856.234	47238.7
860.761	22109.3
865.285	13559.2
869.807	9228.63
874.327	7330.28
878.843	6472.49
883.357	5473.81
887.869	4758.58
892.378	4407.45
896.884	4537.23
901.388	3882.89
905.889	3009.32
910.388	2000.01
914.884	1475.81
919.378	1133.11
923.869	1051.91
928.357	893.167
932.843	600.869
937.326	448.994
941.806	380.506
946.284	237.435
950.76	51.7017
955.233	59.5159
959.703	60.2998
964.171	92.7168
968.636	129.916
973.098	96.1472
977.558	43.7417
982.015	135.095
986.47	146.452
990.922	52.8984
995.372	46.0083
999.818	12.5574
1004.26	34.5178
1008.7	10.8113
1013.14	45.4353
1017.58	148.543
1022.01	68.5894
1026.44	96.5881
1030.87	107.521
1035.3	142.369
1039.72	62.1714
1044.14	156.865
1048.56	136.487
1052.98	194.025
1057.39	281.436
1061.8	258.704
1066.21	216.802
1070.62	148.706
1075.02	137.439
1079.42	190.97
1083.82	181.275
1088.21	248.354
1092.6	198.968
1096.99	94.9344
1101.38	118.418
1105.77	156.351
1110.15	137.461
1114.53	124.683
1118.9	160.033
1123.28	87.4976
1127.65	56.3149
1132.02	135.392
1136.38	174.915
1140.75	134.829
1145.11	194.891
1149.47	207.632
1153.82	144.479
1158.17	149.959
1162.53	72.2036
1166.87	80.5729
1171.22	87.1962
1175.56	70.9589
1179.9	193.97
1184.24	188.976
1188.57	208.262
1192.91	123.316
1197.23	138.638
1201.56	226.845
1205.89	205.507
1210.21	167.943
1214.53	209.734
1218.84	197.674
1223.16	154.167
1227.47	176.03
1231.78	168.906
1236.08	221.874
1240.39	143.129
1244.69	199.407
1248.99	248.504
1253.28	145.043
1257.57	158.635
1261.87	137.013
1266.15	64.4069
1270.44	123.462
1274.72	137.632
1279	162.112
1283.28	9.31433
1287.55	57.5408
1291.82	46.4456
1296.09	60.7871
1300.36	7.30505
1304.62	108.704
1308.88	43.9852
1313.14	2.58765
1317.4	18.6005
1321.65	90.2368
1325.9	18.3908
1330.15	14.7776
1334.4	61.7878
1338.64	56.7588
1342.88	32.7009
1347.12	26.65
1351.35	27.9485
1355.59	2.64526
1359.82	116.751
1364.04	25.8502
1368.27	1.72888
1372.49	71.8678
1376.71	3.57251
1380.92	59.7406
1385.14	40.321
1389.35	57.064
1393.56	85.7845
1397.76	108.708
1401.97	23.1454
1406.17	62.108
1410.37	28.8906
1414.56	28.8722
1418.75	2.09094
1422.94	52.5018
1427.13	60.0375
1431.32	14.1102
1435.5	55.8298
1439.68	20.1425
1443.86	13.4445
1448.03	27.0559
1452.2	14.6678
1456.37	62.5971
1460.54	34.2846
1464.7	8.61352
1468.86	27.8961
1473.02	22.0707
1477.17	54.4836
1481.33	66.8621
1485.48	57.1551
1489.63	21.5673
1493.77	37.8684
1497.91	12.1027
1502.05	30.5787
1506.19	92.8204
1510.33	28.1106
1514.46	110.21
1518.59	93.4043
1522.71	122.159
1526.84	96.3072
1530.96	147.749
1535.08	95.95
1539.19	173.081
1543.31	90.8901
1547.42	191.391
1551.53	216.29
1555.63	111.755
1559.73	168.887
1563.83	86.3181
1567.93	38.4858
1572.03	29.6136
1576.12	61.3601
