Measurement: Raman, 514 nm, ccw, Raman Data Processed
Mineral: Descloizite
Rruff sample: R050037
Ideal chemistry: Pb^2+^Zn^2+^V^5+^O_4_(OH)
Locality: Berg Aukas mine, Namibia
Source: Eugene Schlepp
Description: Group of brown thin tabular single crystals
Measured chemistry: Pb_1.00_(Zn_0.98_Cu_0.02_)_Σ=1_((V_0.98_As_0.02_)_Σ=1_O_4_)(OH) ; OH estimated by difference and stoichiometry
Pin_id: m00197
Orientation: Laser parallel to c* (0 0 1). Fiducial mark perpendicular to laser is parallel to -a [-1 0 0]
Raman shift (cm-1)	intensity
64.81	0
69.754	105.718
74.695	93.3883
79.634	5.27946
84.571	8.34717
89.505	34.42
94.437	415.752
99.366	1368.79
104.293	3628.28
109.218	6630.74
114.14	5587.02
119.06	5065.57
123.977	5443.11
128.892	4421.38
133.805	5415.2
138.715	7150.41
143.623	7435.44
148.528	5818.3
153.431	3951.38
158.331	2597.19
163.229	1939.9
168.125	1409.56
173.018	1244.2
177.909	1048.79
182.797	1084.31
187.683	1389.7
192.566	1541.93
197.447	971.961
202.326	697.904
207.202	537.78
212.075	358.421
216.947	342.444
221.815	296.061
226.682	289.89
231.546	282.15
236.407	406.798
241.266	368.127
246.123	419.389
250.977	336.453
255.829	352.15
260.678	470.414
265.525	565.106
270.369	781.177
275.211	1093.55
280.05	1438.11
284.887	2240.78
289.722	3942.5
294.554	6659.28
299.383	10179.1
304.21	10893
309.035	7759.76
313.857	5725.52
318.677	5618.19
323.494	7166.06
328.309	10331.7
333.121	15318.8
337.931	19604.4
342.738	18921
347.543	14242.8
352.346	11883.5
357.146	13071.5
361.943	13877.1
366.738	7767.25
371.531	4338.31
376.321	4181.97
381.108	6161.93
385.893	8596.61
390.676	6868.88
395.456	3230.68
400.234	1462.4
405.009	757.312
409.782	381.752
414.552	167.618
419.32	324.871
424.085	401.026
428.847	733.103
433.608	1204.29
438.365	1112.44
443.121	667.394
447.873	278.926
452.624	146.559
457.371	60.8554
462.117	61.817
466.859	1.83228
471.6	6.08575
476.337	53.7025
481.073	4.93793
485.805	26.5554
490.536	64.3231
495.263	67.3877
499.989	10.4842
504.711	53.463
509.432	49.1246
514.149	1.31506
518.865	20.5156
523.577	20.7283
528.287	37.8378
532.995	16.7459
537.7	33.4307
542.403	31.5812
547.103	30.8323
551.801	31.3691
556.496	5.15912
561.188	0.791687
565.878	41.5835
570.566	22.3771
575.251	9.51965
579.933	1.99109
584.613	29.8225
589.291	96.9441
593.966	12.4706
598.638	3.67499
603.308	3.44788
607.975	9.48145
612.64	4.99847
617.302	0.466553
621.962	16.2296
626.619	30.5959
631.274	65.3404
635.926	24.8426
640.576	23.3697
645.223	36.8245
649.867	0.654053
654.509	51.4794
659.149	39.3334
663.786	90.33
668.42	150.492
673.052	286.867
677.681	438.769
682.308	808.498
686.932	1536.68
691.554	2551.58
696.173	3568.99
700.79	3917.05
705.404	3777.7
710.015	3297.14
714.624	2405.76
719.231	1602.55
723.835	1131.04
728.436	838.311
733.035	773.687
737.631	828.126
742.225	946.553
746.816	1193.91
751.404	1751.83
755.99	2550.86
760.574	4359.67
765.155	8012.56
769.733	16163.9
774.309	30415.4
778.882	37797.3
783.452	25367.9
788.021	13912
792.586	8653.55
797.149	6523.85
801.709	5473.7
806.267	5442.15
810.823	6605.22
815.375	9637.87
819.925	12298.1
824.473	10287.6
829.018	10042.4
833.56	13508
838.1	25307.9
842.638	59364.3
847.172	107431
851.704	67250
856.234	22364.4
860.761	10028.7
865.285	5831.15
869.807	3952.33
874.327	2897.45
878.843	2277.16
883.357	1917.93
887.869	1662.63
892.378	1667.07
896.884	1635.11
901.388	1375.05
905.889	1094.44
910.388	856.267
914.884	693.892
919.378	483.786
923.869	373.635
928.357	309.772
932.843	256.175
937.326	245.832
941.806	184.729
946.284	194.851
950.76	46.1841
955.233	78.7242
959.703	8.44751
964.171	1.30713
968.636	20.7283
973.098	57.7094
977.558	22.8159
982.015	54.0315
986.47	62.4045
990.922	44.9308
995.372	15.6918
999.818	31.6976
1004.26	12.9207
1008.7	21.7873
1013.14	13.8654
1017.58	62.7845
1022.01	23.3752
1026.44	12.9004
1030.87	9.70496
1035.3	92.6
1039.72	25.8596
1044.14	128.031
1048.56	134.136
1052.98	132.166
1057.39	169.138
1061.8	144.038
1066.21	162.85
1070.62	151.56
1075.02	94.1746
1079.42	199.671
1083.82	155.031
1088.21	139.49
1092.6	195.975
1096.99	135.511
1101.38	207.271
1105.77	187.516
1110.15	157.396
1114.53	161.244
1118.9	168.405
1123.28	133.507
1127.65	89.1019
1132.02	157.001
1136.38	115.204
1140.75	102.536
1145.11	98.9573
1149.47	78.9162
1153.82	127.158
1158.17	95.9233
1162.53	114.275
1166.87	46.9253
1171.22	140.452
1175.56	71.0621
1179.9	148.381
1184.24	113.151
1188.57	79.2999
1192.91	54.7743
1197.23	84.2395
1201.56	103.029
1205.89	99.2238
1210.21	80.1334
1214.53	71.5498
1218.84	116.842
1223.16	54.2703
1227.47	60.7385
1231.78	31.8801
1236.08	66.1317
1240.39	93.7751
1244.69	92.012
1248.99	110.518
1253.28	47.8341
1257.57	56.1286
1261.87	47.4556
1266.15	2.81085
1270.44	7.55609
1274.72	30.5129
1279	84.0114
1283.28	5.71204
1287.55	22.567
1291.82	13.3484
1296.09	32.7673
1300.36	10.784
1304.62	43.8284
1308.88	37.5818
1313.14	16.0424
1317.4	9.70923
1321.65	45.1407
1325.9	17.2748
1330.15	13.2034
1334.4	61.342
1338.64	45.3738
1342.88	50.0416
1347.12	72.6459
1351.35	47.5201
1355.59	57.6607
1359.82	147.875
1364.04	52.6328
1368.27	118.024
1372.49	97.4452
1376.71	67.3447
1380.92	85.2383
1385.14	120.406
1389.35	116.526
1393.56	111.722
1397.76	134.008
1401.97	63.2747
1406.17	99.9428
1410.37	49.0076
1414.56	91.7408
1418.75	17.7891
1422.94	72.4611
1427.13	13.9227
1431.32	14.228
1435.5	60.3121
1439.68	17.888
1443.86	28.9183
1448.03	61.4365
1452.2	7.38617
1456.37	48.0668
1460.54	38.3833
1464.7	20.1113
1468.86	66.039
1473.02	1.25824
1477.17	33.9971
1481.33	44.6557
1485.48	58.3498
1489.63	29.18
1493.77	17.9116
1497.91	70.4422
1502.05	28.7467
1506.19	60.7124
1510.33	79.928
1514.46	96.0948
1518.59	107.78
1522.71	110.384
1526.84	36.3654
1530.96	22.7938
1535.08	84.1856
1539.19	74.9093
1543.31	48.3781
1547.42	147.703
1551.53	174.922
1555.63	77.2115
1559.73	62.236
1563.83	29.2863
1567.93	56.2858
1572.03	44.0241
1576.12	9.15771
