Measurement: Raman, 514 nm, depolarized, Raman Data Processed
Mineral: Descloizite
Rruff sample: R050037
Ideal chemistry: Pb^2+^Zn^2+^V^5+^O_4_(OH)
Locality: Berg Aukas mine, Namibia
Source: Eugene Schlepp
Description: Group of brown thin tabular single crystals
Measured chemistry: Pb_1.00_(Zn_0.98_Cu_0.02_)_Σ=1_((V_0.98_As_0.02_)_Σ=1_O_4_)(OH) ; OH estimated by difference and stoichiometry
Pin_id: m00433
Orientation: Laser parallel to -a* (-1 0 0). Fiducial mark perpendicular to laser is parallel to b [0 1 0]
Raman shift (cm-1)	intensity
64.81	0
69.754	156.906
74.695	123.384
79.634	29.5107
84.571	9.61993
89.505	168.736
94.437	1079.05
99.366	4323.56
104.293	14531.3
109.218	33883
114.14	21015.8
119.06	9539.11
123.977	6799.3
128.892	5580.06
133.805	6151.07
138.715	7088.09
143.623	7147.72
148.528	6099.45
153.431	4835.17
158.331	4592.51
163.229	4065.67
168.125	2934.73
173.018	2166.72
177.909	1756.59
182.797	1712.29
187.683	1892.78
192.566	1461.99
197.447	858.884
202.326	659.435
207.202	595.892
212.075	480.113
216.947	487.63
221.815	498
226.682	242.773
231.546	117.857
236.407	129.952
241.266	137.458
246.123	187.859
250.977	156.883
255.829	334.297
260.678	550.963
265.525	714.731
270.369	1089.53
275.211	1415.19
280.05	2292.59
284.887	3557.62
289.722	6370.22
294.554	11153.4
299.383	18236.2
304.21	18858.5
309.035	13064.4
313.857	9829.81
318.677	9867.82
323.494	10124.2
328.309	9701.1
333.121	11474.5
337.931	16330.4
342.738	19903
347.543	15157.3
352.346	8862.95
357.146	5552.22
361.943	3955.34
366.738	3067.08
371.531	2639.66
376.321	2428.06
381.108	3108.82
385.893	3996.97
390.676	2690.29
395.456	1380.55
400.234	686.149
405.009	341.584
409.782	200.817
414.552	369.41
419.32	815.366
424.085	1577.02
428.847	3190.04
433.608	5709.09
438.365	5038.3
443.121	2588.55
447.873	1158.82
452.624	666.497
457.371	430.897
462.117	269.187
466.859	198.195
471.6	112.536
476.337	72.1215
481.073	7.95373
485.805	2.08411
490.536	78.3534
495.263	85.9514
499.989	58.9508
504.711	50.1088
509.432	12.1782
514.149	30.2499
518.865	28.156
523.577	59.5679
528.287	33.8256
532.995	12.1412
537.7	0.477417
542.403	46.8108
547.103	26.244
551.801	98.7039
556.496	45.2175
561.188	71.8632
565.878	115.67
570.566	73.6916
575.251	35.8634
579.933	74.1209
584.613	67.4783
589.291	29.84
593.966	28.8814
598.638	64.8455
603.308	23.9208
607.975	11.4052
612.64	39.1292
617.302	42.3662
621.962	2.92395
626.619	109.446
631.274	15.026
635.926	7.16101
640.576	4.14893
645.223	28.8324
649.867	39.792
654.509	7.92786
659.149	13.298
663.786	56.7097
668.42	123.897
673.052	141.885
677.681	275.336
682.308	386.501
686.932	831.392
691.554	1273.8
696.173	2078.29
700.79	3126.9
705.404	4362.96
710.015	4957.74
714.624	4689.24
719.231	3676.24
723.835	2693.39
728.436	2272.73
733.035	2236.46
737.631	2117.18
742.225	2310.32
746.816	2725.49
751.404	3646.8
755.99	5177.53
760.574	7793.33
765.155	13134
769.733	25056.8
774.309	46731.3
778.882	59194.1
783.452	40750.3
788.021	23003.3
792.586	14683
797.149	10996
801.709	9175.28
806.267	9148.43
810.823	11115.4
815.375	18060.2
819.925	25567.7
824.473	18309
829.018	16808.1
833.56	22535.7
838.1	39966.2
842.638	87054.8
847.172	149754
851.704	80233.9
856.234	28691
860.761	14051.2
865.285	8514.16
869.807	5937.87
874.327	4578.12
878.843	3896.94
883.357	3447.66
887.869	3038.51
892.378	3012.8
896.884	3078.77
901.388	2504.54
905.889	1867.07
910.388	1340.37
914.884	1039.16
919.378	870.451
923.869	718.227
928.357	619.47
932.843	549.15
937.326	361.245
941.806	330.733
946.284	192.585
950.76	82.7812
955.233	144.493
959.703	54.3184
964.171	9.42969
968.636	19.96
973.098	81.9563
977.558	111.893
982.015	167.985
986.47	54.3999
990.922	51.678
995.372	55.4358
999.818	10.6016
1004.26	14.8662
1008.7	13.9536
1013.14	74.9675
1017.58	106.868
1022.01	46.6825
1026.44	99.5199
1030.87	108.364
1035.3	150.214
1039.72	58.1121
1044.14	197.988
1048.56	172.833
1052.98	194.626
1057.39	266.358
1061.8	238.041
1066.21	169.636
1070.62	182.141
1075.02	164.58
1079.42	201.906
1083.82	159.098
1088.21	185.16
1092.6	163.042
1096.99	134.783
1101.38	81.0123
1105.77	133.296
1110.15	205.255
1114.53	99.3516
1118.9	20.0094
1123.28	112.449
1127.65	61.4537
1132.02	86.1238
1136.38	125.795
1140.75	20.7242
1145.11	112.584
1149.47	117.965
1153.82	31.5116
1158.17	131.966
1162.53	65.204
1166.87	67.644
1171.22	156.371
1175.56	66.3252
1179.9	151.801
1184.24	93.8744
1188.57	154.779
1192.91	114.343
1197.23	134.468
1201.56	165.233
1205.89	159.367
1210.21	219.085
1214.53	396.211
1218.84	131.878
1223.16	135.235
1227.47	128.03
1231.78	132.786
1236.08	89.7667
1240.39	124.689
1244.69	194.553
1248.99	145.195
1253.28	99.4933
1257.57	40.72
1261.87	121.736
1266.15	49.7771
1270.44	34.6041
1274.72	67.7346
1279	90.92
1283.28	27.7103
1287.55	4.96277
1291.82	11.9283
1296.09	71.5287
1300.36	17.4708
1304.62	84.4817
1308.88	45.1962
1313.14	8.68225
1317.4	22.4189
1321.65	57.0192
1325.9	0.833984
1330.15	11.1658
1334.4	0.470337
1338.64	90.5915
1342.88	31.3676
1347.12	62.0774
1351.35	1.71484
1355.59	95.6398
1359.82	64.181
1364.04	121.486
1368.27	112.789
1372.49	128.035
1376.71	38.3291
1380.92	104.122
1385.14	148.572
1389.35	163.538
1393.56	155.618
1397.76	166.976
1401.97	67.5778
1406.17	150.689
1410.37	84.5772
1414.56	102.037
1418.75	31.8749
1422.94	82.6732
1427.13	101.862
1431.32	79.9042
1435.5	90.2224
1439.68	17.4609
1443.86	8.37146
1448.03	18.9006
1452.2	0.967285
1456.37	7.79553
1460.54	5.61414
1464.7	19.2246
1468.86	65.72
1473.02	77.3234
1477.17	20.7721
1481.33	28.6868
1485.48	67.5554
1489.63	62.4452
1493.77	25.3744
1497.91	95.9354
1502.05	108.359
1506.19	77.8072
1510.33	153.406
1514.46	197.158
1518.59	187.407
1522.71	167.295
1526.84	124.555
1530.96	68.6152
1535.08	153.169
1539.19	205.113
1543.31	136.002
1547.42	146.733
1551.53	216.822
1555.63	56.2627
1559.73	164.385
1563.83	68.7362
1567.93	9.62646
1572.03	70.0371
1576.12	65.2742
