Measurement: Raman, 514 nm, ccw, Raman Data Processed
Mineral: Descloizite
Rruff sample: R050037
Ideal chemistry: Pb^2+^Zn^2+^V^5+^O_4_(OH)
Locality: Berg Aukas mine, Namibia
Source: Eugene Schlepp
Description: Group of brown thin tabular single crystals
Measured chemistry: Pb_1.00_(Zn_0.98_Cu_0.02_)_Σ=1_((V_0.98_As_0.02_)_Σ=1_O_4_)(OH) ; OH estimated by difference and stoichiometry
Pin_id: m00197
Orientation: Laser parallel to c* (0 0 1). Fiducial mark perpendicular to laser is parallel to -a [-1 0 0]
Raman shift (cm-1)	intensity
64.81	0
69.754	195.856
74.695	204.174
79.634	57.4057
84.571	35.1603
89.505	151.207
94.437	1227.11
99.366	5212.3
104.293	14517
109.218	25210.7
114.14	16553.1
119.06	8042.8
123.977	8379.19
128.892	11884.7
133.805	19587.9
138.715	28352.4
143.623	30247.9
148.528	24020.1
153.431	15698.9
158.331	9873.44
163.229	6781.05
168.125	5128.87
173.018	4139.92
177.909	3610.16
182.797	4079.48
187.683	5574.78
192.566	6221.96
197.447	4007.05
202.326	2474.99
207.202	1753.29
212.075	1197.35
216.947	918.09
221.815	661.001
226.682	595.595
231.546	480.062
236.407	532.26
241.266	537.557
246.123	514.291
250.977	404.738
255.829	523.016
260.678	728.821
265.525	853.039
270.369	1197.2
275.211	1921.03
280.05	2995.36
284.887	4791.02
289.722	8810.87
294.554	15823.9
299.383	24688.9
304.21	25872
309.035	16268
313.857	9218.01
318.677	6781.73
323.494	6535.06
328.309	7640.45
333.121	10536.5
337.931	15004.2
342.738	17089.1
347.543	12854.3
352.346	8192.6
357.146	6646.24
361.943	6385.03
366.738	6131.47
371.531	7967.21
376.321	13102.6
381.108	24162
385.893	36474.5
390.676	28713.6
395.456	13279.1
400.234	5595.02
405.009	2581.63
409.782	1340.83
414.552	687.76
419.32	486.847
424.085	418.832
428.847	619.062
433.608	1107.96
438.365	1026.65
443.121	571.455
447.873	250.434
452.624	122.11
457.371	46.6615
462.117	32.5615
466.859	16.6495
471.6	8.19214
476.337	33.0769
481.073	50.395
485.805	35.3855
490.536	114.493
495.263	133.13
499.989	79.4428
504.711	110.089
509.432	45.1038
514.149	55.8199
518.865	12.5557
523.577	48.9995
528.287	88.1735
532.995	48.2905
537.7	39.1705
542.403	52.304
547.103	6.7467
551.801	20.5365
556.496	15.1858
561.188	38.3354
565.878	45.0531
570.566	74.3996
575.251	101.406
579.933	88.1897
584.613	50.7521
589.291	23.9168
593.966	14.7159
598.638	30.2195
603.308	64.9681
607.975	42.3796
612.64	65.8784
617.302	54.2573
621.962	26.1883
626.619	66.5897
631.274	10.3816
635.926	28.642
640.576	53.834
645.223	16.5781
649.867	44.1517
654.509	2.07837
659.149	31.3013
663.786	60.8074
668.42	3.69421
673.052	19.912
677.681	180.74
682.308	377.075
686.932	836.719
691.554	1481.86
696.173	2105.6
700.79	2704.97
705.404	2892.8
710.015	2627.48
714.624	1808.41
719.231	1114.93
723.835	754.619
728.436	624.288
733.035	673.196
737.631	868.891
742.225	1111.99
746.816	1593.84
751.404	2582.25
755.99	4192.63
760.574	7022.49
765.155	13216.8
769.733	26629.8
774.309	50152.6
778.882	62688.3
783.452	41732.6
788.021	23039.5
792.586	14754.6
797.149	11662.5
801.709	9948.86
806.267	9758.28
810.823	10766.1
815.375	13867
819.925	17415
824.473	19837
829.018	24029.1
833.56	35073.7
838.1	70291.6
842.638	170448
847.172	311727
851.704	198590
856.234	63874.4
860.761	27584
865.285	15877.1
869.807	10542.7
874.327	7662.66
878.843	5887.32
883.357	4515.69
887.869	3752.43
892.378	3523.36
896.884	3254.36
901.388	2881.1
905.889	2586.71
910.388	1673.87
914.884	1297.62
919.378	959.923
923.869	660.731
928.357	546.14
932.843	464.918
937.326	356.101
941.806	396.666
946.284	300.031
950.76	117.266
955.233	133.799
959.703	41.6034
964.171	14.3512
968.636	67.1116
973.098	34.6592
977.558	99.3472
982.015	69.2216
986.47	77.4736
990.922	42.9155
995.372	50.7563
999.818	56.6352
1004.26	14.9187
1008.7	53.8538
1013.14	10.348
1017.58	33.9359
1022.01	39.0366
1026.44	14.4684
1030.87	47.7135
1035.3	154.726
1039.72	105.646
1044.14	206.425
1048.56	115.022
1052.98	157.436
1057.39	184.656
1061.8	194.665
1066.21	161.437
1070.62	143.985
1075.02	105.29
1079.42	237.32
1083.82	201.066
1088.21	249.942
1092.6	252.111
1096.99	221.694
1101.38	145.006
1105.77	245.857
1110.15	233.577
1114.53	186.683
1118.9	187.952
1123.28	172.399
1127.65	182.607
1132.02	194.677
1136.38	246.823
1140.75	186.394
1145.11	237.157
1149.47	254.881
1153.82	174.364
1158.17	101.611
1162.53	120.867
1166.87	79.7859
1171.22	109.209
1175.56	109.932
1179.9	213.396
1184.24	88.0647
1188.57	157.764
1192.91	93.9557
1197.23	101.932
1201.56	125.587
1205.89	128.761
1210.21	110.906
1214.53	117.555
1218.84	72.8854
1223.16	68.9326
1227.47	45.4324
1231.78	21.3286
1236.08	1.33667
1240.39	51.5391
1244.69	88.452
1248.99	63.5085
1253.28	7.25922
1257.57	0.844727
1261.87	0.562195
1266.15	5.65765
1270.44	45.0717
1274.72	55.1273
1279	30.8547
1283.28	11.6452
1287.55	21.3015
1291.82	50.5322
1296.09	59.9087
1300.36	55.1746
1304.62	62.9769
1308.88	60.5328
1313.14	6.18915
1317.4	43.3657
1321.65	84.2
1325.9	22.204
1330.15	8.98871
1334.4	25.9965
1338.64	36.4232
1342.88	49.8782
1347.12	53.8207
1351.35	30.0371
1355.59	37.869
1359.82	70.7371
1364.04	35.0866
1368.27	63.7015
1372.49	47.5926
1376.71	14.0253
1380.92	46.4814
1385.14	47.216
1389.35	84.0715
1393.56	51.5489
1397.76	88.1298
1401.97	18.7041
1406.17	51.0795
1410.37	23.8685
1414.56	103.371
1418.75	11.7296
1422.94	27.0898
1427.13	15.2456
1431.32	59.5142
1435.5	57.5003
1439.68	20.0262
1443.86	18.1597
1448.03	40.3138
1452.2	12.4168
1456.37	52.0005
1460.54	55.9658
1464.7	5.76874
1468.86	65.4849
1473.02	26.8099
1477.17	58.9606
1481.33	3.62994
1485.48	80.8489
1489.63	0.934082
1493.77	66.9685
1497.91	50.093
1502.05	15.0797
1506.19	16.0848
1510.33	49.7935
1514.46	89.9163
1518.59	60.193
1522.71	98.2112
1526.84	81.0641
1530.96	69.5028
1535.08	76.5452
1539.19	74.1578
1543.31	95.7731
1547.42	107.67
1551.53	162.455
1555.63	57.7207
1559.73	115.181
1563.83	80.9831
1567.93	93.7896
1572.03	21.888
1576.12	95.2717
