Measurement: Raman, 514 nm, depolarized, Raman Data Processed
Mineral: Diamond
Rruff sample: R050204
Ideal chemistry: C
Locality: Unknown
Source: Eric Van Valkenburg
Description: Single crystal, type IIA
Pin_id: M01891
Orientation: Laser parallel to a* (1 0 0). Fiducial mark perpendicular to laser is parallel to b [0 1 0]
Raman shift (cm-1)	intensity
170.559	0
175.467	59.4136
180.372	57.0171
185.274	168.947
190.174	91.6377
195.072	107.068
199.967	250.448
204.859	149.266
209.749	93.2256
214.637	67.0933
219.521	154.749
224.404	225.992
229.284	162.635
234.161	182.781
239.036	56.4834
243.908	77.4756
248.777	86.5518
253.645	100.77
258.509	256.147
263.371	204.953
268.231	54.2031
273.088	182.727
277.942	68.1787
282.794	127.007
287.643	167.392
292.49	81.3916
297.335	164.853
302.176	152.477
307.015	141.803
311.852	199.784
316.686	45.2881
321.518	46.4951
326.347	105.838
331.173	126.785
335.997	165.867
340.819	136.02
345.638	114.519
350.454	167.342
355.268	129.141
360.079	20.2363
364.888	100.171
369.694	58.8545
374.498	86.5576
379.299	149.173
384.097	211.586
388.893	23.1719
393.686	20.1357
398.477	144.034
403.266	53.6641
408.051	216.224
412.835	36.2168
417.615	90.7695
422.394	102.435
427.169	39.1191
431.942	45.0938
436.713	63.544
441.481	145.013
446.246	26.6074
451.009	77.7998
455.769	88.1426
460.527	5.80566
465.282	111.812
470.035	81.5606
474.785	56.1113
479.532	132.291
484.277	127.772
489.02	82.6943
493.76	115.434
498.497	197.839
503.232	264.459
507.964	31.5156
512.693	312.773
517.421	119.829
522.145	151.333
526.867	148.195
531.587	203.278
536.303	26.9775
541.018	94.8984
545.729	248.086
550.439	107.42
555.145	97.3115
559.849	164.118
564.551	83.0439
569.25	76.9814
573.946	236.953
578.64	216.803
583.331	37.4062
588.02	239.347
592.706	105.579
597.39	222.391
602.071	239.761
606.749	298.94
611.425	120.77
616.099	433.115
620.769	272.518
625.438	346.954
630.103	246.658
634.766	186.418
639.427	178.13
644.085	275.502
648.74	290.628
653.393	207.472
658.044	103.279
662.691	287.342
667.336	33.8682
671.979	213.259
676.619	96.668
681.257	164.898
685.892	88.8906
690.524	68.7266
695.154	114.275
699.781	106.693
704.406	54.1924
709.028	190.211
713.647	299.968
718.264	49.8887
722.878	28.8076
727.49	180.133
732.1	80.9033
736.706	65.4629
741.31	126.373
745.912	84.208
750.511	175.48
755.107	223.977
759.701	132.086
764.292	77.1572
768.881	266.845
773.467	29.377
778.051	22.2568
782.632	98.9688
787.21	2.19531
791.786	15.292
796.359	120.561
800.93	31.1416
805.498	161.291
810.064	162.915
814.627	268.888
819.187	33.3994
823.745	288.312
828.301	236.869
832.853	225.055
837.403	158.352
841.951	300.798
846.496	204.993
851.038	326.225
855.578	239.797
860.116	443.767
864.65	258.638
869.183	260.463
873.712	165.408
878.239	38.3603
882.764	202.099
887.285	119.278
891.805	236.741
896.322	3.24023
900.836	80.6758
905.347	202.492
909.856	93.1894
914.363	96.7109
918.867	142.652
923.368	242.344
927.867	108.48
932.363	197.001
936.856	163.605
941.347	136.757
945.836	27.3125
950.322	28.25
954.805	34.0654
959.286	66.0596
963.764	7.47949
968.239	32.8057
972.712	101.659
977.183	65.9805
981.65	65.3389
986.116	165.248
990.578	3.04492
995.038	69.6543
999.496	198.074
1003.95	223.691
1008.4	2.45312
1012.85	148.914
1017.3	305.609
1021.75	74.1894
1026.19	111.791
1030.63	240.435
1035.06	114.268
1039.5	158.248
1043.93	174.701
1048.36	126.789
1052.79	57.0566
1057.21	268.352
1061.63	403.887
1066.05	119.258
1070.47	348.031
1074.88	288.264
1079.29	155.834
1083.7	128.559
1088.11	250.176
1092.51	122.115
1096.91	113.527
1101.31	242.398
1105.7	286.137
1110.1	348.588
1114.49	173.67
1118.88	273.387
1123.26	205.684
1127.64	315.455
1132.02	211.264
1136.4	127.092
1140.78	74.9902
1145.15	259.205
1149.52	154.559
1153.89	149.287
1158.25	119.367
1162.61	158.133
1166.97	106.725
1171.33	51.2773
1175.68	234.326
1180.04	183.443
1184.39	55.8965
1188.73	92.8477
1193.08	105.156
1197.42	96.9668
1201.76	175.24
1206.1	107.49
1210.43	282.244
1214.76	130.863
1219.09	23.6855
1223.41	93.6231
1227.74	89.168
1232.06	8.33008
1236.38	298.297
1240.69	218.469
1245.01	96.9922
1249.32	54.998
1253.63	70.3418
1257.93	177.772
1262.23	130.537
1266.54	10.0762
1270.83	196.412
1275.13	146.897
1279.42	118.549
1283.71	45.541
1288	184.906
1292.28	376.228
1296.57	448.977
1300.85	214.465
1305.12	334.148
1309.4	530.883
1313.67	316.32
1317.94	566.949
1322.21	922.682
1326.47	5911.97
1330.73	35215
1334.99	16397
1339.25	1595.45
1343.5	537.008
1347.75	412.658
1352	375.156
1356.25	185.574
1360.49	176.541
1364.73	110.584
1368.97	214.647
1373.21	173.172
1377.44	42.2598
1381.67	89.6934
1385.9	127.564
1390.13	85.6582
1394.35	60.7812
1398.57	70.0742
1402.79	84.1641
1407	88.2832
1411.22	38.209
1415.43	148.301
1419.63	204.223
1423.84	71.9902
1428.04	349.603
1432.24	151.32
1436.44	318.609
1440.63	725.856
1444.83	511.055
1449.02	470.338
1453.2	533.617
1457.39	527.875
1461.57	485.137
1465.75	545.535
1469.93	417.195
1474.1	281.869
1478.27	182.211
1482.44	23.6523
1486.61	97.0215
1490.77	42.6172
1494.93	255.492
1499.09	290.185
1503.25	102.65
1507.4	210.498
1511.55	179.236
1515.7	105.82
1519.85	13.6094
1523.99	421.201
1528.13	198.512
1532.27	227.295
1536.4	395.908
1540.54	431.902
1544.67	115.397
1548.8	278.127
1552.92	54.4512
1557.05	294.91
1561.16	321.789
1565.28	0
