Measurement: Raman, 514 nm, depolarized, Raman Data Processed
Mineral: Diamond
Rruff sample: R050206
Ideal chemistry: C
Locality: Unknown
Source: Eric Van Valkenburg
Description: Single crystal, type IIA
Pin_id: L01807
Orientation: Laser parallel to a* (1 0 0). Fiducial mark perpendicular to laser is parallel to c [0 0 1]
Raman shift (cm-1)	intensity
114.44	0
119.365	4.84277
124.288	78.9255
129.209	142.49
134.127	162.67
139.043	167.319
143.956	115.948
148.867	102.854
153.775	150.573
158.681	164.683
163.585	82.8999
168.486	80.0478
173.385	167.004
178.282	142.7
183.176	195.098
188.067	159.201
192.956	204.554
197.843	144.141
202.727	153.981
207.609	80.2195
212.489	158.739
217.366	122.545
222.24	230.638
227.112	148.027
231.982	157.787
236.849	65.8769
241.714	159.253
246.577	175.078
251.437	167.327
256.294	83.5544
261.149	59.9036
266.002	174.491
270.852	170.819
275.7	185.453
280.545	159.999
285.388	130.971
290.229	136.527
295.067	51.29
299.902	83.2908
304.735	97.4705
309.566	29.8823
314.394	82.5078
319.22	68.3438
324.043	48.3796
328.864	89.603
333.682	90.9998
338.498	144.624
343.311	4.43799
348.122	142.734
352.931	110.815
357.737	82.0454
362.54	49.8845
367.341	105.177
372.14	105.815
376.936	99.5725
381.73	106.438
386.521	51.5386
391.31	39.6352
396.096	34.8132
400.88	67.0615
405.661	52.3967
410.44	35.1262
415.216	5.45483
419.99	24.148
424.761	80.9363
429.53	27.9954
434.297	49.9824
439.061	36.0681
443.822	9.22021
448.581	38.6711
453.337	6.04102
458.091	49.5342
462.843	105.444
467.592	50.7122
472.338	11.2141
477.082	22.1875
481.824	7.9353
486.563	4.13599
491.3	83.3579
496.034	79.3215
500.765	4.87158
505.494	38.2468
510.221	32.3455
514.945	26.3892
519.666	27.5759
524.385	104.466
529.102	22.0137
533.816	82.2383
538.527	51.6018
543.236	43.6912
547.943	19.1848
552.647	81.4575
557.348	86.4673
562.047	38.2874
566.744	16.0408
571.438	41.6738
576.129	79.7729
580.818	14.7188
585.504	76.3745
590.188	61.5999
594.87	61.2302
599.549	67.0337
604.225	7.82617
608.899	45.6301
613.57	60.4282
618.239	31.2021
622.905	45.4307
627.569	48.4475
632.23	130.92
636.889	94.6226
641.545	12.8706
646.198	55.5923
650.849	12.4534
655.498	43.2842
660.144	60.0461
664.787	70.8308
669.428	28.4631
674.067	38.229
678.703	90.0466
683.336	4.91016
687.967	82.855
692.595	30.8606
697.221	122.907
701.844	6.98389
706.465	70.0796
711.083	25.0386
715.698	48.7852
720.311	28.3435
724.922	103.552
729.53	18.53
734.135	40.6746
738.738	64.4055
743.338	96.1304
747.936	33.8098
752.531	26.1992
757.124	144.233
761.714	67.4739
766.302	81.5769
770.887	73.9963
775.469	145.337
780.049	21.9949
784.626	105.356
789.201	45.1475
793.773	248.339
798.343	96.7869
802.91	112.293
807.475	184.51
812.037	121.41
816.596	114.93
821.153	100.216
825.707	37.7437
830.259	27.3013
834.808	151.762
839.355	56.2595
843.899	49.8152
848.441	86.4375
852.98	74.0671
857.516	10.6843
862.05	45.3245
866.581	36.5137
871.11	59.5718
875.636	27.2395
880.159	12.9397
884.68	64.6477
889.199	54.3882
893.714	45.1316
898.228	118.949
902.738	36.7856
907.246	125.635
911.752	15.4751
916.255	52.397
920.755	3.7168
925.253	71.1826
929.748	67.0769
934.241	10
938.731	104.936
943.218	52.9097
947.703	105.848
952.186	107.772
956.665	40.3782
961.142	107.322
965.617	79.971
970.089	111.756
974.558	91.4058
979.025	33.603
983.489	86.2444
987.951	90.8799
992.41	94.4888
996.866	64.1128
1001.32	68.75
1005.77	88.3982
1010.22	85.8074
1014.67	30.7581
1019.11	47.6626
1023.55	78.9163
1027.99	152.468
1032.42	37.5642
1036.86	34.0762
1041.29	138.641
1045.72	146.032
1050.14	31.5632
1054.56	99.0356
1058.98	197.483
1063.4	118.357
1067.82	67.6316
1072.23	87.0745
1076.64	96.5073
1081.05	120.515
1085.45	60.2285
1089.85	116.942
1094.25	13.1104
1098.65	129.508
1103.04	108.171
1107.43	5.47656
1111.82	126.856
1116.21	96.186
1120.59	90.5171
1124.97	65.8496
1129.35	71.1831
1133.73	90.5093
1138.1	66.5977
1142.47	42.9751
1146.84	29.3657
1151.21	36.7329
1155.57	65.1152
1159.93	36.5791
1164.29	148
1168.64	39.4268
1172.99	140.859
1177.34	96.2695
1181.69	50.6777
1186.04	68.0791
1190.38	86.4629
1194.72	41.1309
1199.05	55.1934
1203.39	70.5273
1207.72	152.877
1212.05	49.2422
1216.37	35.5918
1220.7	1.01904
1225.02	91.5195
1229.34	42.3706
1233.65	55.4824
1237.97	47.5059
1242.28	81.1035
1246.59	23.7236
1250.89	84.3682
1255.19	53.0361
1259.49	96.7739
1263.79	84.6021
1268.09	112.377
1272.38	127.119
1276.67	50.9477
1280.95	57.54
1285.24	29.0645
1289.52	145.032
1293.8	97.1875
1298.08	169.215
1302.35	119.809
1306.62	234.891
1310.89	322.527
1315.15	383.674
1319.42	716.856
1323.68	1968.37
1327.94	16907.2
1332.19	59946.5
1336.44	11006.8
1340.69	1516.2
1344.94	586.298
1349.19	314.722
1353.43	274.205
1357.67	173.727
1361.9	138.953
1366.14	93.4849
1370.37	124.974
1374.6	94.4907
1378.83	8.05957
1383.05	11.6157
1387.27	83.4697
1391.49	47.3603
1395.7	62.9062
1399.92	92.79
1404.13	94.5239
1408.34	20.4297
1412.54	62.9893
1416.74	14.5396
1420.94	78.186
1425.14	21.9507
1429.34	65.7417
1433.53	103.538
1437.72	166.723
1441.9	182.024
1446.09	119.2
1450.27	135.923
1454.45	39.1782
1458.63	39.5542
1462.8	111.026
1466.97	76.5688
1471.14	159.195
1475.31	64.9033
1479.47	94.6938
1483.63	74.3291
1487.79	144.739
1491.94	61.7886
1496.09	75.9683
1500.24	1.31934
1504.39	49.7022
1508.54	3.91748
1512.68	66.5352
1516.82	2.97461
1520.95	6.35596
1525.09	88.6284
1529.22	37.9526
1533.35	138.214
1537.47	23.0703
1541.6	128.666
1545.72	17.9224
1549.83	67.1553
1553.95	92.8418
1558.06	35.8193
1562.17	8.5542
1566.28	94.2334
1570.38	0
