Measurement: Raman, 514 nm, depolarized, Raman Data Processed
Mineral: Diamond
Rruff sample: R050205
Ideal chemistry: C
Locality: Unknown
Source: Eric Van Valkenburg
Description: Single crystal, type IIA
Pin_id: L00376
Orientation: Laser parallel to a* (1 0 0). Fiducial mark perpendicular to laser is parallel to c [0 0 1]
Raman shift (cm-1)	intensity
114.44	0
119.365	1.11914
124.288	65.6187
129.209	4.77539
134.127	74.4353
139.043	64.4226
143.956	78.0652
148.867	62.968
153.775	29.8931
158.681	74.6204
163.585	42.981
168.486	70.8816
173.385	122.265
178.282	76.0967
183.176	111.337
188.067	76.0222
192.956	120.934
197.843	157.952
202.727	100.119
207.609	86.4834
212.489	149.043
217.366	92.8025
222.24	114.76
227.112	124.951
231.982	91.4023
236.849	171.035
241.714	125.851
246.577	53.8452
251.437	102.008
256.294	113.643
261.149	133.263
266.002	97.1643
270.852	54.9727
275.7	97.519
280.545	111.578
285.388	89.3401
290.229	132.111
295.067	63.7842
299.902	35.1548
304.735	178.696
309.566	78.395
314.394	12.2417
319.22	38.2266
324.043	81.3428
328.864	64.5835
333.682	46.9431
338.498	43.8184
343.311	8.40381
348.122	100.096
352.931	64.9133
357.737	41.842
362.54	44.0117
367.341	21.1531
372.14	38.4058
376.936	36.7239
381.73	64.1313
386.521	57.6287
391.31	34.7864
396.096	32.5483
400.88	45.1907
405.661	43.9756
410.44	31.3909
415.216	19.231
419.99	25.0056
424.761	83.1699
429.53	52.4253
434.297	19.7705
439.061	15.2197
443.822	36.0725
448.581	21.761
453.337	79.4775
458.091	44.2673
462.843	38.1277
467.592	20.0579
472.338	46.0596
477.082	14.8694
481.824	77.208
486.563	51.3406
491.3	75.9526
496.034	48.1851
500.765	72.5066
505.494	38.8799
510.221	47.3027
514.945	40.7761
519.666	71.2993
524.385	101.871
529.102	98.8225
533.816	92.4441
538.527	70.1721
543.236	62.8665
547.943	58.1577
552.647	5.20874
557.348	8.58862
562.047	25.0249
566.744	51.6929
571.438	35.5486
576.129	50.3142
580.818	53.2461
585.504	87.0745
590.188	125.306
594.87	34.1802
599.549	43.0815
604.225	36.0859
608.899	90.0725
613.57	55.4851
618.239	43.7681
622.905	42.1885
627.569	29.2356
632.23	16.648
636.889	56.4587
641.545	44.5654
646.198	32.5513
650.849	48.6836
655.498	54.8179
660.144	71.9951
664.787	74.7383
669.428	54.3862
674.067	82.0374
678.703	13.3235
683.336	95.603
687.967	46.3608
692.595	62.1692
697.221	93.4419
701.844	45.7991
706.465	59.8594
711.083	62.4143
715.698	30.8457
720.311	17.2131
724.922	4.43506
729.53	113.575
734.135	74.9397
738.738	35.3306
743.338	48.687
747.936	68.1138
752.531	47.5395
757.124	15.5498
761.714	20.6167
766.302	34.8257
770.887	61.9043
775.469	49.365
780.049	73.853
784.626	39.4126
789.201	113.935
793.773	66.4665
798.343	59.0066
802.91	123.556
807.475	65.9382
812.037	10.9443
816.596	41.6033
821.153	12.2019
825.707	86.8547
830.259	109.561
834.808	78.3081
839.355	32.0703
843.899	3.02393
848.441	142.622
852.98	52.0442
857.516	49.3809
862.05	28.0398
866.581	62.4998
871.11	71.2615
875.636	27.4097
880.159	112.243
884.68	78.9497
889.199	4.25757
893.714	2.96362
898.228	26.1821
902.738	54.5371
907.246	100.27
911.752	72.0012
916.255	57.3127
920.755	40.2568
925.253	20.0115
929.748	25.7676
934.241	11.5344
938.731	40.3115
943.218	86.0952
947.703	3.16602
952.186	73.6042
956.665	16.033
961.142	27.8245
965.617	65.6274
970.089	144.437
974.558	57.2495
979.025	77.2107
983.489	8.81201
987.951	98.9321
992.41	88.7334
996.866	61.5342
1001.32	19.3379
1005.77	142.144
1010.22	111.083
1014.67	8.72144
1019.11	43.4739
1023.55	16.1562
1027.99	51.2285
1032.42	119.745
1036.86	101.518
1041.29	55.2642
1045.72	20.9544
1050.14	86.7817
1054.56	72.4644
1058.98	51.1951
1063.4	43.9299
1067.82	71.6343
1072.23	50.4319
1076.64	73.0217
1081.05	123.64
1085.45	20.3628
1089.85	45.1206
1094.25	48.6633
1098.65	61.6101
1103.04	59.9446
1107.43	54.7036
1111.82	17.7236
1116.21	50.3486
1120.59	40.1184
1124.97	79.8962
1129.35	58.9749
1133.73	62.4783
1138.1	29.2834
1142.47	116.547
1146.84	3.41797
1151.21	88.5232
1155.57	75.2388
1159.93	15.1687
1164.29	24.1218
1168.64	49.97
1172.99	76.52
1177.34	5.12744
1181.69	57.759
1186.04	38.8196
1190.38	120.879
1194.72	48.9587
1199.05	0.966309
1203.39	15.1174
1207.72	57.2253
1212.05	18.6668
1216.37	48.3972
1220.7	62.8281
1225.02	62.928
1229.34	6.0332
1233.65	55.1475
1237.97	50.2864
1242.28	53.2664
1246.59	87.4863
1250.89	16.7439
1255.19	62.0295
1259.49	32.344
1263.79	24.6909
1268.09	39.0686
1272.38	48.0054
1276.67	5.4707
1280.95	136.454
1285.24	62.9775
1289.52	23.0837
1293.8	58.2388
1298.08	50.1526
1302.35	45.0523
1306.62	120.795
1310.89	125.844
1315.15	265.71
1319.42	469.558
1323.68	977.419
1327.94	4590.29
1332.19	52449.2
1336.44	12292.2
1340.69	1524.29
1344.94	494.76
1349.19	286.841
1353.43	262.171
1357.67	146.178
1361.9	122.976
1366.14	103.194
1370.37	46.5825
1374.6	20.8611
1378.83	129.139
1383.05	62.4541
1387.27	58.8628
1391.49	42.4216
1395.7	67.865
1399.92	66.2835
1404.13	80.7341
1408.34	30.1929
1412.54	93.6807
1416.74	12.6665
1420.94	92.9111
1425.14	117.882
1429.34	28.0303
1433.53	29.8013
1437.72	9.33545
1441.9	71.521
1446.09	37.2827
1450.27	97.3699
1454.45	108.158
1458.63	62.0952
1462.8	47.1384
1466.97	4.71265
1471.14	67.5129
1475.31	77.8098
1479.47	108.186
1483.63	70.636
1487.79	34.4265
1491.94	7.69775
1496.09	37.5754
1500.24	102.537
1504.39	116.373
1508.54	48.6626
1512.68	76.198
1516.82	54.7827
1520.95	106.625
1525.09	68.0752
1529.22	80.9124
1533.35	57.0625
1537.47	169.012
1541.6	132.834
1545.72	112.528
1549.83	68.5491
1553.95	113.357
1558.06	125.173
1562.17	34.7488
1566.28	20.0427
1570.38	0
