Measurement: Raman, 514 nm, depolarized, Raman Data Processed
Mineral: Diamond
Rruff sample: R050207
Ideal chemistry: C
Locality: Unknown
Source: Eric Van Valkenburg
Description: Single crystal,  type I
Pin_id: L01129
Orientation: Laser parallel to a* (1 0 0). Fiducial mark perpendicular to laser is parallel to c [0 0 1]
Raman shift (cm-1)	intensity
114.44	0
119.365	29.424
124.288	17.2541
129.209	14.3364
134.127	13.7269
139.043	32.5731
143.956	33.6649
148.867	13.944
153.775	24.2803
158.681	17.8135
163.585	44.5937
168.486	45.1548
173.385	21.1578
178.282	23.2553
183.176	39.4106
188.067	5.66333
192.956	23.0659
197.843	26.3108
202.727	58.6462
207.609	55.4448
212.489	20.9047
217.366	8.32251
222.24	7.19684
227.112	36.084
231.982	33.4338
236.849	30.8
241.714	40.747
246.577	6.12964
251.437	59.6254
256.294	18.1354
261.149	26.4985
266.002	8.50775
270.852	41.7263
275.7	24.0365
280.545	31.3633
285.388	45.7999
290.229	52.6727
295.067	27.328
299.902	17.8538
304.735	35.4
309.566	6.05151
314.394	24.5146
319.22	36.0828
324.043	11.6603
328.864	20.2018
333.682	37.7926
338.498	43.3844
343.311	22.9728
348.122	46.567
352.931	39.1521
357.737	42.7355
362.54	50.3126
367.341	0.163818
372.14	54.7477
376.936	46.3281
381.73	33.9139
386.521	0.504395
391.31	46.4554
396.096	30.88
400.88	1.86462
405.661	30.42
410.44	11.901
415.216	3.48755
419.99	47.0848
424.761	32.6711
429.53	15.7548
434.297	63.7769
439.061	22.3742
443.822	27.9022
448.581	32.4359
453.337	51.642
458.091	41.1858
462.843	34.6898
467.592	69.2447
472.338	22.7231
477.082	34.3008
481.824	35.1769
486.563	74.7592
491.3	35.3439
496.034	37.9464
500.765	34.5566
505.494	31.7296
510.221	59.2894
514.945	35.6185
519.666	42.2637
524.385	21.9126
529.102	5.52991
533.816	24.4069
538.527	34.6825
543.236	19.2745
547.943	15.8865
552.647	21.5044
557.348	19.0637
562.047	39.691
566.744	24.3818
571.438	61.4021
576.129	22.2601
580.818	3.74768
585.504	15.3871
590.188	54.3871
594.87	21.0395
599.549	38.2014
604.225	50.8706
608.899	22.5576
613.57	24.8904
618.239	28.9724
622.905	15.6804
627.569	36.9152
632.23	26.1191
636.889	14.0259
641.545	44.7612
646.198	64.5314
650.849	11.199
655.498	42.6051
660.144	57.3949
664.787	27.1851
669.428	19.5972
674.067	26.3965
678.703	32.3633
683.336	32.769
687.967	26.6207
692.595	14.5448
697.221	55.2589
701.844	36.0633
706.465	42.8826
711.083	19.7178
715.698	27.5736
720.311	46.7135
724.922	16.5721
729.53	61.4209
734.135	0.828125
738.738	28.127
743.338	95.5123
747.936	9.6499
752.531	26.3035
757.124	35.0848
761.714	32.8636
766.302	8.63965
770.887	17.5859
775.469	40.1466
780.049	56.9438
784.626	33.6736
789.201	29.2034
793.773	52.4667
798.343	27.1305
802.91	28.7876
807.475	15.4396
812.037	95.0901
816.596	61.7574
821.153	52.4141
825.707	52.0662
830.259	55.8273
834.808	33.4762
839.355	35.119
843.899	18.2006
848.441	37.8905
852.98	44.5107
857.516	63.1317
862.05	60.7467
866.581	34.9982
871.11	5.51123
875.636	28.6948
880.159	0.276978
884.68	23.8285
889.199	79.3486
893.714	24.8843
898.228	13.4123
902.738	48.933
907.246	71.4673
911.752	37.0275
916.255	34.5347
920.755	1.15039
925.253	63.2819
929.748	58.6835
934.241	27.0795
938.731	30.4699
943.218	62.8579
947.703	23.2477
952.186	44.7295
956.665	30.1112
961.142	47.473
965.617	37.4893
970.089	43.8765
974.558	16.3651
979.025	0.735107
983.489	5.08899
987.951	54.4371
992.41	49.7805
996.866	46.1208
1001.32	38.4624
1005.77	29.1968
1010.22	34.5356
1014.67	25.1327
1019.11	73.4652
1023.55	61.8117
1027.99	18.1549
1032.42	22.496
1036.86	21.8334
1041.29	11.3406
1045.72	41.0185
1050.14	69.9126
1054.56	27.0011
1058.98	46.473
1063.4	48.8148
1067.82	16.2716
1072.23	40.5015
1076.64	35.385
1081.05	24.186
1085.45	26.5234
1089.85	39.9626
1094.25	82.5729
1098.65	19.8583
1103.04	1.18335
1107.43	38.5072
1111.82	28.5175
1116.21	47.8451
1120.59	25.1766
1124.97	74.6864
1129.35	35.0269
1133.73	0.372681
1138.1	62.7179
1142.47	60.0629
1146.84	30.4204
1151.21	31.793
1155.57	24.1741
1159.93	33.5647
1164.29	29.9647
1168.64	8.37854
1172.99	53.6228
1177.34	14.9966
1181.69	4.13037
1186.04	15.9825
1190.38	49.4299
1194.72	17.9062
1199.05	18.397
1203.39	0.866577
1207.72	25.4094
1212.05	21.9097
1216.37	19.6931
1220.7	5.78137
1225.02	39.2711
1229.34	78.1401
1233.65	82.6263
1237.97	4.90344
1242.28	42.6576
1246.59	15.2423
1250.89	31.8477
1255.19	35.4731
1259.49	14.1293
1263.79	17.9093
1268.09	20.2424
1272.38	70.9685
1276.67	49.7203
1280.95	43.5273
1285.24	66.3507
1289.52	95.3635
1293.8	68.1544
1298.08	174.094
1302.35	192.843
1306.62	165.466
1310.89	312.836
1315.15	453.867
1319.42	885.926
1323.68	2580.05
1327.94	20869.1
1332.19	57315.2
1336.44	11678.9
1340.69	1739.63
1344.94	609.785
1349.19	368.023
1353.43	250.191
1357.67	165.547
1361.9	122.896
1366.14	96.1321
1370.37	72.5512
1374.6	48.99
1378.83	22.4175
1383.05	21.5426
1387.27	56.1393
1391.49	90.7296
1395.7	80.3066
1399.92	67.9919
1404.13	66.6503
1408.34	56.6461
1412.54	3.63611
1416.74	16.1188
1420.94	0.911743
1425.14	20.2405
1429.34	65.3699
1433.53	64.1981
1437.72	71.6544
1441.9	37.2419
1446.09	12.3516
1450.27	18.4911
1454.45	0.661255
1458.63	65.2854
1462.8	62.3485
1466.97	24.4722
1471.14	39.6565
1475.31	10.9038
1479.47	18.1982
1483.63	20.3159
1487.79	26.7044
1491.94	36.0715
1496.09	39.3754
1500.24	71.3242
1504.39	53.6539
1508.54	71.0137
1512.68	47.3866
1516.82	26.8388
1520.95	41.3578
1525.09	36.5812
1529.22	19.1166
1533.35	62.6578
1537.47	56.6212
1541.6	66.9329
1545.72	51.3763
1549.83	85.6886
1553.95	68.4013
1558.06	3.69275
1562.17	47.0168
1566.28	0.539673
1570.38	0
