Measurement: Raman, 514 nm, depolarized, Raman Data Processed
Mineral: Diaspore
Rruff sample: R060546
Ideal chemistry: AlO(OH)
Locality: Turkey
Source: Gemological Institute of America
Description: Platy transparent pale yellow fragment
Measured chemistry: (Al_0.99_Fe^3+^_0.01_)_Î£=1_O(OH) ; OH estimated by difference; Fe^3+^ by charge balance
Pin_id: L01871
Orientation: Laser parallel to a* (1 0 0). Fiducial mark perpendicular to laser is parallel to b [0 1 0]
Raman shift (cm-1)	intensity
132.898	0
137.814	148.359
142.728	568.886
147.639	2129.93
152.549	4056.53
157.455	4513.15
162.359	887.37
167.261	313.592
172.161	69.8965
177.058	139.316
181.952	282.633
186.845	253.532
191.734	113.624
196.622	133.887
201.507	273.897
206.389	121.244
211.269	31.1348
216.147	50.6699
221.022	71.9551
225.895	96.6113
230.765	17.3848
235.633	83.8594
240.498	86.7559
245.361	78.0391
250.222	115.352
255.08	65.7441
259.936	286.965
264.789	5.03125
269.64	18.2031
274.488	162.562
279.334	486.088
284.178	1190.03
289.019	1977.88
293.857	922.643
298.693	252.945
303.527	16.4043
308.358	75.3809
313.187	121.272
318.013	503.291
322.837	1734.37
327.659	3427.14
332.478	4381.92
337.294	2088.86
342.108	398.586
346.92	146.535
351.729	73.7559
356.535	217.238
361.34	620.252
366.141	1306.63
370.94	1267.58
375.737	290.721
380.531	204.31
385.323	182.014
390.113	588.666
394.9	768.299
399.684	588.986
404.466	130.297
409.245	174.375
414.022	207.957
418.797	336.223
423.569	501.654
428.338	717.029
433.105	1463.61
437.87	6633.37
442.632	20593.3
447.391	34018.8
452.149	25777.6
456.903	4872.59
461.655	1669.34
466.405	782.283
471.152	424.416
475.897	370.758
480.639	422.307
485.378	499.078
490.116	1672.07
494.85	3879.3
499.582	5568.74
504.312	2412.43
509.039	421.371
513.764	205.635
518.486	17.7578
523.206	77.1953
527.923	178.172
532.638	10.3086
537.35	116.248
542.059	112.875
546.766	261.26
551.471	493.848
556.173	474.445
560.873	179.312
565.57	163.389
570.264	158.703
574.957	499.315
579.646	821.193
584.333	797.838
589.018	295.398
593.7	384.277
598.379	619.43
603.056	1148.89
607.73	1663.59
612.402	1225.62
617.072	856.262
621.739	409.25
626.403	408.562
631.065	384.111
635.724	314.033
640.381	577.391
645.035	754.031
649.687	1213.9
654.336	2030.98
658.983	4126.94
663.627	6373.17
668.268	6347.17
672.907	4127.42
677.544	2041.71
682.178	995.783
686.809	548.021
691.438	297.158
696.065	297.566
700.688	409.981
705.31	465.611
709.929	48.6387
714.545	418.16
719.158	3.51562
723.77	100.412
728.378	264.231
732.984	288.715
737.588	45.541
742.189	85.7656
746.787	159.231
751.383	378.959
755.976	225.82
760.567	342.248
765.155	445.127
769.741	648.051
774.324	763.236
778.904	1431.29
783.482	2448.93
788.058	3845.19
792.631	4621.51
797.201	3582.88
801.769	1960.54
806.334	1152.36
810.897	751.791
815.457	523.256
820.014	328.113
824.569	158.769
829.122	422.406
833.671	15.9141
838.219	179.912
842.763	114.531
847.306	286.004
851.845	77.4062
856.382	111.666
860.917	156.35
865.448	76.3047
869.978	145.209
874.505	170.065
879.029	45.8223
883.55	93.4219
888.069	150.049
892.586	6.33984
897.1	191.166
901.611	11.5605
906.12	153.074
910.626	200.074
915.129	193.488
919.63	409.043
924.129	291.607
928.625	42.1875
933.118	39.209
937.609	131.305
942.097	74.7832
946.582	301.264
951.065	129.764
955.546	117.195
960.023	27.3789
964.499	232.99
968.971	58.6367
973.441	252.924
977.909	477.273
982.374	525.779
986.836	366.766
991.295	539.822
995.753	422.346
1000.21	592.289
1004.66	823.021
1009.11	640.693
1013.55	580.793
1018	612.816
1022.44	400.185
1026.88	497.598
1031.32	291.785
1035.75	474.785
1040.18	520.027
1044.61	884.023
1049.04	656.285
1053.46	569.41
1057.88	328.203
1062.3	334.227
1066.71	435.609
1071.13	290.996
1075.54	444.055
1079.94	357.066
1084.35	363.332
1088.75	83.5273
1093.15	137.68
1097.55	274.43
1101.94	316.582
1106.34	332.34
1110.73	274.394
1115.11	198.836
1119.5	1027.57
1123.88	1128.09
1128.26	425.414
1132.63	133.84
1137.01	216.035
1141.38	36.457
1145.75	392.144
1150.12	85.4492
1154.48	257.387
1158.84	204.812
1163.2	165.613
1167.55	281.059
1171.91	593.606
1176.26	548.473
1180.61	1116.75
1184.95	2438.28
1189.29	4561.06
1193.63	6149.07
1197.97	4606.33
1202.31	1835.85
1206.64	1017.63
1210.97	457.629
1215.29	413.844
1219.62	216.324
1223.94	242.031
1228.26	156.981
1232.57	251.555
1236.89	248.953
1241.2	315.531
1245.51	181.277
1249.81	242.191
1254.12	7.26562
1258.42	101.055
1262.72	285.035
1267.01	286.789
1271.3	93.8047
1275.59	239.035
1279.88	304.957
1284.17	61.4336
1288.45	321.449
1292.73	17.4453
1297.01	299.68
1301.28	83.7148
1305.55	265.742
1309.82	330.668
1314.09	195.609
1318.35	197.539
1322.61	276.504
1326.87	275.445
1331.13	397.434
1335.38	296.469
1339.63	403.531
1343.88	263.555
1348.12	160.574
1352.37	48.6055
1356.61	237.055
1360.85	456.082
1365.08	158.75
1369.31	122.438
1373.54	97.2617
1377.77	307.672
1381.99	225.414
1386.22	77.9688
1390.43	29.5195
1394.65	321.098
1398.87	58.9336
1403.08	99.1484
1407.29	136.469
1411.49	233.652
1415.69	220.191
1419.89	327.199
1424.09	437.676
1428.29	41.2188
1432.48	133.574
1436.67	239.836
1440.86	341.508
1445.04	209.426
1449.23	249.848
1453.4	88.6914
1457.58	343.461
1461.76	384.25
1465.93	316.723
1470.1	289.894
1474.26	205.043
1478.43	338.051
1482.59	116.102
1486.75	270.602
1490.9	345.231
1495.06	242.941
1499.21	156.285
1503.35	71.9023
1507.5	264.707
1511.64	21.543
1515.78	147.398
1519.92	3.97266
1524.05	87.6992
1528.18	327
1532.31	123.281
1536.44	155.519
1540.56	429.496
1544.69	371.117
1548.8	300.856
1552.92	241.438
1557.03	323.227
1561.14	178.652
1565.25	279.606
1569.36	288.273
