Measurement: Raman, 514 nm, depolarized, Raman Data Processed
Mineral: Diaspore
Rruff sample: R060287
Ideal chemistry: AlO(OH)
Locality: Selcuk, Mugla Province, Turkey
Source: Herb Obodda
Description: Colorless transparent platy fragment
Measured chemistry: (Al_0.99_Fe^3+^_0.01_)_Î£=1_O(OH) ; trace amounts of Ti;  OH estimated by difference ; Fe^3+^ by charge balance
Pin_id: L01505
Orientation: Laser parallel to b* (0 1 0). Fiducial mark perpendicular to laser is parallel to c [0 0 1]
Raman shift (cm-1)	intensity
132.898	0
137.814	1.89014
142.728	150.853
147.639	365.398
152.549	1520.03
157.455	10424.2
162.359	1651.28
167.261	488.415
172.161	301.996
177.058	279.549
181.952	279.894
186.845	355.202
191.734	393.772
196.622	379.371
201.507	341.758
206.389	217.563
211.269	246.818
216.147	140.74
221.022	76.2126
225.895	12.0796
230.765	27.2051
235.633	26.4651
240.498	5.31787
245.361	98.1724
250.222	31.0835
255.08	3.1106
259.936	100.467
264.789	75.6201
269.64	86.6528
274.488	100.735
279.334	229.803
284.178	191.451
289.019	339.931
293.857	327.559
298.693	362.068
303.527	461.35
308.358	527.317
313.187	536.803
318.013	734.891
322.837	1164.68
327.659	2731.14
332.478	12471
337.294	6643.71
342.108	1455.6
346.92	682.498
351.729	464.383
356.535	364.799
361.34	351.441
366.141	188.19
370.94	143.101
375.737	177.877
380.531	48.415
385.323	101.089
390.113	76.3169
394.9	136.944
399.684	136.72
404.466	101.522
409.245	233.523
414.022	207.346
418.797	320.205
423.569	432.099
428.338	595.981
433.105	874.823
437.87	1906.62
442.632	4827.38
447.391	25286.1
452.149	39848.8
456.903	5804.47
461.655	2202.13
466.405	1326.78
471.152	1042.44
475.897	811.115
480.639	555.818
485.378	557.572
490.116	597.383
494.85	878.25
499.582	3389.18
504.312	1766.16
509.039	390.206
513.764	230.323
518.486	175.542
523.206	93.8823
527.923	11.6997
532.638	24.7412
537.35	12.7417
542.059	93.0566
546.766	4.2334
551.471	256.58
556.173	745.112
560.873	167.853
565.57	18.894
570.264	153.14
574.957	144.545
579.646	224.169
584.333	284.928
589.018	362.786
593.7	403.733
598.379	405.771
603.056	608.897
607.73	821.113
612.402	924.42
617.072	636.817
621.739	624.302
626.403	563.876
631.065	576.536
635.724	472.283
640.381	542.113
645.035	554.027
649.687	558.022
654.336	807.097
658.983	1297.25
663.627	2758.48
668.268	4100.97
672.907	2493.77
677.544	1286.78
682.178	466.711
686.809	211.783
691.438	62.2993
696.065	128.604
700.688	115.525
705.31	161.051
709.929	145.316
714.545	139.12
719.158	255.843
723.77	266.312
728.378	435.694
732.984	317.063
737.588	491.437
742.189	523.816
746.787	479.201
751.383	448.589
755.976	587.977
760.567	470.363
765.155	544.744
769.741	559.116
774.324	447.477
778.904	446.824
783.482	530.155
788.058	559.467
792.631	390.757
797.201	255.023
801.769	275.264
806.334	187.54
810.897	133.93
815.457	11.3501
820.014	75.8721
824.569	12.3711
829.122	14.2622
833.671	31.8159
838.219	43.4907
842.763	14.0645
847.306	28.8862
851.845	30.1328
856.382	75.2881
860.917	33.8818
865.448	96.1235
869.978	251.108
874.505	172.513
879.029	280.81
883.55	392.147
888.069	496.43
892.586	391.647
897.1	425.797
901.611	544.882
906.12	477.133
910.626	424.866
915.129	530.768
919.63	551.61
924.129	443.394
928.625	432.121
933.118	408.789
937.609	367.401
942.097	452.959
946.582	324.457
951.065	210.924
955.546	225.929
960.023	182.191
964.499	69.3174
968.971	40.7261
973.441	82.0059
977.909	0.521973
982.374	34.2876
986.836	12.5752
991.295	70.5889
995.753	93.2334
1000.21	41.7978
1004.66	255.906
1009.11	83.1934
1013.55	223.403
1018	249.054
1022.44	230.875
1026.88	461.697
1031.32	377.531
1035.75	473.526
1040.18	506.629
1044.61	564.79
1049.04	1055.97
1053.46	794.175
1057.88	627.404
1062.3	532.661
1066.71	513.949
1071.13	493.267
1075.54	531.62
1079.94	444.008
1084.35	405.453
1088.75	389.986
1093.15	371.635
1097.55	213.402
1101.94	249.318
1106.34	141.514
1110.73	194.536
1115.11	122.065
1119.5	181.211
1123.88	209.617
1128.26	60.271
1132.63	7.75439
1137.01	2.74902
1141.38	114.875
1145.75	14.6899
1150.12	38.1958
1154.48	126.747
1158.84	208.435
1163.2	233.134
1167.55	181.606
1171.91	248.068
1176.26	269.114
1180.61	451.409
1184.95	551.85
1189.29	1137.34
1193.63	1194.87
1197.97	691.455
1202.31	530.083
1206.64	534.759
1210.97	689.482
1215.29	607.251
1219.62	436.065
1223.94	487.922
1228.26	422.822
1232.57	271.761
1236.89	346.737
1241.2	315.753
1245.51	215.801
1249.81	324.875
1254.12	157.06
1258.42	47.3242
1262.72	110.523
1267.01	51.6841
1271.3	29.8789
1275.59	104.524
1279.88	68.0132
1284.17	64.3506
1288.45	42.5303
1292.73	9.8125
1297.01	60.293
1301.28	66.8013
1305.55	93.8721
1309.82	240.478
1314.09	265.28
1318.35	275.098
1322.61	234.934
1326.87	244.776
1331.13	356.633
1335.38	287.503
1339.63	442.388
1343.88	343.287
1348.12	484.199
1352.37	454.122
1356.61	445.057
1360.85	436.006
1365.08	382.968
1369.31	430.867
1373.54	336.663
1377.77	308.363
1381.99	330.553
1386.22	304.675
1390.43	297.789
1394.65	114.681
1398.87	191.109
1403.08	148.435
1407.29	169.751
1411.49	78.9902
1415.69	115.12
1419.89	17.4199
1424.09	13.8076
1428.29	101.421
1432.48	86.4502
1436.67	106.614
1440.86	190.93
1445.04	170.183
1449.23	151.543
1453.4	342.703
1457.58	276.868
1461.76	140.035
1465.93	236.201
1470.1	349.363
1474.26	329.522
1478.43	452.696
1482.59	449.935
1486.75	527.252
1490.9	443.643
1495.06	425.894
1499.21	414.232
1503.35	447.5
1507.5	334.369
1511.64	268
1515.78	549.389
1519.92	382.432
1524.05	309.04
1528.18	285.085
1532.31	394.364
1536.44	264.699
1540.56	218.511
1544.69	248.129
1548.8	149.393
1552.92	236.066
1557.03	104.52
1561.14	75.2207
1565.25	7.80566
1569.36	53.3594
