Measurement: Raman, 514 nm, depolarized, Raman Data Processed
Mineral: Diaspore
Rruff sample: R060287
Ideal chemistry: AlO(OH)
Locality: Selcuk, Mugla Province, Turkey
Source: Herb Obodda
Description: Colorless transparent platy fragment
Measured chemistry: (Al_0.99_Fe^3+^_0.01_)_Î£=1_O(OH) ; trace amounts of Ti;  OH estimated by difference ; Fe^3+^ by charge balance
Pin_id: L01646
Orientation: Laser parallel to -c* (0 0 -1). Fiducial mark perpendicular to laser is parallel to a [1 0 0]
Raman shift (cm-1)	intensity
114.44	0
119.365	105.639
124.288	136.91
129.209	271.052
134.127	838.608
139.043	2466.97
143.956	3943.37
148.867	4176.29
153.775	8796.58
158.681	6520.37
163.585	891.877
168.486	197.814
173.385	110.885
178.282	205.874
183.176	19.1055
188.067	64.041
192.956	113.733
197.843	197.363
202.727	70.5981
207.609	134.395
212.489	3.74268
217.366	61.6397
222.24	40.7725
227.112	45.293
231.982	11.1416
236.849	4.68848
241.714	91.792
246.577	52.5693
251.437	76.5767
256.294	31.5376
261.149	211.439
266.002	15.334
270.852	44.125
275.7	135.801
280.545	592.038
285.388	1297.67
290.229	1296.59
295.067	503.709
299.902	109.898
304.735	124.225
309.566	118.7
314.394	315.325
319.22	1069.1
324.043	4220.78
328.864	9467.02
333.682	9999.44
338.498	2992
343.311	624.737
348.122	231.681
352.931	73.8247
357.737	57.0498
362.54	163.567
367.341	116.263
372.14	18.1314
376.936	117.891
381.73	119.893
386.521	192.41
391.31	566.481
396.096	653.877
400.88	290.594
405.661	101.017
410.44	214.976
415.216	116.712
419.99	301.325
424.761	560.394
429.53	1065.24
434.297	2524.22
439.061	11403.3
443.822	30537.5
448.581	51883.8
453.337	23636.3
458.091	4100.87
462.843	1606.56
467.592	865.367
472.338	487.703
477.082	388.396
481.824	238.616
486.563	244.967
491.3	387.449
496.034	618.059
500.765	768.799
505.494	294.667
510.221	65.6602
514.945	167.777
519.666	86.0278
524.385	26.4785
529.102	55.0918
533.816	36.1743
538.527	63.4404
543.236	0.105957
547.943	1.55127
552.647	103.003
557.348	92.4004
562.047	48.8355
566.744	16.3042
571.438	42.8975
576.129	383.613
580.818	700.476
585.504	549.436
590.188	178.512
594.87	218.722
599.549	571.047
604.225	987.534
608.899	1324.15
613.57	990.932
618.239	592.835
622.905	394.859
627.569	393.004
632.23	465.329
636.889	518.809
641.545	620.401
646.198	744.081
650.849	1110.86
655.498	1522.72
660.144	2783.67
664.787	3980.71
669.428	3439.82
674.067	1912.7
678.703	861.153
683.336	452.005
687.967	240.232
692.595	158.723
697.221	117.058
701.844	132.912
706.465	75.4795
711.083	181.436
715.698	114.194
720.311	115.309
724.922	56.6963
729.53	85.3721
734.135	145.695
738.738	89.1064
743.338	165.769
747.936	136.62
752.531	228.51
757.124	188.098
761.714	198.91
766.302	457.515
770.887	435.672
775.469	834.123
780.049	1377.86
784.626	2192.47
789.201	3629.47
793.773	4013.25
798.343	2668.23
802.91	1450.02
807.475	879.82
812.037	581.705
816.596	313.578
821.153	214.347
825.707	257.225
830.259	228.922
834.808	143.343
839.355	69.7627
843.899	116.242
848.441	189.634
852.98	183.942
857.516	71.1719
862.05	125.376
866.581	136.504
871.11	9.55664
875.636	8.47949
880.159	135.346
884.68	9.04199
889.199	113.59
893.714	66.0693
898.228	79.4287
902.738	28.7109
907.246	65.7363
911.752	120.622
916.255	19.4482
920.755	7.66113
925.253	130.938
929.748	17.6182
934.241	88.2402
938.731	167.867
943.218	94.4053
947.703	146.16
952.186	97.3887
956.665	74.7266
961.142	80.2051
965.617	221.596
970.089	215.051
974.558	17.7441
979.025	72.4541
983.489	145.169
987.951	221.194
992.41	173.966
996.866	150.525
1001.32	171.852
1005.77	62.3838
1010.22	201.197
1014.67	140.791
1019.11	310.946
1023.55	48.5732
1027.99	208.32
1032.42	44.9863
1036.86	213.606
1041.29	74.3535
1045.72	156.579
1050.14	243.498
1054.56	106.534
1058.98	118.644
1063.4	75.708
1067.82	262.786
1072.23	121.019
1076.64	207.295
1081.05	248.609
1085.45	705.473
1089.85	258.882
1094.25	120.288
1098.65	52.1152
1103.04	105.431
1107.43	22.0244
1111.82	74.7148
1116.21	251.478
1120.59	382.092
1124.97	444.163
1129.35	308.565
1133.73	85.7344
1138.1	38.4658
1142.47	75.4375
1146.84	115.949
1151.21	150.786
1155.57	86.5752
1159.93	66.2227
1164.29	251.423
1168.64	308.489
1172.99	356.685
1177.34	626.775
1181.69	1211.46
1186.04	2440.84
1190.38	5101.49
1194.72	6598.21
1199.05	3946.63
1203.39	1446.45
1207.72	751.398
1212.05	409.162
1216.37	311.294
1220.7	276.603
1225.02	191.009
1229.34	42.1162
1233.65	251.76
1237.97	167.477
1242.28	163.255
1246.59	72.9062
1250.89	16.6123
1255.19	25.1084
1259.49	166.89
1263.79	41.6953
1268.09	71.8574
1272.38	82.7481
1276.67	67.6357
1280.95	96.3066
1285.24	147.901
1289.52	69.8682
1293.8	45.7227
1298.08	41.6074
1302.35	1.51562
1306.62	0.59375
1310.89	100.324
1315.15	148.208
1319.42	129.095
1323.68	188.009
1327.94	135.923
1332.19	130.466
1336.44	59.8115
1340.69	146.792
1344.94	335.79
1349.19	176.805
1353.43	142.838
1357.67	133.856
1361.9	112.55
1366.14	161.567
1370.37	171.573
1374.6	181.799
1378.83	88.3379
1383.05	54.0742
1387.27	87.7754
1391.49	16.167
1395.7	162.889
1399.92	178.186
1404.13	10.7109
1408.34	89.2129
1412.54	159.322
1416.74	211.695
1420.94	222.752
1425.14	43.0654
1429.34	55.8935
1433.53	162.512
1437.72	125.641
1441.9	255.041
1446.09	347.631
1450.27	106.574
1454.45	180.188
1458.63	246.422
1462.8	179.653
1466.97	113.564
1471.14	86.7363
1475.31	6.95019
1479.47	122.295
1483.63	53.1016
1487.79	27.1631
1491.94	109.418
1496.09	4.15723
1500.24	155.428
1504.39	60.0723
1508.54	147.822
1512.68	144.691
1516.82	220.69
1520.95	202.769
1525.09	40.9102
1529.22	196.254
1533.35	61.29
1537.47	115.805
1541.6	50.8672
1545.72	194.525
1549.83	3.7334
1553.95	162.846
1558.06	4.40723
1562.17	174.502
1566.28	113.947
1570.38	155.657
