Measurement: Raman, 514 nm, depolarized, Raman Data Processed
Mineral: Diaspore
Rruff sample: R060287
Ideal chemistry: AlO(OH)
Locality: Selcuk, Mugla Province, Turkey
Source: Herb Obodda
Description: Colorless transparent platy fragment
Measured chemistry: (Al_0.99_Fe^3+^_0.01_)_Î£=1_O(OH) ; trace amounts of Ti;  OH estimated by difference ; Fe^3+^ by charge balance
Pin_id: L01658
Orientation: Laser parallel to a* (1 0 0). Fiducial mark perpendicular to laser is parallel to b [0 1 0]
Raman shift (cm-1)	intensity
114.44	0
119.365	51.8105
124.288	18.8227
129.209	88.0952
134.127	200.662
139.043	331.957
143.956	1264.24
148.867	2910.84
153.775	8014.24
158.681	6977.6
163.585	823.681
168.486	282.027
173.385	293.815
178.282	199.819
183.176	277.76
188.067	203.213
192.956	281.921
197.843	306.244
202.727	267.902
207.609	230.198
212.489	229.851
217.366	193.695
222.24	120.666
227.112	75.1875
231.982	141.189
236.849	145.616
241.714	101.414
246.577	66.5713
251.437	35.5889
256.294	170.747
261.149	328.711
266.002	21.0811
270.852	26.2295
275.7	70.208
280.545	160.585
285.388	95.0098
290.229	234.933
295.067	22.249
299.902	48.1201
304.735	136.322
309.566	132.434
314.394	67.21
319.22	181.932
324.043	1285.75
328.864	3237.67
333.682	3505.73
338.498	1218.81
343.311	275.684
348.122	294.637
352.931	246.789
357.737	494.803
362.54	1574.63
367.341	3305.6
372.14	2173.83
376.936	488.876
381.73	243.443
386.521	262.521
391.31	74.0674
396.096	316.962
400.88	261.433
405.661	190.353
410.44	183.929
415.216	306.944
419.99	341.926
424.761	491.719
429.53	978.422
434.297	2187.65
439.061	9566.03
443.822	29008.3
448.581	53102.7
453.337	27555.5
458.091	4914.14
462.843	1964.03
467.592	1040.94
472.338	683.113
477.082	582.565
481.824	533.298
486.563	917.32
491.3	3632.64
496.034	9137.27
500.765	10635.2
505.494	2877.45
510.221	496.018
514.945	123.911
519.666	31.0947
524.385	91.5703
529.102	118.536
533.816	38.3359
538.527	1.54394
543.236	47.5029
547.943	23.7529
552.647	44.541
557.348	175.934
562.047	100.769
566.744	127.175
571.438	418.114
576.129	654.597
580.818	530.562
585.504	331.932
590.188	383.862
594.87	613.428
599.549	1400.55
604.225	2723.17
608.899	4232.19
613.57	3463.58
618.239	1805.33
622.905	943.435
627.569	662.947
632.23	623.847
636.889	711.062
641.545	699.565
646.198	1244.35
650.849	2051.41
655.498	4197.74
660.144	8639.76
664.787	13127.8
669.428	12251.2
674.067	6831.62
678.703	3570.72
683.336	1786.94
687.967	1208.41
692.595	1109.65
697.221	729.562
701.844	736.964
706.465	713.848
711.083	579.826
715.698	664.053
720.311	580.763
724.922	513.654
729.53	520.328
734.135	667.727
738.738	410.935
743.338	563.39
747.936	471.112
752.531	458.92
757.124	384.42
761.714	261.448
766.302	220.83
770.887	496.338
775.469	508.05
780.049	564.769
784.626	591.49
789.201	760.204
793.773	711.902
798.343	501.611
802.91	214.417
807.475	329.695
812.037	189.014
816.596	224.497
821.153	87.9473
825.707	6.67773
830.259	88.1699
834.808	48.7022
839.355	11.8164
843.899	36.292
848.441	123.973
852.98	90.1387
857.516	14.9834
862.05	49.4082
866.581	121.804
871.11	82.7451
875.636	244.422
880.159	29.0322
884.68	201.222
889.199	12.2725
893.714	192.14
898.228	102.75
902.738	11.3828
907.246	128.123
911.752	201.062
916.255	243.913
920.755	200.477
925.253	97.3584
929.748	75.9561
934.241	145.475
938.731	19.915
943.218	178.297
947.703	8.56934
952.186	178.751
956.665	177.855
961.142	67.2607
965.617	136.755
970.089	146.565
974.558	226.285
979.025	264.923
983.489	194.614
987.951	182.452
992.41	205.781
996.866	205.093
1001.32	238.454
1005.77	314.164
1010.22	555.217
1014.67	481.348
1019.11	462.019
1023.55	314.397
1027.99	212.34
1032.42	351.365
1036.86	244.523
1041.29	322.203
1045.72	620.377
1050.14	611.779
1054.56	50.3066
1058.98	86.957
1063.4	304.74
1067.82	208.66
1072.23	321.592
1076.64	197.795
1081.05	396.891
1085.45	288.389
1089.85	308.043
1094.25	293.9
1098.65	165.195
1103.04	36.6914
1107.43	50.6875
1111.82	204.264
1116.21	253.545
1120.59	542.107
1124.97	338.139
1129.35	306.856
1133.73	89.7578
1138.1	107.545
1142.47	13.1348
1146.84	156.43
1151.21	106.984
1155.57	165.748
1159.93	136.82
1164.29	131.17
1168.64	417.435
1172.99	291.102
1177.34	626.676
1181.69	996.812
1186.04	2544.09
1190.38	4463.49
1194.72	2642.03
1199.05	1175.71
1203.39	621.51
1207.72	311.414
1212.05	174.469
1216.37	18.6543
1220.7	222.955
1225.02	118.375
1229.34	135.906
1233.65	45.4453
1237.97	201.26
1242.28	163.094
1246.59	76.0156
1250.89	138.008
1255.19	51.9473
1259.49	98.0742
1263.79	63.1465
1268.09	47.2793
1272.38	110.818
1276.67	209.523
1280.95	1.14844
1285.24	9.625
1289.52	86.2422
1293.8	63.7402
1298.08	142.947
1302.35	73.168
1306.62	44.2363
1310.89	48.5449
1315.15	91.8711
1319.42	316.225
1323.68	285.617
1327.94	169.012
1332.19	146.414
1336.44	45.8262
1340.69	293.242
1344.94	268.658
1349.19	219.074
1353.43	258.486
1357.67	166.894
1361.9	111.289
1366.14	139.959
1370.37	102.853
1374.6	177.018
1378.83	206.303
1383.05	169.844
1387.27	149.998
1391.49	126.766
1395.7	47.6309
1399.92	6.85156
1404.13	170.416
1408.34	261.428
1412.54	39.873
1416.74	57.3828
1420.94	55.1621
1425.14	201.994
1429.34	175.397
1433.53	278.705
1437.72	220.842
1441.9	146.252
1446.09	243.619
1450.27	302.695
1454.45	213.025
1458.63	323.318
1462.8	274.57
1466.97	281.781
1471.14	230.941
1475.31	55.0625
1479.47	215.219
1483.63	85.457
1487.79	227.162
1491.94	254.904
1496.09	221.051
1500.24	204.293
1504.39	101.148
1508.54	253.344
1512.68	223.5
1516.82	222.731
1520.95	239.049
1525.09	41.4941
1529.22	91.0957
1533.35	125.541
1537.47	329.486
1541.6	280.217
1545.72	111.846
1549.83	321.606
1553.95	325.973
1558.06	77.1231
1562.17	277.047
1566.28	37.8008
1570.38	222.602
