Measurement: Raman, 514 nm, depolarized, Raman Data Processed
Mineral: Diaspore
Rruff sample: R060546
Ideal chemistry: AlO(OH)
Locality: Turkey
Source: Gemological Institute of America
Description: Platy transparent pale yellow fragment
Measured chemistry: (Al_0.99_Fe^3+^_0.01_)_Î£=1_O(OH) ; OH estimated by difference; Fe^3+^ by charge balance
Pin_id: L01029
Orientation: Laser parallel to b* (0 1 0). Fiducial mark perpendicular to laser is parallel to c [0 0 1]
Raman shift (cm-1)	intensity
132.898	0
137.814	76.374
142.728	122.292
147.639	404.954
152.549	1332.76
157.455	10429.3
162.359	1293.41
167.261	159.869
172.161	32.0034
177.058	5.12744
181.952	15.8843
186.845	95.0649
191.734	70.9871
196.622	89.0874
201.507	111.076
206.389	162.722
211.269	97.9597
216.147	205.971
221.022	167.832
225.895	230.596
230.765	207.226
235.633	243.738
240.498	200.228
245.361	246.695
250.222	235.726
255.08	260.381
259.936	541.043
264.789	368.082
269.64	333.653
274.488	286.152
279.334	266.726
284.178	277.842
289.019	319.551
293.857	317.465
298.693	301.501
303.527	293.628
308.358	284.818
313.187	350.219
318.013	402.715
322.837	872.706
327.659	2533.27
332.478	12005.4
337.294	6209.98
342.108	1120.56
346.92	352.091
351.729	112.57
356.535	84.0068
361.34	17.6233
366.141	27.5689
370.94	28.325
375.737	17.6423
380.531	56.4048
385.323	108.039
390.113	54.6143
394.9	21.0266
399.684	68.0159
404.466	112.722
409.245	137.34
414.022	96.115
418.797	205.435
423.569	269.01
428.338	497.604
433.105	937.208
437.87	1858.82
442.632	5021.47
447.391	24778.6
452.149	41070.1
456.903	6034.11
461.655	2175.76
466.405	1164.37
471.152	980.969
475.897	804.585
480.639	638.19
485.378	646.784
490.116	668.369
494.85	1109.95
499.582	3435.52
504.312	1938.71
509.039	623.868
513.764	520.009
518.486	469.541
523.206	389.09
527.923	329.885
532.638	305.153
537.35	270.428
542.059	286.278
546.766	316.095
551.471	354.008
556.173	891.997
560.873	308.193
565.57	114.603
570.264	94.1421
574.957	38.6387
579.646	62.6929
584.333	30.6196
589.018	4.62793
593.7	46.0693
598.379	35.3535
603.056	111.804
607.73	325.301
612.402	257.845
617.072	162.435
621.739	89.0698
626.403	172.751
631.065	92.478
635.724	147.249
640.381	156.065
645.035	246.98
649.687	459.076
654.336	730.232
658.983	1435.62
663.627	2791.19
668.268	4084.88
672.907	2790.63
677.544	1476.57
682.178	751.718
686.809	576.89
691.438	464.804
696.065	453.902
700.688	422.912
705.31	559.201
709.929	541.418
714.545	524.983
719.158	445.502
723.77	549.517
728.378	531.894
732.984	532.94
737.588	594.848
742.189	563.74
746.787	470.588
751.383	417.566
755.976	435.446
760.567	490.298
765.155	413.122
769.741	406.915
774.324	388.675
778.904	427.398
783.482	339.084
788.058	300.725
792.631	288.32
797.201	279.873
801.769	153.498
806.334	155.174
810.897	20.8291
815.457	68.4302
820.014	39.0283
824.569	11.2876
829.122	11.5073
833.671	55.3955
838.219	2.23828
842.763	5.69189
847.306	100.141
851.845	16.6455
856.382	53.2026
860.917	94.5161
865.448	49.794
869.978	137.121
874.505	115.418
879.029	99.6333
883.55	167.102
888.069	146.804
892.586	162.76
897.1	128.629
901.611	192.413
906.12	238.109
910.626	210.721
915.129	375.25
919.63	351.696
924.129	355.062
928.625	483.348
933.118	461.023
937.609	505.797
942.097	466.709
946.582	472.547
951.065	536.193
955.546	555.662
960.023	510.438
964.499	536.507
968.971	492.188
973.441	464.067
977.909	449.632
982.374	492.169
986.836	477.761
991.295	475.722
995.753	483.87
1000.21	559.929
1004.66	663.018
1009.11	429.949
1013.55	361.964
1018	290.793
1022.44	404.901
1026.88	327.826
1031.32	361.723
1035.75	317.595
1040.18	188.465
1044.61	290.422
1049.04	537.465
1053.46	330.528
1057.88	51.5762
1062.3	59.6108
1066.71	65.4033
1071.13	18.7246
1075.54	43.7959
1079.94	89.2769
1084.35	11.7451
1088.75	96.2222
1093.15	55.7612
1097.55	92.2456
1101.94	72.7275
1106.34	29.2822
1110.73	16.9546
1115.11	285.714
1119.5	263.613
1123.88	297.618
1128.26	83.7554
1132.63	299.937
1137.01	231.141
1141.38	147.371
1145.75	138.627
1150.12	204.91
1154.48	373.221
1158.84	286.562
1163.2	331.935
1167.55	472.34
1171.91	464.78
1176.26	533.886
1180.61	451.779
1184.95	755.305
1189.29	1260.86
1193.63	1130.44
1197.97	760.312
1202.31	545.76
1206.64	513.891
1210.97	484.171
1215.29	356.504
1219.62	353.324
1223.94	458.721
1228.26	395.234
1232.57	298.014
1236.89	347.932
1241.2	223.996
1245.51	208.108
1249.81	188.268
1254.12	197.475
1258.42	214.728
1262.72	253.028
1267.01	199.374
1271.3	141.769
1275.59	140.212
1279.88	176.705
1284.17	104.248
1288.45	42.8428
1292.73	12.4941
1297.01	39.229
1301.28	35.9673
1305.55	58.5352
1309.82	12.0098
1314.09	2.51904
1318.35	12.0825
1322.61	72.6812
1326.87	30.6553
1331.13	50.145
1335.38	17.9961
1339.63	22.896
1343.88	15.8452
1348.12	55.7627
1352.37	113.897
1356.61	85.0518
1360.85	181.307
1365.08	65.6646
1369.31	87.0806
1373.54	191.549
1377.77	278.068
1381.99	174.644
1386.22	291.282
1390.43	257.985
1394.65	278.828
1398.87	241.683
1403.08	337.621
1407.29	371.298
1411.49	335.774
1415.69	407.13
1419.89	319.156
1424.09	468.16
1428.29	395.329
1432.48	503.078
1436.67	554.144
1440.86	591.81
1445.04	763.577
1449.23	614.937
1453.4	591.708
1457.58	721.34
1461.76	635.305
1465.93	557.731
1470.1	436.533
1474.26	475.808
1478.43	416.454
1482.59	313.168
1486.75	369.944
1490.9	152.774
1495.06	176.648
1499.21	186.466
1503.35	121.568
1507.5	92.0566
1511.64	88.6724
1515.78	40.7251
1519.92	59.9414
1524.05	86.0727
1528.18	102.222
1532.31	85.7729
1536.44	86.8345
1540.56	77.5508
1544.69	57.0244
1548.8	36.0205
1552.92	38.3779
1557.03	67.167
1561.14	126.019
1565.25	126.227
1569.36	53.7368
