Measurement: Raman, 514 nm, depolarized, Raman Data Processed
Mineral: Diaspore
Rruff sample: R060546
Ideal chemistry: AlO(OH)
Locality: Turkey
Source: Gemological Institute of America
Description: Platy transparent pale yellow fragment
Measured chemistry: (Al_0.99_Fe^3+^_0.01_)_Î£=1_O(OH) ; OH estimated by difference; Fe^3+^ by charge balance
Pin_id: L01635
Orientation: Laser parallel to c* (0 0 1). Fiducial mark perpendicular to laser is parallel to a [1 0 0]
Raman shift (cm-1)	intensity
132.898	0
137.814	41.6704
142.728	562.289
147.639	2722.54
152.549	7752.15
157.455	8440.05
162.359	1841.75
167.261	246.261
172.161	20.0574
177.058	7.64453
181.952	4.55444
186.845	79.6794
191.734	48.4358
196.622	43.0374
201.507	87.8867
206.389	72.9319
211.269	48.6331
216.147	6.20874
221.022	14.491
225.895	12.4844
230.765	35.6113
235.633	78.2615
240.498	80.8542
245.361	11.125
250.222	23.7485
255.08	0.597656
259.936	188.273
264.789	1.46753
269.64	66.9053
274.488	19.2822
279.334	243.461
284.178	828.59
289.019	1807.09
293.857	975.425
298.693	157.448
303.527	108.85
308.358	182.133
313.187	267.881
318.013	753.227
322.837	2916.38
327.659	7137.2
332.478	11299.9
337.294	5407.2
342.108	1084.67
346.92	393.998
351.729	226.436
356.535	72.9026
361.34	126.353
366.141	109.102
370.94	150.289
375.737	120.981
380.531	52.6182
385.323	119.136
390.113	314.781
394.9	853.02
399.684	436.127
404.466	240.397
409.245	174.938
414.022	278.801
418.797	375.295
423.569	584.195
428.338	943.24
433.105	1973.05
437.87	6852.8
442.632	23532.5
447.391	57635.2
452.149	41943.8
456.903	7994.48
461.655	2404.09
466.405	1312.7
471.152	802.316
475.897	458.956
480.639	333.617
485.378	263.303
490.116	376.018
494.85	680.789
499.582	1038.6
504.312	477.457
509.039	75.4177
513.764	14.5403
518.486	26.4595
523.206	48.5015
527.923	0.804932
532.638	39.7383
537.35	52.6926
542.059	33.3257
546.766	115.004
551.471	192.407
556.173	224.859
560.873	97.3782
565.57	37.0474
570.264	74.6252
574.957	278.227
579.646	605.425
584.333	914.169
589.018	337.684
593.7	360.77
598.379	647.702
603.056	1030.73
607.73	1638.89
612.402	1405.14
617.072	788.457
621.739	446.88
626.403	437.418
631.065	370.74
635.724	402.78
640.381	436.582
645.035	708.466
649.687	970.421
654.336	1471.36
658.983	2548.9
663.627	4370.56
668.268	4456.81
672.907	2866.88
677.544	1257.32
682.178	601.027
686.809	389.939
691.438	141.986
696.065	103.188
700.688	60.543
705.31	33.811
709.929	55.3955
714.545	11.8872
719.158	29.3682
723.77	49.7476
728.378	57.1611
732.984	94.1431
737.588	66.2017
742.189	163.998
746.787	88.3936
751.383	201.714
755.976	170.06
760.567	292.136
765.155	349.089
769.741	562.794
774.324	797.365
778.904	1334.47
783.482	2327.14
788.058	3771.82
792.631	4686.75
797.201	3704.26
801.769	2143.55
806.334	1175.14
810.897	670.312
815.457	362.518
820.014	346.515
824.569	265.085
829.122	123.534
833.671	92.6733
838.219	71.4868
842.763	40.2398
847.306	126.52
851.845	84.8545
856.382	119.033
860.917	150.879
865.448	146.229
869.978	28.4092
874.505	64.7681
879.029	63.9912
883.55	29.0552
888.069	91.0449
892.586	11.0171
897.1	80.7729
901.611	9.43018
906.12	51.9824
910.626	134.479
915.129	121.879
919.63	43.2105
924.129	62.4741
928.625	72.772
933.118	69.8398
937.609	80.8154
942.097	58.2915
946.582	5.35352
951.065	9.90576
955.546	71.0889
960.023	21.7969
964.499	51.1733
968.971	85.1387
973.441	38.7685
977.909	40.7349
982.374	79.5615
986.836	89.7324
991.295	97.375
995.753	165.418
1000.21	150.435
1004.66	247.396
1009.11	175.299
1013.55	101.486
1018	115.096
1022.44	183.829
1026.88	77.3106
1031.32	168.502
1035.75	219.553
1040.18	150.12
1044.61	104.727
1049.04	268.843
1053.46	177.441
1057.88	58.0347
1062.3	95.416
1066.71	72.2739
1071.13	87.5176
1075.54	167.238
1079.94	169.945
1084.35	129.794
1088.75	71.3101
1093.15	123.112
1097.55	69.249
1101.94	144.8
1106.34	53.2075
1110.73	49.3789
1115.11	107.606
1119.5	261.285
1123.88	208.428
1128.26	207.414
1132.63	58.4609
1137.01	38.5903
1141.38	75.7886
1145.75	83.1064
1150.12	120.539
1154.48	62.0474
1158.84	220.631
1163.2	225.347
1167.55	266.381
1171.91	342.282
1176.26	674.807
1180.61	1059.68
1184.95	2296.82
1189.29	4971.04
1193.63	7611.2
1197.97	5796.59
1202.31	2228.46
1206.64	977.024
1210.97	570.826
1215.29	252.618
1219.62	259.589
1223.94	126.654
1228.26	44.562
1232.57	62.873
1236.89	128.218
1241.2	71.7173
1245.51	4.48438
1249.81	150.679
1254.12	158.427
1258.42	124.609
1262.72	46.271
1267.01	197.213
1271.3	80.168
1275.59	139.154
1279.88	122.993
1284.17	55.1055
1288.45	105.196
1292.73	42.4922
1297.01	36.6006
1301.28	86.7295
1305.55	53.8784
1309.82	221.067
1314.09	189.191
1318.35	140.33
1322.61	137.484
1326.87	71.6489
1331.13	42.814
1335.38	32.064
1339.63	16.0303
1343.88	51.1162
1348.12	91.2036
1352.37	41.1645
1356.61	84.1128
1360.85	105.055
1365.08	39.9893
1369.31	99.9526
1373.54	19.7764
1377.77	81.1397
1381.99	0.105957
1386.22	63.5317
1390.43	114.193
1394.65	52.7622
1398.87	123.281
1403.08	94.8657
1407.29	26.3369
1411.49	1.77978
1415.69	12.1641
1419.89	85.3144
1424.09	106.986
1428.29	106.665
1432.48	7.79394
1436.67	34.918
1440.86	253.744
1445.04	219.348
1449.23	303.528
1453.4	367.356
1457.58	334.181
1461.76	243.139
1465.93	192.108
1470.1	193.053
1474.26	280.469
1478.43	138.252
1482.59	88.1416
1486.75	171.762
1490.9	28.5234
1495.06	75.6001
1499.21	1.19531
1503.35	13.9375
1507.5	75.4746
1511.64	41.9312
1515.78	77.3242
1519.92	83.7593
1524.05	66.9668
1528.18	84.7432
1532.31	142.661
1536.44	114.995
1540.56	42.5815
1544.69	43.7358
1548.8	8.07861
1552.92	88.2866
1557.03	93.3452
1561.14	65.2856
1565.25	52.1304
1569.36	0.445313
