Measurement: Raman, 514 nm, depolarized, Raman Data Processed
Mineral: Diopside
Rruff sample: R050496
Ideal chemistry: CaMgSi_2_O_6_
Locality: New City Quarry, Riverside, Riverside County, Calfornia, USA
Source: California Institute of Technology
Description: Aggregate of light green irregular grains
Measured chemistry: Ca(Mg_0.66_Fe_0.33_Mn_0.01_)(Si_0.95_Al_0.05_)_2_O_6_
Pin_id: M01827
Orientation: Laser parallel to a* (1 0 0). Fiducial mark perpendicular to laser is parallel to -b [0 -1 0]
Raman shift (cm-1)	intensity
108.114	0
113.052	170.988
117.987	825.495
122.919	647.9
127.849	934.195
132.777	2097.62
137.702	3986.54
142.624	3045.8
147.544	1113.7
152.461	427.101
157.375	255.343
162.287	251.8
167.197	456.618
172.104	489.812
177.008	756.779
181.91	816.125
186.809	739.46
191.706	856.414
196.6	1028.1
201.491	1053.69
206.38	684.447
211.267	702.779
216.151	657.168
221.032	909.614
225.911	983.05
230.787	1283.34
235.66	935.442
240.531	467.304
245.4	347.882
250.266	353.13
255.129	204.936
259.99	227.664
264.848	27.7593
269.703	123.423
274.556	161.88
279.407	135.166
284.255	69.5
289.1	219.108
293.942	516.732
298.783	926.25
303.62	1585.85
308.455	2582.9
313.288	4569.69
318.117	7436.3
322.945	8698.7
327.769	6826.84
332.591	4644.44
337.411	3160.04
342.228	2481.16
347.042	2343.57
351.854	2586.31
356.663	2406.36
361.47	2123.68
366.274	2288.25
371.075	2629.05
375.874	3754.06
380.67	6316.26
385.464	10161.6
390.255	10253.1
395.043	6050.79
399.829	2655.57
404.613	1098.66
409.393	483.432
414.172	439.133
418.947	225.622
423.72	187.482
428.49	93.9473
433.258	72.0698
438.024	77.835
442.786	73.0361
447.546	46.3882
452.304	14.4902
457.059	80.814
461.811	254.347
466.56	219.724
471.308	238.111
476.052	232.746
480.794	261.821
485.533	299.352
490.27	372.719
495.004	496.9
499.736	776.881
504.465	1077.65
509.191	1326.63
513.915	1326.49
518.636	1493.53
523.354	1784.32
528.07	1929.85
532.784	1758.12
537.494	1487.16
542.203	1297.9
546.908	1275.32
551.611	1126.41
556.311	1161.26
561.009	1199.05
565.704	1065.81
570.397	1045.39
575.087	793.587
579.774	608.749
584.459	438.597
589.141	94.897
593.821	26.1665
598.498	134.47
603.172	0.896973
607.844	56.1548
612.513	121.089
617.18	18.5649
621.844	267.033
626.505	317.575
631.164	531.862
635.82	657.691
640.473	975.063
645.124	1469.98
649.773	2470.44
654.418	4127.46
659.062	8041.02
663.702	13488.8
668.34	12496.5
672.975	7096.84
677.608	3763.66
682.238	2207.04
686.866	1461.01
691.49	901.551
696.113	766.688
700.732	624.111
705.349	535.418
709.964	322.316
714.576	218.845
719.185	220.079
723.792	153.112
728.396	3.11914
732.997	73.7104
737.596	1.69385
742.192	16.5601
746.785	36.7119
751.376	87.4844
755.965	74.8735
760.551	32.1846
765.134	138.81
769.714	127.657
774.292	130.374
778.867	94.5312
783.44	162.478
788.01	136.899
792.578	38.2515
797.142	17.5527
801.705	2.28613
806.264	10.9692
810.821	26.1338
815.376	69.1743
819.927	201.245
824.476	172.361
829.023	93.5386
833.567	66.2075
838.108	55.9253
842.647	40.5986
847.183	123.798
851.716	502.327
856.247	710.005
860.776	627.116
865.301	315.182
869.824	224.516
874.345	147.708
878.862	98.4194
883.377	126.921
887.89	98.2031
892.4	51.8579
896.907	196.583
901.412	105.865
905.914	154.61
910.413	221.714
914.91	222.309
919.404	230.299
923.896	350.654
928.385	326.483
932.871	345.812
937.355	160.539
941.836	242.998
946.315	255.777
950.79	430.885
955.264	480.421
959.734	593.952
964.202	688.744
968.668	781.823
973.131	850.729
977.591	923.871
982.048	1077.67
986.503	1451.06
990.955	2008.84
995.405	3187.02
999.852	5607.66
1004.3	10491.8
1008.74	18776.4
1013.18	23690.4
1017.61	14087.9
1022.05	5939.87
1026.48	3528.88
1030.91	2761.98
1035.33	2480.83
1039.76	2411.53
1044.18	2314.79
1048.6	1631.78
1053.01	1304.22
1057.42	1045.32
1061.84	767.195
1066.24	560.628
1070.65	596.299
1075.05	457.379
1079.45	518.49
1083.85	435.192
1088.24	302.008
1092.63	357.896
1097.02	381.022
1101.41	279.301
1105.8	377.532
1110.18	137.065
1114.56	193.606
1118.93	256.244
1123.31	321.882
1127.68	313.36
1132.04	190.538
1136.41	188.473
1140.77	143.214
1145.13	87.8794
1149.49	55.9863
1153.85	11.5903
1158.2	93.2065
1162.55	98.0562
1166.9	43.1816
1171.24	33.0161
1175.58	63.627
1179.92	99.2212
1184.26	17.8926
1188.6	46.5347
1192.93	22.4273
1197.26	27.7314
1201.58	18.9609
1205.9	64.7324
1210.23	127.664
1214.55	156.47
1218.86	45.5508
1223.17	66.3779
1227.48	44.4912
1231.79	123.748
1236.1	48.1562
1240.4	72.0186
1244.7	109.054
1249	110.908
1253.29	98.5757
1257.59	84.0117
1261.88	118.23
1266.16	149.24
1270.45	156.058
1274.73	222.679
1279.01	197.094
1283.28	93.3423
1287.56	72.3716
1291.83	78.1768
1296.1	79.2314
1300.36	45.5347
1304.63	140.601
1308.89	187.187
1313.15	49.0645
1317.4	138.749
1321.65	143.866
1325.9	149.084
1330.15	216.648
1334.4	188.523
1338.64	94.2876
1342.88	55.5259
1347.12	101.676
1351.35	151.822
1355.58	114.701
1359.81	32.5508
1364.04	252.38
1368.26	212.105
1372.48	192.777
1376.7	190.517
1380.92	212.767
1385.13	207.353
1389.34	116.128
1393.55	152.083
1397.76	112.392
1401.96	167.365
1406.16	147.121
1410.36	180.184
1414.55	19.5747
1418.75	91.8608
1422.94	163.947
1427.12	112.92
1431.31	66.5264
1435.49	66.5786
1439.67	190.418
1443.85	102.535
1448.02	63.9629
1452.19	97.1694
1456.36	125.894
1460.53	152.922
1464.69	50.1626
1468.85	139.552
1473.01	144.046
1477.17	47.6777
1481.32	99.3833
1485.47	120.272
1489.62	199.309
1493.76	134.522
1497.91	95.8545
1502.05	178.291
1506.18	172.769
1510.32	151.589
1514.45	166.06
1518.58	4.92871
1522.71	55.2217
1526.83	253.44
1530.95	126.693
1535.07	36.9424
1539.19	238.136
1543.3	117.062
1547.41	53.6865
1551.52	195.329
1555.63	379.599
1559.73	170.636
1563.83	9.63281
1567.93	49.5713
1572.03	2.24414
1576.12	9.46094
