Measurement: Raman, 514 nm, depolarized, Raman Data Processed
Mineral: Diopside
Rruff sample: R070123
Ideal chemistry: CaMgSi_2_O_6_
Locality: Yates mine, Otter Lake, Huddersfield Township, Pontiac County, Québec, Canada
Source: Michael Scott
Description: Black prismatic crystals associated with orange calcite
Measured chemistry: (Ca_0.95_Na_0.04_Mn_0.01_)_Σ=1_(Mg_0.63_Fe_0.33_Al_0.04_)_Σ=1_Si_2.00_O_6_
Pin_id: M01164
Orientation: Laser parallel to c* (0 0 1). Fiducial mark perpendicular to laser is parallel to a [1 0 0]
Raman shift (cm-1)	intensity
117.295	0
122.247	1.31738
127.196	39.3203
132.143	95.6148
137.086	270.915
142.026	309.188
146.963	136.017
151.898	206.158
156.829	195.349
161.758	324.371
166.683	347.55
171.606	300.575
176.526	390.129
181.442	464.93
186.356	426.759
191.267	458.413
196.175	414.629
201.08	259.301
205.983	38.2781
210.882	14.4956
215.778	73.6856
220.672	214.738
225.563	424.697
230.45	683.556
235.335	738.293
240.217	509.86
245.096	574.246
249.973	526.427
254.846	612.37
259.716	519.67
264.584	415.925
269.449	242.626
274.31	200.073
279.169	220.442
284.026	434.892
288.879	681.29
293.729	1183.56
298.577	1739.3
303.422	2463.7
308.263	3939.72
313.103	6041.89
317.939	8898.01
322.772	9560.89
327.603	6783.41
332.43	4586.49
337.255	3656.08
342.077	3616.35
346.896	4437.71
351.713	5683.72
356.526	5215.6
361.337	3665.38
366.145	3021.6
370.95	3310.19
375.753	5142.13
380.552	8585.39
385.349	12838
390.143	11803.8
394.934	6197.99
399.722	2668.4
404.508	1225.07
409.29	715.972
414.07	486.291
418.848	234.02
423.622	108.109
428.394	25.4773
433.163	51.8857
437.929	82.4377
442.692	50.2918
447.453	39.0747
452.21	334.649
456.966	389.723
461.718	374.607
466.467	248.06
471.214	131.44
475.958	233.556
480.699	128.682
485.438	75.8625
490.174	115.041
494.907	176.199
499.637	262.327
504.365	406.409
509.09	544.423
513.812	734.373
518.531	876.236
523.248	1248.02
527.962	1398.71
532.673	1278.55
537.382	1011.21
542.088	1016.75
546.791	1202.15
551.491	1917.39
556.189	3018.43
560.884	2368.28
565.576	1167.9
570.266	738.436
574.953	430.916
579.637	282.205
584.319	109.98
588.998	31.4436
593.674	71.8872
598.348	9.06812
603.018	49.9126
607.687	73.2771
612.352	137.886
617.015	257.633
621.675	399.892
626.333	542.811
630.988	794.312
635.64	1128.34
640.289	1522.97
644.936	2240.14
649.581	3828.67
654.222	7345.98
658.861	14735.3
663.497	24130.7
668.131	21694.8
672.762	10846
677.391	5114.1
682.016	2710.96
686.639	1594.62
691.26	1154.23
695.878	789.983
700.493	563.76
705.106	393.158
709.716	280.121
714.323	228.745
718.928	89.6812
723.53	79.3359
728.13	108.488
732.727	12.7637
737.321	22.7429
741.913	33.6299
746.502	2.61938
751.089	6.13843
755.673	9.38208
760.254	42.6292
764.833	30.3474
769.41	75.8235
773.983	17.0791
778.554	53.1267
783.123	45.9868
787.689	30.6689
792.252	4.82568
796.813	20.491
801.371	4.62964
805.927	7.58765
810.48	27.0959
815.031	33.7861
819.579	11.3906
824.124	27.521
828.667	5.50879
833.208	48.4663
837.745	7.94775
842.281	89.5547
846.813	382.658
851.344	1127.85
855.871	1477.89
860.396	1195.72
864.919	761.426
869.439	664.39
873.957	763.75
878.472	785.517
882.984	876.687
887.494	913.811
892.002	1031.26
896.507	993.125
901.009	1025.08
905.509	1002.62
910.006	843.585
914.501	741.262
918.994	698.988
923.484	621.804
927.971	615.684
932.456	456.341
936.938	359.422
941.418	366.872
945.896	367.812
950.371	497.444
954.843	811.439
959.313	1101.38
963.781	1317.59
968.246	1425.12
972.709	1579.9
977.169	2014.05
981.626	2250.73
986.082	2486.94
990.534	3355.75
994.985	4990.19
999.432	8562.2
1003.88	16954.8
1008.32	34705.2
1012.76	50091.4
1017.2	31140.4
1021.63	13220.7
1026.07	7233.65
1030.5	5249.44
1034.93	4995.06
1039.35	5443.66
1043.78	5313.7
1048.2	4065.55
1052.62	2590.45
1057.03	1884.41
1061.44	1239.57
1065.86	1055.95
1070.27	858.57
1074.67	694.852
1079.08	569.72
1083.48	549.391
1087.88	506.515
1092.27	466.665
1096.67	457.524
1101.06	421.668
1105.45	444.602
1109.84	403.2
1114.22	491.564
1118.6	415.154
1122.98	517.153
1127.36	571.259
1131.73	442.44
1136.11	478.481
1140.48	336.664
1144.85	238.303
1149.21	154.004
1153.58	3.85303
1157.94	56.2495
1162.3	47.4136
1166.65	9.2456
1171.01	22.7217
1175.36	4.70898
1179.7	88.7095
1184.05	30.8506
1188.4	41.3364
1192.74	66.02
1197.08	52.9477
1201.41	34.2524
1205.75	171.709
1210.08	14.0845
1214.41	17.2739
1218.74	55.6226
1223.07	11.1206
1227.39	2.70117
1231.71	76.0986
1236.03	78.394
1240.34	95.5679
1244.66	145.627
1248.97	60.5718
1253.28	55.2852
1257.59	139.868
1261.89	82.3608
1266.19	106.705
1270.49	155.879
1274.79	30.916
1279.09	178.783
1283.38	142.861
1287.67	94.8071
1291.96	165.339
1296.24	232.465
1300.53	129.912
1304.81	120.256
1309.09	147.579
1313.37	101.918
1317.64	160.513
1321.91	132.397
1326.18	262.398
1330.45	200.243
1334.71	292.537
1338.98	203.817
1343.24	151.18
1347.5	177.485
1351.75	116.34
1356.01	213.81
1360.26	189.987
1364.51	91.0708
1368.76	59.2148
1373	143.056
1377.24	111.833
1381.48	86.291
1385.72	193.476
1389.96	182.22
1394.19	144.599
1398.42	146.358
1402.65	55.4336
1406.88	50.249
1411.1	120.413
1415.33	153.117
1419.55	98.2676
1423.76	142.113
1427.98	61.998
1432.19	163.023
1436.4	130.999
1440.61	73.2759
1444.82	19.2158
1449.03	156.193
1453.23	0.505859
1457.43	41.0801
1461.62	54.5801
1465.82	120.289
1470.02	84.5718
1474.21	77.04
1478.39	119.547
1482.58	19.2129
1486.77	86.0693
1490.95	35.105
1495.13	65.3306
1499.31	52.7852
1503.48	87.0874
1507.66	57.8677
1511.83	170.946
1516	98.3354
1520.16	183.791
1524.33	79.1865
1528.49	110.478
1532.65	27.1602
1536.81	148.726
1540.97	77.4443
1545.12	46.0874
1549.27	125.074
1553.42	126.376
1557.57	113.628
1561.71	82.5283
