Measurement: Raman, 514 nm, ccw, Raman Data Processed
Mineral: Diopside
Rruff sample: R050496
Ideal chemistry: CaMgSi_2_O_6_
Locality: New City Quarry, Riverside, Riverside County, Calfornia, USA
Source: California Institute of Technology
Description: Aggregate of light green irregular grains
Measured chemistry: Ca(Mg_0.66_Fe_0.33_Mn_0.01_)(Si_0.95_Al_0.05_)_2_O_6_
Pin_id: M01464
Orientation: Laser parallel to b* (0 1 0). Fiducial mark perpendicular to laser is parallel to -c [0 0 -1]
Raman shift (cm-1)	intensity
103.174	0
108.114	123.881
113.052	266.896
117.987	965.9
122.919	641.779
127.849	1093.66
132.777	2686.45
137.702	5767.15
142.624	4244.3
147.544	1463.65
152.461	425.449
157.375	186.644
162.287	44.6187
167.197	120.948
172.104	413.247
177.008	391.134
181.91	625.88
186.809	373.313
191.706	298.647
196.6	298.444
201.491	344.527
206.38	40.9187
211.267	62.0957
216.151	58.7446
221.032	23.9036
225.911	160.81
230.787	552.84
235.66	533.413
240.531	264.06
245.4	141.941
250.266	108.819
255.129	104.16
259.99	70.7822
264.848	45.0398
269.703	42.7007
274.556	54.4065
279.407	51.8237
284.255	37.5142
289.1	129.054
293.942	224.559
298.783	534.416
303.62	902.32
308.455	1678.32
313.288	2648.75
318.117	4050.84
322.945	4822.81
327.769	4032.99
332.591	2976.3
337.411	2233.53
342.228	1864.78
347.042	1786.1
351.854	2115.47
356.663	1909.5
361.47	1412.75
366.274	1018.86
371.075	906.8
375.874	1106.21
380.67	1625.62
385.464	2607.03
390.255	2719.42
395.043	1574.79
399.829	656.251
404.613	364.744
409.393	94.2271
414.172	58.8069
418.947	77.2473
423.72	20.7212
428.49	35.8823
433.258	63.7642
438.024	72.561
442.786	13.6438
447.546	61.0356
452.304	38.9607
457.059	13.0146
461.811	86.3567
466.56	60.6201
471.308	129.289
476.052	115.46
480.794	163.398
485.533	188.162
490.27	332.739
495.004	499.122
499.736	1016.4
504.465	1683.67
509.191	1394.85
513.915	1001.84
518.636	798.59
523.354	859.116
528.07	989.405
532.784	989.452
537.494	947.251
542.203	746.797
546.908	743.082
551.611	727.102
556.311	695.453
561.009	740.986
565.704	631.223
570.397	589.16
575.087	449.235
579.774	344.876
584.459	188.731
589.141	86.6445
593.821	41.0134
598.498	28.7602
603.172	70.1023
607.844	35.8496
612.513	151.935
617.18	236.595
621.844	371.867
626.505	521.259
631.164	551.021
635.82	924.592
640.473	1246.83
645.124	1814.73
649.773	3044.29
654.418	5061.52
659.062	9818.42
663.702	16791
668.34	15398.2
672.975	8225.17
677.608	4192.8
682.238	2314.11
686.866	1294.75
691.49	910.845
696.113	573.281
700.732	434.569
705.349	219.323
709.964	107.985
714.576	114.48
719.185	59.771
723.792	17.1252
728.396	14.0735
732.997	5.14624
737.596	82.3872
742.192	59.2949
746.785	6.58301
751.376	2.58447
755.965	13.3125
760.551	32.7581
765.134	112.677
769.714	138.487
774.292	130.202
778.867	230.837
783.44	238.409
788.01	297.931
792.578	181.417
797.142	159.882
801.705	44.3415
806.264	101.811
810.821	186.303
815.376	348.829
819.927	593.403
824.476	493.036
829.023	270.742
833.567	270.531
838.108	112.418
842.647	158.413
847.183	333.527
851.716	835.589
856.247	1356.51
860.776	982.096
865.301	560.71
869.824	316.757
874.345	170.635
878.862	23.5708
883.377	93.2783
887.89	44.7351
892.4	85.4146
896.907	55.5591
901.412	90.0642
905.914	51.0239
910.413	50.4673
914.91	133.459
919.404	68.4653
923.896	167.69
928.385	218.735
932.871	199.853
937.355	195.183
941.836	174.929
946.315	215.033
950.79	312.518
955.264	315.372
959.734	430.602
964.202	539.205
968.668	605.194
973.131	616.549
977.591	719.279
982.048	825.377
986.503	1162.84
990.955	1791.69
995.405	2760.01
999.852	4726.91
1004.3	8610.44
1008.74	16087.6
1013.18	20797.2
1017.61	12153.4
1022.05	5621.78
1026.48	3443.38
1030.91	2668.32
1035.33	2324.34
1039.76	2587.02
1044.18	2803.47
1048.6	2115.25
1053.01	1337.53
1057.42	1021.12
1061.84	746.56
1066.24	619.873
1070.65	509.504
1075.05	447.129
1079.45	424.488
1083.85	383.075
1088.24	294.692
1092.63	269.928
1097.02	363.39
1101.41	285.072
1105.8	371.673
1110.18	290.769
1114.56	231.982
1118.93	284.023
1123.31	248.142
1127.68	225.681
1132.04	175.176
1136.41	151.715
1140.77	60.2383
1145.13	59.7366
1149.49	6.82397
1153.85	16.1079
1158.2	26.8879
1162.55	23.8511
1166.9	11.4316
1171.24	69.8989
1175.58	7.6145
1179.92	43.6958
1184.26	6.21021
1188.6	4.47461
1192.93	72.2554
1197.26	2.47046
1201.58	82.7922
1205.9	74.8782
1210.23	25.3919
1214.55	73.4766
1218.86	46.9734
1223.17	41.2573
1227.48	52.3525
1231.79	77.1773
1236.1	132.798
1240.4	153.215
1244.7	58.418
1249	51.4011
1253.29	106.151
1257.59	29.6824
1261.88	136.963
1266.16	101.543
1270.45	100.615
1274.73	120.235
1279.01	170.098
1283.28	52.8828
1287.56	110.429
1291.83	163.57
1296.1	64.2922
1300.36	158.288
1304.63	148.819
1308.89	90.4009
1313.15	165.274
1317.4	85.6023
1321.65	189.792
1325.9	137.521
1330.15	155.482
1334.4	191.363
1338.64	128.898
1342.88	109.516
1347.12	157.349
1351.35	34.4937
1355.58	105.624
1359.81	126.487
1364.04	142.457
1368.26	84.7481
1372.48	100.321
1376.7	127.774
1380.92	58.2424
1385.13	155.899
1389.34	58.4705
1393.55	77.928
1397.76	161.312
1401.96	95.5986
1406.16	158.198
1410.36	111.975
1414.55	157.92
1418.75	71.064
1422.94	68.0928
1427.12	56.7085
1431.31	132.739
1435.49	56.394
1439.67	64.0679
1443.85	1.2583
1448.02	35.96
1452.19	45.772
1456.36	66.5234
1460.53	82.7109
1464.69	44.8633
1468.85	73.9795
1473.01	105.268
1477.17	123.248
1481.32	128.392
1485.47	31.5928
1489.62	18.5581
1493.76	46.71
1497.91	127.099
1502.05	4.7251
1506.18	54.1938
1510.32	99.8286
1514.45	49.4614
1518.58	30.4189
1522.71	96.8276
1526.83	72.0908
1530.95	91.1406
1535.07	100.234
1539.19	161.135
1543.3	45.7588
1547.41	18.4917
1551.52	172.374
1555.63	227.316
1559.73	77.2353
1563.83	60.0205
1567.93	36.605
1572.03	31.4868
1576.12	3.26807
