Measurement: Raman, 514 nm, ccw, Raman Data Processed
Mineral: Diopside
Rruff sample: R060085
Ideal chemistry: CaMgSi_2_O_6_
Locality: Tyrol, Austria
Source: University of Arizona Mineral Museum
Description: Brownish-green massive
Measured chemistry: (Ca_0.97_Na_0.03_)_Σ=1_(Mg_0.79_Fe^2+^_0.10_Fe^3+^_0.04_Al_0.04_Ti_0.02_Cr_0.01_)_Σ=1_(Si_1.90_Al_0.10_)_Σ=2_O_6_
Pin_id: M00509
Orientation: Laser parallel to a* (1 0 0). Fiducial mark perpendicular to laser is parallel to b [0 1 0]
Raman shift (cm-1)	intensity
99.345	0
104.294	141.002
109.241	103.294
114.185	309.033
119.126	601.852
124.064	214.208
129	230.655
133.933	270.138
138.864	403.458
143.791	58.0205
148.716	125.606
153.638	0.209961
158.558	181.648
163.475	16.0381
168.389	125.318
173.3	118.505
178.209	245.03
183.115	322.159
188.018	218.011
192.918	163.699
197.816	154.098
202.711	149.48
207.604	165.791
212.494	14.1514
217.381	137.513
222.265	210.913
227.147	297.337
232.026	542.356
236.902	417.38
241.775	377.49
246.646	242.056
251.514	305.116
256.38	236.164
261.243	156.907
266.103	160.21
270.96	23.9375
275.815	58.3369
280.667	77.1436
285.516	111.191
290.363	354.049
295.207	526.133
300.048	414.389
304.887	694.099
309.723	1030.22
314.556	1623.67
319.387	2778.44
324.215	4138.02
329.04	3926.12
333.862	2697.78
338.682	1690.53
343.5	1064.56
348.314	737.972
353.126	898.601
357.935	947.979
362.742	890.707
367.546	770.206
372.347	931.73
377.145	1113.28
381.941	1763.86
386.735	3435.47
391.525	5267.09
396.313	4325.66
401.098	2200.18
405.881	830.639
410.661	498.94
415.438	154.668
420.213	209.325
424.985	104.154
429.754	60.0098
434.521	33.0176
439.285	7.4541
444.046	18.8555
448.805	78.8086
453.561	126.481
458.315	32.7842
463.065	155.973
467.813	132.856
472.559	73.5068
477.302	156.121
482.042	17.292
486.78	207.42
491.515	189.591
496.247	57.7705
500.977	3.89356
505.704	278.438
510.428	244.686
515.15	298.923
519.869	315.097
524.586	568.19
529.3	989.174
534.011	890.12
538.719	692.949
543.425	739.649
548.129	656.218
552.83	578.645
557.528	493.944
562.223	388.193
566.916	359.034
571.607	346.96
576.294	327.286
580.979	150.039
585.662	223.386
590.341	63.7109
595.019	185.809
599.693	46.1103
604.365	205.415
609.035	44.9102
613.701	64.1328
618.366	198.515
623.027	282.614
627.686	332.285
632.342	247.638
636.996	356.978
641.647	466.091
646.296	804.049
650.942	879.264
655.585	1386.4
660.226	2393.64
664.864	3989.37
669.499	3879.56
674.132	2162.95
678.763	1397.89
683.39	1035.31
688.015	692.295
692.638	422.9
697.258	429.195
701.875	364.18
706.49	469.85
711.102	284.205
715.712	224.252
720.319	333.957
724.923	19.0273
729.525	96.7559
734.124	70.2637
738.721	90.7109
743.315	207.06
747.907	97.5996
752.496	106.992
757.082	81.5234
761.666	202.676
766.247	68.2012
770.826	41.1562
775.402	57.9785
779.975	207.943
784.546	82.6953
789.115	120.356
793.681	124.885
798.244	253.957
802.804	76.5215
807.363	158.992
811.918	146.262
816.471	181.059
821.022	146.947
825.569	458.904
830.115	466.988
834.657	391.852
839.198	321.508
843.735	369.957
848.27	264.203
852.803	387.252
857.333	544.604
861.86	520.861
866.385	435.984
870.907	489.478
875.427	199.269
879.944	143.775
884.459	243.664
888.971	327.647
893.481	108.26
897.988	139
902.492	224.152
906.994	110.43
911.493	185.963
915.99	8.44922
920.485	38.3828
924.976	44.7891
929.466	121.611
933.952	166.766
938.436	222.5
942.918	97.1973
947.397	54.1055
951.874	270.328
956.348	160.576
960.819	216.06
965.288	358.523
969.755	350.385
974.219	522.807
978.68	691.244
983.139	891.127
987.595	1077.51
992.049	1576.6
996.501	2566.61
1000.95	4036.14
1005.4	6139.62
1009.84	8743.18
1014.28	8052.78
1018.72	4203.91
1023.16	1908.29
1027.59	1239.43
1032.02	987.953
1036.45	711.629
1040.88	862.619
1045.3	723.832
1049.72	582.973
1054.14	392.127
1058.56	449.875
1062.97	237.699
1067.38	403.51
1071.79	247.344
1076.19	302.809
1080.6	171.412
1085	356.133
1089.4	304.475
1093.79	104.773
1098.19	200.014
1102.58	155.498
1106.97	133.617
1111.35	268.908
1115.74	190.959
1120.12	187.898
1124.5	173.092
1128.87	273.998
1133.25	103.643
1137.62	191.217
1141.99	165.717
1146.35	100.201
1150.72	46.4004
1155.08	43.7734
1159.44	243.949
1163.79	187.732
1168.15	58.5
1172.5	88.6992
1176.85	9.97266
1181.19	251.568
1185.54	4.39453
1189.88	257.076
1194.22	88.6484
1198.55	301.06
1202.89	122.289
1207.22	146.617
1211.55	100.014
1215.88	218.188
1220.2	268.918
1224.52	332.57
1228.84	191.586
1233.16	301.06
1237.47	303.842
1241.78	334.473
1246.09	347.023
1250.4	394.348
1254.7	58.6816
1259.01	200.231
1263.31	261.295
1267.6	371.334
1271.9	330.791
1276.19	429.633
1280.48	230.174
1284.77	292.531
1289.05	177.898
1293.33	197.648
1297.61	103.772
1301.89	116.705
1306.16	422.172
1310.44	330.19
1314.71	583.731
1318.97	422.127
1323.24	345.371
1327.5	138.184
1331.76	247.008
1336.02	42.8535
1340.28	103.773
1344.53	270.184
1348.78	185.508
1353.03	310.816
1357.27	539.168
1361.52	189.731
1365.76	356.996
1370	511.299
1374.23	225.168
1378.47	535.816
1382.7	547.014
1386.93	251.234
1391.15	448.982
1395.38	422.065
1399.6	280.297
1403.82	219.529
1408.03	240.84
1412.25	134.262
1416.46	96.6699
1420.67	129.316
1424.88	14.6895
1429.08	379.678
1433.28	94.2344
1437.48	472.519
1441.68	323.025
1445.87	464.734
1450.07	313.768
1454.26	608.262
1458.44	402.852
1462.63	220.07
1466.81	110.82
1470.99	565.662
1475.17	354.615
1479.34	386.703
1483.52	444.844
1487.69	3.89844
1491.86	210.496
1496.02	173.84
1500.19	144.35
1504.35	252.787
1508.51	33.4043
1512.66	131.102
1516.82	162.801
1520.97	97.9199
1525.12	477.715
1529.26	114.732
1533.41	320.787
1537.55	103.758
1541.69	253.691
1545.83	373.965
1549.96	78.4316
1554.09	92.6191
1558.22	154.453
1562.35	80.8008
1566.48	9.88867
1570.6	10.9297
1574.72	17.0391
