Measurement: Raman, 514 nm, depolarized, Raman Data Processed
Mineral: Dioptase
Rruff sample: R040028
Ideal chemistry: Cu^2+^SiO_3_H_2_O
Locality: Tantara mine, Democratic Republic of the Congo
Source: University of Arizona Mineral Museum
Description: Bluish green coarsely crystallized fragment
Measured chemistry: Cu_1.00_Si_1.00_O_3_Â·H_2_O; H_2_O estimated by difference
Pin_id: M00034
Orientation: Laser parallel to -c* (0 0 -1). Fiducial mark perpendicular to laser is parallel to -a [-1 0 0]
Raman shift (cm-1)	intensity
71.716	0
75.916	503.789
80.114	1309.1
84.31	1869.26
88.503	2102.96
92.695	2526.67
96.884	5783.59
101.072	8828.65
105.258	1477.55
109.441	1534.22
113.623	4167.03
117.802	5686.83
121.98	4414.6
126.155	5226.03
130.329	17575.5
134.5	25599.8
138.669	25804.1
142.837	5038.69
147.002	15.401
151.166	757.848
155.327	402.592
159.486	6584.61
163.644	9466.6
167.799	2438.47
171.952	859.91
176.104	4280.6
180.253	10089.2
184.4	5475.68
188.546	2358.72
192.689	1916.97
196.83	3605.67
200.97	2437.36
205.107	2410.26
209.243	3620.52
213.376	5860.16
217.507	11509.9
221.637	25968.5
225.764	38425.8
229.89	26992
234.013	12447
238.135	5537.45
242.254	2931.51
246.372	1186.77
250.487	219.271
254.601	287.193
258.712	1599.96
262.822	9076.34
266.93	20947.6
271.036	10414.8
275.139	5157.87
279.241	4214.38
283.341	5315.95
287.439	7236.54
291.535	10695.9
295.629	9334.31
299.72	3791.53
303.811	805.132
307.899	168.244
311.985	384.133
316.069	452.059
320.151	31.195
324.231	1593.8
328.31	2393.59
332.386	927.511
336.46	178.817
340.533	36.363
344.603	707.071
348.672	2290.68
352.738	8309.95
356.803	28671.6
360.866	23420.8
364.927	8818.88
368.986	4264.26
373.043	2779.83
377.098	2674.34
381.151	3168.17
385.202	4202.1
389.251	6505.75
393.298	13257.6
397.344	28338.8
401.387	33099.3
405.429	17538.2
409.468	8398.8
413.506	5896.54
417.542	6178.32
421.575	6188.35
425.607	6789.95
429.637	7633.37
433.666	7828.2
437.692	7488.99
441.716	6682.6
445.738	6042.17
449.759	5413.97
453.777	5038.2
457.794	4385.45
461.809	3272.22
465.822	2411.14
469.832	1736.72
473.842	1264.75
477.849	1067.36
481.854	1095.99
485.857	1113.78
489.859	1288.54
493.858	1091.93
497.856	901.237
501.852	937.691
505.846	1027.29
509.838	1270.11
513.828	1780.76
517.816	1989.87
521.802	1954.56
525.787	1725.84
529.769	1551.78
533.75	1272.3
537.729	1116.37
541.706	801.03
545.681	622.26
549.654	939.077
553.625	1411.51
557.595	2414.58
561.562	3795.24
565.528	4274.57
569.492	3463.63
573.454	2811.76
577.414	1866.26
581.372	897.873
585.328	471.213
589.283	245.181
593.235	71.712
597.186	157.316
601.135	254.29
605.082	178.554
609.027	204.15
612.971	117.947
616.912	174.701
620.852	35.763
624.79	331.932
628.726	497.402
632.66	521.467
636.592	892.85
640.522	1395.73
644.451	2414.57
648.378	4062.31
652.303	7238.07
656.226	15511.6
660.147	27315.4
664.066	22970.7
667.984	12237.2
671.899	6315.84
675.813	3757.01
679.725	2506.95
683.635	1853.24
687.544	1314.73
691.45	947.23
695.355	695.257
699.258	653.846
703.159	653.722
707.058	580.109
710.956	544.073
714.851	710.882
718.745	974.243
722.637	1520.37
726.527	2038.55
730.415	3134.44
734.302	4919.8
738.187	8494.65
742.07	11538.2
745.951	10178.3
749.83	6395.8
753.707	3699.4
757.583	2305.19
761.457	1688.77
765.329	1121.77
769.199	670.929
773.067	481.974
776.934	299.12
780.799	265.753
784.662	191.426
788.523	267.298
792.383	179.281
796.24	257.327
800.096	277.427
803.95	219.569
807.802	171.75
811.653	110.993
815.502	130.307
819.348	40.678
823.194	35.084
827.037	80.502
830.878	28.849
834.718	9.949
838.556	99.932
842.392	11.11
846.227	29.707
850.059	63.548
853.89	52.357
857.719	95.812
861.547	22.918
865.372	27.637
869.196	24.346
873.018	40.067
876.838	92.26
880.657	75.738
884.473	36.688
888.288	105.152
892.101	215.717
895.913	239.406
899.722	324.262
903.53	505.323
907.336	883.721
911.141	1493.65
914.943	2195.25
918.744	2064.54
922.543	1247.39
926.341	904.768
930.136	808.481
933.93	901.411
937.722	914.512
941.512	880.761
945.301	804.159
949.088	955.719
952.873	1284.62
956.656	1743.15
960.438	2101.66
964.218	1733.89
967.996	1334.29
971.772	1159.87
975.547	1153.63
979.32	1296.43
983.091	1593.94
986.861	1946.27
990.628	2315.23
994.394	3012.93
998.158	4395.7
1001.92	7745.73
1005.68	13235.2
1009.44	13480.8
1013.2	11821.1
1016.95	11690
1020.71	11202.2
1024.46	10071.1
1028.21	9177.24
1031.96	7482.43
1035.71	5173.41
1039.45	3467.8
1043.19	2418.82
1046.94	1806.05
1050.68	1422.48
1054.41	1175.11
1058.15	994.938
1061.89	899.957
1065.62	799.158
1069.35	557.553
1073.08	381.124
1076.81	385.848
1080.54	338.718
1084.26	370.736
1087.98	294.899
1091.71	237.218
1095.42	61.809
1099.14	18.278
1102.86	42.55
1106.57	96.396
1110.29	71.524
1114	19.664
1117.71	71.939
1121.41	21.764
1125.12	69.705
1128.83	20.489
1132.53	124.899
1136.23	235.896
1139.93	241.818
1143.63	203.612
1147.32	208.175
1151.02	174.69
1154.71	193.84
1158.4	304.948
1162.09	336.276
1165.78	330.204
1169.46	409.798
1173.15	342.726
1176.83	225.458
1180.51	212.292
1184.19	167.627
1187.87	245.823
1191.54	155.253
1195.22	171.526
1198.89	166.35
1202.56	209.693
1206.23	99.419
1209.9	146.354
1213.56	150.915
1217.23	215.719
1220.89	262.104
1224.55	306.047
1228.21	232.326
1231.87	152.771
1235.52	155.012
1239.18	4.817
1242.83	16.881
1246.48	56.446
1250.13	33.497
1253.78	66.263
1257.42	128.726
1261.07	85.817
1264.71	102.882
1268.35	8.399
1271.99	36.47
1275.63	34.202
1279.27	10.27
1282.9	0.2
1286.53	15.231
1290.16	39.716
1293.79	78.565
1297.42	25.915
1301.05	30.665
1304.67	99.694
1308.29	49.072
1311.92	44.812
1315.54	38.119
1319.15	40.783
1322.77	129.202
1326.38	84.413
1330	148.43
1333.61	103.247
1337.22	79.854
1340.83	39.26
1344.43	87.46
1348.04	102.47
1351.64	65.295
1355.24	175.939
1358.85	192.407
1362.44	85.699
1366.04	144.054
1369.63	71.092
1373.23	52.153
1376.82	52.784
1380.41	46.649
1384	110.007
1387.59	311.223
1391.17	157.951
1394.76	186.153
1398.34	117.474
1401.92	118.261
1405.5	69.772
1409.08	151.123
1412.65	90.41
1416.23	33.808
1419.8	99.489
1423.37	52.837
1426.94	93.216
1430.51	130.746
1434.08	178.094
1437.64	160.891
1441.2	155.336
1444.77	100.108
1448.33	98.723
1451.88	49.646
1455.44	98.772
1459	143.619
1462.55	175.167
1466.1	75.489
1469.65	224.998
1473.2	204.823
1476.75	163.876
1480.29	125.592
1483.84	98.547
1487.38	130.976
1490.92	38.039
1494.46	36.764
1498	34.836
1501.54	28.772
1505.07	6.161
1508.6	25.338
1512.13	94.523
1515.66	88.365
