Measurement: Raman, 514 nm, ccw, Raman Data Processed
Mineral: Diopside
Rruff sample: R060085
Ideal chemistry: CaMgSi_2_O_6_
Locality: Tyrol, Austria
Source: University of Arizona Mineral Museum
Description: Brownish-green massive
Measured chemistry: (Ca_0.97_Na_0.03_)_Σ=1_(Mg_0.79_Fe^2+^_0.10_Fe^3+^_0.04_Al_0.04_Ti_0.02_Cr_0.01_)_Σ=1_(Si_1.90_Al_0.10_)_Σ=2_O_6_
Pin_id: M01980
Orientation: Laser parallel to -b* (0 -1 0). Fiducial mark perpendicular to laser is parallel to c [0 0 1]
Raman shift (cm-1)	intensity
125.385	0
130.313	508.308
135.239	1253.8
140.163	2451.65
145.084	1523.6
150.002	608.658
154.918	121.06
159.832	63.4522
164.742	54.9541
169.651	9.41016
174.556	16.332
179.459	43.208
184.36	113.762
189.258	19.4102
194.153	170.204
199.046	496.239
203.936	232.47
208.824	64.8047
213.709	64.7578
218.592	79.7578
223.472	164.398
228.349	192.542
233.224	391.816
238.096	155.424
242.966	358.323
247.833	173.346
252.698	303.55
257.56	389.086
262.419	132.947
267.276	122.128
272.13	99.1787
276.982	9.80664
281.831	157.772
286.677	76.8281
291.521	220.474
296.363	277.022
301.202	281.861
306.038	307.136
310.872	608.092
315.703	1043.56
320.531	1471.3
325.357	2193.51
330.181	1984.38
335.001	1496.38
339.82	1080.72
344.635	966.678
349.448	950.452
354.259	1139.46
359.067	1423.15
363.872	1271.12
368.675	1002.34
373.475	828.977
378.272	1000.81
383.067	1097.83
387.86	1678.04
392.649	2573.43
397.437	2124
402.221	1071.75
407.003	476.678
411.783	272.339
416.56	94.8769
421.334	232.478
426.106	168.746
430.875	142.036
435.641	105.385
440.405	113.829
445.167	58.6016
449.925	116.1
454.681	63.3164
459.435	47.7539
464.186	128.377
468.934	88.2705
473.68	194.727
478.423	207.445
483.164	241.061
487.902	140.225
492.637	187.713
497.37	134.092
502.1	73.0664
506.828	493.194
511.553	700.481
516.276	524.876
520.995	366.422
525.713	312.039
530.427	434.756
535.139	698.697
539.849	612.748
544.556	697.82
549.26	536.904
553.962	499.029
558.661	484.168
563.357	573.424
568.051	315.68
572.742	213.887
577.431	237.043
582.117	108.227
586.801	99.3106
591.481	156.254
596.16	68.1621
600.835	41.4141
605.508	89.8398
610.179	40.9941
614.847	45.4863
619.512	122.557
624.175	235.178
628.835	110.279
633.492	270.756
638.147	285.557
642.799	606.725
647.449	1039.77
652.096	1596.61
656.74	2656.38
661.382	5010.98
666.021	9033.76
670.658	8623.64
675.292	4610.3
679.923	2748.78
684.552	1647.3
689.178	1213.76
693.802	779.992
698.423	727.873
703.041	482.457
707.657	338.74
712.27	272.769
716.881	242.447
721.489	161.816
726.094	176.873
730.697	156.629
735.297	58.1348
739.894	118.887
744.489	33.3047
749.081	68.8203
753.671	154.225
758.258	3.91211
762.842	87.3789
767.424	0.212891
772.003	159.506
776.58	60.6172
781.154	118.549
785.725	165.574
790.294	152.295
794.86	75.3496
799.424	79.4941
803.985	17.9688
808.543	81.2461
813.099	43.6445
817.652	112.688
822.202	198.435
826.75	259.94
831.295	210.223
835.838	217.807
840.378	162.287
844.915	101.08
849.45	313.728
853.982	505.213
858.512	812.328
863.039	799.736
867.563	660.561
872.085	540.953
876.604	538.826
881.12	375.791
885.634	165.541
890.145	109.551
894.654	250.393
899.16	120.783
903.663	67.2969
908.164	100.523
912.662	33.7754
917.158	72.2051
921.651	77.5078
926.141	166.643
930.628	120.475
935.113	169.018
939.596	105.818
944.076	115.367
948.553	112.939
953.027	59.9746
957.499	113.025
961.969	251.16
966.435	317.711
970.899	419.935
975.361	400.211
979.82	430.971
984.276	498.285
988.73	820.127
993.181	1281.17
997.629	1700.06
1002.08	2744.89
1006.52	4558.4
1010.96	7351.66
1015.4	7449.97
1019.83	3983.55
1024.26	1970.24
1028.69	1038.63
1033.12	1239.19
1037.55	1089.63
1041.97	1328.84
1046.39	1436.03
1050.81	1188.38
1055.22	433.682
1059.63	590.113
1064.04	271.715
1068.45	301.504
1072.85	178.402
1077.25	141.725
1081.65	126.289
1086.05	365.996
1090.44	232.391
1094.83	117.023
1099.22	152.981
1103.6	2.95703
1107.99	79.5664
1112.37	64.3828
1116.74	55.2891
1121.12	62.6406
1125.49	43.8848
1129.86	282.369
1134.23	4.18359
1138.59	83.9707
1142.95	55.5
1147.31	96.2891
1151.67	60.8535
1156.02	132.262
1160.38	113.449
1164.72	107.996
1169.07	85.5019
1173.41	62.4082
1177.75	33.9941
1182.09	60.1035
1186.43	235.092
1190.76	248.082
1195.09	300.348
1199.42	215.467
1203.74	267.891
1208.07	15.6328
1212.39	359.338
1216.7	281.666
1221.02	89.3555
1225.33	473.045
1229.64	182.467
1233.95	223.453
1238.25	425.137
1242.55	119.014
1246.85	198.76
1251.15	287.775
1255.44	345.25
1259.73	89.8203
1264.02	386.746
1268.31	186.359
1272.59	322.598
1276.87	251.81
1281.15	166.326
1285.42	123.211
1289.69	103.346
1293.96	39.2402
1298.23	53.8438
1302.5	102.764
1306.76	370.711
1311.02	216.699
1315.27	259.262
1319.53	424.701
1323.78	86.793
1328.03	231.609
1332.28	119.316
1336.52	90.7519
1340.76	238.367
1345	37.4941
1349.23	306.414
1353.47	230.523
1357.7	416.746
1361.93	318.586
1366.15	382.603
1370.37	546.856
1374.59	630.051
1378.81	440.447
1383.03	340.744
1387.24	311.609
1391.45	282.897
1395.65	265.785
1399.86	302.727
1404.06	310.211
1408.26	340.781
1412.46	358.094
1416.65	260.117
1420.84	254.262
1425.03	310.022
1429.22	219.361
1433.4	167.715
1437.58	11.7344
1441.76	300.812
1445.93	350.856
1450.11	202.31
1454.28	137.184
1458.44	110.916
1462.61	619.719
1466.77	136.371
1470.93	273.908
1475.09	187.338
1479.24	236.621
1483.39	366.785
1487.54	418.15
1491.69	213.566
1495.84	209.082
1499.98	148.191
1504.12	318.602
1508.25	268.848
1512.38	425.793
1516.52	325.676
1520.64	216.523
1524.77	234.859
1528.89	21.6875
1533.01	480.039
1537.13	189.148
1541.25	279.707
1545.36	273.504
1549.47	363.25
1553.58	336.711
1557.68	138.449
1561.78	359.434
1565.88	12.5664
1569.98	360.418
1574.07	66.5625
