Measurement: Raman, 514 nm, depolarized, Raman Data Processed
Mineral: Diopside
Rruff sample: R060276
Ideal chemistry: CaMgSi_2_O_6_
Locality: Inagli, Yakutia, Siberia, Russia
Source: Herb Obodda
Description: Transparent green cleavage fragment
Measured chemistry: (Ca_0.97_Na_0.03_)_Σ=1_(Mg_0.96_Fe_0.03_Cr_0.01_)_Σ=1_(Si_1.98_Al_0.02_)_Σ=2_O_6_
Pin_id: L01812
Orientation: Laser parallel to -c* (0 0 -1). Fiducial mark perpendicular to laser is parallel to -a [-1 0 0]
Raman shift (cm-1)	intensity
109.512	0
114.44	148.55
119.365	33.0217
124.288	52.5896
129.209	534.441
134.127	1262.37
139.043	1919.66
143.956	972.588
148.867	203.815
153.775	80.8
158.681	181.441
163.585	611.601
168.486	460.181
173.385	311.106
178.282	722.434
183.176	699.229
188.067	515.592
192.956	712.297
197.843	716.885
202.727	207.81
207.609	0.426758
212.489	33.6714
217.366	381.411
222.24	1354.67
227.112	2464.42
231.982	2085.61
236.849	924.165
241.714	395.185
246.577	560.663
251.437	934.589
256.294	784.961
261.149	252.424
266.002	39.1384
270.852	54.2141
275.7	64.8972
280.545	25.2297
285.388	187.816
290.229	548.25
295.067	1242.2
299.902	2283.59
304.735	3092.06
309.566	4514.45
314.394	7936.81
319.22	13846.4
324.043	16238.5
328.864	10415
333.682	4953.72
338.498	2968.53
343.311	2716.28
348.122	3848.36
352.931	6124.52
357.737	6900.26
362.54	5217.26
367.341	3769.55
372.14	3321.11
376.936	4602.96
381.73	10013.1
386.521	18427.5
391.31	19924.1
396.096	11412
400.88	4349.17
405.661	1859.59
410.44	843.888
415.216	508.242
419.99	333.609
424.761	202.282
429.53	106.183
434.297	9.65552
439.061	24.3669
443.822	45.634
448.581	28.1184
453.337	205.682
458.091	477.191
462.843	693.319
467.592	676.343
472.338	259.734
477.082	178.14
481.824	109.52
486.563	72.7129
491.3	98.0398
496.034	26.5041
500.765	56.1006
505.494	218.796
510.221	358.59
514.945	510.48
519.666	776.489
524.385	1256.64
529.102	1626.03
533.816	1271.72
538.527	899.537
543.236	726.639
547.943	1008.85
552.647	1956.06
557.348	3100.32
562.047	2484.67
566.744	1021.11
571.438	474.497
576.129	369.66
580.818	165.876
585.504	106.882
590.188	28.6711
594.87	35.9141
599.549	58.9053
604.225	17.7939
608.899	61.7351
613.57	111.828
618.239	201.458
622.905	369.272
627.569	526.697
632.23	733.41
636.889	1107.8
641.545	1561.94
646.198	2547.33
650.849	4612.91
655.498	9943.06
660.144	21513.6
664.787	32379.8
669.428	25273.4
674.067	11580
678.703	5234.94
683.336	2688.82
687.967	1586.88
692.595	1073.91
697.221	821.357
701.844	670.871
706.465	479.967
711.083	459.644
715.698	298.901
720.311	161.844
724.922	101.167
729.53	158.139
734.135	11.0591
738.738	32.7996
743.338	22.8733
747.936	18.0102
752.531	26.1741
757.124	62.9582
761.714	94.1904
766.302	103.037
770.887	168.538
775.469	153.71
780.049	137.563
784.626	85.1006
789.201	61.3086
793.773	16.8066
798.343	58.6577
802.91	64.3257
807.475	35.0659
812.037	12.4741
816.596	10.6201
821.153	8.01416
825.707	44.0034
830.259	17.188
834.808	33.4136
839.355	108.86
843.899	558.164
848.441	1692.34
852.98	2840.4
857.516	2638.29
862.05	1502.4
866.581	952.897
871.11	813.571
875.636	706.856
880.159	715.151
884.68	665.384
889.199	669.946
893.714	767.99
898.228	622.129
902.738	582.462
907.246	546.467
911.752	583.741
916.255	453.728
920.755	532.738
925.253	383.86
929.748	349.885
934.241	240.727
938.731	205.01
943.218	161.114
947.703	210.898
952.186	339.084
956.665	593.561
961.142	617.271
965.617	767.028
970.089	962.322
974.558	1224.93
979.025	1544.84
983.489	1768.08
987.951	2412.62
992.41	3588.46
996.866	6059.66
1001.32	11925.3
1005.77	27814.2
1010.22	54441.6
1014.67	50761.4
1019.11	21607.7
1023.55	8949.39
1027.99	5001.64
1032.42	4113.07
1036.86	4257.83
1041.29	5539.02
1045.72	7297.9
1050.14	5905.36
1054.56	3425.48
1058.98	1937.14
1063.4	1540.64
1067.82	1159.22
1072.23	808.203
1076.64	667.169
1081.05	648.699
1085.45	506.558
1089.85	495.257
1094.25	461.104
1098.65	468.47
1103.04	399.914
1107.43	372.177
1111.82	353.512
1116.21	441.494
1120.59	539.018
1124.97	506.474
1129.35	412.712
1133.73	423.876
1138.1	283.912
1142.47	377.229
1146.84	106.017
1151.21	126.582
1155.57	55.729
1159.93	19.8271
1164.29	10.478
1168.64	48.1743
1172.99	9.79883
1177.34	19.7393
1181.69	1.11523
1186.04	48.8428
1190.38	77.0933
1194.72	60.1211
1199.05	53.144
1203.39	15.2354
1207.72	64.5991
1212.05	21.977
1216.37	95.7886
1220.7	44.9043
1225.02	61.4023
1229.34	144.316
1233.65	51.1611
1237.97	34.5801
1242.28	77.9243
1246.59	83.9253
1250.89	165.533
1255.19	151.126
1259.49	119.978
1263.79	187.69
1268.09	112.572
1272.38	223.853
1276.67	95.1206
1280.95	132.294
1285.24	274.052
1289.52	161.477
1293.8	145.07
1298.08	194.355
1302.35	147.338
1306.62	108.382
1310.89	225.08
1315.15	194.891
1319.42	270.732
1323.68	115.52
1327.94	255.375
1332.19	311.716
1336.44	288.747
1340.69	226.084
1344.94	230.789
1349.19	266.634
1353.43	254.334
1357.67	237.363
1361.9	172.986
1366.14	163.789
1370.37	182.902
1374.6	234.964
1378.83	177.151
1383.05	169.3
1387.27	197.931
1391.49	228.044
1395.7	55.1602
1399.92	135.813
1404.13	181.792
1408.34	132.012
1412.54	52.7261
1416.74	29.4824
1420.94	29.8672
1425.14	56.1065
1429.34	97.3555
1433.53	46.6367
1437.72	29.2134
1441.9	79.4219
1446.09	89.8799
1450.27	175.213
1454.45	78.4824
1458.63	191.517
1462.8	2.24023
1466.97	170.537
1471.14	33.3906
1475.31	117.287
1479.47	76.7959
1483.63	111.87
1487.79	90.3066
1491.94	200.636
1496.09	147.207
1500.24	45.1113
1504.39	160.223
1508.54	49.7647
1512.68	242.422
1516.82	279.04
1520.95	85.0176
1525.09	157.045
1529.22	189.237
1533.35	87.4785
1537.47	183.403
1541.6	109.743
1545.72	23.4053
1549.83	88.2481
1553.95	101.077
1558.06	14.5068
1562.17	7.54199
1566.28	20.2295
1570.38	72.6592
