Measurement: Raman, 514 nm, depolarized, Raman Data Processed
Mineral: Diopside
Rruff sample: R060171
Ideal chemistry: CaMgSi_2_O_6_
Locality: Jeffrey mine, Asbestos, Quebec, Canada
Source: Guy Ouellet
Description: Yellowish-brown tabular crystals associated with vesuvianite, R060170
Measured chemistry: Ca_1.00_(Mg_0.98_Mn_0.02_)_Î£=1_Si_2.00_O_6_
Pin_id: L00876
Orientation: Laser parallel to -b* (0 -1 0). Fiducial mark perpendicular to laser is parallel to -c [0 0 -1]
Raman shift (cm-1)	intensity
95.948	0
100.883	6.41113
105.815	211.614
110.744	264.098
115.671	315.498
120.596	262.874
125.519	562.113
130.439	3008.84
135.356	5444.47
140.271	6808.34
145.184	5788.39
150.094	962.847
155.002	350.224
159.908	171.287
164.811	120.65
169.711	256.106
174.61	371.777
179.505	502.805
184.399	887.564
189.29	162.7
194.178	48.5185
199.064	41.4531
203.948	70.2041
208.829	6.43506
213.708	78.6479
218.585	103.346
223.459	283.449
228.33	750.567
233.199	1078.81
238.066	892.304
242.93	431.226
247.792	876.064
252.651	1378.92
257.508	1750.49
262.363	433.217
267.215	135.797
272.064	17.0288
276.912	0.12793
281.756	30.2564
286.598	54.4702
291.438	145.564
296.276	199.285
301.111	652.321
305.943	1118.69
310.773	2470.46
315.601	5221.5
320.426	7726.02
325.248	10198.2
330.068	4505.39
334.886	1523.11
339.701	762.003
344.514	718.309
349.324	1377.38
354.132	2407.59
358.938	3449.65
363.741	2956.44
368.541	1379.7
373.339	1152.01
378.135	2130.36
382.928	4654.75
387.718	6796.19
392.506	7343.8
397.292	2192.55
402.075	679.01
406.856	268.38
411.634	149.847
416.41	37.478
421.183	76.3672
425.954	17.3423
430.722	12.7632
435.488	25.9829
440.251	5.51562
445.012	16.1611
449.77	28.5942
454.526	90.2251
459.28	87.3232
464.03	44.3174
468.779	16.1206
473.525	81.8667
478.268	78.4917
483.009	139.971
487.747	40.4756
492.483	227.98
497.217	704.543
501.948	1761.28
506.676	2963.02
511.402	2543.74
516.125	634.44
520.846	318.113
525.565	382.85
530.281	304.655
534.994	152.51
539.705	46.3618
544.413	57.2446
549.119	78.1148
553.822	22.9277
558.523	76.6904
563.222	159.302
567.917	43.4912
572.611	44.9502
577.302	99.7231
581.99	101.902
586.676	15.8682
591.359	101.862
596.04	57.7026
600.718	106.336
605.394	197.645
610.067	208.041
614.737	233.622
619.406	385.197
624.071	504.317
628.734	759.884
633.395	906.339
638.053	1428.29
642.708	2053.82
647.361	3457.18
652.012	6711.82
656.66	15379.1
661.305	29921.6
665.948	39817
670.588	27113.3
675.226	11048.2
679.861	4890.99
684.494	2869.67
689.124	1663.32
693.752	1044.63
698.377	768.299
702.999	515.873
707.619	389.444
712.237	321.908
716.852	230.462
721.464	149.052
726.074	78.1279
730.681	107.632
735.286	116.666
739.888	137.122
744.488	110.549
749.085	14.4502
753.68	45.9712
758.272	53.3594
762.861	56.3135
767.448	123.911
772.033	31.0972
776.614	51.1855
781.194	78.3154
785.77	50.6616
790.345	59.9736
794.916	74.0796
799.485	20.0586
804.052	42.04
808.616	74.4273
813.177	28.5845
817.736	32.5654
822.292	73.2925
826.846	161.869
831.397	142.36
835.945	103.766
840.491	367.088
845.035	1120.33
849.576	2896.49
854.114	4305.57
858.65	2288.57
863.183	725.493
867.713	360.38
872.241	181.216
876.767	87.9834
881.29	19.3569
885.81	60.0068
890.328	57.2881
894.843	39.7065
899.356	7.48731
903.866	16.7695
908.373	16.7734
912.878	93.4312
917.38	60.9233
921.88	60.4722
926.377	126.852
930.872	65.5376
935.364	4.29492
939.853	119.421
944.34	42.0772
948.824	46.7148
953.306	84.7036
957.785	241.237
962.261	253.754
966.735	233.675
971.207	340.858
975.675	381.557
980.141	640.234
984.605	757.909
989.066	1106.56
993.524	1633.19
997.98	3222.8
1002.43	7589.18
1006.88	23553.8
1011.33	45084.4
1015.78	38804.7
1020.22	11973.4
1024.66	4659.04
1029.1	2770.16
1033.53	2395.1
1037.97	2673.41
1042.4	4691.42
1046.82	7044.31
1051.25	5329.41
1055.67	2110.2
1060.09	1054.5
1064.51	722.453
1068.92	475.558
1073.33	349.138
1077.74	330.429
1082.15	342
1086.55	248.952
1090.95	134.929
1095.35	141.792
1099.75	227.15
1104.14	185.25
1108.53	188.64
1112.92	185.454
1117.31	274.962
1121.69	291.324
1126.07	243.567
1130.45	86.7295
1134.82	110.785
1139.19	112.059
1143.57	76.9497
1147.93	40.4902
1152.3	59.2315
1156.66	59.1504
1161.02	88.9258
1165.38	4.4751
1169.73	11.3115
1174.08	88.6494
1178.43	6.04297
1182.78	33.6816
1187.12	42.6963
1191.46	69.0019
1195.8	20
1200.14	30.6904
1204.47	35.1943
1208.8	38.4922
1213.13	60.5732
1217.46	1.45996
1221.78	64.3701
1226.1	51.0166
1230.42	1.42676
1234.73	60.9648
1239.04	126.223
1243.35	102.341
1247.66	78.2998
1251.97	117.13
1256.27	192.13
1260.57	144.409
1264.86	120.02
1269.16	77.2451
1273.45	241.35
1277.74	146.272
1282.03	134.304
1286.31	95.6113
1290.59	78.2393
1294.87	91.5566
1299.14	180.185
1303.42	94.2461
1307.69	56.918
1311.95	171.065
1316.22	136.263
1320.48	86.3809
1324.74	148.955
1329	121.559
1333.26	273.096
1337.51	325.041
1341.76	200.834
1346	137.566
1350.25	163.628
1354.49	146.592
1358.73	195.842
1362.96	126.605
1367.2	237.518
1371.43	239.399
1375.66	135.152
1379.88	188.964
1384.11	207.773
1388.33	237.562
1392.54	211.5
1396.76	165.846
1400.97	2.46191
1405.18	70.082
1409.39	133.192
1413.59	38.4727
1417.8	179.004
1421.99	34.9141
1426.19	126.765
1430.38	51.8691
1434.58	92.4356
1438.77	151.444
1442.95	145.158
1447.13	20.3125
1451.32	86.7022
1455.49	92.9365
1459.67	116.264
1463.84	45.4629
1468.01	156.69
1472.18	119.958
1476.35	88.2949
1480.51	198.666
1484.67	203.179
1488.83	65.3291
1492.98	128.992
1497.13	274.236
1501.28	174.828
1505.43	168.287
1509.57	164.465
1513.71	256.476
1517.85	188.052
1521.99	197.091
1526.12	87.1348
1530.25	124.044
1534.38	112.929
1538.5	115.699
1542.62	80.0986
1546.74	51.3428
1550.86	150.424
1554.98	131.16
1559.09	29.1621
1563.2	74.1816
1567.31	95.1289
1571.41	0.268555
