Measurement: Raman, 514 nm, depolarized, Raman Data Processed
Mineral: Diopside
Rruff sample: R040097
Ideal chemistry: CaMgSi_2_O_6_
Locality: Fassathal, Tyrol
Source: University of Arizona Mineral Museum
Description: Green prismatic crystals
Measured chemistry: Ca_1.00_(Mg_0.83_Al_0.10_Fe_0.09_Ca_0.02_Ti_0.02_)(Si_0.88_Al_0.12_)_2_O_6_
Pin_id: M00269
Orientation: Laser parallel to b* (0 1 0). Fiducial mark perpendicular to laser is parallel to -c [0 0 -1]
Raman shift (cm-1)	intensity
126.063	0
128.84	207.212
131.615	526.671
134.39	647.247
137.164	1237.6
139.937	1560.58
142.709	1560.79
145.48	1163.6
148.25	826.432
151.019	470.824
153.788	266.584
156.555	173.695
159.322	186.6
162.088	225.818
164.853	67.184
167.617	25.234
170.38	94.418
173.142	114.916
175.904	186.584
178.664	159.275
181.424	332.869
184.183	267.27
186.94	252.4
189.698	168.174
192.454	274.531
195.209	171.426
197.963	128.822
200.717	37.281
203.47	53.609
206.221	153.758
208.972	36.764
211.722	77.512
214.472	168.42
217.22	169.463
219.967	220.668
222.714	182.053
225.46	383.613
228.204	395.301
230.948	297.113
233.692	139.088
236.434	271.234
239.175	53.545
241.916	286.004
244.655	438.615
247.394	341.348
250.132	553.98
252.869	746.725
255.605	579.625
258.34	382.68
261.075	245.877
263.808	309.221
266.541	172.707
269.273	286.342
272.004	210.211
274.734	7.613
277.463	134.906
280.192	129.852
282.919	98.096
285.646	265.746
288.372	307.303
291.097	324.164
293.821	423.969
296.544	471.01
299.266	583.246
301.988	496.086
304.709	699.455
307.428	813.105
310.147	956.883
312.865	1051.13
315.583	1715.3
318.299	1919.66
321.015	2374.21
323.729	2448.91
326.443	2602.5
329.156	2415.45
331.868	2420.11
334.579	2314.89
337.29	2149.83
339.999	1844.9
342.708	1750.11
345.416	1715.44
348.123	1580.87
350.829	1596.42
353.534	1732.06
356.239	1866.86
358.942	1622.68
361.645	1568.58
364.347	1454.56
367.048	1396.64
369.748	1283.91
372.448	1238.18
375.146	894.369
377.844	1160.6
380.54	1066.88
383.236	1603.2
385.932	1869.57
388.626	2155.97
391.319	2262.43
394.012	2188.95
396.704	2095.53
399.394	1472.24
402.084	1109.06
404.774	706.023
407.462	413.137
410.15	320.359
412.836	231.949
415.522	169.371
418.207	78.352
420.891	73.211
423.575	105.131
426.257	44.58
428.939	23.271
431.619	231.928
434.299	47.217
436.978	18.982
439.657	161.691
442.334	58.455
445.011	139.217
447.687	337.807
450.361	246.186
453.036	97.836
455.709	93.377
458.381	225.662
461.053	243.486
463.724	391.875
466.394	289.279
469.063	196.574
471.731	203.801
474.398	390.936
477.065	488.035
479.731	315.104
482.396	42.131
485.06	509.141
487.723	356.125
490.385	233.08
493.047	799.996
495.708	526.859
498.368	543.684
501.027	690.451
503.685	1137.16
506.342	1283.81
508.999	1230.39
511.655	826.898
514.31	823.336
516.964	729.701
519.617	775.99
522.27	562.199
524.921	918.33
527.572	734.402
530.222	950.447
532.871	1006.45
535.52	1162.36
538.167	928.18
540.814	514.184
543.46	489.908
546.105	266.113
548.749	702.158
551.393	401.881
554.035	462.35
556.677	296.873
559.318	343.861
561.958	537.256
564.597	573.586
567.236	356.805
569.874	1.258
572.511	307.541
575.147	567.865
577.782	678.309
580.416	377.416
583.05	96.861
585.683	261.59
588.315	343.73
590.946	209.682
593.576	462.096
596.206	64.385
598.834	99.713
601.462	20.133
604.089	404.809
606.715	240.258
609.341	27.785
611.965	90.586
614.589	168.482
617.212	343.529
619.834	425.014
622.456	396.043
625.076	367.18
627.696	459.885
630.315	610.768
632.933	530.703
635.551	691.133
638.167	881.385
640.783	1023.98
643.398	1364.58
646.012	1734.24
648.625	1823.77
651.237	2362.79
653.849	3173.31
656.46	4141.89
659.07	5439.76
661.679	7158.6
664.288	7966.08
666.895	8223.35
669.502	7120.43
672.108	5367.31
674.713	3783.98
677.318	2810.45
679.921	2047.53
682.524	1763.59
685.126	1489.7
687.727	1065.35
690.328	691.375
692.927	537.141
695.526	782.426
698.124	587.805
700.721	312.402
703.318	326.781
705.913	50.938
708.508	564.816
711.102	678.426
713.695	271.699
716.288	205.344
718.879	82.926
721.47	180.91
724.06	300.586
726.649	177.5
729.238	165.773
731.825	175.391
734.412	323.16
736.998	432.375
739.584	39.297
742.168	52.117
744.752	265.879
747.334	332.008
749.916	381.805
752.498	77.031
755.078	192.527
757.658	315.691
760.237	582.305
762.815	497.805
765.392	420.555
767.969	15.805
770.544	430.953
773.119	716.559
775.693	454.754
778.267	229.664
780.839	55.613
783.411	411.293
785.982	687.102
788.552	232.398
791.122	227.477
793.69	302.367
796.258	797.047
798.825	251.555
801.391	205.852
803.957	279.973
806.522	333.914
809.085	647.672
811.649	861.246
814.211	144.641
816.772	877.852
819.333	530.895
821.893	963.766
824.452	806.48
827.011	469.039
829.568	611.441
832.125	723.664
834.681	895.691
837.236	307.586
839.791	449.285
842.345	220.758
844.898	682.062
847.45	753.148
850.001	214.113
852.552	614.672
855.102	874.602
857.651	1214.53
860.199	1111.41
862.746	530.871
865.293	725.82
867.839	1285.63
870.384	1105.98
872.928	685.082
875.472	517.211
878.015	394.559
880.557	653.562
883.098	456.711
885.639	189.57
888.178	68.152
890.717	545.895
893.256	400.805
895.793	261.828
898.33	179.965
900.865	287.055
903.401	854.82
905.935	141.445
908.468	37.504
911.001	113.152
913.533	355.086
916.064	404.938
918.595	263.703
921.124	270.434
923.653	430.688
926.182	598.598
928.709	748.445
931.236	25.93
933.761	363.27
936.286	820.906
938.811	659.062
941.334	292.938
943.857	170.332
946.379	736.691
948.9	1103.46
951.421	601.891
953.94	510.156
956.459	718.258
958.978	1185.19
961.495	1122.61
964.012	609.449
966.527	245.09
969.043	242.316
971.557	849.445
974.071	616.578
976.583	534.012
979.095	782.016
981.607	1260.52
984.117	1510.41
986.627	739.184
989.136	1019.18
991.644	2084.26
994.152	2556.13
996.659	3116.36
999.165	3356.04
1001.67	5215.74
1004.17	6325.09
1006.68	6349.31
1009.18	5989
1011.68	4928.05
1014.18	3908.15
1016.68	2398.42
1019.18	1638.91
1021.68	1349.64
1024.18	1690.69
1026.68	1352.12
1029.18	673.918
1031.67	786.07
1034.17	799.055
1036.66	1212.8
1039.16	778.074
1041.65	644.477
1044.14	1161.91
1046.63	1480.63
1049.12	890.637
1051.62	452.117
1054.11	545.371
1056.59	1330.75
1059.08	878.719
1061.57	409.656
1064.06	384.07
1066.54	542.766
1069.03	866.879
1071.51	347.527
1073.99	6.07
1076.47	606.023
1078.96	930.09
