Measurement: Raman, 514 nm, ccw, Raman Data Processed
Mineral: Diopside
Rruff sample: R050496
Ideal chemistry: CaMgSi_2_O_6_
Locality: New City Quarry, Riverside, Riverside County, Calfornia, USA
Source: California Institute of Technology
Description: Aggregate of light green irregular grains
Measured chemistry: Ca(Mg_0.66_Fe_0.33_Mn_0.01_)(Si_0.95_Al_0.05_)_2_O_6_
Pin_id: M01827
Orientation: Laser parallel to a* (1 0 0). Fiducial mark perpendicular to laser is parallel to -b [0 -1 0]
Raman shift (cm-1)	intensity
101.939	0
106.879	351.729
111.818	200.469
116.753	648.497
121.686	648.855
126.617	604.367
131.545	755.249
136.471	1482.62
141.393	1486.66
146.314	476.528
151.232	97.6587
156.147	22.9263
161.06	79.7988
165.97	249.556
170.877	284.361
175.782	343.304
180.685	766.906
185.585	556.424
190.482	800.636
195.377	996.292
200.269	956.45
205.158	901.738
210.045	574.689
214.93	731.267
219.812	854.445
224.691	909.102
229.568	1064.19
234.442	1171.7
239.314	593.59
244.183	301.844
249.049	209.069
253.913	174.289
258.775	45.3662
263.633	53.8545
268.49	120.082
273.343	94.7798
278.194	106.119
283.043	2.7041
287.889	133.85
292.732	510.282
297.573	922.155
302.411	1400.58
307.247	2308.41
312.08	3682.54
316.91	6181.18
321.738	8184.91
326.563	7499.98
331.386	5087.68
336.206	3446.78
341.024	2744.56
345.839	2585.55
350.651	2849.71
355.461	2922.02
360.268	2392.47
365.073	2266.04
369.875	2820.73
374.674	3499.5
379.471	5620.37
384.266	9270.3
389.057	11388.5
393.846	7953.35
398.633	3676.55
403.417	1534.85
408.198	743.143
412.977	487.945
417.753	295.965
422.527	155.163
427.298	105.715
432.067	79.1602
436.832	25.4048
441.596	28.9199
446.356	23.2251
451.115	97.8882
455.87	224.364
460.623	114.608
465.373	242.657
470.121	268.112
474.866	210.523
479.609	269.683
484.349	368.334
489.086	426.442
493.821	498.203
498.553	628.766
503.283	885.119
508.01	1289.25
512.734	1423.16
517.456	1663.83
522.175	1710.25
526.892	1980.42
531.606	1844.32
536.317	1536.95
541.026	1301.32
545.732	1215.4
550.436	1303.2
555.137	1182.89
559.835	1203.93
564.531	1223.24
569.224	1107.86
573.915	1043.17
578.603	640.868
583.288	388.67
587.971	91.7974
592.651	5.19873
597.329	49.4341
602.004	98.6113
606.676	21.8355
611.346	5.62695
616.013	207.372
620.678	55.3789
625.34	184.456
629.999	299.676
634.656	359.47
639.31	669.84
643.962	951.787
648.611	1440.31
653.257	2478.42
657.901	4480.11
662.542	8635.39
667.181	9833.28
671.817	6268.74
676.45	3328.01
681.081	1897.56
685.709	1147.83
690.334	850.727
694.957	588.238
699.578	539.1
704.195	570.443
708.811	508.878
713.423	295.422
718.033	166.055
722.64	21.3726
727.245	45.6958
731.847	63.0278
736.446	18.6665
741.043	8.46094
745.637	10.2783
750.229	32.8462
754.818	46.1855
759.404	35.459
763.988	66.6269
768.569	72.542
773.148	49.3208
777.724	119.979
782.297	188.533
786.868	164.997
791.436	149.388
796.001	145.72
800.564	40.0107
805.125	102.272
809.682	39.5185
814.237	35.2349
818.79	82.9883
823.339	102.243
827.887	43.5425
832.431	17.0972
836.973	44.7373
841.513	74.5644
846.049	8.05078
850.583	179.432
855.115	349.043
859.644	350.11
864.17	281.268
868.694	93.2573
873.215	168.046
877.733	75.5156
882.249	185.966
886.762	129.388
891.273	156.641
895.781	229.084
900.286	136.427
904.789	178.602
909.289	221.213
913.786	156.765
918.281	276.47
922.773	318.857
927.263	256.254
931.75	275.133
936.234	239.43
940.716	332.086
945.195	278.173
949.672	205.633
954.146	447.565
958.617	516.895
963.086	682.626
967.552	750.537
972.015	831.581
976.476	893.04
980.934	1156.33
985.39	1340.69
989.843	1991.9
994.293	2982.51
998.741	5081.57
1003.19	8981.24
1007.63	16494.5
1012.07	24902.3
1016.5	17848.5
1020.94	7818.95
1025.37	4073.92
1029.8	2808.33
1034.23	2381.39
1038.65	2577.44
1043.07	2235.01
1047.49	1949.09
1051.91	1443.33
1056.32	1021.67
1060.73	800.46
1065.14	727.743
1069.55	562.542
1073.95	483.438
1078.35	584.692
1082.75	461.911
1087.14	455.242
1091.54	384.548
1095.93	404.201
1100.31	340.111
1104.7	355.947
1109.08	329.957
1113.46	351.085
1117.84	249.34
1122.21	269.879
1126.58	267.183
1130.95	241.552
1135.32	171.929
1139.68	102.357
1144.04	84.439
1148.4	13.2085
1152.76	16.3423
1157.11	25.6416
1161.46	2.50684
1165.81	12.1924
1170.16	12.623
1174.5	7.49707
1178.84	32.7393
1183.18	63.8989
1187.51	71.1235
1191.84	79.1304
1196.17	12.1743
1200.5	54.2778
1204.83	5.21289
1209.15	61.8306
1213.47	25.1709
1217.78	15.6201
1222.1	39.5459
1226.41	9.29639
1230.72	52.7602
1235.02	2.91553
1239.33	137.773
1243.63	118.435
1247.92	138.909
1252.22	142.18
1256.51	113.241
1260.8	160.08
1265.09	142.694
1269.38	104.098
1273.66	105.307
1277.94	74.2827
1282.21	102.129
1286.49	128.122
1290.76	143.142
1295.03	86.9443
1299.3	112.858
1303.56	25.9258
1307.82	126.87
1312.08	86.3096
1316.34	76.6948
1320.59	141.465
1324.84	91.9746
1329.09	131.038
1333.34	169.734
1337.58	90.9092
1341.82	109.894
1346.06	100.028
1350.29	106.77
1354.53	99.6826
1358.76	170.337
1362.98	161.15
1367.21	134.909
1371.43	121.885
1375.65	125.176
1379.87	154.166
1384.08	122.319
1388.29	89.3716
1392.5	55.3408
1396.71	104.187
1400.91	118.841
1405.11	96.459
1409.31	72.355
1413.51	51.625
1417.7	113.15
1421.89	75.0229
1426.08	121.623
1430.26	59.937
1434.44	56.5361
1438.62	67.3237
1442.8	107.981
1446.98	77.6626
1451.15	3.3999
1455.32	119.172
1459.49	38.4307
1463.65	185.456
1467.81	21.75
1471.97	73.1846
1476.13	39.7105
1480.28	68.1816
1484.43	72.6777
1488.58	33.2231
1492.73	153.792
1496.87	59.3188
1501.01	17.0054
1505.15	83.8623
1509.29	17.9736
1513.42	50.0835
1517.55	96.8633
1521.67	95.8106
1525.8	52.1025
1529.92	49.4136
1534.04	100.14
1538.16	36.6597
1542.27	81.5791
1546.39	83.2886
1550.49	103.612
1554.6	285.666
1558.71	10.3818
1562.81	25.9927
1566.91	14.498
1571	15.6206
1575.1	64.2261
