Measurement: Raman, 514 nm, ccw, Raman Data Processed
Mineral: Diopside
Rruff sample: R060085
Ideal chemistry: CaMgSi_2_O_6_
Locality: Tyrol, Austria
Source: University of Arizona Mineral Museum
Description: Brownish-green massive
Measured chemistry: (Ca_0.97_Na_0.03_)_Σ=1_(Mg_0.79_Fe^2+^_0.10_Fe^3+^_0.04_Al_0.04_Ti_0.02_Cr_0.01_)_Σ=1_(Si_1.90_Al_0.10_)_Σ=2_O_6_
Pin_id: M01542
Orientation: Laser parallel to c* (0 0 1). Fiducial mark perpendicular to laser is parallel to a [1 0 0]
Raman shift (cm-1)	intensity
87.655	0
92.638	139.751
97.618	10.3379
102.594	96.5259
107.568	258.601
112.538	248.216
117.505	421.228
122.469	395.552
127.43	267.07
132.388	386.312
137.342	496.822
142.294	287.272
147.242	229.531
152.187	120.522
157.13	6.15234
162.069	59.3457
167.005	70.7305
171.938	10.2163
176.868	62.9307
181.794	157.442
186.718	87.7271
191.639	445.633
196.556	1131.07
201.471	1014.16
206.382	253.475
211.29	136.982
216.196	120.68
221.098	220.242
225.997	271.683
230.894	436.941
235.787	614.343
240.677	464.767
245.564	434.89
250.448	363.188
255.329	453.941
260.207	240.058
265.082	94.4898
269.954	36.8267
274.823	64.0298
279.689	8.71338
284.552	78.2119
289.412	79.4771
294.269	70.6567
299.123	226.761
303.974	577.236
308.822	743.082
313.667	1102.64
318.509	1443.25
323.349	1950.02
328.185	2330.87
333.018	1734.83
337.848	1180.92
342.676	903.09
347.5	723.361
352.321	942.781
357.14	1080.02
361.955	1205.6
366.768	860.023
371.578	733.476
376.384	685.018
381.188	728.463
385.989	993.038
390.787	1650.69
395.582	1566.4
400.374	898.162
405.164	472.272
409.95	151.774
414.733	182.528
419.514	13.1729
424.292	10.9492
429.066	65.5117
433.838	53.9629
438.607	14.626
443.373	57.8398
448.137	32.1211
452.897	36.3545
457.655	177.358
462.409	131.773
467.161	199.662
471.91	238.698
476.656	346.869
481.399	175.139
486.14	172.28
490.877	202.341
495.612	141.281
500.344	256.175
505.073	328.961
509.799	431.584
514.523	311.026
519.243	328.537
523.961	329.774
528.676	405.86
533.388	470.776
538.097	715.52
542.804	812.095
547.508	788.482
552.209	526.674
556.907	566.737
561.602	674.642
566.295	528.269
570.984	311.625
575.671	205.545
580.356	227.264
585.037	233.09
589.716	19.4199
594.392	79.4902
599.065	36.4014
603.735	52.7324
608.403	173.046
613.068	84.0527
617.73	315.622
622.389	260.269
627.046	306.646
631.7	407.359
636.351	638.195
641	675.523
645.645	1096.84
650.288	1712.09
654.929	2756.14
659.566	5176.06
664.201	9884.81
668.833	11976.7
673.463	7845.15
678.09	4096.81
682.714	2650.06
687.335	1855.36
691.954	1309.32
696.57	869.922
701.183	734.179
705.793	348.231
710.401	461.916
715.007	354.284
719.609	140.369
724.209	284.906
728.806	15.3818
733.401	17.6357
737.993	5.10547
742.582	67.4795
747.169	24.2559
751.753	5.62109
756.334	24.5391
760.913	31.2354
765.489	70.2275
770.062	116.351
774.633	17.6875
779.201	178.733
783.766	157.565
788.329	199.519
792.889	246.507
797.447	118.72
802.002	170.161
806.554	217.083
811.104	169.986
815.651	118.401
820.196	172.08
824.738	242.402
829.277	214.028
833.814	192.411
838.348	149.559
842.88	168.475
847.409	354.169
851.935	417.643
856.459	472.611
860.98	553.681
865.499	408.984
870.015	298.059
874.529	333.495
879.04	160.188
883.548	208.338
888.054	90.7891
892.558	52.2275
897.058	33.082
901.557	126.61
906.052	20.3936
910.546	15.2979
915.036	0.792969
919.524	73.9453
924.01	71.2422
928.493	67.1328
932.974	292.982
937.452	151.095
941.927	133.504
946.4	122.86
950.871	319.483
955.339	263.563
959.804	417.976
964.267	409.345
968.728	442.672
973.185	646.923
977.641	694.551
982.094	969.898
986.544	1204.08
990.992	1710.45
995.438	2266.67
999.881	3813.05
1004.32	6097.2
1008.76	10293.3
1013.2	13597.4
1017.63	8669.77
1022.06	4080.55
1026.49	2398.85
1030.91	1798.14
1035.34	1599.51
1039.76	1747.16
1044.18	2138.49
1048.59	2054.94
1053.01	1422.85
1057.42	928.848
1061.83	878.475
1066.23	525.977
1070.64	425.027
1075.04	274.069
1079.44	255.343
1083.83	352.337
1088.23	418.756
1092.62	284.444
1097.01	264.182
1101.39	207.213
1105.78	112.17
1110.16	89.2949
1114.54	238.926
1118.92	133.424
1123.29	357.365
1127.67	107.779
1132.04	203.59
1136.4	186.785
1140.77	434.685
1145.13	22.125
1149.49	202.445
1153.85	259.299
1158.21	44.0977
1162.56	137.406
1166.91	47.627
1171.26	30.7559
1175.61	77.5723
1179.95	35.0449
1184.29	111.189
1188.63	158.459
1192.97	105.279
1197.3	181.699
1201.64	31.5684
1205.97	18.1699
1210.29	10.0117
1214.62	58.1582
1218.94	146.654
1223.26	287.062
1227.58	231.879
1231.9	153.562
1236.21	174.512
1240.52	256.254
1244.83	244.9
1249.14	246.232
1253.44	70.4707
1257.74	201.213
1262.04	347.123
1266.34	168.793
1270.64	317.69
1274.93	243.324
1279.22	150.83
1283.51	164.699
1287.79	262.236
1292.08	185.207
1296.36	95.1777
1300.64	166.625
1304.92	257.781
1309.19	71.2617
1313.46	164.037
1317.73	98.416
1322	252.971
1326.27	55.1113
1330.53	224.348
1334.79	48.0469
1339.05	161.58
1343.31	50.3125
1347.56	283.359
1351.81	71.6504
1356.06	216.586
1360.31	70.9473
1364.56	73.1445
1368.8	129.195
1373.04	185.793
1377.28	82.1113
1381.52	151.135
1385.75	241.742
1389.98	272.529
1394.21	59.2129
1398.44	220.022
1402.66	67.9082
1406.89	255.43
1411.11	52.1855
1415.33	260.721
1419.54	107.856
1423.76	205.338
1427.97	220.518
1432.18	31.125
1436.39	260.467
1440.59	33.1602
1444.8	108.113
1449	21.9316
1453.2	205.709
1457.39	75.4375
1461.59	138.795
1465.78	191.156
1469.97	48.9688
1474.16	223.211
1478.35	156.244
1482.53	228.717
1486.71	160.102
1490.89	173.232
1495.07	334.934
1499.24	306.762
1503.42	248.736
1507.59	278.975
1511.76	372.627
1515.92	272.094
1520.09	307.213
1524.25	421.119
1528.41	79.2012
1532.57	288.127
1536.72	104.152
1540.88	298.418
1545.03	237.383
1549.18	208.084
1553.33	55.9629
1557.47	196.318
1561.62	331.477
1565.76	362.41
1569.89	473.961
1574.03	119.797
1578.17	0
