Measurement: Raman, 514 nm, depolarized, Raman Data Processed
Mineral: Diopside
Rruff sample: R070123
Ideal chemistry: CaMgSi_2_O_6_
Locality: Yates mine, Otter Lake, Huddersfield Township, Pontiac County, Québec, Canada
Source: Michael Scott
Description: Black prismatic crystals associated with orange calcite
Measured chemistry: (Ca_0.95_Na_0.04_Mn_0.01_)_Σ=1_(Mg_0.63_Fe_0.33_Al_0.04_)_Σ=1_Si_2.00_O_6_
Pin_id: M01501
Orientation: Laser parallel to -b* (0 -1 0). Fiducial mark perpendicular to laser is parallel to c [0 0 1]
Raman shift (cm-1)	intensity
120.521	0
125.469	777.988
130.414	3099.15
135.356	6610.99
140.295	4909.06
145.232	1134.26
150.165	250.356
155.096	94.8257
160.024	13.2588
164.949	75.6636
169.872	406.067
174.791	590.875
179.708	615.375
184.622	340.173
189.533	275.985
194.441	194.737
199.347	312.606
204.249	165.867
209.149	94.1926
214.046	16.408
218.94	76.7676
223.832	200.196
228.72	594.503
233.606	923.213
238.489	539.149
243.369	328.264
248.247	294.307
253.121	321.808
257.993	331.748
262.862	134.113
267.728	118.13
272.592	93.7712
277.452	98.1965
282.31	187.225
287.165	331.689
292.017	530.106
296.867	717.821
301.714	1461.64
306.558	2513.09
311.399	4418.66
316.237	6769.9
321.073	8298.98
325.906	6668.42
330.736	4411.17
335.563	3288.35
340.387	3064.68
345.209	3310.29
350.028	3952.14
354.844	3983.22
359.658	3388.71
364.469	2496.64
369.277	2317.31
374.082	2738.46
378.884	4235.23
383.684	6628.47
388.481	7001.89
393.275	4167.53
398.066	1905.36
402.855	901.373
407.641	465.568
412.424	314.933
417.205	144.318
421.983	113.005
426.758	19.6421
431.53	85.7439
436.299	10.2449
441.066	20.9175
445.83	17.1804
450.591	45.5593
455.35	151.704
460.106	131.442
464.859	98.8306
469.609	129.144
474.357	79.3672
479.102	118.79
483.844	154.424
488.584	217.223
493.321	512.092
498.055	1103.1
502.786	2105.47
507.515	1663.1
512.241	854.861
516.964	619.646
521.685	793.463
526.402	1046.41
531.118	1075.48
535.83	923.64
540.54	920.755
545.247	808.819
549.951	877.825
554.653	836.763
559.352	829.656
564.048	798.398
568.742	716.081
573.432	543.112
578.121	378.578
582.806	205.926
587.489	91.1223
592.169	53.532
596.847	7.12231
601.521	11.4126
606.193	30.1538
610.863	271.271
615.53	321.891
620.194	473.108
624.855	763.797
629.514	1042.69
634.17	1537.45
638.823	2021.94
643.474	3010.15
648.122	4938.09
652.767	9230.07
657.41	18672.8
662.05	33308.6
666.688	36786.6
671.322	20807.6
675.954	9539.81
680.584	4903.67
685.211	2766.21
689.835	1760.43
694.456	1185.34
699.075	880.939
703.691	631.226
708.305	402.205
712.916	294.972
717.524	185.601
722.13	117.989
726.733	21.1787
731.333	27.0305
735.931	67.9771
740.526	20.9883
745.118	37.835
749.708	34.9585
754.295	19.1797
758.88	28.1462
763.462	1.96143
768.041	42.6926
772.618	42.2053
777.192	17.5256
781.763	39.6685
786.332	44.6504
790.898	5.44385
795.462	18.072
800.023	66.509
804.581	60.4956
809.137	2.08911
813.69	56.4873
818.24	96.8323
822.788	146.139
827.334	102.423
831.876	130.697
836.416	151.977
840.954	336.275
845.489	945.606
850.021	2262.98
854.551	3707.42
859.078	2870.93
863.602	1657.56
868.124	1093.55
872.644	820.61
877.16	739.334
881.675	668.799
886.186	711.566
890.695	505.826
895.202	632.55
899.705	544.585
904.207	491.294
908.705	478.419
913.201	431.957
917.695	407.992
922.186	325.589
926.674	409.365
931.16	400.651
935.643	321.928
940.124	266.171
944.602	263.345
949.077	259.079
953.55	478.291
958.021	634.954
962.489	624.05
966.954	746.571
971.417	899.522
975.877	1010.89
980.334	1118.7
984.789	1552.94
989.242	2186.61
993.692	3320.72
998.139	5901.25
1002.58	11404.2
1007.03	23732.8
1011.47	40389.1
1015.9	32029
1020.34	13700.7
1024.77	7069.92
1029.2	4723.7
1033.63	4061.77
1038.05	4237.62
1042.47	4260.45
1046.89	3562.06
1051.31	2365.24
1055.72	1715.31
1060.14	1368.81
1064.55	1049.12
1068.95	830.908
1073.36	730.394
1077.76	732.632
1082.16	659.773
1086.55	579.833
1090.95	536.253
1095.34	597.303
1099.73	555.063
1104.12	479.248
1108.5	506.039
1112.88	610.02
1117.26	539.151
1121.64	506.819
1126.01	457.127
1130.38	418.447
1134.75	338.803
1139.12	298.181
1143.48	214.563
1147.84	203.933
1152.2	32.2925
1156.56	47.0168
1160.91	8.09253
1165.27	11.9888
1169.61	41.7893
1173.96	32.6467
1178.31	23.4712
1182.65	47.3381
1186.98	2.27002
1191.32	24.155
1195.66	15.1802
1199.99	35.2129
1204.32	16.7852
1208.64	35.1499
1212.97	24.9885
1217.29	52.4746
1221.61	70.3547
1225.93	57.6311
1230.24	51.6519
1234.55	127.415
1238.86	125.934
1243.17	125.171
1247.47	64.1721
1251.78	97.8967
1256.07	162.371
1260.37	121.596
1264.67	140.568
1268.96	172.283
1273.25	162.739
1277.54	140.937
1281.82	186.882
1286.1	178.565
1290.38	205.804
1294.66	163.408
1298.93	111.214
1303.21	120.244
1307.48	115.686
1311.74	120.86
1316.01	188.712
1320.27	223.487
1324.53	120.794
1328.79	154.31
1333.05	181.09
1337.3	209.367
1341.55	152.543
1345.8	176.53
1350.04	130.205
1354.29	233.082
1358.53	249.224
1362.76	58.3254
1367	134.752
1371.23	130.773
1375.46	116.555
1379.69	56.8569
1383.92	103.555
1388.14	130.285
1392.36	162.74
1396.58	113.082
1400.8	111.357
1405.01	94.9797
1409.22	51.7456
1413.43	106.358
1417.64	65.0415
1421.85	84.8784
1426.05	99.6231
1430.25	8.75317
1434.44	57.9358
1438.64	136.533
1442.83	88.1389
1447.02	49.6111
1451.21	39.4582
1455.39	42.6455
1459.58	87.9246
1463.76	19.2293
1467.94	80.5608
1472.11	110.903
1476.28	61.2598
1480.45	34.6497
1484.62	33.7058
1488.79	11.6209
1492.95	41.2353
1497.11	14.9771
1501.27	1.92627
1505.43	44.2336
1509.58	15.4109
1513.73	68.8542
1517.88	67.2319
1522.03	42.1523
1526.18	48.0591
1530.32	30.533
1534.46	72.5083
1538.6	8.65723
1542.73	58.0779
1546.86	54.2322
1550.99	66.5437
1555.12	132.702
1559.25	50.8032
1563.37	0
