Measurement: Raman, 514 nm, depolarized, Raman Data Processed
Mineral: Diopside
Rruff sample: R060171
Ideal chemistry: CaMgSi_2_O_6_
Locality: Jeffrey mine, Asbestos, Quebec, Canada
Source: Guy Ouellet
Description: Yellowish-brown tabular crystals associated with vesuvianite, R060170
Measured chemistry: Ca_1.00_(Mg_0.98_Mn_0.02_)_Î£=1_Si_2.00_O_6_
Pin_id: M00055
Orientation: Laser parallel to c* (0 0 1). Fiducial mark perpendicular to laser is parallel to a [1 0 0]
Raman shift (cm-1)	intensity
123.058	0
127.979	57.9507
132.898	147.303
137.814	255.936
142.728	199.486
147.639	13.2358
152.549	34.3738
157.455	162.325
162.359	530.528
167.261	330.165
172.161	210.777
177.058	431.286
181.952	798.699
186.845	541.045
191.734	786.219
196.622	675.177
201.507	211.682
206.389	103.066
211.269	71.9312
216.147	90.3389
221.022	386.188
225.895	1028.47
230.765	1724.24
235.633	881.925
240.498	256.575
245.361	370.554
250.222	512.782
255.08	752.252
259.936	279.957
264.789	103.888
269.64	72.5269
274.488	27.8814
279.334	28.6045
284.178	62.6416
289.019	114.617
293.857	483.298
298.693	1086.72
303.527	1655.38
308.358	2193.15
313.187	4054.21
318.013	7501.54
322.837	11887.1
327.659	6059.93
332.478	1973.95
337.294	936.35
342.108	796.526
346.92	1436.87
351.729	2984.19
356.535	3817.93
361.34	1829.95
366.141	1027.93
370.94	972.073
375.737	1652.36
380.531	4384.78
385.323	9620.32
390.113	13273
394.9	6678.74
399.684	2215.61
404.466	797.585
409.245	413.655
414.022	280.743
418.797	178.06
423.569	133.33
428.338	26.0015
433.105	25.793
437.87	64.6958
442.632	42.6211
447.391	67.6431
452.149	86.7627
456.903	309.056
461.655	725.745
466.405	532.191
471.152	225.759
475.897	10.1499
480.639	18.9434
485.378	34.4473
490.116	1.94922
494.85	12.3394
499.582	28.5796
504.312	60.9131
509.039	242.357
513.764	256.896
518.486	401.596
523.206	766.433
527.923	1038.39
532.638	716.455
537.35	390.571
542.059	308.747
546.766	499.985
551.471	1275.26
556.173	3075.58
560.873	2270
565.57	670.471
570.264	311.962
574.957	170.458
579.646	106.857
584.333	46.9458
589.018	85.2017
593.7	26.9385
598.379	8.36035
603.056	107.053
607.73	98.5352
612.402	131.585
617.072	189.341
621.739	228.961
626.403	354.599
631.065	482.577
635.724	512.778
640.381	768.972
645.035	1201.13
649.687	2135.85
654.336	4537.43
658.983	10299.8
663.627	19025.9
668.268	15128.3
672.907	6499.74
677.544	2956.76
682.178	1373.27
686.809	852.309
691.438	560.046
696.065	420.381
700.688	285.964
705.31	242.079
709.929	152.079
714.545	112.963
719.158	96.7798
723.77	51.5093
728.378	147.123
732.984	81.6626
737.588	38.7812
742.189	12.9033
746.787	92.915
751.383	29.938
755.976	185.611
760.567	3.23975
765.155	98.9678
769.741	24.2485
774.324	119.553
778.904	3.89648
783.482	51.7803
788.058	2.39746
792.631	14.2197
797.201	8.07178
801.769	63.0625
806.334	42.2007
810.897	56.9292
815.457	11.7129
820.014	102.085
824.569	52.7178
829.122	118.221
833.671	40.604
838.219	109.868
842.763	207.015
847.306	518.053
851.845	1257.98
856.382	841.77
860.917	344.491
865.448	187.1
869.978	40.3442
874.505	87.7446
879.029	123.476
883.55	106.078
888.069	120.128
892.586	106.244
897.1	154.496
901.611	68.1621
906.12	63.811
910.626	24.5454
915.129	62.0933
919.63	75.7949
924.129	0.303223
928.625	29.5645
933.118	97.4028
937.609	64.3472
942.097	96.9595
946.582	32.6045
951.065	90.458
955.546	140.964
960.023	118.156
964.499	228.675
968.971	284.448
973.441	316.121
977.909	428.971
982.374	538.8
986.836	808.602
991.295	1237.4
995.753	2117.2
1000.21	4263.01
1004.66	11530.7
1009.11	34299.4
1013.55	45770.2
1018	16794.1
1022.44	5523.93
1026.88	2849.88
1031.32	1979.74
1035.75	1893.6
1040.18	2582.79
1044.61	4998.83
1049.04	5412.65
1053.46	2194.33
1057.88	1078.87
1062.3	635.508
1066.71	414.461
1071.13	331.527
1075.54	319.713
1079.94	218.895
1084.35	227.356
1088.75	104.273
1093.15	203.46
1097.55	19.2827
1101.94	159.513
1106.34	113.042
1110.73	41.4395
1115.11	180.717
1119.5	65.0449
1123.88	169.884
1128.26	97.2539
1132.63	152.469
1137.01	103.441
1141.38	118.642
1145.75	88.5283
1150.12	42.4795
1154.48	111.34
1158.84	73.1279
1163.2	8.35449
1167.55	77.7754
1171.91	51.0986
1176.26	5.1543
1180.61	76.7256
1184.95	6.30762
1189.29	68.5566
1193.63	51.0625
1197.97	23.7002
1202.31	7.54688
1206.64	1.79883
1210.97	48.6426
1215.29	42.3145
1219.62	35.9199
1223.94	106.875
1228.26	76.7852
1232.57	58.3603
1236.89	134.666
1241.2	92.1016
1245.51	70.3076
1249.81	69.3281
1254.12	82.3389
1258.42	59.083
1262.72	219.865
1267.01	131.383
1271.3	134.826
1275.59	200.312
1279.88	41.3711
1284.17	121.381
1288.45	29.6523
1292.73	147.564
1297.01	157.121
1301.28	141.254
1305.55	143.484
1309.82	165.487
1314.09	176.913
1318.35	71.4766
1322.61	169.71
1326.87	172.627
1331.13	322.118
1335.38	217.692
1339.63	177.44
1343.88	244.326
1348.12	98.459
1352.37	245.019
1356.61	137.874
1360.85	232.516
1365.08	119.312
1369.31	157.876
1373.54	120.328
1377.77	158.007
1381.99	72.1016
1386.22	30.1914
1390.43	67.2725
1394.65	107.266
1398.87	245.852
1403.08	135.395
1407.29	227.403
1411.49	81.7353
1415.69	122.938
1419.89	6.77344
1424.09	115.891
1428.29	135.467
1432.48	13.3623
1436.67	47.8262
1440.86	162.297
1445.04	170.831
1449.23	175.473
1453.4	77.7324
1457.58	13.0664
1461.76	61.4853
1465.93	101.553
1470.1	44.9053
1474.26	49.8828
1478.43	62.9815
1482.59	144.975
1486.75	86.1318
1490.9	119.823
1495.06	114.484
1499.21	109.97
1503.35	214.784
1507.5	20.5898
1511.64	152.842
1515.78	126.42
1519.92	163.259
1524.05	98.3779
1528.18	97.3623
1532.31	256.474
1536.44	78.4473
1540.56	160.683
1544.69	237.852
1548.8	95.6553
1552.92	213.465
1557.03	37.6133
1561.14	85.7314
1565.25	43.8779
1569.36	187.724
