Measurement: Raman, 514 nm, depolarized, Raman Data Processed
Mineral: Diopside
Rruff sample: R050666
Ideal chemistry: CaMgSi_2_O_6_
Locality: Franklin, Sussex County, New Jersey, USA
Source: University of Arizona Mineral Museum
Description: Brown cleavage fragment with white hardystonite
Measured chemistry: Ca(Mg_0.66_Mn_0.33_Fe_0.01_)Si_2_O_6_
Pin_id: L00985
Orientation: Laser parallel to (1 0 1). Fiducial mark perpendicular to laser is parallel to -b [0 -1 0]
Raman shift (cm-1)	intensity
129.209	0
134.127	303.652
139.043	416.848
143.956	75.6094
148.867	249.734
153.775	391.269
158.681	213.289
163.585	435.344
168.486	208.211
173.385	409.758
178.282	564.879
183.176	341.883
188.067	391.168
192.956	459.242
197.843	364.75
202.727	436.305
207.609	376.328
212.489	656.195
217.366	481.875
222.24	374.711
227.112	410.144
231.982	514.375
236.849	600.402
241.714	542.301
246.577	545.703
251.437	375.703
256.294	474.32
261.149	592.445
266.002	508.078
270.852	699.188
275.7	622.941
280.545	773.984
285.388	684.731
290.229	455.152
295.067	762.922
299.902	1790.42
304.735	2335.85
309.566	3127.9
314.394	3515.11
319.22	2748.84
324.043	2052.89
328.864	1535.58
333.682	1430.26
338.498	1666.06
343.311	2196.73
348.122	2394.13
352.931	2218.07
357.737	1413.56
362.54	1104.6
367.341	1761.18
372.14	3225.33
376.936	5303.96
381.73	5077.08
386.521	3474.66
391.31	1471.68
396.096	735.125
400.88	431.973
405.661	326.191
410.44	403.777
415.216	22.4141
419.99	370.988
424.761	12.8672
429.53	34.207
434.297	192.191
439.061	139.141
443.822	161.492
448.581	284.769
453.337	71.2383
458.091	54.5195
462.843	187.805
467.592	208.461
472.338	8.71484
477.082	66.3438
481.824	46.4805
486.563	300.91
491.3	86.6953
496.034	503.055
500.765	388.027
505.494	200.781
510.221	285.402
514.945	546.559
519.666	240.301
524.385	734.57
529.102	52.4336
533.816	113.875
538.527	383.863
543.236	646.336
547.943	783.293
552.647	847.707
557.348	733.586
562.047	290.918
566.744	82.2148
571.438	95.6562
576.129	81.6641
580.818	28.7227
585.504	58.6953
590.188	66.8828
594.87	7.55859
599.549	35.375
604.225	107.629
608.899	285.949
613.57	318.676
618.239	344.43
622.905	458.324
627.569	606.356
632.23	416
636.889	364.797
641.545	1116.64
646.198	2090.14
650.849	3901.61
655.498	6419.11
660.144	6603.55
664.787	4673.15
669.428	2462.56
674.067	1311.55
678.703	668.949
683.336	348.148
687.967	307.656
692.595	455.973
697.221	334.644
701.844	372.191
706.465	93.4805
711.083	317.43
715.698	93.9844
720.311	156.828
724.922	529.379
729.53	28.0625
734.135	167.586
738.738	297.965
743.338	16.0039
747.936	248.824
752.531	440.414
757.124	182.496
761.714	166.836
766.302	222.82
770.887	208.309
775.469	181.266
780.049	133.465
784.626	3.45703
789.201	220.832
793.773	247.922
798.343	84.7852
802.91	70.793
807.475	233.344
812.037	536.328
816.596	281.695
821.153	346.305
825.707	132.766
830.259	221.93
834.808	198.492
839.355	555.348
843.899	1020.98
848.441	1145.41
852.98	529.277
857.516	348.809
862.05	465.078
866.581	674.199
871.11	287.465
875.636	292.535
880.159	241.324
884.68	241.18
889.199	200.301
893.714	287.695
898.228	170.875
902.738	395.644
907.246	440.875
911.752	404.227
916.255	167.621
920.755	212.387
925.253	251.367
929.748	63.3008
934.241	32.1406
938.731	316.289
943.218	280.301
947.703	78.3008
952.186	237.637
956.665	777.387
961.142	366.297
965.617	331.356
970.089	64.4375
974.558	495.441
979.025	304.586
983.489	824.035
987.951	709.469
992.41	1041.11
996.866	1520.99
1001.32	3643.13
1005.77	9305.18
1010.22	16167.8
1014.67	12746.5
1019.11	5446.81
1023.55	2495.76
1027.99	1680.32
1032.42	1655.88
1036.86	2083.8
1041.29	2128.39
1045.72	1100.68
1050.14	549.938
1054.56	575.797
1058.98	566.285
1063.4	77.2305
1067.82	48.0547
1072.23	196.102
1076.64	247.613
1081.05	262.465
1085.45	185.977
1089.85	28.6367
1094.25	115.008
1098.65	367.969
1103.04	227.66
1107.43	80.5273
1111.82	169.609
1116.21	340.434
1120.59	659.996
1124.97	254.273
1129.35	78.2656
1133.73	19.6914
1138.1	1.9375
1142.47	230.691
1146.84	368.391
1151.21	64.8008
1155.57	57.7148
1159.93	137.316
1164.29	82.7344
1168.64	47.6094
1172.99	276.414
1177.34	62.3789
1181.69	111.852
1186.04	231.535
1190.38	80.5664
1194.72	245.441
1199.05	172.902
1203.39	101.598
1207.72	350.988
1212.05	129.781
1216.37	299.406
1220.7	229.75
1225.02	168.106
1229.34	253.031
1233.65	62.4688
1237.97	202.754
1242.28	282.246
1246.59	335.984
1250.89	202.258
1255.19	281.43
1259.49	337.062
1263.79	388.344
1268.09	240.602
1272.38	271.566
1276.67	94.8281
1280.95	379.789
1285.24	62.5898
1289.52	117.242
1293.8	110.617
1298.08	0.441406
1302.35	83.9023
1306.62	214.781
1310.89	371.305
1315.15	197.867
1319.42	210.051
1323.68	500.957
1327.94	472.59
1332.19	299.156
1336.44	325.617
1340.69	180.394
1344.94	273.602
1349.19	181.949
1353.43	159.152
1357.67	218.273
1361.9	426.621
1366.14	339.508
1370.37	233.816
1374.6	235.43
1378.83	339.996
1383.05	204.648
1387.27	130.481
1391.49	343.805
1395.7	214.363
1399.92	332.102
1404.13	186.359
1408.34	335.578
1412.54	140.309
1416.74	384.75
1420.94	234.762
1425.14	77.1211
1429.34	129.078
1433.53	211.527
1437.72	52.9062
1441.9	77
1446.09	293.746
1450.27	152.852
1454.45	87.7461
1458.63	223.641
1462.8	192.316
1466.97	232
1471.14	101.172
1475.31	204.863
1479.47	116.434
1483.63	213.059
1487.79	174.922
1491.94	48.6914
1496.09	100.422
1500.24	313.871
1504.39	66.9102
1508.54	80.7031
1512.68	26.3516
1516.82	92.7695
1520.95	279.894
1525.09	142.703
1529.22	147.316
1533.35	152.863
1537.47	148.432
1541.6	163.225
1545.72	52.7988
1549.83	232.91
1553.95	167.924
1558.06	180.365
1562.17	233.031
1566.28	136.935
1570.38	371.678
