Measurement: Raman, 514 nm, ccw, Raman Data Processed
Mineral: Diopside
Rruff sample: R050496
Ideal chemistry: CaMgSi_2_O_6_
Locality: New City Quarry, Riverside, Riverside County, Calfornia, USA
Source: California Institute of Technology
Description: Aggregate of light green irregular grains
Measured chemistry: Ca(Mg_0.66_Fe_0.33_Mn_0.01_)(Si_0.95_Al_0.05_)_2_O_6_
Pin_id: M01827
Orientation: Laser parallel to a* (1 0 0). Fiducial mark perpendicular to laser is parallel to -b [0 -1 0]
Raman shift (cm-1)	intensity
92.049	0
96.995	131.424
101.939	143.111
106.879	379.77
111.818	206.08
116.753	1149.9
121.686	735.334
126.617	794.987
131.545	639.06
136.471	777.129
141.393	1066.09
146.314	391.147
151.232	77.0337
156.147	9.33594
161.06	15.0166
165.97	110.927
170.877	150.898
175.782	418.071
180.685	787.991
185.585	714.604
190.482	352.854
195.377	761.142
200.269	712.005
205.158	801.83
210.045	612.132
214.93	752.463
219.812	887.819
224.691	1173.17
229.568	1644.48
234.442	1623.72
239.314	859.444
244.183	443.407
249.049	394.56
253.913	291.97
258.775	182.866
263.633	65.7175
268.49	44.4636
273.343	28.1265
278.194	29.8469
283.043	29.574
287.889	205.035
292.732	575.19
297.573	1088.87
302.411	1802.66
307.247	3205.56
312.08	5426.75
316.91	9426.74
321.738	13281.9
326.563	12280
331.386	8217.97
336.206	5228.65
341.024	3488.89
345.839	2653.62
350.651	2406.83
355.461	2314.49
360.268	2322.58
365.073	2569.09
369.875	3408.98
374.674	5120.25
379.471	8891.88
384.266	15834.8
389.057	21214.2
393.846	15395
398.633	7000.28
403.417	3035
408.198	1505.09
412.977	875.542
417.753	628.958
422.527	305.688
427.298	232.112
432.067	46.8303
436.832	32.8242
441.596	43.9563
446.356	76.4705
451.115	14.0315
455.87	88.7302
460.623	226.294
465.373	216.608
470.121	225.263
474.866	280.932
479.609	286.663
484.349	335.051
489.086	430.469
493.821	399.819
498.553	517.085
503.283	660.248
508.01	823.295
512.734	1045.21
517.456	1391.97
522.175	1949.57
526.892	2414.99
531.606	2474.22
536.317	1857.26
541.026	1337.1
545.732	1192.73
550.436	1072.11
555.137	1054.22
559.835	1067.13
564.531	981.002
569.224	945.659
573.915	801.045
578.603	618.186
583.288	386.907
587.971	57.8618
592.651	26.1824
597.329	45.3162
602.004	89.7217
606.676	13.2356
611.346	51.3181
616.013	106.156
620.678	125.629
625.34	247.583
629.999	345.063
634.656	588.077
639.31	810.62
643.962	1181.69
648.611	1909.29
653.257	3291.42
657.901	6195.07
662.542	11622.2
667.181	14301
671.817	9325.28
676.45	4815.58
681.081	2759.56
685.709	1770.41
690.334	1268.62
694.957	882.917
699.578	682.674
704.195	529.922
708.811	467.806
713.423	209.659
718.033	167.284
722.64	93.4749
727.245	126.877
731.847	96.9192
736.446	35.2036
741.043	6.80859
745.637	18.9365
750.229	65.9116
754.818	52.7766
759.404	124.298
763.988	198.155
768.569	216.217
773.148	263.091
777.724	304.793
782.297	326.338
786.868	402.847
791.436	349.021
796.001	311.192
800.564	182.271
805.125	63.2732
809.682	27.7898
814.237	3.96362
818.79	27.2102
823.339	62.4565
827.887	25.1062
832.431	76.2583
836.973	87.8435
841.513	22.9021
846.049	29.7949
850.583	113.163
855.115	298.962
859.644	313.319
864.17	280.018
868.694	198.359
873.215	243.056
877.733	244.123
882.249	245.239
886.762	223.319
891.273	230.507
895.781	228.656
900.286	193.108
904.789	278.916
909.289	308.144
913.786	289.723
918.281	293.695
922.773	365.104
927.263	365.94
931.75	346.192
936.234	386.899
940.716	361.815
945.195	404.974
949.672	465.218
954.146	680.933
958.617	815.199
963.086	995.439
967.552	1180.43
972.015	1281.33
976.476	1518.99
980.934	1834.88
985.39	2298.61
989.843	3239.83
994.293	4932.44
998.741	8207.5
1003.19	14590
1007.63	26891
1012.07	41466.5
1016.5	30679.3
1020.94	13081.5
1025.37	6634.44
1029.8	4473.95
1034.23	3779.83
1038.65	3711.28
1043.07	3573.77
1047.49	2780.85
1051.91	2089.68
1056.32	1527.64
1060.73	1154.15
1065.14	973.886
1069.55	746.665
1073.95	638.059
1078.35	648.362
1082.75	620.871
1087.14	453.725
1091.54	484.063
1095.93	428.948
1100.31	421.769
1104.7	433.964
1109.08	356.044
1113.46	371.404
1117.84	394.368
1122.21	390.603
1126.58	300.645
1130.95	264.816
1135.32	242.624
1139.68	166.175
1144.04	89.3281
1148.4	68.3633
1152.76	47.419
1157.11	62.2373
1161.46	24.9536
1165.81	59.3921
1170.16	65.6856
1174.5	13.8264
1178.84	69.9497
1183.18	60.5579
1187.51	38.7534
1191.84	28.8311
1196.17	28.979
1200.5	4.16504
1204.83	24.5776
1209.15	39.9898
1213.47	28.1043
1217.78	26.9495
1222.1	16.5391
1226.41	52.5806
1230.72	16.958
1235.02	55.8159
1239.33	80.4522
1243.63	22.8762
1247.92	90.0247
1252.22	112.924
1256.51	107.613
1260.8	30.103
1265.09	161.322
1269.38	98.3127
1273.66	100.038
1277.94	97.3137
1282.21	105.373
1286.49	103.13
1290.76	100.321
1295.03	43.9392
1299.3	78.7649
1303.56	111.267
1307.82	58.4675
1312.08	140.091
1316.34	40.4797
1320.59	117.911
1324.84	93.7107
1329.09	67.9172
1333.34	141.755
1337.58	111.109
1341.82	93.3232
1346.06	102.932
1350.29	116.136
1354.53	137.954
1358.76	117.753
1362.98	94.5281
1367.21	148.381
1371.43	122.116
1375.65	135.276
1379.87	124.055
1384.08	75.0952
1388.29	148.566
1392.5	119.534
1396.71	74.0154
1400.91	71.7776
1405.11	154.554
1409.31	73.197
1413.51	82.9356
1417.7	75.4504
1421.89	115.775
1426.08	39.3572
1430.26	72.1863
1434.44	67.6191
1438.62	9.44019
1442.8	56.5503
1446.98	40.3503
1451.15	96.3384
1455.32	69.9473
1459.49	32.126
1463.65	35.4124
1467.81	55.8125
1471.97	42.917
1476.13	55.6482
1480.28	18.1223
1484.43	28.5571
1488.58	82.0769
1492.73	40.7092
1496.87	44.5339
1501.01	33.2192
1505.15	16.3264
1509.29	26.9045
1513.42	109.499
1517.55	85.416
1521.67	33.0557
1525.8	78.6509
1529.92	49.4143
1534.04	34.2415
1538.16	41.1069
1542.27	2.87598
1546.39	12.7388
1550.49	80.7722
1554.6	92.7317
1558.71	118.45
1562.81	57.1624
1566.91	31.1401
1571	33.0249
1575.1	66.9019
