Measurement: Raman, 514 nm, depolarized, Raman Data Processed
Mineral: Diopside
Rruff sample: R040009
Ideal chemistry: CaMgSi_2_O_6_
Locality: Otter Lake, Quebec, Canada
Source: University of Arizona Mineral Museum
Description: Green square prismatic crystal associated with pale orange calcite
Measured chemistry: (Ca_0.97_Fe_0.02_Na_0.01_)_Σ=1_(Mg_0.97_Fe_0.02_Al_0.01_)_Σ=1_Si_2.00_O_6_; trace amounts of Mn and Ti
Pin_id: M00219
Orientation: Laser parallel to [-1 0 -1]. Fiducial mark perpendicular to laser is parallel to b* (0 1 0)
Raman shift (cm-1)	intensity
104.516	0
108.691	20.773
112.864	66.063
117.034	113.555
121.203	54.944
125.369	202.335
129.534	732.592
133.696	1360.87
137.857	3239.96
142.016	1714.68
146.172	564.389
150.327	231.764
154.48	135.513
158.63	162.094
162.779	269.008
166.926	225.597
171.07	196.362
175.213	254.147
179.354	433.168
183.493	346.303
187.63	328.634
191.765	298.076
195.898	178.376
200.029	157.84
204.158	47.689
208.285	145.032
212.41	121.413
216.533	183.148
220.654	275.191
224.773	637.777
228.891	1156.65
233.006	857.717
237.119	326.972
241.231	331.375
245.34	237.928
249.448	301.696
253.553	540.625
257.657	311.69
261.758	48.93
265.858	49.452
269.956	59.576
274.052	14.338
278.146	32.326
282.237	213.577
286.327	227.282
290.416	282.957
294.502	221.453
298.586	509.46
302.668	733.284
306.749	709.435
310.827	1195.21
314.903	2087.79
318.978	4385.44
323.051	7260.75
327.121	4782.67
331.19	2249.75
335.257	1123.85
339.322	697.059
343.385	524.598
347.446	674.244
351.505	1075.77
355.563	1688.32
359.618	1493.9
363.672	1477.48
367.723	1549.04
371.773	917.875
375.821	1031.52
379.866	1566.27
383.91	3481.71
387.952	7048.47
391.992	6284.25
396.031	2773.82
400.067	1105.37
404.101	634.125
408.134	261.096
412.165	90.98
416.193	102.137
420.22	137.238
424.245	247.721
428.268	55.051
432.289	201.115
436.309	16.473
440.326	44.615
444.342	115.863
448.355	98.635
452.367	109.873
456.377	132.617
460.385	38.625
464.391	23.627
468.395	96.432
472.398	306.303
476.398	95.254
480.397	82.732
484.394	178.082
488.389	216.279
492.382	25.391
496.373	3.531
500.362	22.395
504.349	170.658
508.335	291.982
512.319	394.131
516.3	528.102
520.28	362.887
524.259	428.482
528.235	720.877
532.209	369.07
536.182	350.062
540.152	56.848
544.121	238.375
548.088	248.438
552.053	259.062
556.017	430.951
559.978	268.523
563.938	194.686
567.895	210.756
571.851	106.836
575.805	91.229
579.758	223.961
583.708	79.844
587.657	213.459
591.603	9.129
595.548	330.848
599.491	292.512
603.432	368.646
607.372	161.662
611.309	67.586
615.245	253.113
619.179	322.02
623.111	92.557
627.041	412.047
630.97	667.408
634.896	369.131
638.821	454.473
642.744	512.627
646.665	572.088
650.584	853.787
654.502	2068.94
658.418	3698.72
662.331	7296.54
666.244	9575.91
670.154	5579.11
674.062	2819
677.969	1424.92
681.874	1291.5
685.777	794.404
689.678	563.574
693.577	471.094
697.475	388.076
701.371	410.383
705.265	697.502
709.157	514.543
713.047	117.232
716.936	136.621
720.823	372.611
724.708	8.803
728.591	259.396
732.472	11.721
736.352	121.934
740.23	9.83
744.106	422.641
747.98	284.535
751.853	84.961
755.723	5.516
759.592	113.031
763.459	13.943
767.325	98.775
771.188	9.871
775.05	206.418
778.91	39.576
782.768	62.633
786.625	87.607
790.479	141.719
794.332	454.037
798.183	15.051
802.033	126.08
805.88	297.826
809.726	71.75
813.57	76.137
817.413	51.172
821.253	120.498
825.092	350.74
828.929	440.855
832.764	121.264
836.598	208.162
840.429	608.074
844.259	526.83
848.088	448.406
851.914	908.912
855.739	1386.47
859.562	762.27
863.383	601.191
867.203	359.803
871.02	359.01
874.836	307.738
878.65	523.303
882.463	470.186
886.274	258.707
890.083	354.516
893.89	461.439
897.695	513.635
901.499	518.141
905.301	549.146
909.102	322.734
912.9	189.072
916.697	265.406
920.492	318.031
924.285	640.193
928.077	437.363
931.867	182.863
935.655	78.473
939.442	209.545
943.226	15.061
947.009	272.582
950.791	488.182
954.57	615.59
958.348	446.928
962.124	153.393
965.899	373.918
969.671	276.697
973.442	522.592
977.211	444.607
980.979	219.688
984.745	662.328
988.509	1168.14
992.271	1123.58
996.032	1501.75
999.791	2330.76
1003.55	3478.91
1007.3	7075.76
1011.06	15243.1
1014.81	12935.6
1018.56	5368.62
1022.31	2718.71
1026.06	1793.48
1029.8	1339.91
1033.55	1432.92
1037.29	1169.64
1041.03	960.617
1044.77	1135.19
1048.5	1638.83
1052.24	1131.07
1055.97	1054.68
1059.7	763.707
1063.43	603.109
1067.16	1055.12
1070.89	969.77
1074.61	948.238
1078.34	840.727
1082.06	341.562
1085.78	500.227
1089.5	280.766
1093.21	141.891
1096.93	418.48
1100.64	72.906
1104.35	204.309
1108.06	16.414
1111.77	124.305
1115.48	128.543
1119.18	162.949
1122.89	142.16
1126.59	342.332
1130.29	582.93
1133.99	8.797
1137.68	583.637
1141.38	156.551
1145.07	405.688
1148.76	60.543
1152.45	279.676
1156.14	6.355
1159.83	177.465
1163.51	231.223
1167.19	305.051
1170.88	10.727
1174.56	422.609
1178.23	369.98
1181.91	333.004
1185.59	103.648
1189.26	488.551
1192.93	281.688
1196.6	510.066
1200.27	296.73
1203.94	676.176
1207.6	267.43
1211.27	388.391
1214.93	667.965
1218.59	482.074
1222.25	563.531
1225.9	664.055
1229.56	491.18
1233.21	747.457
1236.86	820.828
1240.51	685.383
1244.16	304.039
1247.81	47.262
1251.45	280.871
1255.1	211.727
1258.74	451.18
1262.38	600.629
1266.02	424.414
1269.66	14.426
1273.29	263.699
1276.93	69.66
1280.56	230.262
1284.19	361.082
1287.82	435.582
1291.45	55.559
1295.07	303.371
1298.7	483.273
1302.32	279.562
1305.94	305.109
1309.56	616.199
1313.18	53.332
1316.8	464.695
1320.41	600.211
1324.02	0
