Measurement: Raman, 514 nm, depolarized, Raman Data Processed
Mineral: Diopside
Rruff sample: R070123
Ideal chemistry: CaMgSi_2_O_6_
Locality: Yates mine, Otter Lake, Huddersfield Township, Pontiac County, Québec, Canada
Source: Michael Scott
Description: Black prismatic crystals associated with orange calcite
Measured chemistry: (Ca_0.95_Na_0.04_Mn_0.01_)_Σ=1_(Mg_0.63_Fe_0.33_Al_0.04_)_Σ=1_Si_2.00_O_6_
Pin_id: M01382
Orientation: Laser parallel to (1 0 -1). Fiducial mark perpendicular to laser is parallel to b [0 1 0]
Raman shift (cm-1)	intensity
106.9	0
111.855	107.804
116.808	222.134
121.758	21.0429
126.705	27.5647
131.649	310.79
136.591	379.05
141.529	152.672
146.465	1.0929
151.398	2.35559
156.328	96.0144
161.256	100.034
166.18	190.512
171.102	360.319
176.021	508.356
180.937	571.529
185.85	524.248
190.76	602.274
195.668	503.743
200.572	369.247
205.474	159.744
210.374	75.7659
215.27	40.3657
220.163	195.571
225.054	399.377
229.942	757.778
234.827	787.762
239.709	405.316
244.589	401.425
249.465	446.074
254.339	420.741
259.21	397.116
264.079	298.256
268.944	255.977
273.807	204.947
278.667	266.453
283.524	292.548
288.378	505.324
293.23	784.283
298.079	1216.93
302.925	1958.39
307.768	3229.26
312.609	5011.73
317.446	7586.85
322.281	8091.52
327.113	5686.6
331.943	3551.07
336.769	2343.91
341.593	1849.12
346.414	1778.68
351.233	2102.58
356.048	2010.8
360.861	1662.33
365.671	1623.16
370.478	2077.29
375.283	3563.7
380.084	6084.38
384.883	9101.32
389.68	8494.52
394.473	4542.96
399.264	1973.65
404.052	887.658
408.837	467.989
413.62	294.64
418.4	145.607
423.177	50.8589
427.951	76.6162
432.722	107.966
437.491	19.4331
442.257	2.80518
447.021	53.4241
451.781	162.872
456.539	335.339
461.294	336.284
466.047	138.391
470.797	102.029
475.544	55.7
480.288	108.55
485.03	135.525
489.768	159.596
494.504	280.744
499.238	614.959
503.969	956.231
508.697	912.549
513.422	722.903
518.144	846.298
522.864	965.758
527.582	1138.28
532.296	989.949
537.008	657.753
541.717	590.594
546.423	726.411
551.127	1091.19
555.828	1797.92
560.526	1442.59
565.222	748.185
569.915	476.885
574.605	320.623
579.292	184.188
583.977	99.4154
588.659	45.6169
593.339	22.2172
598.016	28.323
602.69	19.3384
607.361	59.5864
612.03	130.475
616.696	261.119
621.359	336.95
626.02	523.756
630.678	705.83
635.333	965.665
639.986	1331.27
644.636	1996.65
649.284	3432.78
653.928	6434.66
658.57	12935
663.21	21383.7
667.846	20053.3
672.481	10060.2
677.112	4754.77
681.741	2471.09
686.367	1491.71
690.99	959.921
695.611	691.525
700.229	513.751
704.845	305.46
709.458	259.177
714.068	226.643
718.676	156.024
723.281	103.595
727.883	61.618
732.483	49.0324
737.08	37.4642
741.674	6.04382
746.266	27.2352
750.855	31.1204
755.442	41.6332
760.025	25.1058
764.607	33.354
769.185	58.4227
773.761	121.332
778.335	16.0918
782.906	76.7113
787.474	31.2023
792.039	23.5747
796.602	10.7925
801.162	4.80554
805.72	55.3839
810.275	0.012939
814.828	43.0626
819.378	22.9823
823.925	41.9125
828.47	8.23108
833.012	1.39722
837.551	3.56506
842.088	1.74145
846.622	65.0905
851.154	178.958
855.683	359.873
860.209	319.751
864.733	253.949
869.254	304.456
873.773	336.394
878.289	347.279
882.803	376.488
887.314	432.475
891.822	445.8
896.328	506.103
900.831	465.74
905.332	456.05
909.83	547.755
914.325	472.747
918.818	372.014
923.308	414.569
927.796	294.471
932.281	388.107
936.764	251.416
941.244	269.14
945.721	304.087
950.196	403.128
954.668	505.625
959.138	647.037
963.605	805.247
968.07	940.374
972.532	1149.84
976.991	1405
981.448	1756.27
985.903	2181.92
990.355	2839.89
994.804	4447.2
999.251	7671.85
1003.7	15020.9
1008.14	31190.4
1012.58	45823.4
1017.01	29260.9
1021.45	12201
1025.88	6403.83
1030.31	4528.69
1034.73	4044.33
1039.16	4182.3
1043.58	3978.83
1048	3030.62
1052.41	2059.62
1056.83	1449.55
1061.24	1122.42
1065.65	859.046
1070.05	740.977
1074.46	581.617
1078.86	555.354
1083.26	539.47
1087.65	489.132
1092.05	527.5
1096.44	468.291
1100.83	458.455
1105.21	393.156
1109.6	410.366
1113.98	396.002
1118.36	388.23
1122.73	424.504
1127.1	444.901
1131.47	415.199
1135.84	343.536
1140.21	228.97
1144.57	222.372
1148.93	111.751
1153.29	18.1178
1157.65	0.446167
1162	5.36414
1166.35	7.32703
1170.7	63.5242
1175.05	1.84119
1179.39	6.93213
1183.73	41.7719
1188.07	57.0913
1192.41	29.3497
1196.74	0.828247
1201.07	23.7112
1205.4	19.3009
1209.72	17.3682
1214.05	15.7168
1218.37	20.6519
1222.69	27.3893
1227.01	28.8672
1231.32	33.1309
1235.63	52.1144
1239.94	33.7753
1244.24	131.189
1248.55	79.4253
1252.85	92.522
1257.15	86.3878
1261.44	121.067
1265.74	67.5587
1270.03	104.857
1274.32	99.9619
1278.61	115.951
1282.89	158.952
1287.17	95.783
1291.45	148.959
1295.73	125.472
1300	163.43
1304.27	91.9884
1308.54	98.0176
1312.81	122.357
1317.08	150.886
1321.34	98.4623
1325.6	182.637
1329.85	168.291
1334.11	172.66
1338.36	125.196
1342.61	150.588
1346.86	118.576
1351.1	93.4624
1355.35	92.9423
1359.59	126.852
1363.82	79.9636
1368.06	87.24
1372.29	74.6851
1376.52	85.3245
1380.75	105.673
1384.97	73.9139
1389.2	48.2742
1393.42	73.4146
1397.64	118.487
1401.85	45.3865
1406.07	73.2036
1410.28	38.6329
1414.49	76.3204
1418.69	50.3085
1422.9	94.9488
1427.1	72.5727
1431.3	59.1671
1435.49	12.9026
1439.69	48.0258
1443.88	55.8179
1448.07	20.8997
1452.26	98.194
1456.44	67.4995
1460.62	43.8143
1464.8	44.2284
1468.98	30.1084
1473.15	61.4998
1477.33	7.82898
1481.5	0.139282
1485.66	38.4751
1489.83	55.2416
1493.99	99.0715
1498.15	0.961914
1502.31	105.555
1506.47	27.4292
1510.62	56.1785
1514.77	101.552
1518.92	67.5128
1523.07	30.8948
1527.21	44.4606
1531.35	23.9386
1535.49	59.5547
1539.63	3.63769
1543.76	47.4292
1547.9	40.2058
1552.03	86.7876
1556.15	22.3152
1560.28	15.5771
