Measurement: Raman, 514 nm, depolarized, Raman Data Processed
Mineral: Diopside
Rruff sample: R040009
Ideal chemistry: CaMgSi_2_O_6_
Locality: Otter Lake, Quebec, Canada
Source: University of Arizona Mineral Museum
Description: Green square prismatic crystal associated with pale orange calcite
Measured chemistry: (Ca_0.97_Fe_0.02_Na_0.01_)_Σ=1_(Mg_0.97_Fe_0.02_Al_0.01_)_Σ=1_Si_2.00_O_6_; trace amounts of Mn and Ti
Pin_id: L00101
Orientation: Laser parallel to -a [-1 0 0]. Fiducial mark perpendicular to laser is parallel to -b* (0 -1 0)
Raman shift (cm-1)	intensity
87.798	0
91.981	262.962
96.161	79.373
100.34	61.397
104.516	108.783
108.691	285.967
112.864	208.993
117.034	822.072
121.203	902.033
125.369	450.435
129.534	728.675
133.696	1858.06
137.857	5088.71
142.016	2998.04
146.172	892.503
150.327	246.336
154.48	63.493
158.63	0.646
162.779	62.141
166.926	18.423
171.07	33.504
175.213	243.39
179.354	1616.92
183.493	1229.06
187.63	233.654
191.765	619.679
195.898	923.905
200.029	190.256
204.158	36.818
208.285	119.678
212.41	110.644
216.533	29.369
220.654	80.584
224.773	375.476
228.891	1413.31
233.006	1844.08
237.119	912.6
241.231	352.003
245.34	279.355
249.448	862.653
253.553	2200.43
257.657	1005.73
261.758	223.088
265.858	1.019
269.956	55.548
274.052	42.003
278.146	18.111
282.237	49.684
286.327	70.379
290.416	101.138
294.502	335.802
298.586	633.198
302.668	950.071
306.749	1546.84
310.827	2839.5
314.903	4754.17
318.978	10951.4
323.051	23392.1
327.121	17080.2
331.19	7207.19
335.257	3981.56
339.322	2096.62
343.385	1464.34
347.446	1242.49
351.505	1320.39
355.563	1453.25
359.618	1403.07
363.672	1749.85
367.723	2702.59
371.773	2027.27
375.821	1997.9
379.866	2955.66
383.91	6431.37
387.952	16158.8
391.992	18401.2
396.031	7685.56
400.067	3133.84
404.101	1525.06
408.134	805.219
412.165	532.551
416.193	362.868
420.22	212.629
424.245	148.228
428.268	110.615
432.289	120.297
436.309	15.122
440.326	27.749
444.342	15.115
448.355	33.304
452.367	40.169
456.377	60.741
460.385	216.164
464.391	388.189
468.395	232.142
472.398	23.01
476.398	9.757
480.397	7.657
484.394	44.223
488.389	33.049
492.382	62.263
496.373	98.447
500.362	262.629
504.349	909.78
508.335	2290.88
512.319	1528.93
516.3	1160.91
520.28	812.813
524.259	1092.61
528.235	1943.3
532.209	1723.89
536.182	856.37
540.152	435.781
544.121	232.102
548.088	167.264
552.053	236.262
556.017	302.095
559.978	436.759
563.938	168.255
567.895	97.58
571.851	160.134
575.805	92.409
579.758	58.407
583.708	86.792
587.657	20.052
591.603	59.551
595.548	21.759
599.491	48.571
603.432	29.635
607.372	55.479
611.309	122.54
615.245	204.897
619.179	213.116
623.111	365.161
627.041	377.756
630.97	506.064
634.896	638.458
638.821	786.657
642.744	1166.12
646.665	1595.54
650.584	2403.85
654.502	4109.48
658.418	8165.02
662.331	18040.6
666.244	29354.7
670.154	20562.7
674.062	9477.73
677.969	4737.4
681.874	2764.71
685.777	1746.25
689.678	1302.87
693.577	771.674
697.475	782.612
701.371	703.687
705.265	778.446
709.157	671.891
713.047	500.16
716.936	287.971
720.823	285.047
724.708	222.829
728.591	121.14
732.472	112.753
736.352	90.565
740.23	153.986
744.106	142.741
747.98	38.487
751.853	127.846
755.723	114.874
759.592	51.324
763.459	18.276
767.325	95.57
771.188	47.626
775.05	28.521
778.91	66.068
782.768	36.431
786.625	161.724
790.479	30.469
794.332	23.129
798.183	55.579
802.033	38.608
805.88	102.062
809.726	89.655
813.57	16.809
817.413	17.403
821.253	32.543
825.092	17.952
828.929	9.084
832.764	29.745
836.598	1.065
840.429	37.026
844.259	33.357
848.088	143.877
851.914	522.803
855.739	978.471
859.562	622.921
863.383	346.135
867.203	318.137
871.02	152.882
874.836	183.356
878.65	216.447
882.463	193.571
886.274	168.926
890.083	210.043
893.89	214.667
897.695	285.75
901.499	264.282
905.301	264.719
909.102	389.986
912.9	522.161
916.697	444.566
920.492	317.792
924.285	267.864
928.077	281.904
931.867	90.218
935.655	217.285
939.442	192.979
943.226	95.463
947.009	61.382
950.791	114.2
954.57	166.373
958.348	267.273
962.124	327.188
965.899	367.591
969.671	493.678
973.442	674.309
977.211	747.845
980.979	821.478
984.745	982.614
988.509	1425.95
992.271	1970.3
996.032	3126.39
999.791	4408.66
1003.55	7611.94
1007.3	15902.4
1011.06	37978.8
1014.81	48367.5
1018.56	20719.2
1022.31	8309.86
1026.06	4416.56
1029.8	2969.35
1033.55	2278.12
1037.29	2062.46
1041.03	2061.17
1044.77	2368.55
1048.5	2293.06
1052.24	1764.57
1055.97	1101.71
1059.7	855.291
1063.43	639.038
1067.16	488.792
1070.89	439.2
1074.61	369.026
1078.34	303.368
1082.06	305.024
1085.78	281.157
1089.5	198.109
1093.21	96.625
1096.93	80.883
1100.64	237.514
1104.35	23.48
1108.06	83.738
1111.77	89.301
1115.48	114.453
1119.18	127.924
1122.89	550.834
1126.59	194.523
1130.29	231.478
1133.99	24.872
1137.68	67.417
1141.38	139.661
1145.07	151.757
1148.76	47.106
1152.45	98.746
1156.14	18.996
1159.83	65.77
1163.51	38.264
1167.19	59.524
1170.88	136.004
1174.56	51.885
1178.23	3.921
1181.91	37.977
1185.59	124.008
1189.26	147.929
1192.93	124.367
1196.6	145.405
1200.27	224.76
1203.94	200.503
1207.6	169.273
1211.27	218.002
1214.93	189.846
1218.59	248.291
1222.25	63.839
1225.9	296.365
1229.56	265.698
1233.21	126.941
1236.86	107.024
1240.51	228.022
1244.16	198.738
1247.81	275.103
1251.45	242.18
1255.1	284.253
1258.74	79.055
1262.38	179.888
1266.02	92.738
1269.66	204.291
1273.29	64.693
1276.93	221.064
1280.56	156.9
1284.19	154.721
1287.82	117.065
1291.45	244.634
1295.07	56.007
1298.7	19.438
1302.32	69.847
1305.94	9.225
1309.56	127.857
1313.18	62.643
1316.8	38.973
1320.41	133.959
1324.02	110.799
1327.63	90.236
1331.24	74.676
1334.85	43.143
1338.46	25.672
1342.06	21.438
1345.67	129.881
1349.27	172.594
1352.87	197.504
1356.47	441.449
1360.07	84.893
1363.66	628.973
1367.25	312.119
1370.85	261.82
1374.44	311.27
1378.03	398.01
1381.61	403.875
1385.2	412.018
1388.78	415.336
1392.37	390.367
1395.95	340.318
1399.53	448.135
1403.1	427.055
1406.68	625.615
1410.26	562.824
1413.83	489.668
1417.4	406.232
1420.97	197.271
1424.54	373.943
1428.1	379.625
1431.67	212.848
1435.23	307.814
1438.8	492.922
1442.36	424.811
1445.91	557.818
1449.47	428.027
1453.03	500.029
1456.58	425.701
1460.13	389.539
1463.68	97.52
1467.23	537.234
1470.78	106.648
1474.33	370.367
1477.87	206.102
1481.42	501.344
1484.96	270.48
1488.5	33.336
