Measurement: Raman, 514 nm, ccw, Raman Data Processed
Mineral: Diopside
Rruff sample: R040097
Ideal chemistry: CaMgSi_2_O_6_
Locality: Fassathal, Tyrol
Source: University of Arizona Mineral Museum
Description: Green prismatic crystals
Measured chemistry: Ca_1.00_(Mg_0.83_Al_0.10_Fe_0.09_Ca_0.02_Ti_0.02_)(Si_0.88_Al_0.12_)_2_O_6_
Pin_id: L00346
Orientation: Laser parallel to a [1 0 0]. Fiducial mark perpendicular to laser is parallel to b* (0 1 0)
Raman shift (cm-1)	intensity
111.968	0
116.878	1336.44
121.785	2025.91
126.69	1925.22
131.594	2368.34
136.495	6702.81
141.393	10067.2
146.29	11765.6
151.185	7056.25
156.077	3446.12
160.967	2229.53
165.855	1440.97
170.741	2759.16
175.624	4451.69
180.505	5283.78
185.384	8924.88
190.261	9543.28
195.136	10332
200.008	10293.6
204.879	6128
209.747	3845.53
214.613	5590.56
219.476	7423.19
224.337	10312.6
229.197	13847
234.053	12120.9
238.908	7443.66
243.76	6012.66
248.611	5976.19
253.458	7279.75
258.304	7317.16
263.148	5410.31
267.989	1955.53
272.828	2776.19
277.664	2124.91
282.499	1949.84
287.331	2647.59
292.16	2876.56
296.988	4151.56
301.813	7238.62
306.636	12766.5
311.457	19311.3
316.275	29624.6
321.091	42480.5
325.905	51354.6
330.717	45420.7
335.526	32929.8
340.333	24573.2
345.138	19938.4
349.94	19319.3
354.74	18633.6
359.538	17881.3
364.333	17099
369.126	18217.2
373.917	18017.6
378.706	19724.8
383.492	27445.6
388.276	41447.6
393.057	57491.7
397.836	50541.4
402.613	28151
407.387	10927.4
412.16	3408.28
416.929	1229.66
421.697	769.75
426.462	274.844
431.225	102.062
435.985	324.188
440.743	906.125
445.499	473.25
450.252	353.938
455.003	566.875
459.752	2161.94
464.498	1337.31
469.242	1319.88
473.983	445.906
478.722	334
483.459	116.969
488.193	143.656
492.925	586.656
497.655	1964.47
502.382	5223.38
507.107	7967.59
511.829	10977
516.549	10277
521.267	9374.78
525.982	7629.75
530.695	7449.5
535.405	6278.88
540.113	5293.38
544.818	4747.5
549.522	5930.06
554.222	5790.69
558.92	6325.12
563.616	6782.44
568.31	5872.69
573.001	4558.06
577.689	3535.62
582.376	528.312
587.059	1031.69
591.741	1879.69
596.419	1236
601.096	124.312
605.77	1620.62
610.441	1977.69
615.11	3313.31
619.777	495.688
624.441	1304.44
629.103	3025.69
633.762	4746.31
638.419	5544.38
643.073	8668.69
647.725	11609.8
652.374	18507.6
657.021	31373.2
661.665	50823.7
666.307	73573.4
670.947	70527.6
675.584	43375.5
680.218	23890.6
684.85	15079.2
689.48	11286.9
694.107	8070
698.731	6243.12
703.354	5075.56
707.973	6415.62
712.59	4081.19
717.205	4313.31
721.817	1756.38
726.426	652.562
731.033	1847.81
735.638	734.75
740.24	1072
744.839	527.875
749.436	140.75
754.031	678.375
758.623	400.375
763.212	292.25
767.799	1595.69
772.384	915.5
776.965	467.938
781.545	1568
786.122	3531.44
790.696	2628.88
795.267	217
799.837	3837.12
804.403	3786.94
808.967	3207.06
813.529	4166.69
818.088	6051.31
822.644	7895.31
827.198	7298.94
831.749	6430.5
836.298	5182.25
840.844	4619.81
845.388	2169.31
849.929	3499.62
854.468	5039.81
859.004	4164.44
863.537	4764.12
868.068	5903.31
872.596	4097.56
877.122	2790.19
881.645	1315.75
886.165	869.312
890.683	1637.75
895.199	111.812
899.711	2093.56
904.221	3210.94
908.729	1543.25
913.234	2361.25
917.736	4400
922.236	3988
926.733	2293.31
931.228	2259.38
935.72	1878.69
940.209	419.062
944.696	1525.5
949.18	3081.38
953.662	1592.19
958.141	1017.19
962.617	4496.25
967.091	4486.06
971.562	4320.94
976.03	5221.56
980.496	5350.25
984.959	6339.5
989.42	8014.38
993.878	16528.8
998.333	28095.8
1002.79	52151.6
1007.24	85691.2
1011.68	99971.8
1016.13	66850.6
1020.57	26548.8
1025.01	11926.8
1029.45	7978.38
1033.88	9890
1038.31	11080
1042.74	10627.9
1047.17	8982.31
1051.59	7116.5
1056.01	4596.31
1060.43	661.125
1064.85	2434.19
1069.26	600.688
1073.67	305.188
1078.08	1735.31
1082.48	432.938
1086.88	375.938
1091.29	1956.31
1095.68	2652.62
1100.08	60.8125
1104.47	4224.5
1108.86	2871
1113.24	1528.31
1117.63	3053.12
1122.01	2764.06
1126.39	876.125
1130.76	2242.62
1135.13	2742.94
1139.51	610.938
1143.87	4216.38
1148.24	964.812
1152.6	49.5
1156.96	1272.5
1161.32	1102.06
1165.67	261.312
1170.02	1206.75
1174.37	3089.62
1178.72	68.875
1183.06	3966.69
1187.4	1518.69
1191.74	334.188
1196.07	2540
1200.4	565.312
1204.73	757.312
1209.06	2106.56
1213.39	291.375
1217.71	611.938
1222.03	2104.38
1226.34	1477.62
1230.66	1746.75
1234.97	3309.75
1239.28	1921.56
1243.58	2974.06
1247.88	4603.06
1252.18	4955.62
1256.48	3678.31
1260.77	2926.56
1265.07	2428.75
1269.35	3001.56
1273.64	1977.5
1277.92	3020.38
1282.2	3247.62
1286.48	249.625
1290.76	3391.88
1295.03	1570.12
1299.3	1928.25
1303.57	4711.88
1307.83	3128.25
1312.09	3424.62
1316.35	5387.5
1320.61	4680.5
1324.86	5583.25
1329.11	4943.5
1333.36	2440.88
1337.6	7423.75
1341.84	5538
1346.08	3655.5
1350.32	6398.12
1354.55	5149.38
1358.79	6206.75
1363.01	7241.25
1367.24	4567
1371.46	5503
1375.68	2477.75
1379.9	722
1384.11	4700.88
1388.32	1695.12
1392.53	3198.88
1396.74	2948.88
1400.94	2043.25
1405.14	3084.75
1409.34	2670.25
1413.54	2081.5
1417.73	860.75
1421.92	769.25
1426.1	4947
1430.29	45.5
1434.47	2386.75
1438.65	1711.12
1442.82	334.125
1446.99	284.125
1451.16	2826.12
1455.33	627.625
1459.49	1208.75
1463.66	1849.25
1467.82	2800.38
1471.97	501.75
1476.12	3621.38
1480.27	2164
1484.42	2382.88
1488.57	3295.75
1492.71	1772.25
1496.85	1934.88
1500.98	2953
1505.12	3242.12
1509.24	3937.75
1513.37	3870.12
1517.5	7291.75
1521.62	3224.75
1525.74	6347.75
1529.86	5775.12
1533.97	1909.25
1538.08	4579
1542.19	4810.88
1546.29	4349.75
1550.39	5335.38
1554.49	3921.5
1558.59	7496
1562.68	2751.88
1566.77	5349.62
1570.86	2034.25
1574.95	2311.5
1579.03	224.5
