Measurement: Raman, 514 nm, ccw, Raman Data Processed
Mineral: Diopside
Rruff sample: R050496
Ideal chemistry: CaMgSi_2_O_6_
Locality: New City Quarry, Riverside, Riverside County, Calfornia, USA
Source: California Institute of Technology
Description: Aggregate of light green irregular grains
Measured chemistry: Ca(Mg_0.66_Fe_0.33_Mn_0.01_)(Si_0.95_Al_0.05_)_2_O_6_
Pin_id: M01464
Orientation: Laser parallel to b* (0 1 0). Fiducial mark perpendicular to laser is parallel to -c [0 0 -1]
Raman shift (cm-1)	intensity
114.286	0
119.22	687.106
124.152	341.082
129.081	969.837
134.008	3824.08
138.932	7280.97
143.854	3811.39
148.773	1120.65
153.69	254.011
158.604	6.43555
163.515	12.3838
168.424	132.489
173.33	253.629
178.234	475.997
183.135	481.012
188.034	145.035
192.93	385.79
197.823	427.799
202.714	362.388
207.602	22.7871
212.488	57.833
217.371	28.8818
222.252	113.711
227.13	204.701
232.005	339.762
236.878	332.633
241.749	178.525
246.616	109.501
251.482	135.634
256.344	90.2607
261.204	11.5098
266.062	132.737
270.917	30.8691
275.769	69.9443
280.619	42.5244
285.466	211.315
290.311	261.01
295.153	382.651
299.992	649.592
304.829	1083.63
309.663	1736.28
314.495	2867.76
319.324	4160.54
324.151	4539.62
328.975	3669.81
333.796	2847.93
338.615	2381.34
343.432	2049.38
348.245	2524.39
353.056	2790.13
357.865	2499.83
362.671	1963.85
367.474	1609.4
372.275	1665.48
377.073	1941.92
381.869	3244.43
386.662	4887.01
391.452	4488.68
396.24	2392.82
401.025	956.945
405.808	486.9
410.588	242.331
415.366	165.16
420.141	266.393
424.913	83.5381
429.683	224.773
434.45	68.1231
439.214	100.997
443.976	62.0478
448.736	20.5762
453.493	145.246
458.247	208.538
462.998	306.368
467.747	192.197
472.494	228.398
477.238	193.939
481.979	192.661
486.718	208.961
491.454	299.192
496.187	412.357
500.918	963.618
505.646	1157.12
510.372	1086.58
515.095	838.928
519.816	965.149
524.534	959.243
529.249	1284.19
533.962	1283.01
538.672	1120.67
543.379	979.167
548.084	1091.51
552.786	916.909
557.486	746.384
562.183	758.796
566.878	920.019
571.57	553.57
576.259	711.829
580.946	336.683
585.63	126.363
590.311	9.14746
594.99	91.7148
599.667	74.3643
604.34	50.6025
609.012	33.4199
613.68	197.529
618.346	164.448
623.009	356.024
627.67	524.811
632.328	748.872
636.984	928.739
641.636	1545
646.287	2134.81
650.934	3594.16
655.579	6362.05
660.222	12311.5
664.862	18440.7
669.499	14055.2
674.134	7245.29
678.766	3780.81
683.395	2148.85
688.022	1244.41
692.646	870.487
697.268	544.077
701.887	368.404
706.503	125.008
711.117	171.081
715.728	79.6143
720.337	139.692
724.943	96.8496
729.546	35.5781
734.147	51.3623
738.745	23.2754
743.341	11.9219
747.933	61.1435
752.524	12.9658
757.111	4.28418
761.697	182.302
766.279	257.495
770.859	127.38
775.436	220.466
780.011	272.341
784.583	347.104
789.152	235.615
793.719	276.741
798.283	68.5664
802.845	132.094
807.404	145.346
811.96	155.977
816.514	375.079
821.065	433.592
825.613	345.884
830.159	185.97
834.703	159.859
839.243	247.562
843.781	198.503
848.317	929.614
852.849	1914.81
857.38	2300.76
861.907	1566.36
866.432	904.808
870.954	501.67
875.474	286.07
879.991	277.555
884.506	81.915
889.018	35.6953
893.527	98.749
898.034	74.1357
902.538	29.7344
907.039	30.5771
911.538	49.7949
916.034	164.141
920.528	8.56445
925.018	223.894
929.507	83.5732
933.992	144.139
938.476	135.468
942.956	143.658
947.434	187.707
951.909	217.862
956.382	425.258
960.852	434.854
965.319	556.677
969.784	557.747
974.246	570.799
978.705	680.349
983.162	909.148
987.616	1228.2
992.068	1810.55
996.517	3146.25
1000.96	5177.76
1005.41	9640.95
1009.85	17055.6
1014.29	18358.1
1018.72	9192.45
1023.16	4603.61
1027.59	2864
1032.02	2369.45
1036.44	2388.96
1040.86	2799.53
1045.28	2766.19
1049.7	2098.39
1054.12	1285.78
1058.53	902.08
1062.94	774.133
1067.35	524.071
1071.75	455.345
1076.15	596.558
1080.55	544.947
1084.95	386.711
1089.34	350.608
1093.73	363.713
1098.12	371.837
1102.51	336.89
1106.89	373.004
1111.27	288.616
1115.65	302.449
1120.03	329.757
1124.4	357.462
1128.77	266.129
1133.14	239.727
1137.5	204.242
1141.86	9.69824
1146.22	63.9648
1150.58	22.96
1154.93	133.829
1159.29	56.4053
1163.64	126.761
1167.98	96.959
1172.33	117.881
1176.67	135.096
1181.01	59.9131
1185.34	9.24023
1189.68	132.351
1194.01	106.101
1198.34	105.46
1202.66	15.4756
1206.99	62.9893
1211.31	5.66894
1215.62	135.786
1219.94	63.1699
1224.25	3.34961
1228.56	125.252
1232.87	112.899
1237.17	19.3164
1241.48	193.444
1245.78	127.37
1250.07	69.0898
1254.37	178.489
1258.66	280.656
1262.95	171.644
1267.23	215.441
1271.52	262.978
1275.8	78.0508
1280.08	288.431
1284.35	250.75
1288.63	215.023
1292.9	211.345
1297.16	45.7158
1301.43	63.3223
1305.69	188.918
1309.95	123.525
1314.21	331.094
1318.46	71.9199
1322.72	247.228
1326.97	349.539
1331.21	173.088
1335.46	134.988
1339.7	133.76
1343.94	200.721
1348.18	121.1
1352.41	314.916
1356.64	354.678
1360.87	207.967
1365.1	149.393
1369.32	205.875
1373.54	233.057
1377.76	203.041
1381.97	211.602
1386.19	322.553
1390.4	195.779
1394.6	255.381
1398.81	215.008
1403.01	136.772
1407.21	104.279
1411.41	308.791
1415.6	74.9961
1419.79	31.3613
1423.98	140.721
1428.17	149.553
1432.35	244.697
1436.54	122.996
1440.71	227.754
1444.89	202.609
1449.06	292.914
1453.23	89.0059
1457.4	200.981
1461.57	123.273
1465.73	112.732
1469.89	497.584
1474.05	122.725
1478.2	257.144
1482.36	361.963
1486.51	244.053
1490.65	25.4414
1494.8	167.666
1498.94	169.19
1503.08	102.068
1507.22	404.254
1511.35	30.2695
1515.48	203.435
1519.61	231.316
1523.74	241.697
1527.86	229.602
1531.98	63.9785
1536.1	263.969
1540.22	134.225
1544.33	164.752
1548.44	275.996
1552.55	225.881
1556.65	143.043
1560.76	194.377
1564.86	108.768
1568.95	188.272
1573.05	7.42969
1577.14	92.4883
