Measurement: Raman, 514 nm, ccw, Raman Data Processed
Mineral: Diopside
Rruff sample: R050496
Ideal chemistry: CaMgSi_2_O_6_
Locality: New City Quarry, Riverside, Riverside County, Calfornia, USA
Source: California Institute of Technology
Description: Aggregate of light green irregular grains
Measured chemistry: Ca(Mg_0.66_Fe_0.33_Mn_0.01_)(Si_0.95_Al_0.05_)_2_O_6_
Pin_id: M01175
Orientation: Laser parallel to c* (0 0 1). Fiducial mark perpendicular to laser is parallel to -a [-1 0 0]
Raman shift (cm-1)	intensity
125.385	0
130.313	51.5405
135.239	5.26221
140.163	131.637
145.084	83.6021
150.002	58.0566
154.918	48.3037
159.832	189.751
164.742	285.388
169.651	254.544
174.556	44.8232
179.459	165.102
184.36	202.318
189.258	290.425
194.153	335.615
199.046	280.585
203.936	78.1894
208.824	275.696
213.709	314.736
218.592	371
223.472	35.1973
228.349	86.5039
233.224	130.267
238.096	212.543
242.966	232.316
247.833	302.578
252.698	232.316
257.56	258.517
262.419	57.166
267.276	5.75098
272.13	57.5488
276.982	11.6621
281.831	76.7158
286.677	136.237
291.521	301.377
296.363	696.648
301.202	887.982
306.038	1103.04
310.872	1561.05
315.703	2631.7
320.531	3700.14
325.357	3877.06
330.181	2836.37
335.001	2295.06
339.82	1782.1
344.635	1961.42
349.448	2662.99
354.259	3167.84
359.067	2552.98
363.872	1772.39
368.675	1415.07
373.475	1411.99
378.272	2024.16
383.067	3775.56
387.86	5563.18
392.649	4536.02
397.437	2244.05
402.221	908.277
407.003	395.681
411.783	222.492
416.56	208.75
421.334	6.04102
426.106	17.1035
430.875	28.5205
435.641	23.9805
440.405	90.2744
445.167	95.7119
449.925	149.214
454.681	164.647
459.435	292.448
464.186	257.588
468.934	315.298
473.68	185.419
478.423	243.918
483.164	374.975
487.902	347.881
492.637	353.773
497.37	236.64
502.1	380.466
506.828	486.243
511.553	532.955
516.276	670.59
520.995	696.135
525.713	847.591
530.427	890.964
535.139	919.258
539.849	725.418
544.556	703.43
549.26	925.278
553.962	1331.96
558.661	1746.48
563.357	1373.01
568.051	842.697
572.742	731.731
577.431	399.197
582.117	324.249
586.801	195.435
591.481	69.3965
596.16	7.62109
600.835	81.9922
605.508	170.502
610.179	243.917
614.847	217.177
619.512	177.977
624.175	361.361
628.835	448.626
633.492	552.258
638.147	563.61
642.799	857.328
647.449	1141.84
652.096	2072.68
656.74	3764.13
661.382	6938.17
666.021	9457.98
670.658	6565.63
675.292	3336.41
679.923	1875.7
684.552	1015.36
689.178	768.551
693.802	558.27
698.423	421.519
703.041	233.803
707.657	195.352
712.27	20.1299
716.881	214.328
721.489	163.92
726.094	42.5283
730.697	100.192
735.297	25.3555
739.894	73.2002
744.489	115.42
749.081	72.0039
753.671	164.459
758.258	65.9648
762.842	105.847
767.424	225.355
772.003	168.511
776.58	243.325
781.154	247.811
785.725	165.978
790.294	397.205
794.86	230.774
799.424	151.049
803.985	123.01
808.543	139.626
813.099	129.466
817.652	316.974
822.202	426.788
826.75	131.384
831.295	68.7695
835.838	53.9375
840.378	28.5449
844.915	65.3897
849.45	324.578
853.982	375.838
858.512	798.91
863.039	398.437
867.563	142.566
872.085	134.625
876.604	180.261
881.12	42.0185
885.634	136.012
890.145	164.334
894.654	310.922
899.16	167.205
903.663	44.3262
908.164	278.917
912.662	199.425
917.158	181.345
921.651	288.138
926.141	275.281
930.628	166.537
935.113	278
939.596	78.3398
944.076	37.5205
948.553	88.2334
953.027	161.112
957.499	447.32
961.969	393.675
966.435	663.148
970.899	744.779
975.361	796.044
979.82	856.996
984.276	816.235
988.73	1285.27
993.181	1781.06
997.629	3058.35
1002.08	5141.58
1006.52	9529.8
1010.96	15632.2
1015.4	13660
1019.83	6175.95
1024.26	3014.43
1028.69	2011.06
1033.12	1660.58
1037.55	1515.59
1041.97	1563.32
1046.39	1401.94
1050.81	958.004
1055.22	674.666
1059.63	388.518
1064.04	330.103
1068.45	334.93
1072.85	201.057
1077.25	186.264
1081.65	167.201
1086.05	195.348
1090.44	256.125
1094.83	122.588
1099.22	222.273
1103.6	111.012
1107.99	4.14648
1112.37	165.471
1116.74	128.947
1121.12	83.5
1125.49	234.008
1129.86	63.5566
1134.23	186.559
1138.59	136.418
1142.95	66.7773
1147.31	130.772
1151.67	169.236
1156.02	224.391
1160.38	113.186
1164.72	200.371
1169.07	42.9258
1173.41	21.4609
1177.75	13.4355
1182.09	78.8867
1186.43	173.008
1190.76	7.05859
1195.09	121.418
1199.42	155.518
1203.74	122.303
1208.07	49.3418
1212.39	92.8652
1216.7	207.318
1221.02	168.307
1225.33	204.852
1229.64	188.584
1233.95	103.867
1238.25	373.832
1242.55	14.6309
1246.85	169.121
1251.15	241.826
1255.44	168.836
1259.73	121.602
1264.02	51.4727
1268.31	429.371
1272.59	201.961
1276.87	121.533
1281.15	154.869
1285.42	337.91
1289.69	209.182
1293.96	124.291
1298.23	242.106
1302.5	109.914
1306.76	312.041
1311.02	189.322
1315.27	237.56
1319.53	335.102
1323.78	137.188
1328.03	179.008
1332.28	33.3555
1336.52	52.7617
1340.76	90.418
1345	185.357
1349.23	219.391
1353.47	205.621
1357.7	184.512
1361.93	426.633
1366.15	300.863
1370.37	216.748
1374.59	460.412
1378.81	238.986
1383.03	250.441
1387.24	122.004
1391.45	164.875
1395.65	208.719
1399.86	403.994
1404.06	300.178
1408.26	285.5
1412.46	130.728
1416.65	343.174
1420.84	129.33
1425.03	10.7266
1429.22	209.049
1433.4	284.998
1437.58	161.482
1441.76	215.518
1445.93	219.641
1450.11	295.373
1454.28	121.371
1458.44	0.275391
1462.61	130.631
1466.77	293.465
1470.93	89.2812
1475.09	187.106
1479.24	294.008
1483.39	382.934
1487.54	303.09
1491.69	79.4453
1495.84	152.897
1499.98	187.514
1504.12	328.422
1508.25	174.615
1512.38	329.857
1516.52	191.973
1520.64	104.701
1524.77	154.826
1528.89	289.449
1533.01	270.674
1537.13	103.609
1541.25	153.506
1545.36	166.201
1549.47	262.844
1553.58	286.305
1557.68	38.959
1561.78	259.738
1565.88	215.109
1569.98	155.772
1574.07	2.9043
