Measurement: Raman, 514 nm, depolarized, Raman Data Processed
Mineral: Diopside
Rruff sample: R050496
Ideal chemistry: CaMgSi_2_O_6_
Locality: New City Quarry, Riverside, Riverside County, Calfornia, USA
Source: California Institute of Technology
Description: Aggregate of light green irregular grains
Measured chemistry: Ca(Mg_0.66_Fe_0.33_Mn_0.01_)(Si_0.95_Al_0.05_)_2_O_6_
Pin_id: M01175
Orientation: Laser parallel to c* (0 0 1). Fiducial mark perpendicular to laser is parallel to -a [-1 0 0]
Raman shift (cm-1)	intensity
117.987	0
122.919	217.204
127.849	30.1885
132.777	128.47
137.702	131.654
142.624	311.325
147.544	165.123
152.461	290.553
157.375	234.69
162.287	308.166
167.197	516.014
172.104	203.804
177.008	343.342
181.91	376.491
186.809	182.087
191.706	316.136
196.6	284.768
201.491	111.093
206.38	147.247
211.267	165.519
216.151	167.158
221.032	291.57
225.911	414.767
230.787	630.741
235.66	522.483
240.531	402.96
245.4	374.152
250.266	281.039
255.129	332.596
259.99	297.797
264.848	314.453
269.703	99.8047
274.556	22.1855
279.407	42.2852
284.255	48.3301
289.1	222.584
293.942	433.971
298.783	837.078
303.62	1231.94
308.455	1584.48
313.288	2452.8
318.117	3832.18
322.945	4921.4
327.769	4096.24
332.591	3118.6
337.411	2308.42
342.228	2078.1
347.042	2228.3
351.854	2789.28
356.663	2591.66
361.47	2081.43
366.274	1562.56
371.075	1501.04
375.874	1957.85
380.67	3415.98
385.464	5402.41
390.255	6335.14
395.043	3842.13
399.829	1926.38
404.613	650.883
409.393	387.619
414.172	141.666
418.947	163.082
423.72	32.3184
428.49	181.234
433.258	28.6406
438.024	165.346
442.786	56.3984
447.546	207.609
452.304	35.6992
457.059	175.367
461.811	259.578
466.56	316.287
471.308	194.248
476.052	278.791
480.794	199.565
485.533	324.342
490.27	352.162
495.004	236.986
499.736	391.803
504.465	402.574
509.191	433.281
513.915	497.934
518.636	665.559
523.354	860.078
528.07	1124.48
532.784	1093.75
537.494	751.998
542.203	765.109
546.908	719.043
551.611	923.781
556.311	1537.31
561.009	1420.63
565.704	756.076
570.397	618.354
575.087	376.877
579.774	278.408
584.459	204.025
589.141	203.791
593.821	73.0391
598.498	91.9785
603.172	45.5898
607.844	56.9805
612.513	182.727
617.18	222.693
621.844	316.943
626.505	395.262
631.164	644.877
635.82	657.754
640.473	1093.04
645.124	1502.03
649.773	1966.25
654.418	3580.07
659.062	6444.37
663.702	11341.7
668.34	10836.5
672.975	6025.89
677.608	3284.17
682.238	1852.04
686.866	1060.14
691.49	878.324
696.113	549.594
700.732	256.502
705.349	253.35
709.964	32.1016
714.576	27.5
719.185	174.957
723.792	10.3652
728.396	194.068
732.997	105.394
737.596	65.1738
742.192	102.174
746.785	95.1191
751.376	1.13867
755.965	142.807
760.551	143.92
765.134	109.438
769.714	233.379
774.292	28.8262
778.867	149.787
783.44	300.295
788.01	204.773
792.578	242.352
797.142	81.4336
801.705	344.809
806.264	214.236
810.821	160.264
815.376	139.488
819.927	442.316
824.476	312.791
829.023	199.935
833.567	152.777
838.108	182.014
842.647	104.668
847.183	143.301
851.716	497.018
856.247	1012.59
860.776	841.756
865.301	551.947
869.824	228.022
874.345	105.754
878.862	323.836
883.377	67.6484
887.89	101.781
892.4	314.883
896.907	259.188
901.412	5.91602
905.914	159.51
910.413	182.984
914.91	67.1816
919.404	166.748
923.896	89.3828
928.385	209.123
932.871	69.5859
937.355	140.147
941.836	158.455
946.315	79.2109
950.79	480.781
955.264	482.51
959.734	580.328
964.202	511.889
968.668	918.861
973.131	885.658
977.591	863.373
982.048	997.279
986.503	1314.98
990.955	1886.88
995.405	2908.25
999.852	4740.05
1004.3	8374.05
1008.74	15378.3
1013.18	20332
1017.61	12230.1
1022.05	5366.78
1026.48	3145.36
1030.91	2216.62
1035.33	1911.97
1039.76	2060.71
1044.18	2405.52
1048.6	1714.29
1053.01	1436.53
1057.42	762.492
1061.84	579.148
1066.24	324.736
1070.65	299.863
1075.05	248.566
1079.45	236.664
1083.85	240.805
1088.24	106.41
1092.63	98.2383
1097.02	371.551
1101.41	288.824
1105.8	157.152
1110.18	196.035
1114.56	6.34766
1118.93	421.731
1123.31	74.9766
1127.68	417.16
1132.04	96.2656
1136.41	520.656
1140.77	96.5898
1145.13	20.5742
1149.49	354.07
1153.85	111.363
1158.2	103.414
1162.55	196.051
1166.9	143.137
1171.24	39.8789
1175.58	30.9141
1179.92	118.488
1184.26	241.644
1188.6	83.2812
1192.93	127.422
1197.26	44.2539
1201.58	171.918
1205.9	327.246
1210.23	298.301
1214.55	104.602
1218.86	143.238
1223.17	207.586
1227.48	388.012
1231.79	225.82
1236.1	464.371
1240.4	355.652
1244.7	360.562
1249	279.34
1253.29	476.852
1257.59	318.106
1261.88	41.0977
1266.16	419.773
1270.45	327.176
1274.73	287.75
1279.01	238.695
1283.28	238.496
1287.56	238.324
1291.83	16.0977
1296.1	215.871
1300.36	48.1875
1304.63	218.492
1308.89	484.535
1313.15	417.676
1317.4	244.422
1321.65	388.121
1325.9	252.606
1330.15	140.875
1334.4	22.75
1338.64	99.4766
1342.88	88.0977
1347.12	250.602
1351.35	390.66
1355.58	389.973
1359.81	372.144
1364.04	409.168
1368.26	719.84
1372.48	400.894
1376.7	469.43
1380.92	456.574
1385.13	260.688
1389.34	300.688
1393.55	375.961
1397.76	370.176
1401.96	136.34
1406.16	244.543
1410.36	680.906
1414.55	226.289
1418.75	362.305
1422.94	263.809
1427.12	404.141
1431.31	272.441
1435.49	37.7578
1439.67	508.449
1443.85	300.844
1448.02	494.047
1452.19	128.664
1456.36	358.051
1460.53	236.039
1464.69	398.926
1468.85	377.816
1473.01	115.684
1477.17	383.484
1481.32	547.242
1485.47	555
1489.62	422.836
1493.76	298.719
1497.91	251.742
1502.05	294.629
1506.18	341.043
1510.32	244.551
1514.45	212.981
1518.58	460.258
1522.71	465.144
1526.83	121.777
1530.95	451.199
1535.07	256.629
1539.19	183.043
1543.3	242.648
1547.41	384.809
1551.52	219.023
1555.63	258.516
1559.73	549.848
1563.83	206.812
1567.93	5.42578
1572.03	220.113
1576.12	282.418
