Measurement: Raman, 514 nm, depolarized, Raman Data Processed
Mineral: Diopside
Rruff sample: R050666
Ideal chemistry: CaMgSi_2_O_6_
Locality: Franklin, Sussex County, New Jersey, USA
Source: University of Arizona Mineral Museum
Description: Brown cleavage fragment with white hardystonite
Measured chemistry: Ca(Mg_0.66_Mn_0.33_Fe_0.01_)Si_2_O_6_
Pin_id: L00874
Orientation: Laser parallel to -b* (0 -1 0). Fiducial mark perpendicular to laser is parallel to -c [0 0 -1]
Raman shift (cm-1)	intensity
109.512	0
114.44	303.885
119.365	376.215
124.288	1724.37
129.209	4795.9
134.127	6629.25
139.043	2222.69
143.956	446
148.867	85.9438
153.775	93.9961
158.681	61.832
163.585	27.023
168.486	64.4531
173.385	701.58
178.282	232.18
183.176	66.1206
188.067	102.586
192.956	156.485
197.843	176.331
202.727	268.01
207.609	13.6079
212.489	17.3047
217.366	64.7471
222.24	215.284
227.112	572.979
231.982	1295.35
236.849	775.852
241.714	217.072
246.577	167.591
251.437	312.532
256.294	344.213
261.149	410.505
266.002	250.247
270.852	177.208
275.7	231.337
280.545	249.042
285.388	326.922
290.229	479.939
295.067	970.668
299.902	1885.79
304.735	3860.49
309.566	6613.27
314.394	8370.61
319.22	6145.4
324.043	3424.91
328.864	2204.72
333.682	2003.83
338.498	2707.84
343.311	4211.83
348.122	5210.22
352.931	4018.59
357.737	2638.97
362.54	2216.94
367.341	2651.62
372.14	4190.52
376.936	7662.63
381.73	10519.9
386.521	6252.45
391.31	2449.16
396.096	1153.07
400.88	438.161
405.661	297.547
410.44	139.265
415.216	106.25
419.99	8.52637
424.761	2.80762
429.53	28.249
434.297	84.874
439.061	14.6152
443.822	127.401
448.581	238.477
453.337	268.634
458.091	128.024
462.843	20.2637
467.592	57.3047
472.338	32.8545
477.082	19.3203
481.824	60.6768
486.563	23.1328
491.3	294.446
496.034	774.204
500.765	1632.15
505.494	801.265
510.221	495.697
514.945	301.296
519.666	470.114
524.385	418.242
529.102	322.63
533.816	315.303
538.527	365.31
543.236	489.543
547.943	736.822
552.647	1409.18
557.348	1152.54
562.047	521.14
566.744	398.66
571.438	266.988
576.129	150.165
580.818	167.828
585.504	5.93262
590.188	33.044
594.87	136.756
599.549	114.446
604.225	16.4482
608.899	141.724
613.57	350.399
618.239	478.183
622.905	626.973
627.569	1002.63
632.23	1335.25
636.889	1921.22
641.545	3067.61
646.198	5709.92
650.849	11901.8
655.498	24382.7
660.144	32482.6
664.787	21107.5
669.428	10137.2
674.067	4919.94
678.703	2746.23
683.336	1693.57
687.967	1147.25
692.595	939.086
697.221	744.672
701.844	543.018
706.465	454.184
711.083	325.129
715.698	230.841
720.311	125.359
724.922	117.487
729.53	190.616
734.135	84.3975
738.738	38.832
743.338	295.549
747.936	173.461
752.531	88.2236
757.124	89.7285
761.714	71.7988
766.302	110.844
770.887	35.3262
775.469	28.1309
780.049	53.3516
784.626	0.902344
789.201	9.28809
793.773	8.94629
798.343	27.29
802.91	31.1055
807.475	95.0674
812.037	9.76074
816.596	29.8584
821.153	95.0957
825.707	29.1201
830.259	135.944
834.808	469.66
839.355	968.276
843.899	2476.8
848.441	3827.25
852.98	2293.63
857.516	1051.95
862.05	609.22
866.581	600.562
871.11	598.014
875.636	492.79
880.159	445.034
884.68	419.416
889.199	434.074
893.714	313.95
898.228	285.467
902.738	353.935
907.246	279.379
911.752	431.805
916.255	409.852
920.755	275.342
925.253	193.492
929.748	225.145
934.241	193.434
938.731	89.625
943.218	47.9346
947.703	156.781
952.186	206.638
956.665	315.321
961.142	441.694
965.617	432.934
970.089	571.456
974.558	468.264
979.025	768.364
983.489	1112.76
987.951	1469.46
992.41	2131.47
996.866	3752.78
1001.32	7553.41
1005.77	19180.4
1010.22	44178.9
1014.67	41526.7
1019.11	15518
1023.55	6473.75
1027.99	4410.17
1032.42	4239.09
1036.86	4927.69
1041.29	5077.57
1045.72	3214.06
1050.14	1803.64
1054.56	1388.1
1058.98	1038.86
1063.4	838.494
1067.82	836.794
1072.23	721.996
1076.64	754.968
1081.05	700.479
1085.45	485.101
1089.85	558.847
1094.25	549.021
1098.65	548.424
1103.04	516.029
1107.43	497.825
1111.82	590.812
1116.21	688.975
1120.59	1397.31
1124.97	1301.81
1129.35	416.51
1133.73	404.37
1138.1	311.562
1142.47	335.401
1146.84	168.616
1151.21	71.3057
1155.57	106.752
1159.93	56.5537
1164.29	35.0781
1168.64	52.5166
1172.99	24.998
1177.34	154.305
1181.69	30.5459
1186.04	22.165
1190.38	37.376
1194.72	122.154
1199.05	80.2178
1203.39	67.3545
1207.72	122.698
1212.05	154.977
1216.37	216.284
1220.7	125.518
1225.02	140.668
1229.34	128.94
1233.65	174.753
1237.97	94.6748
1242.28	191.519
1246.59	223.299
1250.89	154.983
1255.19	132.569
1259.49	126.908
1263.79	33.7178
1268.09	314.035
1272.38	70.0273
1276.67	140.869
1280.95	274.507
1285.24	10.1152
1289.52	133.415
1293.8	275.929
1298.08	213.955
1302.35	125.918
1306.62	78.501
1310.89	192.898
1315.15	106.791
1319.42	266.545
1323.68	150.644
1327.94	297.132
1332.19	137.568
1336.44	373.265
1340.69	287.039
1344.94	311.051
1349.19	117.773
1353.43	225.4
1357.67	272.782
1361.9	126.088
1366.14	285.338
1370.37	342.522
1374.6	336.743
1378.83	194.933
1383.05	32.0674
1387.27	91.9746
1391.49	1.70019
1395.7	182.517
1399.92	180.659
1404.13	222.718
1408.34	97.957
1412.54	23.4414
1416.74	152.605
1420.94	201.244
1425.14	225.63
1429.34	122.314
1433.53	30.9775
1437.72	252.208
1441.9	245.045
1446.09	250.394
1450.27	150.023
1454.45	138.968
1458.63	149.09
1462.8	178.075
1466.97	10.0703
1471.14	152.076
1475.31	45.0225
1479.47	69.21
1483.63	146.209
1487.79	176.186
1491.94	95.2393
1496.09	44.6738
1500.24	80.5801
1504.39	160.391
1508.54	217.618
1512.68	144.235
1516.82	177.418
1520.95	191.245
1525.09	168.985
1529.22	164.052
1533.35	234.256
1537.47	114.918
1541.6	54.2031
1545.72	204.882
1549.83	247.712
1553.95	259.183
1558.06	169.477
1562.17	177.62
1566.28	142.06
1570.38	60.501
