Measurement: Raman, 514 nm, ccw, Raman Data Processed
Mineral: Diopside
Rruff sample: R040097
Ideal chemistry: CaMgSi_2_O_6_
Locality: Fassathal, Tyrol
Source: University of Arizona Mineral Museum
Description: Green prismatic crystals
Measured chemistry: Ca_1.00_(Mg_0.83_Al_0.10_Fe_0.09_Ca_0.02_Ti_0.02_)(Si_0.88_Al_0.12_)_2_O_6_
Pin_id: L00346
Orientation: Laser parallel to a [1 0 0]. Fiducial mark perpendicular to laser is parallel to b* (0 1 0)
Raman shift (cm-1)	intensity
116.878	0
121.785	1141.08
126.69	87.5938
131.594	1279.66
136.495	2660.14
141.393	4196.44
146.29	3862.86
151.185	2819
156.077	1754.09
160.967	1615.86
165.855	1404.3
170.741	1628.94
175.624	2146.61
180.505	3762.91
185.384	6236.53
190.261	5494.86
195.136	5306.62
200.008	4099.48
204.879	3107.77
209.747	3771.69
214.613	5263.17
219.476	7021.11
224.337	8777.19
229.197	10342.2
234.053	8927.97
238.908	5512.81
243.76	4401.12
248.611	5422.72
253.458	5472.5
258.304	6300.19
263.148	5018.41
267.989	2869
272.828	2407.84
277.664	2327.38
282.499	2352.5
287.331	2990.16
292.16	3743.97
296.988	5107.78
301.813	7666.69
306.636	10956.6
311.457	16610.1
316.275	24275.6
321.091	33268.3
325.905	39309.5
330.717	32822.8
335.526	21825.3
340.333	15852.7
345.138	12261.1
349.94	11457.6
354.74	12460.6
359.538	11509
364.333	9733.88
369.126	9790.91
373.917	11488.9
378.706	15598.8
383.492	25342.3
388.276	41196.3
393.057	52854.7
397.836	43948.2
402.613	23567.8
407.387	9864.47
412.16	4742.28
416.929	1410.81
421.697	1014.81
426.462	1458.53
431.225	997.312
435.985	761.344
440.743	262.938
445.499	388.656
450.252	272.688
455.003	393.812
459.752	338.344
464.498	111.688
469.242	36.0312
473.983	217.094
478.722	198.594
483.459	506.875
488.193	68.0938
492.925	783.906
497.655	888.344
502.382	537.219
507.107	1747.66
511.829	2994.75
516.549	1888.19
521.267	2803
525.982	4320.94
530.695	5291.66
535.405	4565.91
540.113	3788.53
544.818	2191.22
549.522	2407.91
554.222	3854.34
558.92	3310.25
563.616	3494.12
568.31	2928.12
573.001	2224.19
577.689	2198.09
582.376	750.719
587.059	501.469
591.741	493.562
596.419	126.406
601.096	132.844
605.77	27.2188
610.441	576.125
615.11	1529.19
619.777	2229.81
624.441	1238.03
629.103	1583.45
633.762	2202.25
638.419	4415.78
643.073	5123.44
647.725	6421.53
652.374	11016.4
657.021	19312.6
661.665	31442.5
666.307	42621.7
670.947	38227.8
675.584	22484.5
680.218	13641.4
684.85	7851.28
689.48	6114.03
694.107	3636.38
698.731	4413.12
703.354	2545.16
707.973	1769.31
712.59	2558.22
717.205	1344.81
721.817	1380.19
726.426	1031.91
731.033	751.188
735.638	296.25
740.24	303.625
744.839	378.25
749.436	433.406
754.031	1022
758.623	442.531
763.212	358.874
767.799	1940.44
772.384	2730.47
776.965	1253.72
781.545	1553.81
786.122	2305.44
790.696	1448.66
795.267	1087.94
799.837	1359.41
804.403	2024.03
808.967	2928.91
813.529	4343.03
818.088	4036.75
822.644	4842.69
827.198	6523.12
831.749	4199.41
836.298	4019.84
840.844	3552.75
845.388	1607.19
849.929	3464.06
854.468	3473.78
859.004	4502.03
863.537	4517.34
868.068	4039.78
872.596	3168.53
877.122	2818.75
881.645	1032.88
886.165	1001.03
890.683	1675.44
895.199	924.5
899.711	542.844
904.221	4037.56
908.729	2068.91
913.234	919.094
917.736	1598.88
922.236	3030.88
926.733	1244.25
931.228	791.594
935.72	631.719
940.209	701.719
944.696	2072.28
949.18	1570.75
953.662	427.188
958.141	2059.56
962.617	3144.5
967.091	3636.75
971.562	4430.38
976.03	3665.62
980.496	4236.75
984.959	6608.44
989.42	7090.81
993.878	11426.5
998.333	23269.8
1002.79	44049.6
1007.24	67831.2
1011.68	75913
1016.13	48873.4
1020.57	17845.1
1025.01	8084.06
1029.45	6116.38
1033.88	5011.56
1038.31	7168.69
1042.74	6934.88
1047.17	6058.81
1051.59	6096.06
1056.01	2480.19
1060.43	1270.75
1064.85	1681
1069.26	380.812
1073.67	670.875
1078.08	537.438
1082.48	300.75
1086.88	1259.81
1091.29	1035.75
1095.68	2205.44
1100.08	1332.81
1104.47	2147.19
1108.86	2836.88
1113.24	953.375
1117.63	2086.19
1122.01	2453
1126.39	2964.12
1130.76	307.812
1135.13	1235.06
1139.51	774.5
1143.87	667.938
1148.24	1050.75
1152.6	642.5
1156.96	346.938
1161.32	1282.75
1165.67	415.438
1170.02	999.188
1174.37	1020.25
1178.72	216.5
1183.06	307.562
1187.4	2249.25
1191.74	130.625
1196.07	1687.56
1200.4	18.8125
1204.73	702.562
1209.06	851.938
1213.39	301.875
1217.71	489.688
1222.03	212.375
1226.34	1363.38
1230.66	2338.31
1234.97	2019.06
1239.28	2123.12
1243.58	1604.81
1247.88	2910.31
1252.18	3449.19
1256.48	1997.38
1260.77	2137.5
1265.07	974.938
1269.35	1965.56
1273.64	2142.12
1277.92	3086.62
1282.2	531.188
1286.48	1648.69
1290.76	2629
1295.03	1494.44
1299.3	2642.75
1303.57	2421.88
1307.83	2853.44
1312.09	2479.56
1316.35	3194.06
1320.61	4216.31
1324.86	3270.88
1329.11	3456.81
1333.36	4179.94
1337.6	2724.75
1341.84	3255.06
1346.08	2778.75
1350.32	2752
1354.55	3288.12
1358.79	3149
1363.01	4150.5
1367.24	3122
1371.46	2399.12
1375.68	3613.19
1379.9	704.688
1384.11	2778.62
1388.32	2143.12
1392.53	751.312
1396.74	1363.81
1400.94	1321.69
1405.14	2810.94
1409.34	1941.31
1413.54	2657.19
1417.73	1403.5
1421.92	2641.69
1426.1	1735.5
1430.29	2990.5
1434.47	1088.06
1438.65	1141.81
1442.82	1630.75
1446.99	3798.12
1451.16	1687.38
1455.33	5
1459.49	558
1463.66	396.812
1467.82	290.062
1471.97	482.25
1476.12	1545.81
1480.27	1942.75
1484.42	2026.75
1488.57	2520.81
1492.71	2251.88
1496.85	473.25
1500.98	3134.81
1505.12	320.312
1509.24	1401.44
1513.37	2188.81
1517.5	3281.88
1521.62	4096.25
1525.74	3129.56
1529.86	3375.69
1533.97	2868.5
1538.08	2634.44
1542.19	4319.12
1546.29	1316.44
1550.39	4133.38
1554.49	3536.19
1558.59	4835.12
1562.68	2198.31
1566.77	3502.69
1570.86	1228.44
1574.95	1755.88
1579.03	1989
