Measurement: Raman, 514 nm, depolarized, Raman Data Processed
Mineral: Diopside
Rruff sample: R060085
Ideal chemistry: CaMgSi_2_O_6_
Locality: Tyrol, Austria
Source: University of Arizona Mineral Museum
Description: Brownish-green massive
Measured chemistry: (Ca_0.97_Na_0.03_)_Σ=1_(Mg_0.79_Fe^2+^_0.10_Fe^3+^_0.04_Al_0.04_Ti_0.02_Cr_0.01_)_Σ=1_(Si_1.90_Al_0.10_)_Σ=2_O_6_
Pin_id: M01980
Orientation: Laser parallel to -b* (0 -1 0). Fiducial mark perpendicular to laser is parallel to c [0 0 1]
Raman shift (cm-1)	intensity
126.617	0
131.545	496.454
136.471	1615.79
141.393	2137.86
146.314	1251.56
151.232	482.263
156.147	177.679
161.06	189.467
165.97	143.289
170.877	62.6201
175.782	43.6387
180.685	119.504
185.585	30.3486
190.482	20.708
195.377	385.435
200.269	505.406
205.158	239.052
210.045	10.5244
214.93	123.376
219.812	87.8652
224.691	224.176
229.568	232.086
234.442	370.904
239.314	473.922
244.183	280.809
249.049	425.248
253.913	483.262
258.775	478.853
263.633	112.998
268.49	89.1875
273.343	25.0918
278.194	69.0488
283.043	106.527
287.889	203.109
292.732	247.506
297.573	282.621
302.411	316.016
307.247	424.373
312.08	963.076
316.91	1737.33
321.738	2322.06
326.563	3123.58
331.386	2907.67
336.206	1781.24
341.024	1442.26
345.839	1214.63
350.651	1404.29
355.461	1486.28
360.268	1849.58
365.073	1660.36
369.875	1254.24
374.674	1186.41
379.471	1120.88
384.266	1594.63
389.057	2615.66
393.846	3427.94
398.633	2554.48
403.417	1184.25
408.198	619.262
412.977	368.492
417.753	61.9414
422.527	205.228
427.298	78.0606
432.067	25.0078
436.832	47.1074
441.596	27.6055
446.356	125.227
451.115	110.838
455.87	47.5
460.623	60.7012
465.373	264.273
470.121	169.428
474.866	3.66797
479.609	154.975
484.349	148.519
489.086	14.1777
493.821	69.9453
498.553	455.727
503.283	248.129
508.01	821.492
512.734	1059.03
517.456	840.793
522.175	457.609
526.892	433.471
531.606	612.383
536.317	871.344
541.026	609.309
545.732	1004.25
550.436	766.164
555.137	635.025
559.835	497.832
564.531	367.615
569.224	519.141
573.915	365.312
578.603	282.873
583.288	305.621
587.971	310.99
592.651	227.785
597.329	36.875
602.004	27.584
606.676	53.7324
611.346	71.9121
616.013	124.07
620.678	112.049
625.34	282.092
629.999	457.025
634.656	475.107
639.31	861.719
643.962	1152.87
648.611	1284.31
653.257	2654.34
657.901	4330.04
662.542	8797.28
667.181	13981.8
671.817	11431.7
676.45	5977.69
681.081	3495.84
685.709	2180.71
690.334	1502.39
694.957	851.232
699.578	745.637
704.195	590.482
708.811	173.754
713.423	374.602
718.033	162.984
722.64	259.775
727.245	97.7383
731.847	132.281
736.446	58.1152
741.043	115.397
745.637	251.379
750.229	17.0586
754.818	87.3828
759.404	94.4609
763.988	179.33
768.569	17.6289
773.148	97.3418
777.724	121.357
782.297	33.7793
786.868	264.883
791.436	72.2617
796.001	176.629
800.564	226.541
805.125	140.307
809.682	221.023
814.237	92.4941
818.79	280.057
823.339	425.91
827.887	268.412
832.431	286.656
836.973	199.647
841.513	362.322
846.049	255.562
850.583	610.742
855.115	1031.46
859.644	1197.72
864.17	1168.69
868.694	944.977
873.215	539.484
877.733	688.734
882.249	275.309
886.762	322.418
891.273	254.539
895.781	252.191
900.286	108.853
904.789	131.607
909.289	98.6231
913.786	102.727
918.281	265.873
922.773	240.826
927.263	191.002
931.75	267.103
936.234	51.0801
940.716	35.0605
945.195	31.4883
949.672	23.918
954.146	296.867
958.617	207.223
963.086	325.408
967.552	544.752
972.015	542.824
976.476	263.762
980.934	650.012
985.39	755.336
989.843	1183.76
994.293	1904.98
998.741	2893.75
1003.19	4381.77
1007.63	6804.33
1012.07	10088.1
1016.5	8556.12
1020.94	4266.36
1025.37	2370.59
1029.8	1646.47
1034.23	1527.38
1038.65	1237.78
1043.07	1374.4
1047.49	1590.74
1051.91	1229.51
1056.32	880.031
1060.73	626.207
1065.14	561.144
1069.55	291.481
1073.95	209.246
1078.35	242.988
1082.75	264.199
1087.14	306.91
1091.54	266.531
1095.93	273.652
1100.31	195.098
1104.7	308.676
1109.08	164.215
1113.46	199.383
1117.84	232.492
1122.21	92.707
1126.58	121.664
1130.95	91.0625
1135.32	49.0781
1139.68	96.3555
1144.04	50.8711
1148.4	58.4531
1152.76	135.019
1157.11	105.34
1161.46	79.668
1165.81	146.754
1170.16	176.609
1174.5	193.348
1178.84	82.6562
1183.18	44.6602
1187.51	105.703
1191.84	155.473
1196.17	219.148
1200.5	6.3125
1204.83	328.844
1209.15	177.691
1213.47	291.82
1217.78	419.703
1222.1	535.465
1226.41	223.945
1230.72	260.129
1235.02	283.043
1239.33	378.66
1243.63	242.879
1247.92	522.801
1252.22	415.953
1256.51	445.031
1260.8	275.691
1265.09	396.398
1269.38	216.781
1273.66	88.8125
1277.94	165.926
1282.21	303.012
1286.49	108.488
1290.76	123.961
1295.03	22.6289
1299.3	49.375
1303.56	415.387
1307.82	134.219
1312.08	321.356
1316.34	194.953
1320.59	249.746
1324.84	318.363
1329.09	90.8789
1333.34	180.719
1337.58	143.832
1341.82	76.7422
1346.06	415.754
1350.29	159.07
1354.53	370.598
1358.76	424.684
1362.98	534.445
1367.21	507.098
1371.43	394.078
1375.65	123.801
1379.87	421.695
1384.08	150.738
1388.29	260.609
1392.5	289.188
1396.71	269.922
1400.91	253.301
1405.11	400.586
1409.31	288.406
1413.51	259.102
1417.7	309.016
1421.89	282.059
1426.08	439.473
1430.26	305.008
1434.44	239.609
1438.62	23.4766
1442.8	140.25
1446.98	385.066
1451.15	475.769
1455.32	467.824
1459.49	119.551
1463.65	286.934
1467.81	288.809
1471.97	232.844
1476.13	426.144
1480.28	455.769
1484.43	412.356
1488.58	521.449
1492.73	56.8203
1496.87	291.523
1501.01	476.519
1505.15	355.625
1509.29	267.461
1513.42	235.891
1517.55	237.57
1521.67	242.797
1525.8	326.09
1529.92	196.125
1534.04	353.445
1538.16	532.848
1542.27	538.426
1546.39	254.621
1550.49	397.07
1554.6	644.172
1558.71	526.801
1562.81	839.793
1566.91	62.5703
1571	435.856
1575.1	26.0273
