Measurement: Raman, 514 nm, ccw, Raman Data Processed
Mineral: Diopside
Rruff sample: R040097
Ideal chemistry: CaMgSi_2_O_6_
Locality: Fassathal, Tyrol
Source: University of Arizona Mineral Museum
Description: Green prismatic crystals
Measured chemistry: Ca_1.00_(Mg_0.83_Al_0.10_Fe_0.09_Ca_0.02_Ti_0.02_)(Si_0.88_Al_0.12_)_2_O_6_
Pin_id: L00346
Orientation: Laser parallel to a [1 0 0]. Fiducial mark perpendicular to laser is parallel to b* (0 1 0)
Raman shift (cm-1)	intensity
111.968	0
116.878	1679.36
121.785	3435.22
126.69	3623.53
131.594	8038
136.495	18271
141.393	35824.5
146.29	39291.1
151.185	20949.7
156.077	7953.45
160.967	3083.28
165.855	1074.83
170.741	639.688
175.624	1268.78
180.505	3533.72
185.384	9709.23
190.261	9623.02
195.136	3273.55
200.008	1597.31
204.879	1142.12
209.747	1793.59
214.613	1983.59
219.476	3382.62
224.337	6081.53
229.197	11528.6
234.053	12954.3
238.908	9640.58
243.76	9877.97
248.611	10005.9
253.458	12956
258.304	13825.2
263.148	8778.84
267.989	3885.56
272.828	2769.88
277.664	1674.31
282.499	3182.06
287.331	3609.16
292.16	4068.12
296.988	5296.56
301.813	7735.88
306.636	11072.3
311.457	17070.6
316.275	27082.3
321.091	42364
325.905	56560.6
330.717	54235.7
335.526	42130.5
340.333	31179.3
345.138	25693.9
349.94	22568
354.74	20503.8
359.538	18366.7
364.333	15587.4
369.126	13499.7
373.917	12877
378.706	13252.2
383.492	15298.1
388.276	20697.4
393.057	24704.1
397.836	20026.1
402.613	10649.2
407.387	4573.44
412.16	1086.25
416.929	1265.91
421.697	198.25
426.462	340.469
431.225	140.562
435.985	30.6618
440.743	221.874
445.499	599.656
450.252	123.094
455.003	23.8125
459.752	693.406
464.498	3.25
469.242	222.969
473.983	122
478.722	267.719
483.459	486.438
488.193	776.344
492.925	2198.22
497.655	4309.78
502.382	11228.1
507.107	21657
511.829	25242.2
516.549	16277.7
521.267	10658.4
525.982	8378.97
530.695	8664.41
535.405	8789.41
540.113	8615.97
544.818	7830.88
549.522	6323.03
554.222	7546.25
558.92	6241.47
563.616	6186.19
568.31	6029.75
573.001	5213.19
577.689	4123.38
582.376	3385.25
587.059	2619.91
591.741	2585.62
596.419	2411.75
601.096	1467.78
605.77	1274.28
610.441	1480.59
615.11	2497.84
619.777	2795.62
624.441	3288
629.103	5741.03
633.762	7402.59
638.419	10871.1
643.073	15318.6
647.725	22594.6
652.374	36420.3
657.021	59790.7
661.665	104156
666.307	163932
670.947	158610
675.584	95689.2
680.218	51716.1
684.85	28526
689.48	18815.8
694.107	12471.8
698.731	8995.66
703.354	5344.62
707.973	4606.25
712.59	2442.25
717.205	2163.75
721.817	316.031
726.426	181.312
731.033	0.1875
735.638	1244.97
740.24	1523.69
744.839	-203.946
749.436	883.75
754.031	380.438
758.623	1595.59
763.212	1525.5
767.799	2936
772.384	2666.88
776.965	2044.62
781.545	3131.06
786.122	3957.31
790.696	1976.62
795.267	1912.53
799.837	2759.62
804.403	3108.88
808.967	3158.66
813.529	4357.31
818.088	6141.25
822.644	8611.81
827.198	8134.91
831.749	7448.44
836.298	5976.22
840.844	4137.69
845.388	2079.81
849.929	2613.44
854.468	5686.59
859.004	8650.22
863.537	8729.62
868.068	7351.69
872.596	6068.91
877.122	1749.47
881.645	1189.75
886.165	1880.28
890.683	1400.66
895.199	697.406
899.711	1026.56
904.221	679.281
908.729	4.84375
913.234	1180.66
917.736	1598.44
922.236	1750.66
926.733	2576.97
931.228	2931.44
935.72	2552.22
940.209	1498.44
944.696	2872.44
949.18	3139.56
953.662	2814.19
958.141	2680.31
962.617	5395.75
967.091	4875.25
971.562	4470
976.03	5828.19
980.496	4394.06
984.959	5294.81
989.42	7449.12
993.878	11435
998.333	20302.9
1002.79	39852.4
1007.24	69229.2
1011.68	88314.1
1016.13	63578.6
1020.57	27270.9
1025.01	15769.2
1029.45	11642.9
1033.88	13316.7
1038.31	14389.6
1042.74	14316.6
1047.17	14346
1051.59	10848.6
1056.01	6033.5
1060.43	2035.94
1064.85	1803.38
1069.26	1004.06
1073.67	870.062
1078.08	308.562
1082.48	281.375
1086.88	694.562
1091.29	1533.88
1095.68	2159.56
1100.08	988.688
1104.47	1789.44
1108.86	1431.88
1113.24	1274.88
1117.63	1129.75
1122.01	1027.56
1126.39	402
1130.76	355.688
1135.13	1660.31
1139.51	379.625
1143.87	1354.94
1148.24	245.125
1152.6	238.562
1156.96	129.375
1161.32	949.062
1165.67	256.75
1170.02	1308.5
1174.37	395.188
1178.72	-1196.11
1183.06	-682.951
1187.4	1941.92
1191.74	2273.57
1196.07	3166.86
1200.4	266.875
1204.73	528.062
1209.06	1408.5
1213.39	838.312
1217.71	535.75
1222.03	1543.94
1226.34	41
1230.66	1146
1234.97	1395.06
1239.28	1557.31
1243.58	1232.44
1247.88	3398.06
1252.18	1893.44
1256.48	2716.88
1260.77	2068.44
1265.07	1447.62
1269.35	2697.25
1273.64	2089.75
1277.92	1708.06
1282.2	348.438
1286.48	1122
1290.76	1575.25
1295.03	1486.38
1299.3	941.688
1303.57	2792.25
1307.83	2705
1312.09	1918.81
1316.35	3482
1320.61	3388.41
1324.86	3032.29
1329.11	1082.12
1333.36	3493.89
1337.6	4175.14
1341.84	2561.31
1346.08	2167.31
1350.32	2095.5
1354.55	2921.5
1358.79	3054.81
1363.01	3786
1367.24	1923.5
1371.46	2429.81
1375.68	2487.88
1379.9	366.188
1384.11	2089.44
1388.32	170
1392.53	1517.56
1396.74	1316.19
1400.94	145.625
1405.14	1747.19
1409.34	638.25
1413.54	1603.06
1417.73	778.875
1421.92	167.688
1426.1	1463.94
1430.29	400.562
1434.47	2816.62
1438.65	1178.12
1442.82	478
1446.99	977.562
1451.16	1481.5
1455.33	1940.75
1459.49	625.625
1463.66	911.875
1467.82	2329.12
1471.97	230.625
1476.12	2835.06
1480.27	1578.5
1484.42	1803.56
1488.57	1271.44
1492.71	1705
1496.85	2373.69
1500.98	1699.12
1505.12	1686.88
1509.24	4354.94
1513.37	3430.25
1517.5	5850.81
1521.62	4021.5
1525.74	5625.31
1529.86	3459.06
1533.97	3068.62
1538.08	4633.62
1542.19	3396.88
1546.29	4135.31
1550.39	5442.31
1554.49	4649.31
1558.59	6016.69
1562.68	3279.44
1566.77	4575.5
1570.86	4734.31
1574.95	3421.56
1579.03	394.438
