Measurement: Raman, 514 nm, ccw, Raman Data Processed
Mineral: Diopside
Rruff sample: R060085
Ideal chemistry: CaMgSi_2_O_6_
Locality: Tyrol, Austria
Source: University of Arizona Mineral Museum
Description: Brownish-green massive
Measured chemistry: (Ca_0.97_Na_0.03_)_Σ=1_(Mg_0.79_Fe^2+^_0.10_Fe^3+^_0.04_Al_0.04_Ti_0.02_Cr_0.01_)_Σ=1_(Si_1.90_Al_0.10_)_Σ=2_O_6_
Pin_id: M01542
Orientation: Laser parallel to c* (0 0 1). Fiducial mark perpendicular to laser is parallel to a [1 0 0]
Raman shift (cm-1)	intensity
87.655	0
92.638	3.69385
97.618	20.3267
102.594	95.9385
107.568	112.177
112.538	207.855
117.505	383.649
122.469	306.326
127.43	247.068
132.388	267.285
137.342	144.781
142.294	264.11
147.242	267.856
152.187	167.077
157.13	99.7695
162.069	106.911
167.005	91.1084
171.938	203.398
176.868	195.919
181.794	223.54
186.718	176.459
191.639	419.808
196.556	679.811
201.471	352.601
206.382	120.47
211.29	109.304
216.196	87.1231
221.098	272.234
225.997	229.628
230.894	560.293
235.787	565.981
240.677	317.639
245.564	99.043
250.448	260.029
255.329	72.6279
260.207	51.7207
265.082	54.2227
269.954	48.0723
274.823	25.8057
279.689	17.4961
284.552	112.001
289.412	109.615
294.269	103.941
299.123	274.935
303.974	386.103
308.822	462.96
313.667	634.251
318.509	1086.15
323.349	1939.34
328.185	2051.86
333.018	1336.37
337.848	909.96
342.676	722.716
347.5	626.612
352.321	791.639
357.14	1191.79
361.955	1161.45
366.768	854.435
371.578	563.92
376.384	620.507
381.188	974.193
385.989	1481.04
390.787	2451.03
395.582	2615.16
400.374	1707.41
405.164	764.767
409.95	415.22
414.733	107.702
419.514	173.026
424.292	120.116
429.066	48.9473
433.838	39.7881
438.607	95.6318
443.373	57.4385
448.137	46.5537
452.897	98.5186
457.655	84.5488
462.409	80.8301
467.161	176.295
471.91	209.63
476.656	224.978
481.399	131.745
486.14	100.014
490.877	61.8984
495.612	192.815
500.344	70.7803
505.073	149.752
509.799	222.677
514.523	347.542
519.243	401.348
523.961	221.073
528.676	396.728
533.388	442.415
538.097	603.075
542.804	465.627
547.508	605.059
552.209	488.367
556.907	740.547
561.602	815.771
566.295	600.129
570.984	382.618
575.671	262.192
580.356	208.431
585.037	186.919
589.716	102.936
594.392	62.4941
599.065	7.90723
603.735	49.0156
608.403	126.449
613.068	16.3643
617.73	95.4805
622.389	53.001
627.046	143.266
631.7	134.914
636.351	337.633
641	285.243
645.645	409.496
650.288	744.459
654.929	1042.98
659.566	2201.72
664.201	3948.29
668.833	4970.32
673.463	3228.28
678.09	1752.04
682.714	1177.59
687.335	744.566
691.954	654.171
696.57	389.914
701.183	385.457
705.793	303.776
710.401	218.48
715.007	174.236
719.609	368.273
724.209	196
728.806	26.1484
733.401	3.58887
737.993	56.002
742.582	78.3291
747.169	99.4971
751.753	68.7988
756.334	23.4014
760.913	187.553
765.489	109.927
770.062	27.0625
774.633	92.4111
779.201	8.52637
783.766	176.841
788.329	187.76
792.889	67.4863
797.447	143.086
802.002	93.3359
806.554	76.1094
811.104	43.9453
815.651	30.5527
820.196	126.863
824.738	119.886
829.277	275.629
833.814	259.101
838.348	87.2764
842.88	235.177
847.409	199.811
851.935	225.366
856.459	228.477
860.98	298.353
865.499	226.518
870.015	240.606
874.529	75.0371
879.04	172.107
883.548	266.772
888.054	108.674
892.558	285.465
897.058	102.076
901.557	82.5527
906.052	59.1445
910.546	4.22656
915.036	192.598
919.524	20.5918
924.01	100.867
928.493	41.9922
932.974	194.508
937.452	13.7422
941.927	139.982
946.4	69.416
950.871	211.623
955.339	189.867
959.804	215.346
964.267	383.41
968.728	394.346
973.185	402
977.641	610.986
982.094	524.357
986.544	687.479
990.992	984.08
995.438	1281.47
999.881	2011.96
1004.32	3222.01
1008.76	5669.43
1013.2	8192.93
1017.63	4984.04
1022.06	2227.83
1026.49	1216.99
1030.91	781.842
1035.34	553.592
1039.76	759.133
1044.18	742.078
1048.59	1096.52
1053.01	776.32
1057.42	335.637
1061.83	347.045
1066.23	151.478
1070.64	268.195
1075.04	242.215
1079.44	14.5938
1083.83	39.8691
1088.23	129.963
1092.62	59.0469
1097.01	211.543
1101.39	176.65
1105.78	236.039
1110.16	206.215
1114.54	104.689
1118.92	214.793
1123.29	41.7422
1127.67	121.898
1132.04	381.865
1136.4	98.7539
1140.77	59.7129
1145.13	64.2051
1149.49	182.486
1153.85	24.3848
1158.21	202.318
1162.56	151.221
1166.91	128.768
1171.26	252.943
1175.61	137.957
1179.95	112.518
1184.29	244.719
1188.63	47.959
1192.97	88.334
1197.3	14.8457
1201.64	0.580078
1205.97	116.16
1210.29	123.297
1214.62	212.731
1218.94	80.3164
1223.26	299.697
1227.58	100.49
1231.9	113.193
1236.21	137.994
1240.52	120.365
1244.83	166.728
1249.14	422.225
1253.44	26.3848
1257.74	209.629
1262.04	232.631
1266.34	185.168
1270.64	230.106
1274.93	41.8848
1279.22	60.752
1283.51	137.066
1287.79	189.162
1292.08	154.871
1296.36	102.43
1300.64	232.783
1304.92	17.666
1309.19	104.143
1313.46	174.885
1317.73	312.5
1322	264.387
1326.27	132.471
1330.53	172.658
1334.79	321.68
1339.05	131.74
1343.31	5.94727
1347.56	208.242
1351.81	271.734
1356.06	260.539
1360.31	27.5957
1364.56	169.996
1368.8	382.986
1373.04	310.522
1377.28	325.799
1381.52	282.789
1385.75	68.668
1389.98	94.5996
1394.21	209.182
1398.44	124.918
1402.66	257.037
1406.89	413.562
1411.11	110.295
1415.33	148.307
1419.54	119.352
1423.76	299.334
1427.97	219.24
1432.18	205.713
1436.39	69.3769
1440.59	207.166
1444.8	206.115
1449	306.727
1453.2	87.2617
1457.39	126.574
1461.59	144.922
1465.78	32.1895
1469.97	22.0273
1474.16	59.4023
1478.35	198.379
1482.53	226.025
1486.71	282.129
1490.89	275.322
1495.07	234.668
1499.24	41.2539
1503.42	169.652
1507.59	208.828
1511.76	179.91
1515.92	55.9355
1520.09	263.852
1524.25	187.615
1528.41	218.289
1532.57	294.625
1536.72	248.678
1540.88	155.272
1545.03	162.115
1549.18	122.242
1553.33	305.469
1557.47	8.05664
1561.62	1.76172
1565.76	68.2051
1569.89	339.588
1574.03	141.818
1578.17	0
