Measurement: Raman, 514 nm, ccw, Raman Data Processed
Mineral: Diopside
Rruff sample: R050496
Ideal chemistry: CaMgSi_2_O_6_
Locality: New City Quarry, Riverside, Riverside County, Calfornia, USA
Source: California Institute of Technology
Description: Aggregate of light green irregular grains
Measured chemistry: Ca(Mg_0.66_Fe_0.33_Mn_0.01_)(Si_0.95_Al_0.05_)_2_O_6_
Pin_id: M00901
Orientation: Laser parallel to (-1 0 -1). Fiducial mark perpendicular to laser is parallel to b [0 1 0]
Raman shift (cm-1)	intensity
103.174	0
108.114	122.784
113.052	171.062
117.987	452.636
122.919	281.1
127.849	310.733
132.777	488.389
137.702	517.57
142.624	375.345
147.544	172.764
152.461	189.534
157.375	109.981
162.287	16.3125
167.197	172.691
172.104	120.213
177.008	243.053
181.91	479.119
186.809	303.731
191.706	441.584
196.6	507.536
201.491	581.212
206.38	394.282
211.267	350.6
216.151	457.184
221.032	556.512
225.911	664.039
230.787	942.905
235.66	560.098
240.531	350.602
245.4	167.034
250.266	146.353
255.129	121.958
259.99	4.06445
264.848	133.391
269.703	14.0293
274.556	22.6641
279.407	31.0879
284.255	57.4238
289.1	293.684
293.942	397.557
298.783	592.121
303.62	940.804
308.455	1516.03
313.288	2728.91
318.117	4549.07
322.945	5980.9
327.769	5000.08
332.591	3288.27
337.411	2174.25
342.228	1470.2
347.042	1330.32
351.854	1344.6
356.663	1278.04
361.47	1023.61
366.274	1256.31
371.075	1719.14
375.874	2458.07
380.67	4239.12
385.464	7436.26
390.255	8797.48
395.043	5657.8
399.829	2453.22
404.613	1003.54
409.393	517.292
414.172	311.951
418.947	306.653
423.72	96.7705
428.49	25.3877
433.258	106.495
438.024	80.4629
442.786	30.9102
447.546	65.6211
452.304	150.456
457.059	37.791
461.811	239.113
466.56	292.169
471.308	219.427
476.052	221.117
480.794	440.893
485.533	370.676
490.27	425.074
495.004	466.19
499.736	318.218
504.465	584.128
509.191	609.914
513.915	741.566
518.636	979.077
523.354	1146.5
528.07	1426.81
532.784	1253.07
537.494	968.227
542.203	1087.21
546.908	941.006
551.611	907.622
556.311	1078.2
561.009	1006.64
565.704	886.537
570.397	760.043
575.087	572.359
579.774	566.811
584.459	276.773
589.141	156.758
593.821	1.89062
598.498	28.7822
603.172	51.4033
607.844	51.5557
612.513	69.7373
617.18	237.653
621.844	147.58
626.505	224.102
631.164	258.876
635.82	450.94
640.473	408.28
645.124	658.296
649.773	1130.98
654.418	1845.33
659.062	3352.35
663.702	5943.41
668.34	6198.19
672.975	3740.66
677.608	1965.38
682.238	1402.68
686.866	780.636
691.49	563.248
696.113	531.514
700.732	333.213
705.349	306.664
709.964	261.753
714.576	74.6055
719.185	323.553
723.792	238.631
728.396	133.032
732.997	162.844
737.596	183.848
742.192	141.947
746.785	88.0684
751.376	163.828
755.965	261.711
760.551	228.724
765.134	145.977
769.714	284.096
774.292	142.03
778.867	276.272
783.44	360.794
788.01	288.133
792.578	241.301
797.142	57.6953
801.705	29.001
806.264	53.544
810.821	39.5049
815.376	145.35
819.927	126.073
824.476	151.69
829.023	88.21
833.567	117.644
838.108	28
842.647	44.9258
847.183	121.906
851.716	183.322
856.247	252.424
860.776	254.228
865.301	205.438
869.824	245.055
874.345	256.236
878.862	223.697
883.377	151.334
887.89	123.883
892.4	180.348
896.907	173.291
901.412	10.334
905.914	204.607
910.413	47.084
914.91	181.143
919.404	238.391
923.896	94.7656
928.385	190.275
932.871	143.551
937.355	39.3984
941.836	224.019
946.315	79.4785
950.79	309.789
955.264	295.387
959.734	535.281
964.202	554.457
968.668	458.832
973.131	539.285
977.591	784.445
982.048	954.732
986.503	1173.02
990.955	1576.05
995.405	2375.84
999.852	4030.83
1004.3	7431.18
1008.74	13705.9
1013.18	18387.7
1017.61	11087.8
1022.05	4699.82
1026.48	2553.29
1030.91	1756.48
1035.33	1730.49
1039.76	1825.16
1044.18	1539.35
1048.6	986.6
1053.01	884.725
1057.42	683.293
1061.84	529.055
1066.24	293.996
1070.65	309.156
1075.05	106.519
1079.45	198.008
1083.85	208.502
1088.24	265.291
1092.63	251.135
1097.02	157.373
1101.41	60.7188
1105.8	161.981
1110.18	417.666
1114.56	147.262
1118.93	107.182
1123.31	255.24
1127.68	146.369
1132.04	114.777
1136.41	165.986
1140.77	21.2402
1145.13	9.53516
1149.49	182.828
1153.85	98.0957
1158.2	197.32
1162.55	50.5293
1166.9	48.4844
1171.24	19.0039
1175.58	63.2832
1179.92	97.0742
1184.26	56.0039
1188.6	116.162
1192.93	174.102
1197.26	235.252
1201.58	145.51
1205.9	28.8691
1210.23	180.164
1214.55	187.33
1218.86	20.7695
1223.17	110.619
1227.48	143.031
1231.79	5.62695
1236.1	218.576
1240.4	40.7031
1244.7	210.721
1249	279.057
1253.29	120.434
1257.59	26.8379
1261.88	226.766
1266.16	274.283
1270.45	233.473
1274.73	391.74
1279.01	174.908
1283.28	109.543
1287.56	266.752
1291.83	369.156
1296.1	261.043
1300.36	76.1387
1304.63	134.65
1308.89	1.44727
1313.15	65.3496
1317.4	151.269
1321.65	288.418
1325.9	201.299
1330.15	380.228
1334.4	275.09
1338.64	130.109
1342.88	23.1387
1347.12	71.4356
1351.35	93.8379
1355.58	167.418
1359.81	160.182
1364.04	294.756
1368.26	396.334
1372.48	416.156
1376.7	426.598
1380.92	260.941
1385.13	359.123
1389.34	316.578
1393.55	163.094
1397.76	313.66
1401.96	152.299
1406.16	171.043
1410.36	41.0918
1414.55	134.916
1418.75	384.119
1422.94	230.49
1427.12	188.607
1431.31	307.131
1435.49	10.8047
1439.67	306.115
1443.85	296.594
1448.02	206.717
1452.19	85.3047
1456.36	230.019
1460.53	287.424
1464.69	30.0566
1468.85	97.1348
1473.01	41.3945
1477.17	241.856
1481.32	249.531
1485.47	214.522
1489.62	160.783
1493.76	244.301
1497.91	86.5195
1502.05	237.201
1506.18	331.873
1510.32	315.383
1514.45	294.477
1518.58	304.445
1522.71	107.883
1526.83	435.807
1530.95	323.383
1535.07	190.402
1539.19	93.8106
1543.3	90.8144
1547.41	145.42
1551.52	467.1
1555.63	219.562
1559.73	223.924
1563.83	309.533
1567.93	354.865
1572.03	309.94
1576.12	181.441
