Measurement: Raman, 514 nm, depolarized, Raman Data Processed
Mineral: Diopside
Rruff sample: R050406
Ideal chemistry: CaMgSi_2_O_6_
Locality: unknown
Source: University of Arizona Mineral Museum
Description: Brownish gray massive
Measured chemistry: (Ca_0.95_Na_0.05_)(Mg_0.75_Fe^2+^_0.18_Fe^3+^_0.05_Al_0.01_Ti_0.01_Mn^2+^_0.01_)(Si_0.98_Al_0.02_)_2_O_6_
Pin_id: M00407
Orientation: Laser parallel to a* (1 0 0). Fiducial mark perpendicular to laser is parallel to b [0 1 0]
Raman shift (cm-1)	intensity
116.903	0
121.827	116.121
126.749	1101.25
131.668	4237.43
136.585	9216.54
141.5	4792.48
146.412	1192.44
151.321	270.406
156.229	43.0537
161.134	368.467
166.036	182.129
170.936	293.819
175.834	687.903
180.729	618.553
185.622	278.839
190.512	336.272
195.4	631.04
200.286	666.028
205.169	416.968
210.049	397.353
214.928	804.561
219.803	1161.4
224.677	1541.25
229.548	1524.05
234.416	1212.58
239.282	670.737
244.146	564.496
249.007	637.814
253.866	540.655
258.722	440.406
263.576	7.4375
268.427	147.817
273.276	215.685
278.123	20.2256
282.967	290.351
287.809	808.731
292.648	1441.63
297.485	2378.7
302.319	3562.52
307.151	5809.91
311.98	10136.4
316.807	16695.5
321.631	19009.4
326.454	14190.9
331.273	9320.94
336.09	6587.87
340.905	5598.53
345.717	6023.78
350.527	7456.32
355.334	7457.11
360.139	6739.11
364.941	6397.3
369.741	6432.65
374.538	8335.13
379.333	14064.7
384.126	21780.4
388.916	20746.2
393.703	11420.1
398.488	5277.09
403.271	2440.09
408.051	1365.89
412.828	916.157
417.603	607.677
422.376	391.106
427.146	57.7012
431.914	74.3184
436.679	14.1982
441.442	68.1641
446.202	58.3428
450.96	40.0381
455.715	133.859
460.467	315.798
465.218	218.856
469.965	194.84
474.711	177.765
479.454	165.679
484.194	283.493
488.932	236.289
493.667	405.506
498.4	555.551
503.13	886.378
507.858	1285.03
512.583	1700.38
517.306	1838.5
522.026	2221.65
526.744	2594.85
531.459	2152.78
536.172	1734.46
540.882	1444.93
545.59	1452.09
550.295	1437.82
554.998	1617.24
559.698	1292.77
564.396	1205.33
569.091	1028.27
573.784	914.981
578.474	689.74
583.162	379.969
587.847	212.599
592.529	24.5381
597.209	20.1045
601.887	5.42773
606.562	17.9219
611.235	17.291
615.905	182.402
620.572	172.676
625.237	571.073
629.9	744.38
634.56	1359.93
639.217	1854.36
643.872	2740.2
648.524	4449.67
653.174	8330.75
657.821	17875.4
662.466	30429.2
667.108	27772.7
671.748	14800.2
676.385	7291.96
681.02	3974.95
685.652	2623.28
690.281	1962.62
694.908	1329.74
699.533	1314.13
704.155	1190.77
708.774	766.668
713.391	782.849
718.005	521.422
722.617	447.493
727.226	225.832
731.833	134.852
736.437	83.0977
741.039	60.2217
745.638	51.6875
750.234	14.8428
754.828	201.94
759.419	174.663
764.008	30.9365
768.595	101.684
773.178	107.732
777.759	74.1572
782.338	4.99316
786.914	54.3965
791.488	36.8965
796.059	116.621
800.627	145.728
805.193	4.28613
809.756	33.1592
814.317	77.1699
818.875	132.214
823.431	24.75
827.984	191.081
832.534	84.7617
837.082	169.319
841.627	389.775
846.17	1023.16
850.71	2212.49
855.248	2726.8
859.783	1926.1
864.316	1468.97
868.846	1177.06
873.373	964.17
877.898	1178.82
882.42	1300.99
886.94	1402.27
891.457	1242.55
895.971	1352.88
900.483	1043.95
904.993	1043.43
909.5	950.137
914.004	1071.57
918.505	1085.31
923.004	846.949
927.501	806.186
931.995	657.048
936.486	427.466
940.975	399.534
945.461	491.822
949.945	639.839
954.426	850.534
958.904	1015.01
963.38	1343.23
967.853	1445.97
972.324	1778.31
976.792	2048.28
981.258	2430.86
985.72	2968.02
990.181	3719.73
994.639	6065.98
999.094	10334.8
1003.55	19771.2
1008	37853.3
1012.44	47253.1
1016.89	26876.6
1021.33	12154.3
1025.77	6612.79
1030.21	4669.19
1034.64	4142.44
1039.07	4110.25
1043.5	3813.49
1047.93	3246.97
1052.35	2733.18
1056.78	2129.44
1061.19	2137.06
1065.61	1681.74
1070.02	1538.04
1074.43	1153.46
1078.84	1307.28
1083.25	1115.07
1087.65	914.051
1092.05	855.807
1096.45	833.66
1100.85	647.623
1105.24	705.234
1109.63	599.424
1114.02	654.189
1118.4	984.59
1122.78	895.959
1127.16	749.398
1131.54	690.109
1135.92	628.342
1140.29	225.191
1144.66	209.887
1149.02	127.08
1153.39	51.2578
1157.75	108.387
1162.11	77.7285
1166.46	95.0762
1170.82	58.5371
1175.17	139.279
1179.52	134.519
1183.86	8.95117
1188.21	48.4414
1192.55	31.041
1196.89	642.848
1201.22	21.5488
1205.55	136.56
1209.88	16.7402
1214.21	132.551
1218.54	61.5156
1222.86	167.154
1227.18	74.5352
1231.5	45.5781
1235.81	138.119
1240.12	12.2988
1244.43	115.272
1248.74	239.475
1253.04	192.537
1257.34	180.049
1261.64	220.221
1265.94	243.027
1270.23	270.469
1274.52	106.574
1278.81	282.303
1283.1	52.9863
1287.38	162.289
1291.66	170.584
1295.94	244.734
1300.21	251.031
1304.48	68.6621
1308.75	194.16
1313.02	80.7305
1317.29	68.709
1321.55	117.103
1325.81	320.678
1330.06	407.482
1334.32	270.227
1338.57	274.576
1342.82	217.897
1347.06	307.441
1351.31	242.398
1355.55	418.137
1359.79	409.389
1364.02	56.3516
1368.26	356.008
1372.49	185.109
1376.71	132.647
1380.94	376.902
1385.16	177.133
1389.38	434.76
1393.6	271.459
1397.81	165.062
1402.02	200.734
1406.23	76.6191
1410.44	259.477
1414.64	188.621
1418.85	218.426
1423.04	139.475
1427.24	11.791
1431.43	221.111
1435.62	42.1953
1439.81	99.0254
1444	225.559
1448.18	292.977
1452.36	190.971
1456.54	251.004
1460.71	208.709
1464.89	192.156
1469.06	171.154
1473.22	267.871
1477.39	239.062
1481.55	198.529
1485.71	86.082
1489.86	342.668
1494.02	262.969
1498.17	174.76
1502.32	57.668
1506.46	278.486
1510.61	115.978
1514.75	144.326
1518.88	372.113
1523.02	182.857
1527.15	235.182
1531.28	143.148
1535.41	304.051
1539.53	359.484
1543.66	323.275
1547.78	153.881
1551.89	346.188
1556.01	380.435
1560.12	218.51
1564.23	6.82812
1568.33	137.815
1572.43	0
