Measurement: Raman, 514 nm, depolarized, Raman Data Processed
Mineral: Dioptase
Rruff sample: R040028
Ideal chemistry: Cu^2+^SiO_3_H_2_O
Locality: Tantara mine, Democratic Republic of the Congo
Source: University of Arizona Mineral Museum
Description: Bluish green coarsely crystallized fragment
Measured chemistry: Cu_1.00_Si_1.00_O_3_Â·H_2_O; H_2_O estimated by difference
Pin_id: M00307
Orientation: Laser parallel to a* (1 0 0). Fiducial mark perpendicular to laser is parallel to b [0 1 0]
Raman shift (cm-1)	intensity
109.513	0
113.688	772.429
117.861	2087.75
122.032	2539.45
126.201	5343.01
130.367	15264
134.532	19005.6
138.695	10530.5
142.856	2936.52
147.014	227.155
151.171	349.443
155.325	197.628
159.478	2208.36
163.629	2856.09
167.777	725.987
171.924	537.755
176.068	2762.07
180.211	5062.25
184.351	2842.04
188.49	1104.25
192.626	543.448
196.761	1122.9
200.893	733.701
205.024	674.917
209.152	1348.18
213.279	3200.65
217.403	6921.72
221.526	14164.6
225.646	18970
229.765	15243.8
233.881	8928.2
237.996	4923.04
242.108	2888.22
246.219	1383.54
250.328	188.698
254.434	103.673
258.539	1468.48
262.641	6443.05
266.742	11306.2
270.84	6019.04
274.937	2305.03
279.032	1902.88
283.125	3021.4
287.215	5206.72
291.304	9628.08
295.391	9003.87
299.476	3910.65
303.558	747.751
307.639	245.435
311.718	432.418
315.795	414.269
319.87	56.1807
323.943	954.148
328.014	1663.8
332.083	842.555
336.15	326.935
340.215	594.035
344.279	1590.33
348.34	4214.62
352.399	13008.3
356.457	33940.3
360.512	29952.9
364.565	11425.4
368.617	4835.95
372.666	2947.45
376.714	2504.77
380.76	2788.4
384.803	3491.85
388.845	5395.07
392.885	10358.2
396.923	20301.2
400.959	23974.2
404.993	15447.2
409.025	9030.15
413.055	7869.28
417.084	8892.87
421.11	9780.1
425.134	10293.5
429.157	10460.1
433.177	10031
437.196	9360.08
441.213	8255.04
445.227	7072.66
449.24	6048.04
453.251	5154.47
457.26	4203.29
461.267	3125.76
465.272	2254.36
469.276	1601.1
473.277	1180.19
477.276	1224.35
481.274	1325.61
485.27	1698.61
489.263	2127.63
493.255	1746.46
497.245	1416.02
501.233	1188.42
505.219	1166.83
509.203	1455.13
513.186	1933.34
517.166	2541.51
521.145	2829.66
525.121	2787.78
529.096	2465.95
533.069	2254.25
537.04	1752.58
541.009	1411
544.976	1109.56
548.941	1118.26
552.905	1037.09
556.866	1336.06
560.826	1955.17
564.784	2264.44
568.74	1973.89
572.694	1313.62
576.646	913.988
580.596	294.787
584.544	285.783
588.491	56.8965
592.435	172.148
596.378	141.859
600.319	302.33
604.258	93.8242
608.195	106.074
612.131	268.787
616.064	82.0762
619.995	224.43
623.925	170.922
627.853	347.945
631.779	366.547
635.703	827.309
639.625	1299.93
643.546	1973.35
647.464	3017.22
651.381	5481.56
655.296	11976.5
659.209	19822
663.12	17298.1
667.029	9504.74
670.937	4731.94
674.842	2954.11
678.746	1863.24
682.648	1334.48
686.548	1109.64
690.447	579.859
694.343	360.789
698.238	405.619
702.13	432.709
706.021	353.664
709.91	297.269
713.798	511.398
717.683	576.662
721.567	692.479
725.448	962.336
729.328	1429.7
733.206	1917.86
737.083	3206.81
740.957	4286.02
744.83	3890.52
748.701	2801.83
752.57	1889.77
756.437	1321.14
760.302	1021.64
764.166	602.049
768.027	293.42
771.887	242.572
775.745	316.107
779.602	435.353
783.456	304.981
787.309	286.807
791.16	109.758
795.009	193.838
798.856	319.098
802.702	315.551
806.545	263.285
810.387	132.201
814.227	142.295
818.065	333.596
821.902	116.111
825.737	329.836
829.569	134.697
833.401	9.27148
837.23	82.0195
841.057	96.2441
844.883	125.57
848.707	176.17
852.529	187.996
856.35	128.91
860.168	115.406
863.985	71.043
867.8	188.004
871.613	116.303
875.425	144.049
879.234	26.8652
883.042	159.15
886.848	232.809
890.653	407.848
894.455	394.289
898.256	512.201
902.055	761.814
905.852	1093.3
909.648	1696.78
913.442	2432.24
917.233	2379.65
921.024	1408.86
924.812	1349.87
928.599	1102.57
932.384	1526.85
936.167	1502.58
939.948	1449.74
943.728	1618.31
947.506	2379.56
951.282	3148.4
955.056	4501.25
958.829	5396.56
962.6	4072.22
966.369	2591
970.136	1690.51
973.902	1291.22
977.666	1272.47
981.428	1670.72
985.188	1916.71
988.947	1808.53
992.704	2211.69
996.459	3460.33
1000.21	5770.42
1003.96	9898.72
1007.71	9748.77
1011.46	7863.19
1015.21	7139.09
1018.95	6796.42
1022.7	5495.39
1026.44	4712.55
1030.18	3664.4
1033.91	2827.61
1037.65	1952.26
1041.39	1628.26
1045.12	1135.56
1048.85	994.148
1052.58	1033.99
1056.31	865.061
1060.03	857.334
1063.76	570.785
1067.48	633.922
1071.2	651.131
1074.92	597.975
1078.63	395.947
1082.35	405.113
1086.06	255.459
1089.78	306.93
1093.49	159.547
1097.19	156.699
1100.9	117.814
1104.61	143.199
1108.31	89.3926
1112.01	146.566
1115.71	5.32031
1119.41	36.3145
1123.11	13.584
1126.8	34.6797
1130.5	247.816
1134.19	274.184
1137.88	151.133
1141.57	247.121
1145.25	137.35
1148.94	117.981
1152.62	187.352
1156.3	289.068
1159.98	266.15
1163.66	188.227
1167.34	362.107
1171.01	499.785
1174.68	248.553
1178.36	202.584
1182.02	313.769
1185.69	295.016
1189.36	349.723
1193.02	315.676
1196.69	182.303
1200.35	396.982
1204.01	242.623
1207.66	137.658
1211.32	393.387
1214.98	408.652
1218.63	254.221
1222.28	420.94
1225.93	355.343
1229.58	298.358
1233.22	497.958
1236.87	204.417
1240.51	235.215
1244.15	248.787
1247.79	316.286
1251.43	275.481
1255.07	257.327
1258.7	188.87
1262.33	277.65
1265.96	116.606
1269.59	117.291
1273.22	137.465
1276.85	286.816
1280.47	163.508
1284.1	121.435
1287.72	170.279
1291.34	137.297
1294.95	34.333
1298.57	111.584
1302.19	11.7773
1305.8	5.22949
1309.41	50.9053
1313.02	82.6406
1316.63	130.704
1320.23	194.685
1323.84	98.1445
1327.44	51.1484
1331.05	183.662
1334.64	55.7998
1338.24	57.5469
1341.84	188.871
1345.43	119.811
1349.03	230.398
1352.62	250.666
1356.21	280.626
1359.8	390.295
1363.39	329.725
1366.97	129.628
1370.56	39.1523
1374.14	126.968
1377.72	247.434
1381.3	287.492
1384.87	257.741
1388.45	397.958
1392.02	287.987
1395.6	307.456
1399.17	268.643
1402.74	158.564
1406.3	268.057
1409.87	142.449
1413.43	149.741
1417	383.194
1420.56	209.058
1424.12	294.697
1427.67	223.487
1431.23	299.977
1434.79	239.284
1438.34	217.644
1441.89	432.47
1445.44	161.186
1448.99	103.842
1452.54	134.501
1456.08	365.211
1459.62	239.435
1463.17	332.966
1466.71	310.668
1470.24	315.514
1473.78	282.031
1477.32	301.231
1480.85	266.084
1484.38	203.532
1487.91	220.611
1491.44	153.18
1494.97	138.504
1498.5	72.0176
1502.02	93.6397
1505.54	207.755
1509.07	246.068
1512.59	235.36
