Measurement: Raman, 514 nm, depolarized, Raman Data Processed
Mineral: Diopside
Rruff sample: R050406
Ideal chemistry: CaMgSi_2_O_6_
Locality: unknown
Source: University of Arizona Mineral Museum
Description: Brownish gray massive
Measured chemistry: (Ca_0.95_Na_0.05_)(Mg_0.75_Fe^2+^_0.18_Fe^3+^_0.05_Al_0.01_Ti_0.01_Mn^2+^_0.01_)(Si_0.98_Al_0.02_)_2_O_6_
Pin_id: M00100
Orientation: Laser parallel to (1 0 1). Fiducial mark perpendicular to laser is parallel to -b [0 -1 0]
Raman shift (cm-1)	intensity
94.714	0
99.649	159.609
104.582	406.039
109.512	2217.29
114.44	1017.88
119.365	579.356
124.288	536.022
129.209	1829.29
134.127	4285.65
139.043	3859.5
143.956	1060.39
148.867	366.265
153.775	174.186
158.681	360.695
163.585	790.464
168.486	230.241
173.385	469.968
178.282	687.53
183.176	121.617
188.067	99.4155
192.956	42.6216
197.843	89.522
202.727	157.949
207.609	35.956
212.489	281.853
217.366	563.354
222.24	1118.5
227.112	1376.17
231.982	1199.39
236.849	749.141
241.714	561.008
246.577	757.811
251.437	714.206
256.294	470.029
261.149	311.543
266.002	38.706
270.852	101.046
275.7	41.8047
280.545	198.89
285.388	561.009
290.229	1143.4
295.067	2058.78
299.902	2920.33
304.735	4183.9
309.566	6772.95
314.394	11394.4
319.22	16552.5
324.043	14674
328.864	9912.61
333.682	6962.9
338.498	5715.11
343.311	6102.24
348.122	8473.27
352.931	10502
357.737	9045.68
362.54	6844.19
367.341	5873.48
372.14	6554.51
376.936	10216.3
381.73	18542.7
386.521	25077.8
391.31	17204
396.096	8758.04
400.88	3583.02
405.661	1754.84
410.44	1123.25
415.216	761.48
419.99	508.705
424.761	228.964
429.53	44.3935
434.297	59.6255
439.061	111.336
443.822	15.0483
448.581	86.9204
453.337	410.014
458.091	509.402
462.843	494.201
467.592	471.512
472.338	388.161
477.082	291.14
481.824	380.729
486.563	464.642
491.3	551.844
496.034	510.31
500.765	649.964
505.494	706.748
510.221	814.695
514.945	1237.71
519.666	1785.81
524.385	2552.08
529.102	2659.46
533.816	2324.01
538.527	1999.62
543.236	1921.2
547.943	2221.64
552.647	2812.94
557.348	3088.07
562.047	2020.14
566.744	1494.03
571.438	1138.64
576.129	751.503
580.818	543.596
585.504	253.888
590.188	8.46338
594.87	5.95606
599.549	144.027
604.225	118.538
608.899	126.326
613.57	242.605
618.239	340.587
622.905	666.148
627.569	805.998
632.23	1321.64
636.889	1823.64
641.545	2489.24
646.198	3967.69
650.849	7235.94
655.498	14711.5
660.144	29626.4
664.787	37873.5
669.428	23449
674.067	11308
678.703	5711.94
683.336	3308.05
687.967	2217.38
692.595	1439.95
697.221	1120.17
701.844	873.804
706.465	686.085
711.083	468.609
715.698	254.453
720.311	169.709
724.922	151.478
729.53	169.371
734.135	30.8223
738.738	37.6216
743.338	78.5049
747.936	40.7769
752.531	19.7466
757.124	26.708
761.714	19.7319
766.302	121.58
770.887	44.2485
775.469	119.364
780.049	92.0391
784.626	142.269
789.201	5.03174
793.773	34.4541
798.343	69.5723
802.91	48.6787
807.475	163.295
812.037	98.0298
816.596	56.7764
821.153	139.372
825.707	88.8438
830.259	203.225
834.808	92.543
839.355	328.83
843.899	846.114
848.441	2499.43
852.98	4562.72
857.516	4009.01
862.05	2780.76
866.581	1960.93
871.11	1679.06
875.636	1652.34
880.159	1743.85
884.68	1720.65
889.199	1763.4
893.714	1844.51
898.228	1565.89
902.738	1567.44
907.246	1303.67
911.752	1197.95
916.255	980.668
920.755	1052.74
925.253	918.065
929.748	777.25
934.241	645.784
938.731	531.373
943.218	520.264
947.703	738.086
952.186	1068.61
956.665	1503.14
961.142	1731.5
965.617	1970.68
970.089	2349.63
974.558	2805.39
979.025	3043.97
983.489	3553.35
987.951	5225.51
992.41	6414.47
996.866	8939.28
1001.32	15913
1005.77	31777.8
1010.22	55712.7
1014.67	45450.6
1019.11	20560.7
1023.55	10194.9
1027.99	6631.96
1032.42	5564.87
1036.86	5548.47
1041.29	6207.03
1045.72	5765.56
1050.14	4232.28
1054.56	3084.72
1058.98	2276.2
1063.4	1978.65
1067.82	1668.37
1072.23	1301.98
1076.64	1192.2
1081.05	1149.65
1085.45	1082.26
1089.85	976.214
1094.25	953.043
1098.65	936.892
1103.04	912.502
1107.43	928.391
1111.82	871.796
1116.21	1159.48
1120.59	1369.38
1124.97	1387.77
1129.35	1044.83
1133.73	771.035
1138.1	546.255
1142.47	458.155
1146.84	379.455
1151.21	169.726
1155.57	14.4092
1159.93	14.999
1164.29	59.2798
1168.64	42.9106
1172.99	17.8696
1177.34	47.186
1181.69	49.0942
1186.04	23.3398
1190.38	75.1392
1194.72	10.7964
1199.05	0.627441
1203.39	62.2417
1207.72	0.09082
1212.05	19.3599
1216.37	62.1025
1220.7	32.3726
1225.02	39.0869
1229.34	86.3237
1233.65	74.1455
1237.97	68.5371
1242.28	159.32
1246.59	154.726
1250.89	153.694
1255.19	167.28
1259.49	188.368
1263.79	201.02
1268.09	229.229
1272.38	233.977
1276.67	310.416
1280.95	265.255
1285.24	141.356
1289.52	271.334
1293.8	262.787
1298.08	163.75
1302.35	198.573
1306.62	177.325
1310.89	199.636
1315.15	289.49
1319.42	156.681
1323.68	226.393
1327.94	160.062
1332.19	178.73
1336.44	211.715
1340.69	192.863
1344.94	219.363
1349.19	255.22
1353.43	209.44
1357.67	204.757
1361.9	160.914
1366.14	92.8608
1370.37	88.3257
1374.6	86.6138
1378.83	206.831
1383.05	100.658
1387.27	155.755
1391.49	183.546
1395.7	123.174
1399.92	41.0356
1404.13	108.51
1408.34	48.7866
1412.54	52.0615
1416.74	45.502
1420.94	117.789
1425.14	35.1167
1429.34	57.4751
1433.53	60.2573
1437.72	123.954
1441.9	57.0391
1446.09	54.0044
1450.27	74.9067
1454.45	54.9492
1458.63	76.6182
1462.8	106.376
1466.97	65.2871
1471.14	84.3013
1475.31	191.404
1479.47	54.4775
1483.63	116.692
1487.79	114.918
1491.94	112.33
1496.09	90.2896
1500.24	96.1118
1504.39	73.6738
1508.54	13.0933
1512.68	155.736
1516.82	97.9092
1520.95	54.0991
1525.09	107.758
1529.22	109.586
1533.35	67.8852
1537.47	16.5102
1541.6	109.237
1545.72	1.31738
1549.83	178.236
1553.95	277.453
1558.06	134.371
1562.17	22.5654
1566.28	152.772
1570.38	99.8296
