Measurement: Raman, 514 nm, depolarized, Raman Data Processed
Mineral: Dioptase
Rruff sample: R050010
Ideal chemistry: Cu^2+^SiO_3_H_2_O
Locality: Tsumeb mine, Tsumeb, Otavi District, Oshikoto, Namibia
Source: Eugene Schlepp
Description: Bluish green single crystals
Measured chemistry: Cu_1.00_Si_1.00_O_3_Â·H_2_O ; trace amounts of Mg and Al; OH estimated by difference
Pin_id: L00476
Orientation: Laser parallel to c* (0 0 1). Fiducial mark perpendicular to laser is parallel to a [1 0 0]
Raman shift (cm-1)	intensity
107.387	0
111.566	1087
115.744	2705.5
119.919	2520.1
124.092	3277.47
128.263	9036.17
132.432	20586.6
136.599	18429.6
140.764	8282.9
144.927	557.953
149.088	443.029
153.247	377.13
157.404	4086.35
161.559	9127.03
165.711	3662.16
169.862	1254.03
174.011	2180.7
178.158	6286.06
182.303	4964.64
186.446	2359.15
190.587	1131.4
194.726	2203.08
198.862	2305.25
202.997	1367.57
207.13	1930.99
211.261	4110.73
215.39	7753.22
219.517	15642.3
223.642	25897
227.765	22827.8
231.886	11048.1
236.005	4679.14
240.122	2480.77
244.237	1718.76
248.35	354.837
252.461	78.952
256.57	954.093
260.677	4741.26
264.782	13823.1
268.885	9914.93
272.986	4421.62
277.085	3166.2
281.182	3644.31
285.278	4941.93
289.371	7858.04
293.462	8321.4
297.552	3658.77
301.639	815.026
305.724	74.28
309.808	456.069
313.889	443.669
317.969	206.17
322.046	1202.54
326.122	2469.94
330.196	934.776
334.267	244.096
338.337	58.692
342.405	235.947
346.471	1027.21
350.535	4284.05
354.597	17444.6
358.657	20844.9
362.715	7334.93
366.771	3214.66
370.825	2063.92
374.877	1626.56
378.928	1818.97
382.976	2626.23
387.023	4316.32
391.067	7897.95
395.11	16849.6
399.15	24511.2
403.189	15302.7
407.226	6634.27
411.261	3664.54
415.294	3564.52
419.325	4323.9
423.354	4585.29
427.381	4676.64
431.406	5149.95
435.43	5588.07
439.451	5182.14
443.471	4095.03
447.488	3749.01
451.504	3920.14
455.518	3871.88
459.53	2555.56
463.54	1684.16
467.548	1352.74
471.554	1014.38
475.558	648.909
479.561	471.896
483.561	576.173
487.559	832.515
491.556	710.637
495.551	461.602
499.544	492.862
503.535	738.022
507.524	978.631
511.511	1176.77
515.496	1354.74
519.48	1639.55
523.461	1412.26
527.441	1167.86
531.418	806.354
535.394	684.743
539.368	625.136
543.34	501.558
547.311	491.988
551.279	711.436
555.245	1340.86
559.21	2728.23
563.173	3146.59
567.133	2508.9
571.092	2157.16
575.049	1849.44
579.005	898.774
582.958	351.04
586.909	76.234
590.859	34.678
594.807	34.842
598.753	91.542
602.697	164.011
606.639	152.325
610.579	97.411
614.518	17.114
618.454	100.646
622.389	73.166
626.322	261.758
630.253	432.362
634.182	702.45
638.109	931.75
642.035	1419.37
645.958	2471.95
649.88	4726.49
653.8	11572
657.718	18697.7
661.634	17353.6
665.549	9639.44
669.461	5385.32
673.372	3253.17
677.281	2034.07
681.188	1338.04
685.093	1023.28
688.997	842.427
692.898	713.862
696.798	526.975
700.696	413.906
704.592	456.371
708.486	586.159
712.378	713.546
716.269	841.884
720.158	1035.99
724.045	1620.6
727.93	2593.15
731.813	4081.64
735.694	6564.14
739.574	9309.62
743.452	9164.65
747.328	6665.48
751.202	4194
755.075	2424.8
758.945	1401.42
762.814	956.892
766.681	755.599
770.546	620.98
774.409	460.652
778.271	355.503
782.131	290.284
785.989	302.139
789.845	364.052
793.699	338.005
797.552	321.993
801.402	232.016
805.251	210.077
809.098	202.179
812.944	187.332
816.787	204.529
820.629	58.805
824.469	40.122
828.307	14.518
832.144	9.819
835.978	14.925
839.811	24.23
843.642	49.618
847.472	109.502
851.299	8.433
855.125	84.275
858.949	46.016
862.771	11.328
866.591	17.667
870.41	26.981
874.227	7.181
878.042	28.385
881.855	95.149
885.667	13.974
889.476	33.871
893.284	176.852
897.09	294.922
900.895	409.122
904.698	593.511
908.499	956.311
912.298	1397.55
916.095	1448.31
919.891	1191.45
923.685	859.975
927.477	580.803
931.267	573.801
935.056	549.901
938.843	489.098
942.628	552.405
946.411	756.85
950.193	889.393
953.973	1070.07
957.751	1278.98
961.527	1208.96
965.302	956.147
969.075	907.297
972.846	978.654
976.615	926.156
980.383	1004.85
984.149	1170.48
987.913	1594.31
991.675	2270.94
995.436	3061.19
999.195	5037.78
1002.95	8949.86
1006.71	9956.4
1010.46	8412.58
1014.21	8719.84
1017.96	9031.1
1021.71	8280.41
1025.46	7271.39
1029.2	5803.55
1032.95	4140.37
1036.69	2892.34
1040.43	2238.41
1044.17	1653.59
1047.9	1243.9
1051.64	948.313
1055.37	759.837
1059.1	662.465
1062.83	572.191
1066.56	486.01
1070.29	454.913
1074.01	363.901
1077.73	233.96
1081.46	190.171
1085.17	96.396
1088.89	138.545
1092.61	227.854
1096.32	145.222
1100.04	104.641
1103.75	46.684
1107.46	6.286
1111.16	43.478
1114.87	259.043
1118.57	94.006
1122.28	290.259
1125.98	188.338
1129.67	159.641
1133.37	132.276
1137.07	111.467
1140.76	97.111
1144.45	147.399
1148.14	210.387
1151.83	242.993
1155.52	266.748
1159.21	170.915
1162.89	218.6
1166.57	221.909
1170.25	232.68
1173.93	211.897
1177.61	239.364
1181.28	205.547
1184.96	200.112
1188.63	152.478
1192.3	41.723
1195.97	43.518
1199.64	169.916
1203.3	48.832
1206.97	159.646
1210.63	141.52
1214.29	85.348
1217.95	91.519
1221.6	71.028
1225.26	49.19
1228.91	48.642
1232.57	116.567
1236.21	76.461
1239.86	80
1243.51	611.64
1247.16	5.5
1250.8	26.443
1254.44	27.121
1258.08	15.807
1261.72	8.323
1265.36	5.926
1268.99	19.857
1272.63	38.558
1276.26	32.99
1279.89	0.025
1283.52	15.426
1287.15	43.446
1290.77	14.622
1294.4	46.435
1298.02	45.991
1301.64	40.281
1305.26	4.23
1308.88	22.125
1312.49	14.814
1316.11	22.169
1319.72	55.843
1323.33	75.668
1326.94	82.384
1330.55	104.232
1334.15	76.827
1337.76	130.15
1341.36	157.219
1344.96	80.032
1348.56	74.682
1352.16	33.997
1355.75	30.06
1359.35	61.882
1362.94	107.546
1366.53	132.899
1370.12	94.19
1373.71	63.098
1377.3	74.888
1380.88	57.564
1384.46	50.458
1388.05	76.653
1391.63	3.928
1395.2	62.724
1398.78	73.272
1402.36	97.232
1405.93	126.55
1409.5	142.048
1413.07	61.137
1416.64	43.675
1420.21	77.537
1423.78	81.777
1427.34	29.408
1430.9	90.203
1434.46	73.295
1438.02	72.833
1441.58	100.243
1445.13	112.066
1448.69	114.022
1452.24	61.572
1455.79	82.175
1459.34	67.096
1462.89	52.312
1466.44	30.369
1469.98	43.627
1473.53	85.062
1477.07	72.254
1480.61	96.645
1484.14	105.527
1487.68	73.314
1491.22	78.401
1494.75	55.033
1498.28	33.775
1501.81	17.957
1505.34	40.547
1508.87	44.86
1512.4	35.607
1515.92	37.966
1519.44	30.946
1522.96	0
