Measurement: Raman, 514 nm, depolarized, Raman Data Processed
Mineral: Diopside
Rruff sample: R060861
Ideal chemistry: CaMgSi_2_O_6_
Locality: Red Mountain Volcano, NW of Flagstaff, Arizona, USA
Source: Jennifer Sano
Description: Worn brown fragment
Measured chemistry: (Ca_0.72_Fe^2+^_0.23_Na_0.05_)_Σ=1_(Mg_0.80_Al_0.15_Ti_0.03_Fe^3+^_0.02_)_Σ=1_(Si_1.82_Al_0.18_)_Σ=2_O_6_
Pin_id: M01653
Orientation: Laser parallel to -c* (0 0 -1). Fiducial mark perpendicular to laser is parallel to a [1 0 0]
Raman shift (cm-1)	intensity
167.297	0
172.233	2.97852
177.166	62.3779
182.096	115.406
187.022	898.512
191.946	1033.29
196.866	1203.61
201.783	1046.99
206.697	43.0293
211.608	330.333
216.515	711.573
221.419	1433.08
226.321	1765.18
231.219	1438.36
236.114	890.194
241.005	738.373
245.894	644.16
250.779	869.345
255.662	717.644
260.541	593.296
265.417	130.798
270.29	75.3164
275.16	19.8721
280.027	267.257
284.891	1065.71
289.751	1883.11
294.609	2923.24
299.463	4028.98
304.315	5461.16
309.163	7296.41
314.008	9812.19
318.851	12641.1
323.69	15905.3
328.526	18392.7
333.359	19523
338.189	18620.1
343.016	17319.2
347.84	16066.2
352.661	15687.6
357.479	15275.4
362.294	14685.5
367.106	13977.5
371.915	13043.3
376.721	13113
381.524	14226.4
386.324	16822.3
391.121	19716.7
395.915	20758.6
400.706	17175.7
405.494	11432.2
410.279	6594.86
415.061	3673.74
419.841	1992.73
424.617	1393.52
429.39	663.104
434.161	541.504
438.928	186.608
443.693	35.3379
448.454	107.623
453.213	6.36914
457.969	541.438
462.722	762.808
467.472	1187.16
472.219	1240.09
476.963	1416.68
481.704	1446.39
486.443	1613.08
491.178	1566.52
495.911	1673.6
500.641	1729.36
505.368	2121.62
510.092	2634.27
514.813	3217.23
519.532	3841.43
524.247	4515.78
528.96	5110.24
533.67	5503.71
538.377	5752.14
543.081	5401.46
547.783	5126.61
552.481	4946.53
557.177	4992.17
561.87	4671.51
566.56	3828.45
571.248	3654.95
575.932	2685.95
580.614	1987.42
585.293	1353.88
589.97	540.504
594.643	70.9228
599.314	264.299
603.982	295.44
608.647	89.8603
613.31	175.844
617.969	487.202
622.626	1097.41
627.281	1691.67
631.932	2732.08
636.581	4191.11
641.227	5653.77
645.87	8379.06
650.511	12724
655.149	20362.6
659.784	31260.9
664.417	42281.9
669.046	43486.7
673.674	32783.2
678.298	21117.5
682.92	13338.7
687.539	8635.77
692.155	6007.76
696.769	4207.74
701.38	3585.74
705.988	3634.82
710.594	1805.04
715.197	1512.44
719.798	822.102
724.396	384.549
728.991	79.3408
733.583	212.489
738.173	450.094
742.761	668.304
747.345	820.305
751.927	322.059
756.507	326.971
761.084	571.788
765.658	115.958
770.229	322.881
774.799	468.708
779.365	579.557
783.929	687.653
788.49	501.813
793.049	657.456
797.605	783.834
802.159	813.333
806.71	899.787
811.258	1084.06
815.804	1175.27
820.347	1451.5
824.888	1252.86
829.427	1134.46
833.962	1061.38
838.495	810.722
843.026	623.584
847.554	852.056
852.08	1252.23
856.603	1937.2
861.124	2562.48
865.642	3107.36
870.157	3358.85
874.671	3283.65
879.181	2876.46
883.689	2692.45
888.195	2535.65
892.698	2332.16
897.199	2299.95
901.697	2323.7
906.193	2238.35
910.686	2403.26
915.177	2506.42
919.665	2823.74
924.151	2868.11
928.635	3177.36
933.116	3109.36
937.594	3305.99
942.071	3253.24
946.544	3869.09
951.016	4393.35
955.485	5115.98
959.951	5936.92
964.415	6881.16
968.877	8157.64
973.336	9502.33
977.793	11461.2
982.247	13723.1
986.699	17081.2
991.149	21883.3
995.596	28072.4
1000.04	35829.5
1004.48	40863.5
1008.92	41175.3
1013.36	34642.1
1017.8	24885.4
1022.23	17612.7
1026.66	12971.8
1031.09	12035
1035.52	9975.65
1039.94	7831.14
1044.36	6665.47
1048.78	5681.88
1053.2	4691.03
1057.61	3896.15
1062.02	3369.92
1066.43	2810.19
1070.84	2474.7
1075.24	2208.95
1079.65	1949.18
1084.05	2232.78
1088.45	2159.89
1092.84	2041.43
1097.23	1950.99
1101.63	1788.63
1106.02	1843.24
1110.4	1928.08
1114.79	1739.34
1119.17	1804.12
1123.55	1489.22
1127.93	1086.73
1132.3	778.623
1136.67	327.635
1141.05	161.218
1145.41	46.8779
1149.78	199.663
1154.14	396.81
1158.51	181.804
1162.87	180.954
1167.22	320.741
1171.58	134.939
1175.93	136.087
1180.28	12.7632
1184.63	97.0903
1188.98	44.4531
1193.32	60.7588
1197.66	173.065
1202	180.495
1206.34	215.049
1210.68	315.791
1215.01	405.981
1219.34	477.684
1223.67	434.899
1228	495.609
1232.32	585.861
1236.64	681.673
1240.96	631.068
1245.28	591.985
1249.6	800.402
1253.91	753.39
1258.22	708.961
1262.53	925.054
1266.84	838.74
1271.14	1029.73
1275.45	1003.18
1279.75	921.734
1284.05	981.356
1288.34	916.04
1292.64	860.409
1296.93	916.319
1301.22	795.792
1305.51	776.552
1309.8	648.216
1314.08	768.058
1318.36	593.919
1322.64	664.811
1326.92	662.429
1331.19	657.015
1335.47	722.037
1339.74	707.755
1344.01	708.484
1348.28	631.218
1352.54	540.595
1356.8	516.932
1361.07	475.563
1365.32	462.74
1369.58	536.646
1373.84	381.032
1378.09	427.199
1382.34	445.666
1386.59	362.521
1390.84	339.97
1395.08	139.264
1399.32	141.988
1403.56	228.769
1407.8	301.725
1412.04	252.817
1416.27	344.467
1420.51	272.648
1424.74	251.761
1428.96	291.873
1433.19	291.233
1437.42	465.958
1441.64	423.173
1445.86	410.812
1450.08	406.202
1454.3	304.215
1458.51	148.996
1462.72	289.468
1466.93	138.667
1471.14	235.034
1475.35	176.733
1479.55	194.869
1483.76	129.466
1487.96	77.8721
1492.16	46.0996
1496.35	51.2402
1500.55	67.8857
1504.74	26.6963
1508.93	3.20801
1513.12	0.47168
1517.31	29.2549
1521.49	110.722
1525.68	18.7461
1529.86	89.0537
1534.04	112.331
1538.22	213.699
1542.39	21.7568
1546.57	103.157
1550.74	212.364
1554.91	364.742
1559.08	117.288
1563.24	19.2207
