Measurement: Raman, 514 nm, depolarized, Raman Data Processed
Mineral: Diopside
Rruff sample: R060085
Ideal chemistry: CaMgSi_2_O_6_
Locality: Tyrol, Austria
Source: University of Arizona Mineral Museum
Description: Brownish-green massive
Measured chemistry: (Ca_0.97_Na_0.03_)_Σ=1_(Mg_0.79_Fe^2+^_0.10_Fe^3+^_0.04_Al_0.04_Ti_0.02_Cr_0.01_)_Σ=1_(Si_1.90_Al_0.10_)_Σ=2_O_6_
Pin_id: M01542
Orientation: Laser parallel to c* (0 0 1). Fiducial mark perpendicular to laser is parallel to a [1 0 0]
Raman shift (cm-1)	intensity
82.67	0
87.655	164.191
92.638	161.019
97.618	33.3574
102.594	135.951
107.568	422.019
112.538	651.479
117.505	500.207
122.469	525.34
127.43	547.199
132.388	366.807
137.342	554.994
142.294	613.932
147.242	425.555
152.187	232.775
157.13	239.545
162.069	268.525
167.005	120.43
171.938	242.484
176.868	229.816
181.794	472.232
186.718	338.16
191.639	503.541
196.556	901.998
201.471	752.771
206.382	396.752
211.29	190.893
216.196	289.213
221.098	226.693
225.997	563.381
230.894	656.231
235.787	753.225
240.677	570.264
245.564	546.371
250.448	200.213
255.329	294.705
260.207	274.596
265.082	166.82
269.954	93.3184
274.823	108.201
279.689	23.0449
284.552	87.3027
289.412	78.3477
294.269	98.8144
299.123	498.522
303.974	566.717
308.822	746.139
313.667	739.977
318.509	1357.12
323.349	3147.39
328.185	2957.3
333.018	2078.36
337.848	1149.53
342.676	856.666
347.5	809.6
352.321	950.348
357.14	1645.06
361.955	1417.33
366.768	908.533
371.578	678.533
376.384	893.121
381.188	1120.66
385.989	1996.19
390.787	3578.69
395.582	3372.16
400.374	1926.56
405.164	871.873
409.95	363.08
414.733	379.178
419.514	62.9883
424.292	96.7832
429.066	47.8691
433.838	57.7324
438.607	90.4863
443.373	175.51
448.137	157.514
452.897	8.53711
457.655	169.957
462.409	162.676
467.161	394.582
471.91	185.357
476.656	102.736
481.399	27.3984
486.14	246.393
490.877	108.941
495.612	109.59
500.344	104.984
505.073	89.0957
509.799	122.977
514.523	380.562
519.243	216.894
523.961	295.094
528.676	608.002
533.388	731.633
538.097	677.947
542.804	882.924
547.508	740.561
552.209	519.836
556.907	975.752
561.602	820.115
566.295	629.691
570.984	468.195
575.671	165.336
580.356	263.992
585.037	161.695
589.716	71.5566
594.392	184.328
599.065	102.719
603.735	4.08398
608.403	29.8418
613.068	72.0977
617.73	185.406
622.389	12.7812
627.046	198.473
631.7	228.451
636.351	508.065
641	503.185
645.645	780.871
650.288	938.709
654.929	1858.66
659.566	2916.24
664.201	5556.6
668.833	7095.2
673.463	4242.18
678.09	2691.42
682.714	1790.3
687.335	1175.82
691.954	931.662
696.57	696.424
701.183	228.658
705.793	516.922
710.401	268.897
715.007	356.707
719.609	151.353
724.209	179.643
728.806	311.812
733.401	51.9082
737.993	95.7852
742.582	1.22852
747.169	236.055
751.753	63.6758
756.334	57.4941
760.913	101.482
765.489	223.148
770.062	150.826
774.633	2.86328
779.201	9.02344
783.766	60.7031
788.329	135.062
792.889	225.644
797.447	319.293
802.002	66.4688
806.554	110.828
811.104	118.5
815.651	273.879
820.196	546.644
824.738	160.039
829.277	157.012
833.814	421.461
838.348	289.066
842.88	405.41
847.409	241.008
851.935	275.836
856.459	500.32
860.98	320.414
865.499	571.312
870.015	361.969
874.529	307.609
879.04	369.195
883.548	210.019
888.054	236.371
892.558	404.109
897.058	134.051
901.557	185.004
906.052	88.7344
910.546	279.562
915.036	184.348
919.524	106.281
924.01	12.8086
928.493	39.3242
932.974	208.184
937.452	270.973
941.927	17.8984
946.4	424.062
950.871	175.836
955.339	320.562
959.804	299.883
964.267	315.586
968.728	478.059
973.185	553.746
977.641	625.09
982.094	707.125
986.544	1167.52
990.992	1324.44
995.438	1660.89
999.881	2908
1004.32	4385.2
1008.76	7769.52
1013.2	11159
1017.63	6588.41
1022.06	2775.55
1026.49	1569.94
1030.91	1301.99
1035.34	887.207
1039.76	988.551
1044.18	1319.61
1048.59	1340.07
1053.01	949.5
1057.42	545.91
1061.83	248.109
1066.23	300.555
1070.64	392.281
1075.04	127.898
1079.44	11.7578
1083.83	204.727
1088.23	121.531
1092.62	132.356
1097.01	168
1101.39	29.9492
1105.78	317.16
1110.16	216.613
1114.54	129.918
1118.92	123.898
1123.29	113.066
1127.67	18.793
1132.04	196.637
1136.4	64.1875
1140.77	312.371
1145.13	7.52344
1149.49	130.797
1153.85	43.4609
1158.21	230.582
1162.56	23.5703
1166.91	322.551
1171.26	163.379
1175.61	310.031
1179.95	454.059
1184.29	224.106
1188.63	360.711
1192.97	197.805
1197.3	198.621
1201.64	43.207
1205.97	216.215
1210.29	97.0859
1214.62	164.109
1218.94	342.215
1223.26	121.699
1227.58	389.555
1231.9	459.492
1236.21	104.402
1240.52	410.719
1244.83	450.91
1249.14	255.238
1253.44	374.426
1257.74	156.008
1262.04	473.633
1266.34	635.824
1270.64	694.344
1274.93	308.07
1279.22	346.312
1283.51	76.4414
1287.79	214.441
1292.08	73.9688
1296.36	11.6641
1300.64	237.152
1304.92	181.746
1309.19	419.812
1313.46	308.867
1317.73	160.426
1322	218.644
1326.27	164.059
1330.53	46.7227
1334.79	138.824
1339.05	154.16
1343.31	312.789
1347.56	236.414
1351.81	340.078
1356.06	75.4102
1360.31	572.234
1364.56	390.609
1368.8	665.504
1373.04	313.414
1377.28	237.023
1381.52	266.887
1385.75	457.156
1389.98	443.582
1394.21	132.496
1398.44	450.418
1402.66	328.215
1406.89	290.394
1411.11	521.598
1415.33	193.195
1419.54	496.91
1423.76	425.594
1427.97	436.168
1432.18	487.918
1436.39	170.898
1440.59	238.059
1444.8	188.879
1449	27.4609
1453.2	315.5
1457.39	121.164
1461.59	454.566
1465.78	277.984
1469.97	399.137
1474.16	278.672
1478.35	375.051
1482.53	191.398
1486.71	210.914
1490.89	375.488
1495.07	564.273
1499.24	380.199
1503.42	564.898
1507.59	312.356
1511.76	188.672
1515.92	680.504
1520.09	533.883
1524.25	620.973
1528.41	629.543
1532.57	252.652
1536.72	277.473
1540.88	467.832
1545.03	484.941
1549.18	342.09
1553.33	301.578
1557.47	406.356
1561.62	281.059
1565.76	358.258
1569.89	24.9648
1574.03	344.398
1578.17	0
