Measurement: Raman, 514 nm, depolarized, Raman Data Processed
Mineral: Diopside
Rruff sample: R040009
Ideal chemistry: CaMgSi_2_O_6_
Locality: Otter Lake, Quebec, Canada
Source: University of Arizona Mineral Museum
Description: Green square prismatic crystal associated with pale orange calcite
Measured chemistry: (Ca_0.97_Fe_0.02_Na_0.01_)_Σ=1_(Mg_0.97_Fe_0.02_Al_0.01_)_Σ=1_Si_2.00_O_6_; trace amounts of Mn and Ti
Pin_id: M00056
Orientation: Laser parallel to -c [0 0 -1]. Fiducial mark perpendicular to laser is parallel to b* (0 1 0)
Raman shift (cm-1)	intensity
85.009	0
89.193	51.043
93.375	105.891
97.554	90.059
101.732	8.695
105.908	124.181
110.082	158.194
114.254	338.266
118.424	115.211
122.592	47.268
126.758	66.786
130.922	190.293
135.083	219.056
139.243	210.45
143.401	82.36
147.557	8.388
151.711	35.566
155.863	20.592
160.013	197.164
164.161	324.101
168.308	106.349
172.452	136.645
176.594	330.648
180.734	736.72
184.872	333.678
189.008	383.7
193.143	779.904
197.275	425.272
201.405	83.777
205.534	17.607
209.66	13.23
213.784	15.391
217.907	63.189
222.027	336.069
226.146	896.028
230.263	1256.05
234.377	959.122
238.49	475.263
242.601	264.469
246.709	272.736
250.816	775.688
254.921	786.923
259.024	251.996
263.125	91.591
267.224	29.437
271.321	2.8
275.416	27.771
279.51	21.212
283.601	105.146
287.69	119.776
291.778	249.423
295.863	686.688
299.947	1140.07
304.029	1496.55
308.108	2152.13
312.186	3171.29
316.262	5164.06
320.336	9926.52
324.408	11102.7
328.478	6170.1
332.546	2866.63
336.612	1547.69
340.677	1144.62
344.739	1012.66
348.799	1450.72
352.858	2497.82
356.915	2994.96
360.969	1952.12
365.022	1373.33
369.073	1099.39
373.122	1187.71
377.169	1878.92
381.215	3521.19
385.258	8228.47
389.299	13304.8
393.339	9455.03
397.376	4284.31
401.412	1838.6
405.446	823.896
409.478	543.201
413.508	330.525
417.536	238.942
421.562	108.386
425.586	130.527
429.609	57.699
433.629	90.289
437.648	52.906
441.665	16.713
445.68	31.104
449.693	28.131
453.704	56.023
457.713	189.977
461.721	485.361
465.726	591.723
469.73	288.064
473.731	110.391
477.731	5.308
481.729	21.085
485.725	6.977
489.72	6.961
493.712	10.927
497.703	0.064
501.691	92.63
505.678	226.283
509.663	215.987
513.646	330.708
517.627	336.409
521.607	517.044
525.584	866.615
529.56	1166.11
533.534	789.515
537.506	422.828
541.476	264.021
545.444	308.089
549.41	536.026
553.375	1205.88
557.337	2482.89
561.298	1750.98
565.257	744.835
569.214	371.538
573.17	271.103
577.123	111.457
581.075	28.6
585.024	52.816
588.972	63.221
592.918	39.81
596.863	20.553
600.805	37.958
604.746	122.83
608.685	89.023
612.621	49.392
616.557	171.171
620.49	193.567
624.421	444.56
628.351	411.45
632.279	508.943
636.205	702.963
640.129	944.296
644.051	1216.21
647.972	1771.43
651.89	2937.89
655.807	5266.87
659.722	11259.7
663.636	20885.4
667.547	19939.3
671.457	10482.9
675.365	5014.08
679.271	2679.66
683.175	1748.19
687.077	1025.59
690.978	718.114
694.877	526.642
698.774	503.204
702.669	337.474
706.562	398.452
710.454	169.134
714.344	113.515
718.232	191.777
722.118	178.671
726.002	74.839
729.885	126.844
733.766	5.783
737.645	117.409
741.522	11.125
745.397	104.211
749.271	41.439
753.143	46.009
757.013	27.704
760.881	62.258
764.748	43.506
768.613	47.678
772.476	93.099
776.337	30.806
780.196	72.17
784.054	36.803
787.91	44.317
791.764	35.509
795.616	20.001
799.467	24.12
803.316	49.449
807.163	33.968
811.008	19.201
814.851	60.126
818.693	76.631
822.533	45.61
826.371	18.852
830.208	98.273
834.042	9.929
837.875	137.52
841.706	112.662
845.536	110.515
849.363	458.096
853.189	1040.43
857.013	936.531
860.836	580.391
864.656	397.754
868.475	252.561
872.292	235.493
876.108	151.924
879.922	227.755
883.733	273.016
887.544	348.128
891.352	307.583
895.159	265.208
898.964	262.595
902.767	336.532
906.568	268.761
910.368	269.237
914.166	293.296
917.962	260.33
921.757	231.148
925.55	286.404
929.341	142.087
933.13	245.394
936.918	326.348
940.703	187.537
944.488	221.609
948.27	168.796
952.051	184.198
955.83	319.481
959.607	409.634
963.383	508.994
967.156	518.31
970.928	626.002
974.699	799.216
978.468	865.715
982.234	1233.33
986	1310.95
989.763	1714.57
993.525	2471.69
997.285	3834.8
1001.04	6173.54
1004.8	12063.9
1008.55	28196.9
1012.31	49878.1
1016.06	30510.3
1019.81	12162.9
1023.56	5953.35
1027.31	3631.47
1031.05	2825.84
1034.79	2519.43
1038.53	2849.87
1042.27	3953.8
1046.01	5616.88
1049.75	4806.43
1053.48	2681.01
1057.22	1577.11
1060.95	1112.63
1064.68	781.726
1068.4	538.636
1072.13	462.625
1075.86	406.079
1079.58	432.088
1083.3	450.551
1087.02	422.262
1090.74	233.754
1094.45	300.941
1098.17	209.161
1101.88	255.257
1105.59	78.838
1109.3	253.197
1113.01	108.947
1116.71	95.873
1120.42	115.428
1124.12	289.665
1127.82	92.182
1131.52	205.972
1135.22	334.624
1138.91	139.435
1142.61	6.355
1146.3	114.044
1149.99	96.068
1153.68	4.791
1157.37	67.497
1161.06	72
1164.74	71.7
1168.42	63.079
1172.1	13.438
1175.78	93.246
1179.46	59.028
1183.14	94.642
1186.81	23.083
1190.48	0.086
1194.15	1.474
1197.83	3.911
1201.49	202.95
1205.16	217.565
1208.82	9.093
1212.49	168.636
1216.15	52.385
1219.81	173.946
1223.46	117.718
1227.12	30.091
1230.78	137.962
1234.43	123.832
1238.08	67.706
1241.73	139.785
1245.38	101.317
1249.03	188.914
1252.67	22.759
1256.31	16.838
1259.95	77.02
1263.6	34.413
1267.23	102.382
1270.87	97.072
1274.51	2.574
1278.14	90.312
1281.77	84.161
1285.4	226.019
1289.03	63.245
1292.66	57.318
1296.28	14.231
1299.91	415.157
1303.53	509.45
1307.15	114.887
1310.77	94.432
1314.38	179.451
1318	57.584
1321.61	41.045
1325.23	288.715
1328.84	301.002
1332.45	296.146
1336.06	114.145
1339.66	442.652
1343.27	279.73
1346.87	399.166
1350.47	359.518
1354.07	388.57
1357.67	367.619
1361.26	346.775
1364.86	423.072
1368.45	272.369
1372.04	226.102
1375.63	119.002
1379.22	245.26
1382.81	266.166
1386.39	34.287
1389.98	185.719
1393.56	258.414
1397.14	191.691
1400.72	146.992
1404.3	54.693
1407.87	31.211
