Measurement: Raman, 514 nm, depolarized, Raman Data Processed
Mineral: Diopside
Rruff sample: R040097
Ideal chemistry: CaMgSi_2_O_6_
Locality: Fassathal, Tyrol
Source: University of Arizona Mineral Museum
Description: Green prismatic crystals
Measured chemistry: Ca_1.00_(Mg_0.83_Al_0.10_Fe_0.09_Ca_0.02_Ti_0.02_)(Si_0.88_Al_0.12_)_2_O_6_
Pin_id: L00346
Orientation: Laser parallel to a [1 0 0]. Fiducial mark perpendicular to laser is parallel to b* (0 1 0)
Raman shift (cm-1)	intensity
121.785	0
126.69	98.375
131.594	3029.5
136.495	8572.38
141.393	17727.6
146.29	17073.2
151.185	8440.75
156.077	2848.66
160.967	700.594
165.855	893.406
170.741	977.844
175.624	2449.91
180.505	4419.28
185.384	9623.78
190.261	8720.41
195.136	6851.5
200.008	7080.62
204.879	4452.84
209.747	4475.91
214.613	4496.81
219.476	7579.78
224.337	10640.2
229.197	15842.9
234.053	14024.5
238.908	9725.91
243.76	8193.91
248.611	9043.22
253.458	10803.5
258.304	10941.3
263.148	7514.31
267.989	4571.66
272.828	2847.19
277.664	2637.72
282.499	3179.22
287.331	4127.56
292.16	5086.53
296.988	7116.59
301.813	11138
306.636	15899.7
311.457	24956.9
316.275	39783.7
321.091	57150.9
325.905	68973.8
330.717	63153.8
335.526	43664.1
340.333	31660.7
345.138	24624.2
349.94	22749.9
354.74	21027.3
359.538	20370
364.333	19012.6
369.126	19094.9
373.917	20263.8
378.706	23617.8
383.492	34454.7
388.276	54112.4
393.057	72448.6
397.836	62089.2
402.613	35611
407.387	14094.7
412.16	6179.28
416.929	1727.59
421.697	1096.59
426.462	1600.75
431.225	1252.28
435.985	481.625
440.743	598.562
445.499	354.844
450.252	628.094
455.003	467.656
459.752	353.406
464.498	563
469.242	289.5
473.983	33.7812
478.722	199.531
483.459	98.5312
488.193	456.594
492.925	1386.12
497.655	1925.47
502.382	5745.44
507.107	9437.06
511.829	13359
516.549	10912.5
521.267	9234.06
525.982	8798.12
530.695	8590.5
535.405	7560.91
540.113	7270.91
544.818	4383.22
549.522	5292.59
554.222	5104.84
558.92	6855.78
563.616	6151.19
568.31	6521.75
573.001	5085.84
577.689	2161.31
582.376	2500.47
587.059	1754.47
591.741	1337.81
596.419	2163.84
601.096	1224.62
605.77	1252.44
610.441	416.375
615.11	1440.69
619.777	1610
624.441	2050.81
629.103	3975.88
633.762	5537.31
638.419	6693.62
643.073	9530.94
647.725	16692.8
652.374	26028
657.021	44198.2
661.665	76945.1
666.307	111326
670.947	106336
675.584	63065.7
680.218	35011.6
684.85	21408.8
689.48	14148.4
694.107	9359.88
698.731	7510.5
703.354	5496.19
707.973	6439.88
712.59	4179
717.205	2881.75
721.817	1342.88
726.426	38.4375
731.033	508
735.638	187.688
740.24	1312.12
744.839	126.25
749.436	151.125
754.031	47.75
758.623	725.75
763.212	-50.9956
767.799	1149.31
772.384	2167.69
776.965	567.188
781.545	1339.19
786.122	2555.5
790.696	1967.81
795.267	2667.5
799.837	2914.94
804.403	3833.88
808.967	3488.75
813.529	4656.5
818.088	7147.56
822.644	8235.88
827.198	8299.38
831.749	7209.88
836.298	5980.12
840.844	5572.44
845.388	2579.62
849.929	4666.5
854.468	6052.88
859.004	6879.81
863.537	8022.75
868.068	7720.44
872.596	4818.25
877.122	2352.69
881.645	2237.38
886.165	2518.56
890.683	1644.12
895.199	665.5
899.711	2213.56
904.221	2260.62
908.729	1827.75
913.234	662.812
917.736	1941.69
922.236	2200.44
926.733	2102.06
931.228	2567.06
935.72	1281.81
940.209	543.938
944.696	1806.94
949.18	2208.31
953.662	2043.12
958.141	3915.31
962.617	6535.31
967.091	5151.19
971.562	5910.25
976.03	8399.31
980.496	8986.62
984.959	8736.19
989.42	13799.9
993.878	19861.2
998.333	35115.8
1002.79	67105.2
1007.24	110111
1011.68	136220
1016.13	96315.4
1020.57	40211.6
1025.01	20186
1029.45	13718.9
1033.88	14258
1038.31	15148.1
1042.74	14686.6
1047.17	14078.3
1051.59	9170.31
1056.01	5581.62
1060.43	2222.69
1064.85	1834.81
1069.26	382.438
1073.67	761.562
1078.08	2037
1082.48	634.062
1086.88	680.938
1091.29	1113.62
1095.68	1503
1100.08	1413.06
1104.47	3328.06
1108.86	2366.12
1113.24	1060.06
1117.63	2295.5
1122.01	2657.94
1126.39	992.188
1130.76	332.125
1135.13	1832.06
1139.51	286.688
1143.87	1083.19
1148.24	750.562
1152.6	972.438
1156.96	281.25
1161.32	1293.44
1165.67	314
1170.02	254.875
1174.37	287.125
1178.72	855.438
1183.06	1854.56
1187.4	405.125
1191.74	1602.44
1196.07	177.245
1200.4	1020.62
1204.73	1516.75
1209.06	1377.12
1213.39	555.25
1217.71	982.938
1222.03	2231.62
1226.34	1141.56
1230.66	3202.69
1234.97	4185.5
1239.28	2002.06
1243.58	2432.81
1247.88	2984.94
1252.18	2021.38
1256.48	4033.25
1260.77	3212
1265.07	1330.88
1269.35	2485.75
1273.64	2271.38
1277.92	1700.56
1282.2	656
1286.48	54.5625
1290.76	2678.75
1295.03	1866.81
1299.3	1882.44
1303.57	3953.44
1307.83	3841.69
1312.09	2502.19
1316.35	5164.25
1320.61	2798.81
1324.86	7373.75
1329.11	2937.94
1333.36	4224.12
1337.6	6095.5
1341.84	5032.12
1346.08	2266.56
1350.32	6504.31
1354.55	4574.44
1358.79	6258.69
1363.01	6431.69
1367.24	3479.06
1371.46	4775.31
1375.68	2840.75
1379.9	2505.38
1384.11	4263.25
1388.32	106.75
1392.53	4623
1396.74	4318
1400.94	2713.25
1405.14	2829.25
1409.34	3108
1413.54	3582
1417.73	1508
1421.92	476.5
1426.1	1920
1430.29	706.5
1434.47	2183.12
1438.65	1591.12
1442.82	650.375
1446.99	1042
1451.16	186.25
1455.33	1516.5
1459.49	277.25
1463.66	956.375
1467.82	468.561
1471.97	388.375
1476.12	3286
1480.27	2838.62
1484.42	4013.62
1488.57	2348
1492.71	2129.75
1496.85	2495.38
1500.98	1683.62
1505.12	3241.5
1509.24	4256.38
1513.37	3670.88
1517.5	7523.25
1521.62	4043.25
1525.74	6179.62
1529.86	5873.62
1533.97	3208
1538.08	4572.12
1542.19	2126
1546.29	4478.62
1550.39	3949.75
1554.49	4785.38
1558.59	7238.12
1562.68	3486.38
1566.77	5763.38
1570.86	1454.25
1574.95	3886.62
1579.03	5.375
