Measurement: Raman, 514 nm, depolarized, Raman Data Processed
Mineral: Diopside
Rruff sample: R060861
Ideal chemistry: CaMgSi_2_O_6_
Locality: Red Mountain Volcano, NW of Flagstaff, Arizona, USA
Source: Jennifer Sano
Description: Worn brown fragment
Measured chemistry: (Ca_0.72_Fe^2+^_0.23_Na_0.05_)_Σ=1_(Mg_0.80_Al_0.15_Ti_0.03_Fe^3+^_0.02_)_Σ=1_(Si_1.82_Al_0.18_)_Σ=2_O_6_
Pin_id: M01674
Orientation: Laser parallel to b* (0 1 0). Fiducial mark perpendicular to laser is parallel to c [0 0 1]
Raman shift (cm-1)	intensity
164.828	0
169.765	61.5957
174.7	143.093
179.631	328.762
184.56	427.61
189.484	986.652
194.406	1234.81
199.325	1080.39
204.24	872.548
209.153	21.0137
214.062	59.9395
218.968	45.543
223.87	136.47
228.77	346.61
233.666	501.847
238.56	571.171
243.45	898.459
248.337	1336.44
253.221	1505.68
258.102	1633.83
262.979	967.638
267.854	355.424
272.726	283.437
277.594	429.754
282.459	606.401
287.321	1076.12
292.18	1867.06
297.036	2601.1
301.889	3760.82
306.739	4797.79
311.586	6994.01
316.43	9104.89
321.271	11919.4
326.108	14582
330.943	16427.6
335.774	16568.5
340.603	15778
345.428	14446.7
350.251	13674.6
355.07	12765.7
359.887	11802.8
364.7	10704.4
369.511	9808.94
374.318	9090.53
379.123	9136.92
383.924	9554.04
388.723	10628.8
393.518	11731.2
398.311	10715.2
403.1	8025.65
407.887	5019.66
412.671	2721.18
417.451	1452.18
422.229	910.61
427.004	443.438
431.776	281.62
436.545	40.8857
441.311	125.13
446.074	144.239
450.834	76.3389
455.591	26.5352
460.346	313.194
465.097	436.033
469.846	600.648
474.591	754.827
479.334	837.859
484.074	986.585
488.811	966.25
493.545	1417.65
498.276	1961.91
503.005	3093.31
507.73	4535.42
512.453	4854.12
517.173	4080.28
521.89	3958.87
526.604	4213.14
531.315	4717.12
536.024	5099.7
540.729	5018.52
545.432	4906.54
550.132	4556.72
554.83	4374.02
559.524	4093.41
564.216	3717.84
568.904	3286.28
573.59	2943.69
578.274	2386.45
582.954	2119.85
587.632	1248.85
592.307	581.958
596.979	304.661
601.648	147.244
606.315	128.286
610.979	255.877
615.64	472.279
620.298	1004.1
624.954	1425.9
629.607	2261.24
634.257	3388.44
638.904	5013.79
643.549	7618.26
648.191	11823.9
652.83	18459.6
657.467	29366.5
662.101	43645.6
666.732	53831.8
671.36	48476.2
675.986	32892.9
680.609	20912.8
685.23	12955.9
689.847	8472.36
694.462	5668.13
699.075	4053.26
703.685	3100.79
708.292	2391.74
712.896	1584.17
717.498	1063.11
722.097	694.628
726.694	325.86
731.287	147.525
735.879	293.182
740.467	429.514
745.053	424.103
749.637	388.634
754.217	196.942
758.795	69.9209
763.371	1.54981
767.944	500.246
772.514	423.291
777.082	552.155
781.647	800.801
786.21	788.678
790.77	971.433
795.327	1149.38
799.882	1347.84
804.434	1537.73
808.984	1616.96
813.531	1809.61
818.076	1994.78
822.618	2152.55
827.158	2036
831.695	2010.23
836.229	1796.31
840.761	1729.32
845.291	1652.35
849.817	1714.48
854.342	2246.78
858.864	2802.33
863.383	3456.36
867.9	3927.07
872.414	3834.89
876.926	3352.19
881.436	3244.23
885.942	3031.46
890.447	2506.65
894.949	2392.95
899.448	2315.07
903.945	2340.94
908.44	2521.39
912.932	2315.25
917.421	2363.5
921.909	2687.15
926.393	2808.26
930.876	3057.63
935.355	3124.17
939.833	3167.85
944.308	3416.65
948.78	3872.47
953.25	4241.23
957.718	4765.82
962.183	5461.23
966.646	6063.42
971.107	7221.4
975.565	8553.14
980.02	10045.6
984.474	12568.8
988.925	15626.6
993.373	20344.1
997.819	25769.2
1002.26	31118.3
1006.7	33391.3
1011.14	30059.7
1015.58	23474.8
1020.01	16304.7
1024.45	11896.5
1028.88	8893.77
1033.3	7565.17
1037.73	6415.65
1042.15	5691.01
1046.57	4896.67
1050.99	4037.53
1055.4	3434.53
1059.82	3089.6
1064.23	2665.93
1068.64	2407.98
1073.04	2226.11
1077.45	2060.43
1081.85	2020.98
1086.25	1917.01
1090.64	1735.1
1095.04	1843.37
1099.43	1689.45
1103.82	1667.67
1108.21	1587.18
1112.6	1441.86
1116.98	1426.69
1121.36	1278.75
1125.74	995.96
1130.12	610.667
1134.49	446.381
1138.86	220.827
1143.23	57.0044
1147.6	20.6909
1151.96	373.265
1156.33	265.562
1160.69	167.006
1165.05	173.833
1169.4	277.911
1173.76	54.269
1178.11	189.615
1182.46	95.0962
1186.81	61.1963
1191.15	34.123
1195.49	57.752
1199.84	79.4507
1204.17	34.0874
1208.51	235.955
1212.84	308.972
1217.18	352.863
1221.51	386.748
1225.83	464.636
1230.16	359.569
1234.48	467.433
1238.8	500.27
1243.12	515.101
1247.44	611.916
1251.76	646.704
1256.07	557.498
1260.38	681.28
1264.69	686.056
1268.99	705.829
1273.3	774.429
1277.6	719.769
1281.9	808.946
1286.2	693.821
1290.49	680.806
1294.79	704.309
1299.08	680.613
1303.37	563.414
1307.65	584.498
1311.94	557.845
1316.22	569.222
1320.5	514.014
1324.78	503.019
1329.06	613.934
1333.33	471.318
1337.6	599.526
1341.87	574.399
1346.14	624.792
1350.41	560.569
1354.67	624.417
1358.93	527.677
1363.19	426.289
1367.45	419.91
1371.71	386.607
1375.96	420.907
1380.21	418.837
1384.46	358.893
1388.71	328.624
1392.96	423.783
1397.2	254.375
1401.44	328.219
1405.68	346.369
1409.92	311.442
1414.16	300.585
1418.39	317.232
1422.62	133.384
1426.85	255.39
1431.08	225.356
1435.3	242.615
1439.53	210.04
1443.75	297.125
1447.97	170.922
1452.19	233.649
1456.4	88.9067
1460.62	153.215
1464.83	75.52
1469.04	90.9985
1473.24	38.6997
1477.45	19.7183
1481.65	99.2061
1485.86	99.2935
1490.06	50.2129
1494.26	88.2983
1498.45	5.77393
1502.64	43.9009
1506.84	23.7134
1511.03	61.0913
1515.22	104.029
1519.4	139.063
1523.59	34.3565
1527.77	31.1753
1531.95	193.118
1536.13	180.444
1540.31	198.427
1544.48	111.62
1548.65	117.191
1552.82	126.359
1556.99	570.316
1561.16	144.398
1565.33	0
