Measurement: Raman, 514 nm, depolarized, Raman Data Processed
Mineral: Diopside
Rruff sample: R060171
Ideal chemistry: CaMgSi_2_O_6_
Locality: Jeffrey mine, Asbestos, Quebec, Canada
Source: Guy Ouellet
Description: Yellowish-brown tabular crystals associated with vesuvianite, R060170
Measured chemistry: Ca_1.00_(Mg_0.98_Mn_0.02_)_Î£=1_Si_2.00_O_6_
Pin_id: L00630
Orientation: Laser parallel to (-1 0 -1). Fiducial mark perpendicular to laser is parallel to -b [0 -1 0]
Raman shift (cm-1)	intensity
125.519	0
129.209	97.7481
132.898	256.168
136.585	721.064
140.271	1931.64
143.956	2920.81
147.639	1086.41
151.321	575.803
155.002	622.365
158.681	519.689
162.359	307.076
166.036	556.014
169.711	599.207
173.385	547.986
177.058	481.816
180.729	542.248
184.399	709.523
188.067	589.58
191.734	461.977
195.4	444.871
199.064	569.002
202.727	407.523
206.389	341.688
210.049	490.082
213.708	354.316
217.366	303.209
221.022	502.293
224.677	549.859
228.33	681.604
231.982	1264.45
235.633	966.369
239.282	508.43
242.93	379.691
246.577	515.271
250.222	227.857
253.866	460.301
257.508	595.606
261.149	435.699
264.789	444.603
268.427	389.387
272.064	427.555
275.7	382.523
279.334	154.856
282.967	155.293
286.598	300.775
290.229	185.549
293.857	127.223
297.485	172.984
301.111	456.879
304.735	884.115
308.358	280.154
311.98	505.184
315.601	803.242
319.22	1122.99
322.837	3154.57
326.454	4644.97
330.068	1902.32
333.682	883.885
337.294	570.025
340.905	382.711
344.514	234.481
348.122	454.184
351.729	633.83
355.334	1090.95
358.938	1456.62
362.54	1161.09
366.141	848.391
369.741	1163.83
373.339	615.689
376.936	575.828
380.531	759.312
384.126	1194.39
387.718	2693.52
391.31	5346.94
394.9	3222.65
398.488	1039.96
402.075	393.19
405.661	275.143
409.245	146.449
412.828	2.63672
416.41	244.518
419.99	162.184
423.569	184.85
427.146	31.8223
430.722	98.0938
434.297	79.7266
437.87	84.9609
441.442	153.773
445.012	16.25
448.581	21.1836
452.149	79.3184
455.715	62.5254
459.28	100.434
462.843	102.797
466.405	15.9316
469.965	16.252
473.525	283.143
477.082	77.6797
480.639	92.6797
484.194	43.2754
487.747	261.291
491.3	53.5039
494.85	200.809
498.4	149.859
501.948	116.004
505.494	102.01
509.039	107.9
512.583	64.0059
516.125	162.043
519.666	345.164
523.206	30.291
526.744	402.41
530.281	443.539
533.816	125.672
537.35	360.803
540.882	208.891
544.413	316.918
547.943	75.1055
551.471	244.619
554.998	336.231
558.523	445.951
562.047	307.586
565.57	185.91
569.091	99.2773
572.611	235.908
576.129	68.875
579.646	160.984
583.162	208.719
586.676	166.072
590.188	31.4844
593.7	51.459
597.209	379.822
600.718	277.742
604.225	232.389
607.73	79.8516
611.235	226.664
614.737	284.346
618.239	331.881
621.739	209.119
625.237	305.154
628.734	83.8731
632.23	217.348
635.724	258.641
639.217	379.764
642.708	370.695
646.198	433.188
649.687	633.963
653.174	827.533
656.66	926.408
660.144	2158.73
663.627	3657.2
667.108	5629.5
670.588	4467.75
674.067	2052.57
677.544	1224.16
681.02	594.977
684.494	500.678
687.967	389.144
691.438	283.658
694.908	320.469
698.377	251.231
701.844	508.457
705.31	208.162
708.774	259.568
712.237	203.012
715.698	448.719
719.158	193.023
722.617	86.9434
726.074	86.4961
729.53	287.953
732.984	56.7148
736.437	75.4981
739.888	94.1523
743.338	241.656
746.787	140.219
750.234	61.3164
753.68	103.266
757.124	2.65625
760.567	448.137
764.008	205.531
767.448	393.164
770.887	337.231
774.324	38.3047
777.759	84.8125
781.194	105.457
784.626	238.918
788.058	16.5391
791.488	154.508
794.916	318.481
798.343	183.606
801.769	231.481
805.193	150.828
808.616	98.3867
812.037	16.0586
815.457	186.793
818.875	282.402
822.292	325.387
825.707	437.504
829.122	312.738
832.534	254.715
835.945	309.793
839.355	442.66
842.763	423.078
846.17	513.656
849.576	712.172
852.98	1105.98
856.382	1182.37
859.783	659.984
863.183	387.801
866.581	288.805
869.978	337.031
873.373	382.938
876.767	7.70703
880.159	72.5938
883.55	170.707
886.94	306.211
890.328	138.074
893.714	130.379
897.1	30.1953
900.483	10.0859
903.866	213.34
907.246	81.8047
910.626	323.309
914.004	21.4688
917.38	163.652
920.755	26.3672
924.129	19.0273
927.501	211.066
930.872	369.195
934.241	49.0859
937.609	85.7422
940.975	144.094
944.34	125.371
947.703	418.961
951.065	324.938
954.426	67.2188
957.785	348.301
961.142	103.324
964.499	82.0547
967.853	37.6914
971.207	144.641
974.558	90.0547
977.909	360.297
981.258	332.481
984.605	289.711
987.951	375.898
991.295	522.773
994.639	246.019
997.98	449.086
1001.32	782.219
1004.66	1494.88
1008	2567.46
1011.33	6450.11
1014.67	9480.82
1018	5302.95
1021.33	1948.19
1024.66	908.672
1027.99	574.777
1031.32	699.992
1034.64	659.723
1037.97	414.379
1041.29	221.227
1044.61	437.676
1047.93	655.762
1051.25	511.519
1054.56	159.375
1057.88	701.488
1061.19	97.9023
1064.51	703.148
1067.82	346.219
1071.13	253.734
1074.43	290.891
1077.74	19.1523
1081.05	357.664
1084.35	263.824
1087.65	136.969
1090.95	76.9023
1094.25	183.648
1097.55	201.625
1100.85	124.242
1104.14	4.68359
1107.43	179.621
1110.73	255.68
1114.02	9.84375
1117.31	248.531
1120.59	477.148
1123.88	230.027
1127.16	317.738
1130.45	170.477
1133.73	645.57
1137.01	492.098
1140.29	145.098
1143.57	326.621
1146.84	258.699
1150.12	484.383
1153.39	160.348
1156.66	327.199
1159.93	246.945
1163.2	133.238
1166.46	84.2383
1169.73	333.152
1172.99	73.332
1176.26	361.391
1179.52	269.648
1182.78	212.606
1186.04	74.4805
1189.29	29.9805
1192.55	214.059
1195.8	181.242
1199.05	300.422
1202.31	376.961
1205.55	358.379
1208.8	297.523
1212.05	440.738
1215.29	452.137
1218.54	272.766
1221.78	78.8945
1225.02	184.574
1228.26	197.227
1231.5	297.363
1234.73	324.441
1237.97	264.816
1241.2	111.973
1244.43	338.492
1247.66	334.012
1250.89	323.41
1254.12	426.949
1257.34	321.992
1260.57	352.047
1263.79	243.332
1267.01	494.629
1270.23	147.359
1273.45	235.738
1276.67	250.144
1279.88	395.18
1283.1	397.824
1286.31	449.004
1289.52	254.883
1292.73	126.527
1295.94	48.0273
