Measurement: Raman, 514 nm, ccw, Raman Data Processed
Mineral: Diopside
Rruff sample: R060085
Ideal chemistry: CaMgSi_2_O_6_
Locality: Tyrol, Austria
Source: University of Arizona Mineral Museum
Description: Brownish-green massive
Measured chemistry: (Ca_0.97_Na_0.03_)_Σ=1_(Mg_0.79_Fe^2+^_0.10_Fe^3+^_0.04_Al_0.04_Ti_0.02_Cr_0.01_)_Σ=1_(Si_1.90_Al_0.10_)_Σ=2_O_6_
Pin_id: M01980
Orientation: Laser parallel to -b* (0 -1 0). Fiducial mark perpendicular to laser is parallel to c [0 0 1]
Raman shift (cm-1)	intensity
130.313	0
135.239	3.13281
140.163	435.012
145.084	451.502
150.002	227.34
154.918	65.7363
159.832	90.3008
164.742	208.225
169.651	123.244
174.556	230.684
179.459	228.164
184.36	348.336
189.258	321.973
194.153	667.893
199.046	273.955
203.936	340.227
208.824	147.83
213.709	173.078
218.592	236.584
223.472	228.481
228.349	340.818
233.224	435.66
238.096	539.082
242.966	491.975
247.833	529.307
252.698	722.066
257.56	903.229
262.419	414.775
267.276	271.685
272.13	141.943
276.982	72.959
281.831	220.869
286.677	345.07
291.521	157.873
296.363	512.301
301.202	271.379
306.038	699.568
310.872	561.328
315.703	1041.44
320.531	1494.32
325.357	2626.24
330.181	2312.8
335.001	1632.75
339.82	1139.47
344.635	936.09
349.448	895.953
354.259	869.039
359.067	876.344
363.872	730.844
368.675	430.533
373.475	288.398
378.272	369.43
383.067	313.617
387.86	156.951
392.649	464.422
397.437	250.019
402.221	174.736
407.003	177.566
411.783	255.502
416.56	216.529
421.334	8.45117
426.106	69.3769
430.875	62.7285
435.641	168.43
440.405	102.568
445.167	41.4375
449.925	131.574
454.681	44.6465
459.435	180.76
464.186	207.684
468.934	15.4863
473.68	64.3027
478.423	6.9375
483.164	67.9551
487.902	75.4824
492.637	308.082
497.37	238.643
502.1	485.207
506.828	1104.83
511.553	1534.44
516.276	696.779
520.995	514.496
525.713	372.978
530.427	417.424
535.139	518.881
539.849	366.32
544.556	673.664
549.26	451.904
553.962	379.033
558.661	418.045
563.357	270.742
568.051	272.522
572.742	36.4648
577.431	96.6094
582.117	139.397
586.801	229.215
591.481	22.6953
596.16	29.3633
600.835	155.076
605.508	27.2734
610.179	155.644
614.847	55.3047
619.512	322.076
624.175	186.445
628.835	116.85
633.492	383.113
638.147	592.164
642.799	696.799
647.449	892.854
652.096	1250.82
656.74	2103.03
661.382	4219.12
666.021	7895.75
670.658	7941.25
675.292	4500.16
679.923	2653.79
684.552	1596.79
689.178	1084.29
693.802	604.707
698.423	755.316
703.041	225.221
707.657	299.059
712.27	245.176
716.881	512.088
721.489	344.576
726.094	251.434
730.697	226.828
735.297	6.90625
739.894	2.95703
744.489	182.527
749.081	56.9922
753.671	136.957
758.258	197.969
762.842	50.3125
767.424	142.902
772.003	54.125
776.58	264.633
781.154	58.75
785.725	219.984
790.294	255.586
794.86	378.144
799.424	29.8984
803.985	186.586
808.543	49.0977
813.099	460.719
817.652	129.281
822.202	365.758
826.75	360.539
831.295	326.961
835.838	225.012
840.378	49.207
844.915	70.1016
849.45	84.0547
853.982	98.0469
858.512	308.316
863.039	320.394
867.563	157.449
872.085	211.93
876.604	340.133
881.12	302.176
885.634	346.5
890.145	193.41
894.654	1.48828
899.16	20.6836
903.663	174.684
908.164	131.5
912.662	33.9219
917.158	276.898
921.651	220.59
926.141	301.066
930.628	149.723
935.113	27.1797
939.596	248.066
944.076	287.363
948.553	110.457
953.027	109.41
957.499	451.238
961.969	271.894
966.435	747.305
970.899	468.07
975.361	459.676
979.82	534.184
984.276	1088.12
988.73	1066.94
993.181	1267.06
997.629	1844.46
1002.08	3017.12
1006.52	4382.49
1010.96	6538.61
1015.4	6679.51
1019.83	3733.68
1024.26	1606.81
1028.69	1070.09
1033.12	865.723
1037.55	816.461
1041.97	963.016
1046.39	603.711
1050.81	609.203
1055.22	589.18
1059.63	380.523
1064.04	534.359
1068.45	166.981
1072.85	216.621
1077.25	94.6211
1081.65	72.5195
1086.05	74.875
1090.44	133.606
1094.83	294.727
1099.22	243.144
1103.6	94.0586
1107.99	74.25
1112.37	130.312
1116.74	0.640625
1121.12	169.625
1125.49	247.793
1129.86	160.445
1134.23	76.8594
1138.59	226.062
1142.95	352.879
1147.31	6.65625
1151.67	161.508
1156.02	218.481
1160.38	240.219
1164.72	182.562
1169.07	56.3164
1173.41	227.219
1177.75	343.152
1182.09	326.664
1186.43	100.695
1190.76	287.414
1195.09	271.883
1199.42	332.906
1203.74	189.91
1208.07	198.195
1212.39	673.262
1216.7	252.59
1221.02	349.539
1225.33	498.75
1229.64	526.898
1233.95	382.191
1238.25	160.277
1242.55	442.414
1246.85	263.367
1251.15	322.422
1255.44	28.7617
1259.73	252.66
1264.02	543.742
1268.31	464.34
1272.59	580.992
1276.87	372.188
1281.15	195.328
1285.42	73.8906
1289.69	146.789
1293.96	211.512
1298.23	272.512
1302.5	154.156
1306.76	47.75
1311.02	119.328
1315.27	421.766
1319.53	260.266
1323.78	238.984
1328.03	377.672
1332.28	202.184
1336.52	196.293
1340.76	40.6758
1345	80.4805
1349.23	458.773
1353.47	454.152
1357.7	445.062
1361.93	542.332
1366.15	466.57
1370.37	583.082
1374.59	517.426
1378.81	443.172
1383.03	538.285
1387.24	516.164
1391.45	348.066
1395.65	292.027
1399.86	458.141
1404.06	552.773
1408.26	275.766
1412.46	476.938
1416.65	501.731
1420.84	495.191
1425.03	63.293
1429.22	316.344
1433.4	325.086
1437.58	383.156
1441.76	238.867
1445.93	230.223
1450.11	491.106
1454.28	112.957
1458.44	278.176
1462.61	571.184
1466.77	116.414
1470.93	249.727
1475.09	506.125
1479.24	428.578
1483.39	329.211
1487.54	451.977
1491.69	498.805
1495.84	355.59
1499.98	358.902
1504.12	257.68
1508.25	474.664
1512.38	449.242
1516.52	639.883
1520.64	494.004
1524.77	511.121
1528.89	247.309
1533.01	271.801
1537.13	357.926
1541.25	503.129
1545.36	228.449
1549.47	314.293
1553.58	27.4922
1557.68	182.113
1561.78	482.957
1565.88	82.5469
1569.98	227.758
1574.07	478.848
