Measurement: Raman, 514 nm, depolarized, Raman Data Processed
Mineral: Diopside
Rruff sample: R060171
Ideal chemistry: CaMgSi_2_O_6_
Locality: Jeffrey mine, Asbestos, Quebec, Canada
Source: Guy Ouellet
Description: Yellowish-brown tabular crystals associated with vesuvianite, R060170
Measured chemistry: Ca_1.00_(Mg_0.98_Mn_0.02_)_Î£=1_Si_2.00_O_6_
Pin_id: L01396
Orientation: Laser parallel to -a* (-1 0 0). Fiducial mark perpendicular to laser is parallel to b [0 1 0]
Raman shift (cm-1)	intensity
129.209	0
134.127	246.967
139.043	1253.94
143.956	680.146
148.867	119.16
153.775	115.141
158.681	291.838
163.585	108.584
168.486	259.742
173.385	77.4473
178.282	418.455
183.176	493.916
188.067	215.519
192.956	362.815
197.843	37.334
202.727	342.098
207.609	81.9199
212.489	233.697
217.366	439.606
222.24	395.5
227.112	427.586
231.982	503.943
236.849	419.523
241.714	122.281
246.577	42.8848
251.437	353.91
256.294	602.615
261.149	317.201
266.002	4.62891
270.852	305.125
275.7	275.17
280.545	183.938
285.388	338.68
290.229	198.416
295.067	163.56
299.902	440.516
304.735	535.606
309.566	788.988
314.394	1387.7
319.22	2873.93
324.043	3845.59
328.864	1856.91
333.682	613.881
338.498	416.106
343.311	211.484
348.122	299.908
352.931	451.822
357.737	520.74
362.54	551.695
367.341	638.144
372.14	494.072
376.936	663.455
381.73	1419.27
386.521	3476.5
391.31	3069.47
396.096	1129.49
400.88	339.398
405.661	241.578
410.44	187.666
415.216	141.072
419.99	179.769
424.761	201.35
429.53	40.4746
434.297	187.553
439.061	23.3867
443.822	86.1641
448.581	78.3848
453.337	127.738
458.091	66.8711
462.843	76.6914
467.592	311.844
472.338	46.6426
477.082	0.355469
481.824	6.57812
486.563	226.674
491.3	245.07
496.034	33.7031
500.765	153.582
505.494	133.607
510.221	150.769
514.945	279.057
519.666	137.467
524.385	292.047
529.102	499.928
533.816	389.182
538.527	238.533
543.236	155.912
547.943	164.148
552.647	60.3652
557.348	282.602
562.047	16.127
566.744	165.408
571.438	166.871
576.129	96.2129
580.818	264.568
585.504	8.58984
590.188	14.4355
594.87	103.285
599.549	74.9336
604.225	83.9727
608.899	292.193
613.57	283.129
618.239	149.615
622.905	239.603
627.569	364.744
632.23	198.537
636.889	161.502
641.545	545.725
646.198	481.795
650.849	829.281
655.498	1337.76
660.144	2823.28
664.787	4375.07
669.428	3112
674.067	1478.28
678.703	772.078
683.336	822.51
687.967	241.693
692.595	203.787
697.221	526.541
701.844	126.209
706.465	316.588
711.083	289.449
715.698	252.715
720.311	248.812
724.922	88.3047
729.53	363.908
734.135	132.894
738.738	143.496
743.338	199.746
747.936	450.484
752.531	58.0898
757.124	446.453
761.714	51.4531
766.302	36.6484
770.887	219.617
775.469	107.375
780.049	187.836
784.626	325.109
789.201	213.387
793.773	168.801
798.343	165.477
802.91	127.914
807.475	85.0898
812.037	275.918
816.596	144.961
821.153	427.309
825.707	337.039
830.259	258.289
834.808	348.539
839.355	469.344
843.899	241.75
848.441	723.359
852.98	751.055
857.516	544.559
862.05	333.16
866.581	429.809
871.11	133.203
875.636	353.672
880.159	7
884.68	280.219
889.199	258.586
893.714	137.879
898.228	166.523
902.738	93.9648
907.246	264.574
911.752	156.269
916.255	260.445
920.755	347.465
925.253	21.2773
929.748	305.879
934.241	384.988
938.731	134.981
943.218	69.9609
947.703	30.7031
952.186	59.832
956.665	180.871
961.142	416.445
965.617	55.3906
970.089	64.3047
974.558	341
979.025	372.816
983.489	409.344
987.951	198.801
992.41	530.863
996.866	554.269
1001.32	1377.19
1005.77	2844.84
1010.22	7562.22
1014.67	7147.44
1019.11	2494.71
1023.55	1173.81
1027.99	508.277
1032.42	571.699
1036.86	515.984
1041.29	429.547
1045.72	446.379
1050.14	500.981
1054.56	566.746
1058.98	300.594
1063.4	107.051
1067.82	230.562
1072.23	335.59
1076.64	475.836
1081.05	220.691
1085.45	242.18
1089.85	476.832
1094.25	63.3008
1098.65	326.867
1103.04	354.176
1107.43	138.609
1111.82	38.5859
1116.21	336.191
1120.59	137.82
1124.97	325.918
1129.35	311.363
1133.73	479.32
1138.1	252.481
1142.47	14.207
1146.84	294.133
1151.21	222.769
1155.57	42.3477
1159.93	62.4492
1164.29	188.356
1168.64	268.801
1172.99	56.6953
1177.34	22.918
1181.69	175.82
1186.04	261.742
1190.38	329.004
1194.72	252.953
1199.05	266.082
1203.39	49.1641
1207.72	299.371
1212.05	129.019
1216.37	281.473
1220.7	74
1225.02	308.578
1229.34	258.856
1233.65	410.812
1237.97	55.9805
1242.28	408.316
1246.59	419.531
1250.89	403.926
1255.19	162.367
1259.49	251.891
1263.79	565.426
1268.09	266.57
1272.38	503.266
1276.67	277.742
1280.95	464.863
1285.24	415.539
1289.52	284.816
1293.8	12.5859
1298.08	419.891
1302.35	131.992
1306.62	259.82
1310.89	343.227
1315.15	358.488
1319.42	741.285
1323.68	748.715
1327.94	782.359
1332.19	1004.38
1336.44	743.164
1340.69	963.371
1344.94	709.172
1349.19	830.316
1353.43	564.066
1357.67	549.481
1361.9	527.426
1366.14	615.906
1370.37	517.074
1374.6	608.582
1378.83	321.727
1383.05	338.344
1387.27	315.461
1391.49	601.082
1395.7	363.211
1399.92	335.977
1404.13	190.398
1408.34	268.445
1412.54	92.1641
1416.74	188.527
1420.94	219.969
1425.14	331.234
1429.34	116.551
1433.53	265.555
1437.72	331.254
1441.9	342.09
1446.09	230.867
1450.27	692.57
1454.45	563.234
1458.63	211.773
1462.8	325.18
1466.97	490.535
1471.14	276.727
1475.31	439.816
1479.47	460.84
1483.63	103.746
1487.79	424.543
1491.94	297.219
1496.09	235.762
1500.24	105.938
1504.39	659.738
1508.54	442.133
1512.68	366.09
1516.82	365.328
1520.95	405.106
1525.09	610.516
1529.22	273.617
1533.35	313.527
1537.47	32.5508
1541.6	122.762
1545.72	100.871
1549.83	89.1602
1553.95	304.633
1558.06	383.699
1562.17	117.027
1566.28	136.207
1570.38	51.4609
