Measurement: Raman, 514 nm, depolarized, Raman Data Processed
Mineral: Diopside
Rruff sample: R060861
Ideal chemistry: CaMgSi_2_O_6_
Locality: Red Mountain Volcano, NW of Flagstaff, Arizona, USA
Source: Jennifer Sano
Description: Worn brown fragment
Measured chemistry: (Ca_0.72_Fe^2+^_0.23_Na_0.05_)_Σ=1_(Mg_0.80_Al_0.15_Ti_0.03_Fe^3+^_0.02_)_Σ=1_(Si_1.82_Al_0.18_)_Σ=2_O_6_
Pin_id: M00947
Orientation: Laser parallel to a* (1 0 0). Fiducial mark perpendicular to laser is parallel to b [0 1 0]
Raman shift (cm-1)	intensity
156.179	0
161.122	35.1562
166.062	649.576
170.999	1372.76
175.933	1918.46
180.864	2413.08
185.791	2511.38
190.715	2634.66
195.636	2816.12
200.554	2740.49
205.469	1606.23
210.38	1213.04
215.288	2207.2
220.194	2579.22
225.096	3257.65
229.994	2896.08
234.89	2259.8
239.783	1960.39
244.672	1451.48
249.558	1332.31
254.441	1210.75
259.321	1062.81
264.198	21.8965
269.072	442.322
273.943	356.264
278.81	134.971
283.675	345.252
288.536	1293.63
293.395	2350.33
298.25	4531.91
303.102	5569.09
307.951	8276.83
312.797	11771.8
317.64	15775.6
322.48	19945.1
327.317	23784.7
332.151	25474.5
336.982	24249.5
341.81	21684.6
346.634	19014.4
351.456	16392.6
356.275	14820.4
361.091	13301.2
365.903	12220.8
370.713	11978
375.52	12370.8
380.323	14106.9
385.124	16813.3
389.922	20837.9
394.717	23521.6
399.508	21504.4
404.297	15391.1
409.083	9373.65
413.866	5305.26
418.646	2886.84
423.423	1691.93
428.197	1052.46
432.968	554.617
437.736	449.397
442.502	11.752
447.264	305.541
452.024	4.91406
456.78	43.627
461.534	282.685
466.284	590.266
471.032	780.004
475.777	798.209
480.519	1057.29
485.258	1074.92
489.995	1348.81
494.728	1847.48
499.459	2473.2
504.186	3669.19
508.911	5425.46
513.633	6081.97
518.352	6334.66
523.069	6346.48
527.782	6715.36
532.493	7043.26
537.2	7083.13
541.905	6778.93
546.608	6468.6
551.307	6080.11
556.003	5762.61
560.697	5791.13
565.388	5517.38
570.076	5096.45
574.761	4669.83
579.444	3820.28
584.124	2901.49
588.801	2137.49
593.475	1381.99
598.146	532.855
602.815	82.8643
607.481	305.394
612.144	231.733
616.805	27.5732
621.462	253.868
626.117	620.108
630.769	1390.08
635.419	2301.55
640.066	3535.01
644.71	5771.66
649.351	9486.56
653.99	15302.7
658.625	25810.2
663.259	36909
667.889	43144.2
672.517	35558.9
677.142	23660
681.765	14865.8
686.384	9354.08
691.001	6294.06
695.616	4432.77
700.228	3190.26
704.837	2486.58
709.443	1774.83
714.047	1178.88
718.648	706.162
723.246	500.481
727.842	287.187
732.435	133.89
737.026	222.493
741.614	307.678
746.199	215.907
750.782	368.143
755.362	400.59
759.94	106.403
764.514	76.1465
769.087	61.6475
773.656	111.952
778.224	413.147
782.788	497.392
787.35	518.814
791.909	746.544
796.466	946.704
801.02	1164.42
805.572	1477.81
810.121	1863.98
814.668	2247.06
819.212	2358.14
823.753	2572.34
828.292	2542.77
832.829	2338.7
837.362	2262.72
841.894	2071.45
846.423	2168.82
850.949	2164.94
855.473	2582.89
859.994	2838.91
864.513	2878.16
869.029	2822.42
873.543	2751.77
878.054	2616.72
882.563	2458.71
887.069	2348.31
891.573	2136.53
896.074	2276.52
900.573	1920.13
905.069	2212.27
909.563	2289.59
914.055	2287.42
918.544	2699.45
923.03	2854.68
927.514	2883.03
931.996	3318.33
936.475	3274.56
940.952	3425.36
945.426	3687.75
949.898	4578.67
954.368	4600.05
958.835	5516.84
963.299	6354.62
967.762	7501.74
972.221	8855.81
976.679	10785.2
981.134	13326.9
985.587	16158.8
990.037	20527
994.485	26455.4
998.93	32754.8
1003.37	38226.8
1007.81	39577.6
1012.25	34102.7
1016.69	26017.6
1021.12	18696.1
1025.55	14484.2
1029.98	12465.4
1034.41	11140.3
1038.83	9920.69
1043.26	9264.46
1047.67	8031.31
1052.09	6965.89
1056.51	6118.99
1060.92	5075.87
1065.33	4475.05
1069.74	3988.48
1074.14	3522.51
1078.55	3230.96
1082.95	2865.66
1087.35	2648.15
1091.74	2583.12
1096.14	2370.67
1100.53	2315.74
1104.92	2060.79
1109.31	1901.08
1113.69	1772.1
1118.07	1850.4
1122.45	1623.32
1126.83	1186.15
1131.21	699.133
1135.58	355.56
1139.95	193.246
1144.32	69.2607
1148.69	187.615
1153.05	218.111
1157.42	314.859
1161.78	161.391
1166.13	269.119
1170.49	168.748
1174.85	186.553
1179.2	67.6738
1183.55	120.732
1187.89	36.085
1192.24	88.5205
1196.58	85.625
1200.92	263.029
1205.26	170.126
1209.59	270.142
1213.93	362.71
1218.26	286.634
1222.59	286.447
1226.91	478.217
1231.24	349.661
1235.56	450.629
1239.88	599.286
1244.2	529.75
1248.52	564.836
1252.83	556.484
1257.14	618.763
1261.45	723.948
1265.76	758.933
1270.07	877.26
1274.37	898.874
1278.67	921.186
1282.97	773.59
1287.27	644.037
1291.57	718.444
1295.86	638.754
1300.15	613.481
1304.44	674.523
1308.72	645.955
1313.01	558.936
1317.29	615.155
1321.57	487.421
1325.85	634.756
1330.12	656.233
1334.4	367.182
1338.67	588.135
1342.94	636.342
1347.21	560.08
1351.47	673.206
1355.74	686.197
1360	545.671
1364.26	524.777
1368.52	625.232
1372.77	596.51
1377.03	523.534
1381.28	533.678
1385.53	570.128
1389.77	492.383
1394.02	372.059
1398.26	578.867
1402.5	434.17
1406.74	483.532
1410.98	339.489
1415.21	407.068
1419.45	367.901
1423.68	321.068
1427.91	213.38
1432.13	171.193
1436.36	348.129
1440.58	212.933
1444.8	240.44
1449.02	219.568
1453.24	280.169
1457.46	63.0674
1461.67	252.897
1465.88	165.868
1470.09	316.685
1474.3	162.753
1478.5	252.192
1482.71	130.822
1486.91	166.006
1491.11	90.8018
1495.3	155.243
1499.5	44.8887
1503.69	94.375
1507.88	198.233
1512.08	0.634766
1516.26	64.2793
1520.45	118.402
1524.63	119.871
1528.81	155.267
1532.99	59.2295
1537.17	181.654
1541.35	44.1191
1545.52	89.0381
1549.7	141.763
1553.87	27.1338
1558.04	140.969
1562.2	31.415
