Measurement: Raman, 514 nm, ccw, Raman Data Processed
Mineral: Diopside
Rruff sample: R050496
Ideal chemistry: CaMgSi_2_O_6_
Locality: New City Quarry, Riverside, Riverside County, Calfornia, USA
Source: California Institute of Technology
Description: Aggregate of light green irregular grains
Measured chemistry: Ca(Mg_0.66_Fe_0.33_Mn_0.01_)(Si_0.95_Al_0.05_)_2_O_6_
Pin_id: M00901
Orientation: Laser parallel to (-1 0 -1). Fiducial mark perpendicular to laser is parallel to b [0 1 0]
Raman shift (cm-1)	intensity
101.939	0
106.879	35.4966
111.818	12.3081
116.753	158.224
121.686	373.294
126.617	702.7
131.545	1198.1
136.471	3137.72
141.393	4179.52
146.314	1857.53
151.232	612.165
156.147	264.415
161.06	156.902
165.97	185.269
170.877	117.38
175.782	79.6641
180.685	45.3677
185.585	9.29273
190.482	182.243
195.377	208.544
200.269	161.197
205.158	125.066
210.045	9.1062
214.93	15.3164
219.812	43.6809
224.691	4.14844
229.568	25.6975
234.442	101.222
239.314	60.2825
244.183	2.6206
249.049	11.7078
253.913	17.7705
258.775	26.2954
263.633	22.7898
268.49	5.50366
273.343	35.2693
278.194	74.0117
283.043	31.5115
287.889	33.958
292.732	59.3572
297.573	240.694
302.411	323.968
307.247	572.082
312.08	934.156
316.91	1511.42
321.738	2224.87
326.563	2301.32
331.386	1816.77
336.206	1539.95
341.024	1354.79
345.839	1526.67
350.651	2014.63
355.461	2443.32
360.268	2128.49
365.073	1669.87
369.875	1485.11
374.674	1562.91
379.471	2077.24
384.266	3528.81
389.057	4675.21
393.846	3780.24
398.633	1924
403.417	891.956
408.198	564.891
412.977	267.936
417.753	282.377
422.527	185.225
427.298	94.2244
432.067	90.1008
436.832	106.352
441.596	88.6748
446.356	39.0908
451.115	101.622
455.87	192.49
460.623	241.288
465.373	249.033
470.121	201.848
474.866	234.863
479.609	225.147
484.349	254.57
489.086	255.107
493.821	237.688
498.553	279.345
503.283	317.059
508.01	282.819
512.734	331.601
517.456	523.42
522.175	571.253
526.892	814.086
531.606	831.917
536.317	815.803
541.026	645.717
545.732	631.648
550.436	635.557
555.137	581.481
559.835	640.452
564.531	541.537
569.224	446.755
573.915	386.002
578.603	232
583.288	178.545
587.971	34.1387
592.651	16.8843
597.329	77.0147
602.004	18.7297
606.676	41.387
611.346	32.4109
616.013	50.426
620.678	173.37
625.34	204.106
629.999	268.065
634.656	391.83
639.31	614.786
643.962	834.603
648.611	1318.28
653.257	2151.81
657.901	4117.19
662.542	7590.43
667.181	9558.52
671.817	6406.7
676.45	3238.69
681.081	1681.37
685.709	1047.84
690.334	644.152
694.957	498.027
699.578	278.296
704.195	204.126
708.811	157.792
713.423	153.292
718.033	35.6086
722.64	7.26318
727.245	36.4292
731.847	26.9224
736.446	54.3931
741.043	44.2649
745.637	19.6836
750.229	4.84131
754.818	9.57275
759.404	36.1172
763.988	38.6907
768.569	10.5015
773.148	29.5625
777.724	20.4595
782.297	107.268
786.868	8.99341
791.436	161.643
796.001	76.2222
800.564	75.7378
805.125	11.1951
809.682	61.4048
814.237	20.8049
818.79	139.962
823.339	119.086
827.887	135.184
832.431	75.262
836.973	165.327
841.513	117.385
846.049	294.442
850.583	919.505
855.115	1713.55
859.644	1778.42
864.17	1119.96
868.694	586.055
873.215	373.635
877.733	340.484
882.249	222.893
886.762	135.133
891.273	108.994
895.781	158.155
900.286	46.0471
904.789	55.5684
909.289	117.606
913.786	58.4534
918.281	89.4919
922.773	96.7529
927.263	132.242
931.75	117.895
936.234	134.705
940.716	166.733
945.195	217.424
949.672	85.9734
954.146	168.516
958.617	256.309
963.086	325.3
967.552	291.471
972.015	404.819
976.476	304.343
980.934	342.915
985.39	411.983
989.843	526.109
994.293	744.438
998.741	1207
1003.19	2101.76
1007.63	3927.75
1012.07	6418.39
1016.5	5222.12
1020.94	2451.97
1025.37	1272.07
1029.8	850.898
1034.23	617.311
1038.65	675.848
1043.07	704.901
1047.49	640.17
1051.91	491.067
1056.32	385.902
1060.73	262.417
1065.14	402.382
1069.55	245.746
1073.95	245.956
1078.35	191.327
1082.75	170.235
1087.14	110.508
1091.54	269.638
1095.93	148.076
1100.31	142.907
1104.7	132.459
1109.08	134.083
1113.46	110.798
1117.84	165.356
1122.21	154.131
1126.58	9.47803
1130.95	119.282
1135.32	67.1079
1139.68	26.949
1144.04	70.2012
1148.4	31.0989
1152.76	8.07568
1157.11	80.6255
1161.46	10.4939
1165.81	9.19165
1170.16	62.0444
1174.5	10.1201
1178.84	18.3613
1183.18	10.3467
1187.51	40.5745
1191.84	22.9936
1196.17	15.4927
1200.5	23.042
1204.83	33.1914
1209.15	79.2461
1213.47	116.242
1217.78	12.8291
1222.1	20.9805
1226.41	10.6318
1230.72	84.1851
1235.02	70.6514
1239.33	90.0286
1243.63	3.27881
1247.92	29.3696
1252.22	79.365
1256.51	88.2786
1260.8	124.067
1265.09	86.7583
1269.38	17.3506
1273.66	105.438
1277.94	2.64136
1282.21	77.644
1286.49	37.0737
1290.76	86.2481
1295.03	61.0166
1299.3	23.1352
1303.56	40.8054
1307.82	31.0015
1312.08	52.2097
1316.34	89.6838
1320.59	71.9458
1324.84	130.081
1329.09	71.2551
1333.34	40.0906
1337.58	135.952
1341.82	48.9399
1346.06	12.2908
1350.29	81.9482
1354.53	23.4377
1358.76	98.2261
1362.98	78.9534
1367.21	122.624
1371.43	67.3501
1375.65	115.334
1379.87	77.7422
1384.08	66.7007
1388.29	187.988
1392.5	83.4287
1396.71	77.6824
1400.91	55.9939
1405.11	14.918
1409.31	132.221
1413.51	0.513916
1417.7	114.618
1421.89	38.8118
1426.08	110.696
1430.26	55.2312
1434.44	51.4712
1438.62	93.0486
1442.8	32.6992
1446.98	18.4419
1451.15	4.56763
1455.32	61.2798
1459.49	109.996
1463.65	33.6304
1467.81	147.396
1471.97	49.167
1476.13	80.9675
1480.28	85.8589
1484.43	12.7527
1488.58	55.7051
1492.73	91.7078
1496.87	89.7053
1501.01	47.6594
1505.15	40.9954
1509.29	178.502
1513.42	55.637
1517.55	107.797
1521.67	75.4414
1525.8	54.771
1529.92	111.16
1534.04	113.513
1538.16	116.978
1542.27	86.6199
1546.39	60.7727
1550.49	75.7637
1554.6	108.626
1558.71	33.894
1562.81	35.5923
1566.91	105.596
1571	82.3091
1575.1	1.24731
