Measurement: Raman, 514 nm, depolarized, Raman Data Processed
Mineral: Diopside
Rruff sample: R070123
Ideal chemistry: CaMgSi_2_O_6_
Locality: Yates mine, Otter Lake, Huddersfield Township, Pontiac County, Québec, Canada
Source: Michael Scott
Description: Black prismatic crystals associated with orange calcite
Measured chemistry: (Ca_0.95_Na_0.04_Mn_0.01_)_Σ=1_(Mg_0.63_Fe_0.33_Al_0.04_)_Σ=1_Si_2.00_O_6_
Pin_id: M00826
Orientation: Laser parallel to a* (1 0 0). Fiducial mark perpendicular to laser is parallel to -b [0 -1 0]
Raman shift (cm-1)	intensity
117.295	0
122.247	115.364
127.196	872.52
132.143	1969.22
137.086	2858.62
142.026	1501.73
146.963	335.663
151.898	130.982
156.829	243.11
161.758	240.975
166.683	188.933
171.606	392.337
176.526	385.239
181.442	433.962
186.356	393.978
191.267	380.832
196.175	472.405
201.08	549.33
205.983	243.936
210.882	303.778
215.778	364.42
220.672	354.324
225.563	669.492
230.45	590.084
235.335	701.019
240.217	457.169
245.096	258.5
249.973	383.298
254.846	290.569
259.716	209.573
264.584	53.8008
269.449	9.24121
274.31	68.9805
279.169	32.8115
284.026	90.4834
288.879	365.038
293.729	756.802
298.577	1118.18
303.422	1730.38
308.263	3002.84
313.103	5332.05
317.939	7765.62
322.772	8165.55
327.603	5871.58
332.43	3974.9
337.255	2893.32
342.077	2805.94
346.896	2906.59
351.713	3394.22
356.526	3179.83
361.337	2605.37
366.145	2481.82
370.95	3157.16
375.753	4426.39
380.552	7216.49
385.349	9799.44
390.143	8520.24
394.934	4288.87
399.722	1847.33
404.508	749.596
409.29	314.688
414.07	195.566
418.848	103.684
423.622	136.438
428.394	41.6514
433.163	77.7412
437.929	66.2607
442.692	84.9551
447.453	25.5928
452.21	151.523
456.966	302.438
461.718	113.347
466.467	214.366
471.214	179.339
475.958	130.124
480.699	111.643
485.438	184.773
490.174	214.536
494.907	248.947
499.637	455.979
504.365	712.087
509.09	877.019
513.812	971.023
518.531	887.654
523.248	1115.9
527.962	1186.45
532.673	1105.19
537.382	872.238
542.088	589.875
546.791	749.102
551.491	776.913
556.189	953.309
560.884	888.278
565.576	590.422
570.266	640.404
574.953	382.919
579.637	247.74
584.319	186.164
588.998	201.338
593.674	324.534
598.348	318.815
603.018	304.964
607.687	250.129
612.352	342.781
617.015	471.576
621.675	805.361
626.333	1019.79
630.988	881.575
635.64	892.999
640.289	1177.01
644.936	1938.59
649.581	2660.9
654.222	4934.53
658.861	9543.89
663.497	14413.9
668.131	12671.4
672.762	6507.59
677.391	3004.41
682.016	1555.85
686.639	837.928
691.26	524.651
695.878	393.027
700.493	392.066
705.106	237.783
709.716	159.257
714.323	39.9805
718.928	31.2041
723.53	18.4697
728.13	80.3223
732.727	68.1611
737.321	162.144
741.913	3.74121
746.502	96.251
751.089	65.9424
755.673	31.9043
760.254	36.4287
764.833	111.742
769.41	96.9102
773.983	47.9404
778.554	79.8457
783.123	33.3535
787.689	65.6943
792.252	183.785
796.813	144.207
801.371	100.591
805.927	86.9531
810.48	296.194
815.031	227.653
819.579	419.962
824.124	348.399
828.667	358.893
833.208	516.457
837.745	488.103
842.281	572.851
846.813	963.71
851.344	1286.32
855.871	1802.61
860.396	1733
864.919	1423.56
869.439	997.658
873.957	979.56
878.472	843.375
882.984	925.471
887.494	761.315
892.002	1022.82
896.507	917.3
901.009	1069.64
905.509	1010.44
910.006	681.658
914.501	700.362
918.994	417.438
923.484	507.239
927.971	406.38
932.456	234.023
936.938	130.265
941.418	206.07
945.896	40.3662
950.371	126.08
954.843	139.222
959.313	275.803
963.781	345.838
968.246	350.305
972.709	513.785
977.169	571.092
981.626	744.265
986.082	971.533
990.534	1465.35
994.985	2561.79
999.432	5022.14
1003.88	9445.17
1008.32	18859.8
1012.76	24850.8
1017.2	15321.6
1021.63	6609.95
1026.07	3406.1
1030.5	2306.36
1034.93	1954.37
1039.35	1927.15
1043.78	1734.93
1048.2	1456.94
1052.62	875.637
1057.03	813.16
1061.44	668.466
1065.86	696.339
1070.27	458.422
1074.67	457.288
1079.08	806.643
1083.48	718.485
1087.88	561.091
1092.27	402.433
1096.67	502.333
1101.06	445.408
1105.45	386.651
1109.84	366.053
1114.22	260.6
1118.6	184.282
1122.98	293.088
1127.36	454.009
1131.73	270.026
1136.11	188.128
1140.48	29.3018
1144.85	29.5312
1149.21	9.56152
1153.58	104.499
1157.94	31.9766
1162.3	42.8701
1166.65	68.1894
1171.01	83.2764
1175.36	119.306
1179.7	32.2266
1184.05	15.4111
1188.4	17.7412
1192.74	27.2998
1197.08	58.123
1201.41	71.3799
1205.75	24.002
1210.08	21.2324
1214.41	133.381
1218.74	73.459
1223.07	59.4336
1227.39	211.309
1231.71	293.111
1236.03	367.394
1240.34	256.048
1244.66	362.682
1248.97	323.272
1253.28	418.848
1257.59	522.871
1261.89	635.934
1266.19	822.424
1270.49	763.843
1274.79	778.192
1279.09	796.191
1283.38	642.807
1287.67	629.077
1291.96	713.997
1296.24	773.56
1300.53	595.602
1304.81	790.947
1309.09	911.171
1313.37	1016.8
1317.64	1063.79
1321.91	1082.91
1326.18	688.685
1330.45	433.202
1334.71	302.573
1338.98	173.362
1343.24	133.34
1347.5	288.501
1351.75	225.19
1356.01	115.578
1360.26	29.9502
1364.51	169.6
1368.76	65.3535
1373	280.112
1377.24	463.59
1381.48	457.812
1385.72	438.144
1389.96	400.762
1394.19	268.199
1398.42	79.8731
1402.65	233.672
1406.88	261.739
1411.1	292.667
1415.33	153.476
1419.55	186.287
1423.76	244.255
1427.98	224.18
1432.19	489.158
1436.4	737.458
1440.61	1048.12
1444.82	1492.57
1449.03	1648.75
1453.23	1784.65
1457.43	1787.87
1461.62	1419.43
1465.82	1210.61
1470.02	912.686
1474.21	643.836
1478.39	653.981
1482.58	377.31
1486.77	530.945
1490.95	305.917
1495.13	156.294
1499.31	8.13477
1503.48	14.5518
1507.66	28.6348
1511.83	5.17188
1516	231.847
1520.16	143.477
1524.33	102.282
1528.49	275.992
1532.65	247.069
1536.81	396.262
1540.97	189.968
1545.12	231.302
1549.27	416.112
1553.42	287.28
1557.57	101.677
1561.71	36.9453
