Measurement: Raman, 514 nm, depolarized, Raman Data Processed
Mineral: Diopside
Rruff sample: R050666
Ideal chemistry: CaMgSi_2_O_6_
Locality: Franklin, Sussex County, New Jersey, USA
Source: University of Arizona Mineral Museum
Description: Brown cleavage fragment with white hardystonite
Measured chemistry: Ca(Mg_0.66_Mn_0.33_Fe_0.01_)Si_2_O_6_
Pin_id: L01400
Orientation: Laser parallel to -a* (-1 0 0). Fiducial mark perpendicular to laser is parallel to -b [0 -1 0]
Raman shift (cm-1)	intensity
155.002	0
159.908	141.1
164.811	20.5059
169.711	60.4883
174.61	566.318
179.505	334.451
184.399	292.916
189.29	396.777
194.178	181.516
199.064	495.412
203.948	458.867
208.829	126.607
213.708	245.316
218.585	172.691
223.459	13.2188
228.33	343.369
233.199	674.426
238.066	354.859
242.93	259.102
247.792	80.3984
252.651	221.762
257.508	449.215
262.363	189.777
267.215	41.5254
272.064	56.3125
276.912	7.69727
281.756	91.459
286.598	135.301
291.438	436.275
296.276	555.481
301.111	1134.24
305.943	2213.02
310.773	3726.58
315.601	5285.18
320.426	4208.66
325.248	2583.5
330.068	1733.55
334.886	1692.12
339.701	1728.93
344.514	2409.18
349.324	2755.4
354.132	2193.59
358.938	1622.65
363.741	1544.57
368.541	1726.39
373.339	3039.08
378.135	5538.63
382.928	7958.04
387.718	4801.33
392.506	2067.51
397.292	1137.55
402.075	682.463
406.856	417.24
411.634	158.719
416.41	202.215
421.183	275.353
425.954	154.482
430.722	9.61719
435.488	98.0078
440.251	125.285
445.012	202.67
449.77	351.705
454.526	363.154
459.28	235.293
464.03	195
468.779	59.1367
473.525	45.7109
478.268	232.336
483.009	127.307
487.747	146.195
492.483	276.076
497.217	417.992
501.948	863.812
506.676	784.523
511.402	341.127
516.125	434.801
520.846	606.621
525.565	944.356
530.281	651.117
534.994	322.91
539.705	309.602
544.413	356.156
549.119	919.629
553.822	1256.04
558.523	950.875
563.222	564.066
567.917	540.945
572.611	320.947
577.302	285.592
581.99	58.582
586.676	95.8887
591.359	54.7715
596.04	13.4609
600.718	94.4531
605.394	77.7402
610.067	97.9336
614.737	264.699
619.406	243.174
624.071	107.25
628.734	531.604
633.395	601.562
638.053	864.418
642.708	1164.75
647.361	1858.62
652.012	4215.79
656.66	8537.5
661.305	11307.8
665.948	7541.72
670.588	3509.05
675.226	1937.96
679.861	1095.55
684.494	671.586
689.124	696.766
693.752	422.035
698.377	339.352
702.999	512.869
707.619	227.231
712.237	196.193
716.852	347.643
721.464	44.6094
726.074	166.691
730.681	337.246
735.286	144.393
739.888	54.0488
744.488	58.5293
749.085	46.248
753.68	40.3418
758.272	219.381
762.861	87.8477
767.448	157.691
772.033	5.75586
776.614	76.0547
781.194	270.777
785.77	96.9316
790.345	69.5215
794.916	41.916
799.485	66.7266
804.052	31.1641
808.616	48.3066
813.177	114.701
817.736	58.5234
822.292	43.1406
826.846	73.1113
831.397	235.121
835.945	6.68555
840.491	574.637
845.035	742.031
849.576	1142.84
854.114	666.074
858.65	395.291
863.183	127.773
867.713	237.92
872.241	215.334
876.767	313.018
881.29	230.842
885.81	368.299
890.328	248.236
894.843	315.469
899.356	289.481
903.866	380.103
908.373	310.166
912.878	270.141
917.38	276.492
921.88	212.451
926.377	370.086
930.872	119.826
935.364	359.156
939.853	139.43
944.34	137.846
948.824	160.816
953.306	174.027
957.785	237.324
962.261	326.373
966.735	211.711
971.207	243.894
975.675	464.328
980.141	575.318
984.605	783.856
989.066	848.941
993.524	1225.59
997.98	2021.82
1002.43	3929.64
1006.88	9688.05
1011.33	21803
1015.78	20015.6
1020.22	7172.78
1024.66	3274.88
1029.1	2321
1033.53	2230.93
1037.97	2754.26
1042.4	2589.18
1046.82	1575.18
1051.25	982.672
1055.67	869.982
1060.09	593.299
1064.51	481.731
1068.92	681.434
1073.33	439.992
1077.74	472.107
1082.15	476.709
1086.55	464.984
1090.95	349.219
1095.35	263.926
1099.75	453.236
1104.14	488.848
1108.53	246.033
1112.92	308.435
1117.31	794.082
1121.69	1194.05
1126.07	697.018
1130.45	349.809
1134.82	128.857
1139.19	186.092
1143.57	62.8867
1147.93	66.6699
1152.3	90.5801
1156.66	16.5078
1161.02	16.9707
1165.38	61.1328
1169.73	147.769
1174.08	52.2949
1178.43	54.834
1182.78	200.35
1187.12	15.9102
1191.46	228.09
1195.8	159.238
1200.14	173.426
1204.47	212.791
1208.8	38.2734
1213.13	118.627
1217.46	139.019
1221.78	257.324
1226.1	65.75
1230.42	202.416
1234.73	145.947
1239.04	70.9375
1243.35	180.893
1247.66	230.441
1251.97	143.932
1256.27	154.904
1260.57	51.5312
1264.86	125.678
1269.16	197.635
1273.45	96.5742
1277.74	218.109
1282.03	180.264
1286.31	208.152
1290.59	170.82
1294.87	68.2949
1299.14	202.307
1303.42	176.039
1307.69	259.57
1311.95	79.0606
1316.22	424.631
1320.48	361.574
1324.74	224.519
1329	114.805
1333.26	176.697
1337.51	208.231
1341.76	114.754
1346	211.59
1350.25	260.769
1354.49	91.2481
1358.73	123.699
1362.96	369.381
1367.2	241.998
1371.43	114.141
1375.66	386.676
1379.88	263.065
1384.11	276.613
1388.33	285.049
1392.54	298.639
1396.76	169.914
1400.97	43.666
1405.18	90.8164
1409.39	270.459
1413.59	176.914
1417.8	287.611
1421.99	159.199
1426.19	96.1738
1430.38	96.2793
1434.58	47.7383
1438.77	258.102
1442.95	46.6035
1447.13	251.568
1451.32	357.09
1455.49	93.2148
1459.67	125.363
1463.84	254.359
1468.01	28.9414
1472.18	344.684
1476.35	54.3789
1480.51	275.58
1484.67	33.0137
1488.83	229.148
1492.98	190.42
1497.13	153.982
1501.28	49.4805
1505.43	174.096
1509.57	325.662
1513.71	448.109
1517.85	72.4004
1521.99	175.848
1526.12	92.4219
1530.25	322.809
1534.38	262.791
1538.5	80.6426
1542.62	294.316
1546.74	93.1416
1550.86	160.644
1554.98	104.016
1559.09	15.333
1563.2	142.893
1567.31	125.54
1571.41	59.8369
