Measurement: Raman, 514 nm, depolarized, Raman Data Processed
Mineral: Diopside
Rruff sample: R060276
Ideal chemistry: CaMgSi_2_O_6_
Locality: Inagli, Yakutia, Siberia, Russia
Source: Herb Obodda
Description: Transparent green cleavage fragment
Measured chemistry: (Ca_0.97_Na_0.03_)_Σ=1_(Mg_0.96_Fe_0.03_Cr_0.01_)_Σ=1_(Si_1.98_Al_0.02_)_Σ=2_O_6_
Pin_id: L01049
Orientation: Laser parallel to a* (1 0 0). Fiducial mark perpendicular to laser is parallel to -b [0 -1 0]
Raman shift (cm-1)	intensity
109.512	0
114.44	97.8523
119.365	181.884
124.288	572.112
129.209	2153.9
134.127	4029.68
139.043	5926.32
143.956	4438.44
148.867	1223.42
153.775	377.667
158.681	157.669
163.585	337.365
168.486	327.123
173.385	606.133
178.282	922.386
183.176	1465.95
188.067	594.285
192.956	434.691
197.843	418.305
202.727	114.8
207.609	135.804
212.489	46.418
217.366	281.16
222.24	948.426
227.112	1711.17
231.982	2090.35
236.849	1156.21
241.714	581.44
246.577	833.063
251.437	1040.06
256.294	1385.33
261.149	576.799
266.002	21.9175
270.852	108.354
275.7	8.30469
280.545	7.11133
285.388	155.73
290.229	432.547
295.067	874.565
299.902	1449.16
304.735	2551.93
309.566	4546.31
314.394	9638.98
319.22	15732.1
324.043	21074.6
328.864	15849.4
333.682	7024.41
338.498	3673.95
343.311	2705.88
348.122	2577.71
352.931	3107.57
357.737	3730.91
362.54	3784.93
367.341	3831.14
372.14	3677.53
376.936	4662.09
381.73	9559.82
386.521	15584.7
391.31	20183.8
396.096	12462
400.88	4524.37
405.661	1813.95
410.44	915.778
415.216	542.861
419.99	413.572
424.761	187.365
429.53	114.661
434.297	103.072
439.061	18.5923
443.822	66.8589
448.581	63.791
453.337	2.87353
458.091	213.38
462.843	206.653
467.592	276.892
472.338	194.316
477.082	83.1108
481.824	123.67
486.563	90.3003
491.3	142.958
496.034	158.707
500.765	418.731
505.494	943.793
510.221	1173.85
514.945	1173.9
519.666	1306.97
524.385	1479.1
529.102	1789.34
533.816	1656.76
538.527	821.226
543.236	625.718
547.943	642.2
552.647	624.764
557.348	662.455
562.047	500.414
566.744	431.452
571.438	273.402
576.129	315.221
580.818	240.899
585.504	165.185
590.188	44.0772
594.87	34.5498
599.549	58.4121
604.225	6.82568
608.899	83.4927
613.57	128.671
618.239	219.596
622.905	327.551
627.569	504.881
632.23	689.401
636.889	990.356
641.545	1326.71
646.198	2352.79
650.849	4307.58
655.498	9310.25
660.144	19006.2
664.787	28202.2
669.428	24840.9
674.067	11806.3
678.703	5159.56
683.336	2687.97
687.967	1726.9
692.595	1127.15
697.221	1062.73
701.844	852.548
706.465	895.271
711.083	697.608
715.698	513.56
720.311	451.127
724.922	241.391
729.53	198.048
734.135	122.887
738.738	143.24
743.338	62.3931
747.936	52.2144
752.531	2.4624
757.124	20.7295
761.714	128.788
766.302	15.5625
770.887	52.668
775.469	155.559
780.049	160.164
784.626	137.493
789.201	130.555
793.773	10.3418
798.343	19.1763
802.91	32.6816
807.475	33.769
812.037	1.896
816.596	55.5513
821.153	90.6685
825.707	61.4121
830.259	24.7363
834.808	40.144
839.355	56.7505
843.899	289.519
848.441	881.173
852.98	1510.73
857.516	1591.19
862.05	898.574
866.581	661.63
871.11	472.151
875.636	511.498
880.159	501.047
884.68	473.88
889.199	471.984
893.714	461.784
898.228	372.437
902.738	494.828
907.246	507.69
911.752	497.075
916.255	437.718
920.755	415.58
925.253	348.862
929.748	269.843
934.241	254.455
938.731	192.837
943.218	162.274
947.703	136.987
952.186	256.033
956.665	326.425
961.142	382.182
965.617	479.492
970.089	649.784
974.558	705.132
979.025	982.767
983.489	1455.65
987.951	1764.79
992.41	2915.18
996.866	4916.86
1001.32	9758.85
1005.77	22753.2
1010.22	41784.8
1014.67	44676.7
1019.11	19977
1023.55	7781.22
1027.99	3917.61
1032.42	2730.47
1036.86	2456.41
1041.29	2561.68
1045.72	2703.99
1050.14	2344.1
1054.56	1751.89
1058.98	1341.75
1063.4	1068.56
1067.82	827.817
1072.23	733.966
1076.64	674.316
1081.05	646.475
1085.45	553.601
1089.85	447.457
1094.25	481.179
1098.65	295.763
1103.04	381.134
1107.43	421
1111.82	351.91
1116.21	452.215
1120.59	660.52
1124.97	567.696
1129.35	380.78
1133.73	410.457
1138.1	335.04
1142.47	251.675
1146.84	229.051
1151.21	90.8916
1155.57	64.1816
1159.93	91.5566
1164.29	12.666
1168.64	2.97852
1172.99	171.773
1177.34	81.7481
1181.69	8.7373
1186.04	79.5088
1190.38	103.885
1194.72	86.9482
1199.05	56.0693
1203.39	58.7764
1207.72	26.9209
1212.05	85.6016
1216.37	23.9883
1220.7	75.7451
1225.02	2.47461
1229.34	72.2725
1233.65	93.9228
1237.97	117.815
1242.28	281.137
1246.59	248.487
1250.89	203.043
1255.19	184.303
1259.49	143.519
1263.79	114.533
1268.09	196.641
1272.38	94.8603
1276.67	168.968
1280.95	78.3272
1285.24	194.859
1289.52	59.2783
1293.8	120.579
1298.08	105.304
1302.35	177.423
1306.62	192.072
1310.89	208.885
1315.15	268.748
1319.42	275.342
1323.68	329.014
1327.94	256.815
1332.19	300.679
1336.44	200.328
1340.69	199.527
1344.94	231.842
1349.19	155.249
1353.43	313.887
1357.67	170.923
1361.9	203.331
1366.14	246.629
1370.37	213.392
1374.6	137.637
1378.83	25.8975
1383.05	167.178
1387.27	86.7324
1391.49	127.36
1395.7	41.3525
1399.92	122.672
1404.13	95.9727
1408.34	75.3106
1412.54	135.804
1416.74	157.263
1420.94	78.2168
1425.14	74.6084
1429.34	5.14844
1433.53	90.2978
1437.72	86.3125
1441.9	144.412
1446.09	30.0762
1450.27	234.549
1454.45	23.4102
1458.63	191.776
1462.8	240.367
1466.97	76.1172
1471.14	215.832
1475.31	185.278
1479.47	179.015
1483.63	265.397
1487.79	101.732
1491.94	259.206
1496.09	123.06
1500.24	43.1016
1504.39	229.934
1508.54	264.356
1512.68	189.046
1516.82	127.734
1520.95	70.9648
1525.09	131.544
1529.22	313.142
1533.35	123.054
1537.47	26.2422
1541.6	7.69824
1545.72	218.47
1549.83	281.603
1553.95	262.834
1558.06	211.112
1562.17	28.2949
1566.28	236.87
1570.38	256.741
