Measurement: Raman, 514 nm, depolarized, Raman Data Processed
Mineral: Diopside
Rruff sample: R060085
Ideal chemistry: CaMgSi_2_O_6_
Locality: Tyrol, Austria
Source: University of Arizona Mineral Museum
Description: Brownish-green massive
Measured chemistry: (Ca_0.97_Na_0.03_)_Σ=1_(Mg_0.79_Fe^2+^_0.10_Fe^3+^_0.04_Al_0.04_Ti_0.02_Cr_0.01_)_Σ=1_(Si_1.90_Al_0.10_)_Σ=2_O_6_
Pin_id: M00509
Orientation: Laser parallel to a* (1 0 0). Fiducial mark perpendicular to laser is parallel to b [0 1 0]
Raman shift (cm-1)	intensity
108.004	0
112.949	137.519
117.891	231.713
122.83	227.793
127.767	449.516
132.7	761.115
137.631	1102.83
142.56	912.928
147.485	364.174
152.408	118.943
157.328	101.668
162.246	73.5469
167.16	9.23828
172.073	16.8379
176.982	214.865
181.888	292.721
186.792	203.668
191.694	268.541
196.592	240.332
201.488	177.299
206.381	242.727
211.271	245.164
216.159	146.08
221.044	278.088
225.926	294.996
230.806	311.723
235.683	221.227
240.557	327.545
245.429	150.705
250.298	302.705
255.164	84.3398
260.027	91.043
264.888	0.695313
269.746	2.38672
274.601	31.1602
279.454	125.885
284.304	43.8926
289.151	241.809
293.996	274.346
298.838	327.062
303.677	443.207
308.514	709.443
313.348	949.393
318.179	1518.98
323.008	2505.97
327.834	2522
332.657	1823.34
337.478	1329.45
342.295	814.705
347.111	848.494
351.923	729.582
356.733	792.389
361.54	733.752
366.345	838.168
371.147	796.535
375.946	821.803
380.743	1011.98
385.537	1765.53
390.328	2383.93
395.116	2636.82
399.902	1354.23
404.686	577.35
409.466	304.103
414.244	128.277
419.019	305.537
423.792	312.523
428.562	1.93359
433.329	81.8574
438.094	33.0879
442.856	116.209
447.616	60.3555
452.372	140.305
457.126	101.305
461.878	101.562
466.627	17.752
471.373	225.352
476.116	133.336
480.857	94.2793
485.596	303.998
490.331	174.752
495.064	255.574
499.795	274.721
504.522	260.322
509.247	213.877
513.97	467.363
518.69	518.773
523.407	652.109
528.121	608.316
532.833	633.383
537.543	614.307
542.249	521.086
546.953	649.74
551.655	450.316
556.354	97.6699
561.05	289.988
565.743	256.443
570.434	374.738
575.123	261.4
579.808	233.559
584.491	84.4316
589.172	254.978
593.85	292.049
598.525	126.166
603.197	39.041
607.868	21.6699
612.535	178.277
617.2	146.519
621.862	241.275
626.522	343.285
631.178	305.725
635.833	79.3848
640.485	523.219
645.134	614.475
649.78	837.318
654.424	1262.39
659.066	1889.36
663.704	3828.19
668.341	4596.8
672.974	2510.84
677.605	1551.31
682.234	999.084
686.859	633.443
691.483	454.078
696.103	410.209
700.721	79.2695
705.337	357.022
709.949	287.541
714.56	109.207
719.167	84.8652
723.772	213.283
728.375	222.654
732.975	124.818
737.572	123.623
742.167	94.9316
746.759	203.852
751.349	182.688
755.936	300.375
760.52	17.2793
765.102	124.926
769.681	124.314
774.258	135.662
778.832	110.029
783.404	66.5762
787.973	116.898
792.539	37.6543
797.103	39.0938
801.665	305.455
806.223	384.959
810.779	264.367
815.333	199.932
819.884	388.889
824.433	247.951
828.979	229.656
833.522	387.656
838.063	404.078
842.601	319.055
847.137	63.0156
851.67	358.385
856.2	567.514
860.729	486.506
865.254	476.361
869.777	408.539
874.297	84.5547
878.815	290.172
883.33	146.68
887.843	489.469
892.353	190.062
896.861	83.9531
901.366	384.836
905.869	177.67
910.369	81.6602
914.866	52.6113
919.361	225.518
923.854	269.764
928.344	83.2168
932.831	13.8301
937.316	167.023
941.798	44.9727
946.278	25.3984
950.755	301.619
955.23	280.102
959.702	313.81
964.171	488.309
968.638	58.6328
973.103	367.207
977.565	399.707
982.025	484.816
986.482	799.762
990.936	837.828
995.388	1069.48
999.837	2150.23
1004.28	2838.43
1008.73	4237.23
1013.17	4529.23
1017.61	2909.83
1022.05	1580.34
1026.48	959.106
1030.91	679.594
1035.34	661.07
1039.77	389.887
1044.19	442.305
1048.62	531.93
1053.03	277.078
1057.45	208.824
1061.87	294.269
1066.28	213.402
1070.69	223.086
1075.09	319.074
1079.5	587.769
1083.9	106.812
1088.3	91.4062
1092.69	354.359
1097.09	249.199
1101.48	305.023
1105.87	213.93
1110.26	249.559
1114.64	87.0742
1119.02	30.1055
1123.4	306.621
1127.78	374.098
1132.15	434.434
1136.53	284.453
1140.89	105.688
1145.26	353.746
1149.63	135.977
1153.99	15.832
1158.35	213.34
1162.7	174.34
1167.06	349.582
1171.41	194.996
1175.76	29.2578
1180.11	203.109
1184.45	188.25
1188.79	298.613
1193.13	214.262
1197.47	199.965
1201.81	360.172
1206.14	323.938
1210.47	428.422
1214.79	103.504
1219.12	343.258
1223.44	185.488
1227.76	298.344
1232.08	231.07
1236.39	372.254
1240.7	318.234
1245.02	287.758
1249.32	78.4102
1253.63	259.586
1257.93	41.5
1262.23	433.086
1266.53	404.016
1270.82	527.488
1275.12	736.301
1279.41	548.992
1283.69	286.938
1287.98	366.359
1292.26	230.824
1296.54	29.625
1300.82	9.40234
1305.1	55.6133
1309.37	150.445
1313.64	310.898
1317.91	235.754
1322.17	421.871
1326.44	258.316
1330.7	274.449
1334.96	65.375
1339.21	54.7266
1343.47	43.7422
1347.72	442.887
1351.97	359.027
1356.21	286.227
1360.46	419.496
1364.7	367.121
1368.94	429.348
1373.17	473.973
1377.41	360.762
1381.64	136.758
1385.87	391.777
1390.1	443.125
1394.32	466.223
1398.54	274.269
1402.76	385.227
1406.98	310.402
1411.19	421.918
1415.41	208.773
1419.62	295.152
1423.82	273.887
1428.03	508.746
1432.23	316
1436.43	396.828
1440.63	435.332
1444.82	725.644
1449.02	623.606
1453.21	306.871
1457.4	530.371
1461.58	473.992
1465.77	609.023
1469.95	490.883
1474.12	356.019
1478.3	322.441
1482.47	307.16
1486.64	345.188
1490.81	418.516
1494.98	261.379
1499.14	327.211
1503.31	416.016
1507.47	371.371
1511.62	198.949
1515.78	379.359
1519.93	375.586
1524.08	91.082
1528.23	383.488
1532.37	457.836
1536.51	330.312
1540.65	535.25
1544.79	235.688
1548.93	31.0625
1553.06	309.883
1557.19	284.695
1561.32	340.426
1565.44	214.535
1569.57	144.519
1573.69	4.39453
1577.81	0
