Measurement: Raman, 514 nm, ccw, Raman Data Processed
Mineral: Diopside
Rruff sample: R060085
Ideal chemistry: CaMgSi_2_O_6_
Locality: Tyrol, Austria
Source: University of Arizona Mineral Museum
Description: Brownish-green massive
Measured chemistry: (Ca_0.97_Na_0.03_)_Σ=1_(Mg_0.79_Fe^2+^_0.10_Fe^3+^_0.04_Al_0.04_Ti_0.02_Cr_0.01_)_Σ=1_(Si_1.90_Al_0.10_)_Σ=2_O_6_
Pin_id: M00537
Orientation: Laser parallel to (-1 0 -1). Fiducial mark perpendicular to laser is parallel to b [0 1 0]
Raman shift (cm-1)	intensity
72.728	0
77.699	496.377
82.667	472.302
87.632	32.8262
92.595	32.6387
97.554	131.482
102.511	138.863
107.465	314.508
112.417	375.458
117.365	495.568
122.311	331.082
127.254	258.042
132.195	283.469
137.132	428.759
142.067	544.02
146.999	138.286
151.928	40.2529
156.855	66.0918
161.778	256.996
166.699	155.139
171.618	110.886
176.533	190.041
181.446	193.772
186.356	88.3867
191.263	265.062
196.167	422.367
201.069	308.262
205.968	173.353
210.864	161.304
215.757	187.898
220.648	353.831
225.536	701.033
230.421	891.792
235.304	609.573
240.183	390.083
245.06	132.451
249.934	242.962
254.806	204.776
259.675	65.1836
264.541	46.042
269.404	112.844
274.265	17.1924
279.122	42.498
283.977	135.754
288.83	81.8242
293.679	257.44
298.526	487.118
303.371	662.956
308.212	547.1
313.051	758.891
317.887	1331.8
322.72	2202.16
327.551	2221.34
332.379	1243.12
337.204	1054.59
342.026	781.876
346.846	885.136
351.663	1285.51
356.477	2129.69
361.289	1617.88
366.098	1229.96
370.904	1014.04
375.707	979.104
380.508	1016.13
385.306	1845.11
390.101	3141.02
394.894	2727.85
399.684	1336.59
404.471	666.704
409.256	360.372
414.038	253.644
418.817	73.7461
423.593	63.0742
428.367	16.0977
433.138	210.115
437.907	141.73
442.672	42.085
447.435	112.436
452.196	185.994
456.953	90.1025
461.708	246.33
466.461	231.882
471.21	163.411
475.957	202.164
480.702	152.869
485.443	169.718
490.182	164.493
494.918	156.853
499.652	140.047
504.383	257.071
509.111	308.912
513.837	312.69
518.56	390.309
523.28	479.729
527.997	468.068
532.712	496.249
537.425	462.206
542.134	504.935
546.841	661.448
551.545	566.786
556.247	940.974
560.946	888.142
565.642	551.263
570.336	188.801
575.027	257.772
579.715	261.334
584.401	251.536
589.084	282.676
593.764	49.2695
598.442	72.082
603.117	87.4873
607.79	38.4971
612.459	65.8379
617.127	85.8721
621.791	110.334
626.453	152.541
631.112	307.497
635.769	269.33
640.423	379.792
645.074	486.638
649.723	692.991
654.369	1278.81
659.013	2275.1
663.653	3951.4
668.292	4116.65
672.927	2517.57
677.56	1867.48
682.19	1039.89
686.818	674.44
691.443	661.923
696.066	692.249
700.686	319.004
705.303	446.28
709.917	188.769
714.529	296.999
719.139	228.676
723.746	61.0088
728.35	174.644
732.951	141.8
737.55	156.733
742.147	191.74
746.74	93.0996
751.331	229.95
755.92	58.3057
760.506	47.4277
765.089	73.6289
769.67	20.748
774.248	44.0625
778.824	64.6709
783.397	50.1016
787.967	149.116
792.535	174.685
797.1	144.133
801.662	12.9062
806.222	156.953
810.78	59
815.334	172.863
819.887	66.1191
824.436	84.7227
828.983	279.734
833.528	167.404
838.07	251.731
842.609	5.25977
847.146	224.213
851.68	426.457
856.211	581.51
860.74	335.438
865.267	416.019
869.79	369.943
874.312	284.16
878.83	220.127
883.346	156.195
887.86	113.09
892.371	200.91
896.879	100.289
901.385	47.6914
905.889	85.6035
910.389	226.996
914.887	64.2519
919.383	223.398
923.876	60.7402
928.367	282.85
932.854	34.2637
937.34	120.812
941.823	118.908
946.303	171.322
950.781	190.943
955.256	64.707
959.728	197.469
964.199	289.543
968.666	184.205
973.131	194.697
977.593	239.273
982.053	599.644
986.511	581.904
990.966	740.695
995.418	1133.96
999.868	1688.99
1004.32	2804.01
1008.76	4973.26
1013.2	6131.3
1017.64	3069.98
1022.08	1340.75
1026.51	755.156
1030.94	639.609
1035.37	631.406
1039.8	538.816
1044.22	639.578
1048.65	660.174
1053.07	384.455
1057.48	257.281
1061.9	246.023
1066.31	170.19
1070.72	171.131
1075.13	114.811
1079.53	101.037
1083.93	156.785
1088.33	129.609
1092.73	157.418
1097.12	166.098
1101.51	68.7012
1105.9	112.74
1110.29	175.772
1114.67	149.693
1119.06	27.5059
1123.43	17.3965
1127.81	205.912
1132.18	114.397
1136.56	77.1992
1140.93	157.834
1145.29	144.607
1149.66	141.279
1154.02	5.71484
1158.38	214.707
1162.73	238.107
1167.09	143.393
1171.44	128.639
1175.79	26.6738
1180.14	5.56445
1184.48	77.3066
1188.82	233.594
1193.16	148.863
1197.5	68.7676
1201.83	53.0059
1206.16	54.0312
1210.49	262.068
1214.82	262.453
1219.14	170.359
1223.47	207.935
1227.79	209.606
1232.1	338.037
1236.42	269.055
1240.73	194.176
1245.04	458.025
1249.35	179.418
1253.65	264.18
1257.95	219.531
1262.25	138.762
1266.55	315.951
1270.84	235.168
1275.13	382.469
1279.42	181.906
1283.71	107.494
1288	232.766
1292.28	248.078
1296.56	68.5
1300.84	69.2246
1305.11	331.461
1309.38	161.053
1313.65	236.877
1317.92	325.826
1322.19	134.592
1326.45	266.725
1330.71	194.228
1334.97	195.527
1339.22	358.367
1343.48	5.60156
1347.73	260.955
1351.97	321.027
1356.22	298.732
1360.46	251.166
1364.7	248.018
1368.94	420.236
1373.18	292.072
1377.41	222.275
1381.64	93.8281
1385.87	268.111
1390.1	359.998
1394.32	480.053
1398.54	64.2363
1402.76	492.772
1406.98	88.0781
1411.19	31.3027
1415.4	432.098
1419.61	243.184
1423.82	196.986
1428.02	438.881
1432.23	607.113
1436.42	237.014
1440.62	346.562
1444.82	302.92
1449.01	626.527
1453.2	389.275
1457.39	533.072
1461.57	199.596
1465.75	464.082
1469.93	50.4473
1474.11	493.432
1478.29	3.39844
1482.46	30.2988
1486.63	57.1543
1490.8	295.092
1494.96	468.676
1499.13	412.375
1503.29	125.668
1507.45	461.58
1511.6	488.551
1515.76	251.242
1519.91	610.375
1524.06	139.928
1528.2	267.756
1532.35	318.309
1536.49	543.387
1540.63	372.875
1544.77	241.117
1548.9	377.285
1553.03	116.207
1557.16	137.301
1561.29	112.019
1565.41	11.3281
1569.54	12.5273
1573.66	50.4805
1577.77	0
