Measurement: Raman, 514 nm, ccw, Raman Data Processed
Mineral: Diopside
Rruff sample: R060085
Ideal chemistry: CaMgSi_2_O_6_
Locality: Tyrol, Austria
Source: University of Arizona Mineral Museum
Description: Brownish-green massive
Measured chemistry: (Ca_0.97_Na_0.03_)_Σ=1_(Mg_0.79_Fe^2+^_0.10_Fe^3+^_0.04_Al_0.04_Ti_0.02_Cr_0.01_)_Σ=1_(Si_1.90_Al_0.10_)_Σ=2_O_6_
Pin_id: M01542
Orientation: Laser parallel to c* (0 0 1). Fiducial mark perpendicular to laser is parallel to a [1 0 0]
Raman shift (cm-1)	intensity
87.655	0
92.638	230.903
97.618	506.836
102.594	148.308
107.568	635.951
112.538	929.579
117.505	290.213
122.469	429.412
127.43	531.367
132.388	135.894
137.342	472.815
142.294	424.949
147.242	98.7939
152.187	186.118
157.13	102.908
162.069	326.125
167.005	260.157
171.938	296.207
176.868	391.906
181.794	348.092
186.718	442.096
191.639	294.943
196.556	679.146
201.471	498.551
206.382	349.473
211.29	251.715
216.196	345.467
221.098	278.34
225.997	256.957
230.894	630.137
235.787	665.594
240.677	382.736
245.564	324.504
250.448	12.7031
255.329	351.889
260.207	368.812
265.082	4.30664
269.954	32.2285
274.823	71.4941
279.689	165.918
284.552	37.5352
289.412	91.8731
294.269	62.9844
299.123	241.998
303.974	153.586
308.822	604.141
313.667	713.744
318.509	1497.11
323.349	3834.73
328.185	3584.48
333.018	1804.96
337.848	950.299
342.676	727.852
347.5	414.248
352.321	691.816
357.14	781.348
361.955	771.898
366.768	580.465
371.578	785.033
376.384	1074.6
381.188	1265.17
385.989	2194.85
390.787	4596.6
395.582	3608.39
400.374	1616.19
405.164	740.986
409.95	384.533
414.733	253.44
419.514	94.8008
424.292	130.4
429.066	22.0117
433.838	146.264
438.607	148.143
443.373	27.7363
448.137	122.564
452.897	69.9375
457.655	72.8398
462.409	336.023
467.161	86.9941
471.91	197.736
476.656	149.578
481.399	81.0801
486.14	146.385
490.877	192.639
495.612	267.594
500.344	168.1
505.073	435.121
509.799	349.016
514.523	388.846
519.243	774.574
523.961	534.236
528.676	770.82
533.388	887.227
538.097	832.439
542.804	699.445
547.508	605.252
552.209	605.842
556.907	500.25
561.602	697.445
566.295	428.619
570.984	171.43
575.671	284.531
580.356	307.092
585.037	106.76
589.716	45.4004
594.392	77.5273
599.065	83.2285
603.735	76.2383
608.403	151.44
613.068	131.209
617.73	183.537
622.389	199.293
627.046	68.709
631.7	214.853
636.351	105.519
641	363.117
645.645	571.207
650.288	743.061
654.929	1008.98
659.566	1476.28
664.201	2861.7
668.833	3563.47
673.463	2645.17
678.09	1389.39
682.714	1171.36
687.335	1085.64
691.954	1071.97
696.57	792.731
701.183	534.596
705.793	400.791
710.401	413.178
715.007	404.551
719.609	287.863
724.209	153.473
728.806	357.828
733.401	78.0644
737.993	40.5527
742.582	175.205
747.169	35.5488
751.753	77.8809
756.334	140.344
760.913	32.998
765.489	94.4414
770.062	124.049
774.633	237.894
779.201	194.812
783.766	107.037
788.329	13.8555
792.889	75.5859
797.447	233.678
802.002	198.779
806.554	127.881
811.104	115.197
815.651	160.154
820.196	80.1582
824.738	126.252
829.277	335.883
833.814	322.303
838.348	89.0059
842.88	115.846
847.409	118.781
851.935	112.309
856.459	149.443
860.98	282.918
865.499	260.641
870.015	207.779
874.529	322.232
879.04	238.065
883.548	251.978
888.054	59.666
892.558	25.5723
897.058	234.861
901.557	244.504
906.052	41.8398
910.546	36.0352
915.036	342.16
919.524	208.859
924.01	149.728
928.493	0.886719
932.974	25.5312
937.452	100.353
941.927	59.2285
946.4	23.293
950.871	177.385
955.339	412.004
959.804	167.185
964.267	107.664
968.728	217.908
973.185	375.193
977.641	294.898
982.094	316.133
986.544	519.5
990.992	1080.56
995.438	1158.62
999.881	1650.61
1004.32	2865.75
1008.76	5144.03
1013.2	9373.03
1017.63	4933.28
1022.06	2064.34
1026.49	938.496
1030.91	790.312
1035.34	712.648
1039.76	386.414
1044.18	684.012
1048.59	513.109
1053.01	378.465
1057.42	361.969
1061.83	234.684
1066.23	258.777
1070.64	193.316
1075.04	123.973
1079.44	137.828
1083.83	346.832
1088.23	229.398
1092.62	302.363
1097.01	118.125
1101.39	75.7461
1105.78	27.9531
1110.16	127.039
1114.54	115.734
1118.92	88.3047
1123.29	176.809
1127.67	165.809
1132.04	0.238281
1136.4	20.1953
1140.77	209.32
1145.13	196.852
1149.49	370.019
1153.85	260.336
1158.21	94.3242
1162.56	259.406
1166.91	32.9023
1171.26	394.699
1175.61	117.461
1179.95	101.25
1184.29	63.6406
1188.63	332.512
1192.97	248.508
1197.3	98.8008
1201.64	257.172
1205.97	162.832
1210.29	116.332
1214.62	482.363
1218.94	454.234
1223.26	340.438
1227.58	551.879
1231.9	359.555
1236.21	82.9336
1240.52	419.582
1244.83	31.2773
1249.14	241.109
1253.44	296.699
1257.74	249.559
1262.04	842.363
1266.34	565.219
1270.64	195.055
1274.93	346.547
1279.22	196.273
1283.51	224.215
1287.79	260.121
1292.08	142.102
1296.36	352.918
1300.64	230.625
1304.92	222.574
1309.19	274.961
1313.46	25.5977
1317.73	334.394
1322	310.703
1326.27	241.336
1330.53	152.828
1334.79	280.285
1339.05	174.848
1343.31	35.8477
1347.56	345.391
1351.81	87.8633
1356.06	520.75
1360.31	102.828
1364.56	111.797
1368.8	351.453
1373.04	311.578
1377.28	449.879
1381.52	319.055
1385.75	190.301
1389.98	509.969
1394.21	272.727
1398.44	219.516
1402.66	129.496
1406.89	175.824
1411.11	106.949
1415.33	203.742
1419.54	397.957
1423.76	174.078
1427.97	105.508
1432.18	50.3633
1436.39	276.684
1440.59	12.418
1444.8	364.918
1449	488.109
1453.2	335.723
1457.39	249.973
1461.59	106.793
1465.78	236.082
1469.97	319.328
1474.16	141.914
1478.35	448.242
1482.53	66.8711
1486.71	352.715
1490.89	588.875
1495.07	457.32
1499.24	8.10156
1503.42	18.4805
1507.59	392.391
1511.76	428.856
1515.92	404.93
1520.09	374.316
1524.25	361.5
1528.41	294.984
1532.57	254.793
1536.72	435.012
1540.88	306.766
1545.03	401.773
1549.18	280.684
1553.33	101.551
1557.47	200.062
1561.62	49.3203
1565.76	115.891
1569.89	347.199
1574.03	302.254
1578.17	0
