Measurement: Raman, 514 nm, depolarized, Raman Data Processed
Mineral: Diopside
Rruff sample: R060861
Ideal chemistry: CaMgSi_2_O_6_
Locality: Red Mountain Volcano, NW of Flagstaff, Arizona, USA
Source: Jennifer Sano
Description: Worn brown fragment
Measured chemistry: (Ca_0.72_Fe^2+^_0.23_Na_0.05_)_Σ=1_(Mg_0.80_Al_0.15_Ti_0.03_Fe^3+^_0.02_)_Σ=1_(Si_1.82_Al_0.18_)_Σ=2_O_6_
Pin_id: M01599
Orientation: Laser parallel to (1 0 1). Fiducial mark perpendicular to laser is parallel to b [0 1 0]
Raman shift (cm-1)	intensity
209.153	0
214.062	94.5029
218.968	641.979
223.87	1132.91
228.77	1158.57
233.666	815.572
238.56	410.373
243.45	414.371
248.337	582.541
253.221	564.746
258.102	869.841
262.979	175.349
267.854	88.9531
272.726	118.258
277.594	40.5947
282.459	597.162
287.321	1459.77
292.18	2518.85
297.036	3674.68
301.889	5355.06
306.739	6721.87
311.586	8885.98
316.43	11885
321.271	15028.1
326.108	18451.4
330.943	20583.9
335.774	20925.7
340.603	19907.3
345.428	18484.2
350.251	17496.9
355.07	16940.2
359.887	16601.2
364.7	15614.6
369.511	14353.9
374.318	13645.5
379.123	13963.2
383.924	15403.4
388.723	17887.2
393.518	19582.5
398.311	18466.5
403.1	14154.2
407.887	9147.31
412.671	5032.96
417.451	2822.08
422.229	1538.89
427.004	985.29
431.776	486.432
436.545	244.243
441.311	20.6455
446.074	59.333
450.834	7.23047
455.591	227.486
460.346	592.598
465.097	1092.13
469.846	1458.56
474.591	1528.34
479.334	1419.98
484.074	1566.89
488.811	1504.79
493.545	1669.73
498.276	1670.69
503.005	1823.03
507.73	2200.68
512.453	2697.48
517.173	3159.35
521.89	3853.18
526.604	4460.89
531.315	5004.43
536.024	5461.73
540.729	5602.7
545.432	5577.15
550.132	5441.37
554.83	5565.01
559.524	5343.37
564.216	4603.31
568.904	3750.5
573.59	3031.89
578.274	2289.41
582.954	1441.45
587.632	792.677
592.307	305.007
596.979	103.86
601.648	179.219
606.315	145.404
610.979	299.998
615.64	664.375
620.298	1073.46
624.954	1564.43
629.607	2276.4
634.257	3383.4
638.904	5172.43
643.549	7640.5
648.191	11896.6
652.83	18564.8
657.467	29318
662.101	42149.4
666.732	49743.9
671.36	44522.5
675.986	30901.4
680.609	19410.4
685.23	12069.8
689.847	7760.44
694.462	5145.46
699.075	3742.9
703.685	2600.8
708.292	1826.21
712.896	1262.22
717.498	831.872
722.097	386.213
726.694	99.1567
731.287	403.19
735.879	436.226
740.467	604.889
745.053	638.564
749.637	447.803
754.217	130.297
758.795	234.961
763.371	548.2
767.944	792.802
772.514	1038.79
777.082	1497.32
781.647	1257.52
786.21	1371.56
790.77	1443.56
795.327	1553.67
799.882	1603.02
804.434	1726.76
808.984	1965.02
813.531	2139.92
818.076	2278.59
822.618	2219.17
827.158	2108.78
831.695	1875.54
836.229	1732.57
840.761	1555.98
845.291	1433.91
849.817	1435.47
854.342	1955.76
858.864	2709.73
863.383	3278.24
867.9	3485.78
872.414	3651.89
876.926	3450.01
881.436	3194.22
885.942	3066.25
890.447	2992.19
894.949	2931.31
899.448	2856.04
903.945	3039.71
908.44	3035.33
912.932	3091.91
917.421	3229.37
921.909	3661.37
926.393	3525.54
930.876	3753.84
935.355	3990.89
939.833	4266.15
944.308	4683.7
948.78	5417.43
953.25	6304.31
957.718	7017.23
962.183	8016.1
966.646	9136.49
971.107	10595.7
975.565	12646.3
980.02	15058.8
984.474	18514.1
988.925	23326.1
993.373	30395.9
997.819	38468.8
1002.26	46362.9
1006.7	49755.8
1011.14	45033.9
1015.58	35027.3
1020.01	24822.1
1024.45	17550.2
1028.88	13372.7
1033.3	11039.2
1037.73	9337.65
1042.15	8045.6
1046.57	6883.37
1050.99	5780.38
1055.4	4845.34
1059.82	4013.51
1064.23	3312.01
1068.64	2887.23
1073.04	2534.93
1077.45	2433.05
1081.85	2320.81
1086.25	2228.78
1090.64	2106.89
1095.04	2157.25
1099.43	2007.39
1103.82	1986.83
1108.21	2176.11
1112.6	2001.46
1116.98	2040.12
1121.36	1927.04
1125.74	1494.91
1130.12	988.168
1134.49	521.178
1138.86	203.935
1143.23	45.2778
1147.6	189.472
1151.96	258.634
1156.33	327.941
1160.69	359.106
1165.05	338.171
1169.4	224.943
1173.76	203.132
1178.11	153.519
1182.46	150.419
1186.81	65.3345
1191.15	83.9702
1195.49	61.8218
1199.84	204.293
1204.17	170.25
1208.51	323.798
1212.84	342.1
1217.18	470.463
1221.51	553.149
1225.83	521.208
1230.16	564.545
1234.48	716.192
1238.8	723.195
1243.12	707.531
1247.44	867.168
1251.76	812.1
1256.07	864.302
1260.38	965.775
1264.69	988.761
1268.99	1045.8
1273.3	1046.45
1277.6	1113.98
1281.9	997.856
1286.2	952.319
1290.49	1012.73
1294.79	944.744
1299.08	865.351
1303.37	806.007
1307.65	758.342
1311.94	674.158
1316.22	682.66
1320.5	655.996
1324.78	632.76
1329.06	689.882
1333.33	721.036
1337.6	585.959
1341.87	733.612
1346.14	623.386
1350.41	580.171
1354.67	511.737
1358.93	521.942
1363.19	534.958
1367.45	536.027
1371.71	500.215
1375.96	413.152
1380.21	392.499
1384.46	414.14
1388.71	298.189
1392.96	370.604
1397.2	353.833
1401.44	331.042
1405.68	307.776
1409.92	303.438
1414.16	264.753
1418.39	251.932
1422.62	172.413
1426.85	179.932
1431.08	120.927
1435.3	136.637
1439.53	123.091
1443.75	127.59
1447.97	97.2322
1452.19	51.6179
1456.4	54.3276
1460.62	131.898
1464.83	84.2734
1469.04	47.4829
1473.24	33.6663
1477.45	35.9275
1481.65	57.5354
1485.86	64.6716
1490.06	72.314
1494.26	122.946
1498.45	71.0288
1502.64	147.865
1506.84	30.2925
1511.03	21.3101
1515.22	74.5933
1519.4	102.623
1523.59	135.094
1527.77	112.668
1531.95	150.026
1536.13	10.456
1540.31	56.1914
1544.48	26.5742
1548.65	1.23682
1552.82	117.123
1556.99	125.482
1561.16	143.599
1565.33	0
