Measurement: Raman, 514 nm, ccw, Raman Data Processed
Mineral: Diopside
Rruff sample: R060085
Ideal chemistry: CaMgSi_2_O_6_
Locality: Tyrol, Austria
Source: University of Arizona Mineral Museum
Description: Brownish-green massive
Measured chemistry: (Ca_0.97_Na_0.03_)_Σ=1_(Mg_0.79_Fe^2+^_0.10_Fe^3+^_0.04_Al_0.04_Ti_0.02_Cr_0.01_)_Σ=1_(Si_1.90_Al_0.10_)_Σ=2_O_6_
Pin_id: M00509
Orientation: Laser parallel to a* (1 0 0). Fiducial mark perpendicular to laser is parallel to b [0 1 0]
Raman shift (cm-1)	intensity
100.582	0
105.531	104.124
110.477	343.659
115.42	411.713
120.361	481.388
125.299	658.158
130.234	1104.53
135.166	2121.6
140.096	2380.29
145.023	1529
149.947	717.835
154.869	261.651
159.787	45.918
164.703	46.8291
169.617	127.341
174.528	79.1641
179.435	308.164
184.341	406.239
189.243	295.894
194.143	334.877
199.04	408.522
203.935	137.107
208.827	33.0723
213.716	245.424
218.602	235.615
223.486	62.4316
228.367	348.812
233.245	316.6
238.12	316.728
242.993	135.435
247.863	128.28
252.731	418.239
257.596	331.955
262.458	84.1045
267.317	12.6719
272.174	54.0635
277.028	15.6816
281.879	162.091
286.728	122.537
291.574	45.5723
296.417	333.934
301.258	335.068
306.096	464.846
310.931	539.037
315.764	1013.37
320.594	1731.56
325.421	2071.09
330.246	1942.36
335.068	1246.74
339.887	991.257
344.703	671.372
349.517	741.773
354.329	622.535
359.137	601.944
363.943	631.559
368.746	568.352
373.547	551.434
378.345	688.664
383.14	742.677
387.932	1006.47
392.722	1377.45
397.51	1160.06
402.294	356.842
407.076	134.194
411.855	272.608
416.632	159.545
421.406	0.542969
426.177	168.5
430.946	195.258
435.712	51.0293
440.475	82.2881
445.236	56.5586
449.994	50.2022
454.75	12.29
459.502	282.832
464.253	136.824
469	314.05
473.745	193.163
478.487	230.176
483.227	162.385
487.964	276.383
492.698	154.18
497.43	287.82
502.159	206.334
506.885	600.664
511.609	577.92
516.33	438.143
521.049	412.24
525.764	537.295
530.478	714.219
535.188	579.293
539.896	692.717
544.602	660.258
549.304	713.184
554.004	375.435
558.702	449.656
563.397	414.4
568.089	348.688
572.779	287.906
577.466	263.551
582.15	374.773
586.832	142.098
591.511	64.8496
596.188	54.2246
600.862	133.406
605.533	8.30859
610.202	3.82031
614.868	40.6543
619.531	139.453
624.192	254.981
628.85	248.522
633.506	544.178
638.159	458.402
642.81	585.787
647.457	892.613
652.103	1202.37
656.745	2280.33
661.385	4412.33
666.023	6987.72
670.658	5686.58
675.29	2971.73
679.92	1729.42
684.547	1094.2
689.171	850.053
693.793	596.769
698.413	344.092
703.029	294.275
707.643	292.588
712.255	104.82
716.864	113.002
721.47	105.074
726.074	76.959
730.675	136.264
735.274	140.037
739.87	94.916
744.463	136.551
749.054	11.9434
753.643	80.2793
758.228	141.137
762.812	166.264
767.392	127.986
771.97	57.3164
776.546	114.035
781.118	181.973
785.689	20.3613
790.256	237.106
794.822	136.068
799.384	216.01
803.944	26.1582
808.502	198.404
813.057	40.6836
817.609	378.705
822.159	187.43
826.706	220.734
831.251	332.549
835.793	366.523
840.332	368.438
844.869	207.705
849.404	274.943
853.936	662.168
858.465	709.637
862.992	607.299
867.516	555.967
872.037	365.779
876.557	317.086
881.073	246.644
885.587	246.348
890.099	387.727
894.608	249.67
899.114	53.1465
903.618	223.404
908.119	133.793
912.618	71.3711
917.114	36.1895
921.608	24.6035
926.099	190.443
930.588	44.1113
935.074	1.12891
939.557	220.769
944.038	28.9316
948.517	63.1387
952.993	88.7148
957.466	68.2637
961.937	241.41
966.405	170.397
970.871	168.777
975.334	194.662
979.795	282.301
984.253	332.24
988.709	598.674
993.162	564.924
997.613	948.146
1002.06	1650.27
1006.51	2049.29
1010.95	3055.21
1015.39	2359.18
1019.83	1093.79
1024.26	953.369
1028.7	766.053
1033.13	370.971
1037.56	344.074
1041.98	556.449
1046.4	524.537
1050.83	493.941
1055.24	271.684
1059.66	219.506
1064.07	416.836
1068.48	436.221
1072.89	209.033
1077.3	188.019
1081.7	112.439
1086.1	316.924
1090.5	340.613
1094.89	238.045
1099.29	224.984
1103.68	163.305
1108.06	234.326
1112.45	6.21094
1116.83	151.389
1121.21	112.904
1125.59	78.6719
1129.97	150.123
1134.34	141.547
1138.71	123.953
1143.08	6.33984
1147.44	36.6992
1151.81	100.41
1156.17	27.8633
1160.53	40.5605
1164.88	15.8535
1169.23	108.141
1173.59	155.889
1177.93	168.801
1182.28	4.78516
1186.62	173.26
1190.96	184.627
1195.3	264.385
1199.64	317.562
1203.97	45.6367
1208.3	288.781
1212.63	463.51
1216.96	359.279
1221.28	141.492
1225.6	207.672
1229.92	427.812
1234.24	127.602
1238.55	136.703
1242.86	396.367
1247.17	294.443
1251.47	144.428
1255.78	242.443
1260.08	357.428
1264.38	342.394
1268.68	480.338
1272.97	204.225
1277.26	292.553
1281.55	49.4453
1285.84	25.3164
1290.12	250.164
1294.4	86.332
1298.68	187.746
1302.96	13.6152
1307.23	96.9277
1311.51	249.654
1315.78	395.707
1320.04	190.394
1324.31	56.168
1328.57	266.027
1332.83	86.6211
1337.09	108.764
1341.34	72.3516
1345.59	171.416
1349.84	100.188
1354.09	143.982
1358.34	276.621
1362.58	395.471
1366.82	239.371
1371.06	462.316
1375.29	327.326
1379.52	151.422
1383.75	423.293
1387.98	354.533
1392.21	319.844
1396.43	202.238
1400.65	142.756
1404.87	86.4297
1409.09	243.889
1413.3	230.742
1417.51	149.852
1421.72	4.35156
1425.93	148.152
1430.13	229.264
1434.33	460.873
1438.53	337.486
1442.73	434.486
1446.92	518.607
1451.11	513.07
1455.3	229.748
1459.49	339.002
1463.67	175.279
1467.86	297.113
1472.04	375.137
1476.21	256.352
1480.39	294.773
1484.56	246.422
1488.73	234.301
1492.9	264.426
1497.06	203.82
1501.23	98.5781
1505.39	79.8398
1509.55	161.508
1513.7	455.207
1517.85	215.715
1522	135.551
1526.15	418.66
1530.3	303.766
1534.44	197.062
1538.58	25.2188
1542.72	346.297
1546.86	285.043
1550.99	254.859
1555.13	191.305
1559.26	239.18
1563.38	212.977
1567.51	175.434
1571.63	204.375
1575.75	293.945
