Measurement: Raman, 514 nm, depolarized, Raman Data Processed
Mineral: Diopside
Rruff sample: R060085
Ideal chemistry: CaMgSi_2_O_6_
Locality: Tyrol, Austria
Source: University of Arizona Mineral Museum
Description: Brownish-green massive
Measured chemistry: (Ca_0.97_Na_0.03_)_Σ=1_(Mg_0.79_Fe^2+^_0.10_Fe^3+^_0.04_Al_0.04_Ti_0.02_Cr_0.01_)_Σ=1_(Si_1.90_Al_0.10_)_Σ=2_O_6_
Pin_id: M00537
Orientation: Laser parallel to (-1 0 -1). Fiducial mark perpendicular to laser is parallel to b [0 1 0]
Raman shift (cm-1)	intensity
87.632	0
92.595	71.9922
97.554	134.113
102.511	147.425
107.465	264.047
112.417	453.58
117.365	370.6
122.311	449.885
127.254	367.313
132.195	572.313
137.132	972.707
142.067	771.044
146.999	358.993
151.928	145.174
156.855	116.815
161.778	257.889
166.699	198.054
171.618	179.207
176.533	97.7432
181.446	221.983
186.356	334.424
191.263	387.938
196.167	443.501
201.069	244.435
205.968	20.3828
210.864	273.043
215.757	109.72
220.648	340.671
225.536	596.846
230.421	782.19
235.304	748.302
240.183	381.453
245.06	245.373
249.934	250.316
254.806	166.533
259.675	32.4844
264.541	48.3174
269.404	45.7051
274.265	25.2275
279.122	24.0205
283.977	66.1191
288.83	38.8965
293.679	232.602
298.526	481.448
303.371	563.792
308.212	689.855
313.051	987.541
317.887	1631.49
322.72	2936.86
327.551	2427.26
332.379	1432.46
337.204	861.838
342.026	654.35
346.846	878.686
351.663	1146.07
356.477	1476.51
361.289	1346.21
366.098	1121.82
370.904	1089.59
375.707	988.17
380.508	1235.78
385.306	2677.47
390.101	4069.22
394.894	3014.06
399.684	1233.95
404.471	776.887
409.256	338.51
414.038	42.5137
418.817	63.3711
423.593	229.635
428.367	78.4941
433.138	35.7344
437.907	47.9316
442.672	66.5762
447.435	45.4453
452.196	201.348
456.953	83.0703
461.708	337.611
466.461	159.457
471.21	194.592
475.957	109.861
480.702	30.041
485.443	129.875
490.182	35.2148
494.918	113.502
499.652	159.18
504.383	71.7871
509.111	74.3144
513.837	334.844
518.56	310.326
523.28	412.727
527.997	453.033
532.712	653.269
537.425	554.529
542.134	514.691
546.841	482.728
551.545	558.646
556.247	667.412
560.946	582.197
565.642	363.85
570.336	342.738
575.027	371.914
579.715	300.178
584.401	107.264
589.084	91.0371
593.764	140.713
598.442	31.1523
603.117	30.4609
607.79	336.67
612.459	153.139
617.127	267.584
621.791	370.166
626.453	217.432
631.112	166.121
635.769	419.938
640.423	352.445
645.074	532.053
649.723	725.951
654.369	1222.86
659.013	3010.44
663.653	4957.95
668.292	5080.1
672.927	2860.86
677.56	1700.36
682.19	1348.05
686.818	936.215
691.443	654.264
696.066	427.951
700.686	355.672
705.303	240.818
709.917	251.184
714.529	372.598
719.139	31.5352
723.746	226.852
728.35	73.5742
732.951	197.644
737.55	266.25
742.147	178.639
746.74	215.109
751.331	85.2871
755.92	80.7656
760.506	74.3555
765.089	112.264
769.67	117.018
774.248	58.3086
778.824	158.492
783.397	113.615
787.967	45.4941
792.535	62.8848
797.1	143.559
801.662	153.799
806.222	70.6367
810.78	108.461
815.334	156.092
819.887	360.914
824.436	227.682
828.983	375.336
833.528	321.887
838.07	220.139
842.609	183.004
847.146	239.103
851.68	548.182
856.211	710.537
860.74	428.219
865.267	480.693
869.79	571.244
874.312	159.783
878.83	263.842
883.346	222.889
887.86	353.637
892.371	155.885
896.879	17.3613
901.385	51.0801
905.889	145.986
910.389	53.1719
914.887	239.383
919.383	169.682
923.876	43.623
928.367	81
932.854	110.668
937.34	278.156
941.823	54.0469
946.303	292.449
950.781	227.621
955.256	139.447
959.728	193.346
964.199	134.832
968.666	386.115
973.131	375.359
977.593	525.703
982.053	402.367
986.511	657.984
990.966	858.25
995.418	1166.53
999.868	1639.95
1004.32	3195.34
1008.76	6196.2
1013.2	7652.71
1017.64	3776.2
1022.08	1549.94
1026.51	1038.01
1030.94	835.642
1035.37	753.125
1039.8	676.768
1044.22	865.152
1048.65	554.805
1053.07	538.902
1057.48	409.894
1061.9	348.807
1066.31	282.912
1070.72	75.2109
1075.13	193.356
1079.53	296.734
1083.93	152.234
1088.33	29.1367
1092.73	13.002
1097.12	43.2266
1101.51	109.193
1105.9	55.7324
1110.29	74.207
1114.67	35.7383
1119.06	4.70508
1123.43	148.305
1127.81	166.961
1132.18	218.117
1136.56	61.6641
1140.93	208.338
1145.29	24.2559
1149.66	84.6309
1154.02	97.0273
1158.38	74.25
1162.73	166.574
1167.09	160.719
1171.44	210.631
1175.79	137.822
1180.14	1.79102
1184.48	317.397
1188.82	172.707
1193.16	320.773
1197.5	223.227
1201.83	128.363
1206.16	188.336
1210.49	240.582
1214.82	476.504
1219.14	92.3594
1223.47	209.949
1227.79	103.539
1232.1	368.719
1236.42	380.602
1240.73	278.039
1245.04	122.836
1249.35	524.102
1253.65	351.039
1257.95	374.973
1262.25	452.707
1266.55	347.602
1270.84	404.078
1275.13	308.18
1279.42	107.723
1283.71	149.445
1288	343.945
1292.28	188.594
1296.56	82.1367
1300.84	213.789
1305.11	145.988
1309.38	227.473
1313.65	276.168
1317.92	535.019
1322.19	24.9688
1326.45	76.4453
1330.71	385.004
1334.97	181.242
1339.22	41.4961
1343.48	18.1016
1347.73	414.184
1351.97	48.1875
1356.22	178.609
1360.46	331
1364.7	386.981
1368.94	316.914
1373.18	539.684
1377.41	475.426
1381.64	141.531
1385.87	361.254
1390.1	343.762
1394.32	418.969
1398.54	216.926
1402.76	403.68
1406.98	396.008
1411.19	168.551
1415.4	291.898
1419.61	67.9766
1423.82	365.535
1428.02	244.215
1432.23	177.266
1436.42	137.41
1440.62	241.238
1444.82	168.227
1449.01	597.734
1453.2	66.3594
1457.39	414.898
1461.57	62.5742
1465.75	424.68
1469.93	57.3438
1474.11	194.691
1478.29	381.602
1482.46	178.297
1486.63	446.731
1490.8	268.117
1494.96	279.781
1499.13	181.652
1503.29	96.0078
1507.45	519.789
1511.6	130.91
1515.76	199.484
1519.91	162.652
1524.06	300.828
1528.2	234.062
1532.35	247.231
1536.49	432.547
1540.63	505.84
1544.77	52.9727
1548.9	355.586
1553.03	357.93
1557.16	427.019
1561.29	203.816
1565.41	235.023
1569.54	287.93
1573.66	0.144531
1577.77	0
