Measurement: Raman, 514 nm, depolarized, Raman Data Processed
Mineral: Diopside
Rruff sample: R060276
Ideal chemistry: CaMgSi_2_O_6_
Locality: Inagli, Yakutia, Siberia, Russia
Source: Herb Obodda
Description: Transparent green cleavage fragment
Measured chemistry: (Ca_0.97_Na_0.03_)_Σ=1_(Mg_0.96_Fe_0.03_Cr_0.01_)_Σ=1_(Si_1.98_Al_0.02_)_Σ=2_O_6_
Pin_id: L01321
Orientation: Laser parallel to (1 0 1). Fiducial mark perpendicular to laser is parallel to -b [0 -1 0]
Raman shift (cm-1)	intensity
111.976	0
116.903	131.816
121.827	74.46
126.749	258.226
131.668	931.144
136.585	1806.93
141.5	2532.08
146.412	1288.75
151.321	296.85
156.229	110.664
161.134	318.335
166.036	395.836
170.936	404.929
175.834	419.593
180.729	542.782
185.622	731.508
190.512	190.842
195.4	158.464
200.286	267.712
205.169	26.4477
210.049	23.6406
214.928	161.71
219.803	656.5
224.677	1451.74
229.548	2127.4
234.416	1681.21
239.282	727.102
244.146	393.433
249.007	592.191
253.866	697.372
258.722	741.225
263.576	49.064
268.427	37.7168
273.276	66.1226
278.123	27.8169
282.967	62.1426
287.809	243.697
292.648	671.477
297.485	1372.48
302.319	2307.37
307.151	3426.82
311.98	5778.85
316.807	10369.2
321.631	15166
326.454	16592.2
331.273	8862.66
336.09	4117.4
340.905	2680.01
345.717	3016.77
350.527	4257.1
355.334	5969.87
360.139	6081.44
364.941	4845.27
369.741	3629.36
374.538	3919.68
379.333	6843.26
384.126	13763.1
388.916	20171.1
393.703	19637.4
398.488	8268.97
403.271	3032.76
408.051	1341.81
412.828	733.36
417.603	454.552
422.376	345.617
427.146	195.655
431.914	123.939
436.679	128.445
441.442	104.842
446.202	4.13672
450.96	93.7598
455.715	213.78
460.467	318.767
465.218	392.178
469.965	178.129
474.711	169.205
479.454	100.666
484.194	27.2388
488.932	67.0215
493.667	51.9595
498.4	140.196
503.13	86.6055
507.858	156.194
512.583	365.954
517.306	504.868
522.026	1070.96
526.744	1505.29
531.459	1688.94
536.172	1150.91
540.882	737.29
545.59	682.865
550.295	1084.47
554.998	1752.14
559.698	2060.98
564.396	1234.97
569.091	607.935
573.784	416.848
578.474	170.7
583.162	131.981
587.847	60.6284
592.529	39.6631
597.209	27.1387
601.887	14.4937
606.562	38.7466
611.235	112.897
615.905	24.02
620.572	303.04
625.237	433.906
629.9	537.771
634.56	744.721
639.217	1180.71
643.872	1959.98
648.524	3172.55
653.174	6290.68
657.821	13887.3
662.466	25773
667.108	32244.3
671.748	20739.8
676.385	8549.36
681.02	4072.82
685.652	2209.63
690.281	1530.01
694.908	1097.98
699.533	786.891
704.155	648.268
708.774	421.24
713.391	340.803
718.005	313.955
722.617	171.726
727.226	176.156
731.833	101.106
736.437	154.468
741.039	56.4844
745.638	7.51025
750.234	13.3672
754.828	30.6191
759.419	103.28
764.008	39.4766
768.595	145.217
773.178	22.564
777.759	172.539
782.338	17.8418
786.914	53.2334
791.488	25.1201
796.059	60.9414
800.627	92.6743
805.193	13.3916
809.756	91.2793
814.317	51.0288
818.875	80.2383
823.431	4.04394
827.984	19.4258
832.534	29.7202
837.082	324.58
841.627	501.245
846.17	1230.73
850.71	2642.04
855.248	3703.2
859.783	2772.21
864.316	1511.94
868.846	1021.52
873.373	879.593
877.898	845.047
882.42	728.265
886.94	726.305
891.457	694.455
895.971	522.808
900.483	643.957
904.993	542.091
909.5	613.308
914.004	422.559
918.505	419.937
923.004	332.195
927.501	301.761
931.995	317.705
936.486	187.62
940.975	159.785
945.461	150.566
949.945	277.704
954.426	305.644
958.904	458.225
963.38	531.932
967.853	699.429
972.324	839.299
976.792	1130.43
981.258	1475.82
985.72	2023.46
990.181	2595.34
994.639	4098.47
999.094	7339.84
1003.55	16281.5
1008	37324.5
1012.44	54930.7
1016.89	38478.3
1021.33	14108.1
1025.77	6528.27
1030.21	4199.18
1034.64	3665.11
1039.07	4220.03
1043.5	5875.89
1047.93	6604.08
1052.35	4522.79
1056.78	2396.23
1061.19	1498.65
1065.61	1129.22
1070.02	963.025
1074.43	727.802
1078.84	621.184
1083.25	584.682
1087.65	473.945
1092.05	435.264
1096.45	360.478
1100.85	431.31
1105.24	382.725
1109.63	427.397
1114.02	343.353
1118.4	594.658
1122.78	586.466
1127.16	405.763
1131.54	316.899
1135.92	480.438
1140.29	165.076
1144.66	263.243
1149.02	190.666
1153.39	73.1787
1157.75	101.897
1162.11	68.6025
1166.46	46.9023
1170.82	77.584
1175.17	26.7246
1179.52	22.082
1183.86	4.01465
1188.21	72.6504
1192.55	0.874023
1196.89	33.5264
1201.22	51.0566
1205.55	27.5098
1209.88	54.4912
1214.21	125.674
1218.54	71.8398
1222.86	96.2666
1227.18	127.368
1231.5	22.9961
1235.81	95.9033
1240.12	41.1709
1244.43	51.1494
1248.74	62.0918
1253.04	171.35
1257.34	244.751
1261.64	171.902
1265.94	268.208
1270.23	206.725
1274.52	183.118
1278.81	188.456
1283.1	289.771
1287.38	255.355
1291.66	127.421
1295.94	154.863
1300.21	140.754
1304.48	50.7188
1308.75	186.732
1313.02	176.314
1317.29	143.649
1321.55	267
1325.81	263.438
1330.06	232.782
1334.32	224.486
1338.57	196.317
1342.82	252.674
1347.06	244.179
1351.31	159.209
1355.55	125.232
1359.79	116.61
1364.02	85.2754
1368.26	82.0986
1372.49	66.8525
1376.71	42.0664
1380.94	132.027
1385.16	52.3779
1389.38	34.6211
1393.6	90.7871
1397.81	90.9287
1402.02	144.243
1406.23	3.77246
1410.44	21.0918
1414.64	48.6035
1418.85	128.602
1423.04	1.36621
1427.24	10.5635
1431.43	30.7148
1435.62	14.2021
1439.81	21.917
1444	35.4853
1448.18	14.2207
1452.36	68.1543
1456.54	217.291
1460.71	4.34668
1464.89	157.637
1469.06	215.424
1473.22	20.6631
1477.39	80.1875
1481.55	74.4697
1485.71	138.976
1489.86	175.653
1494.02	110.63
1498.17	166.651
1502.32	175.259
1506.46	157.982
1510.61	159.253
1514.75	170.2
1518.88	138.048
1523.02	117.291
1527.15	191.177
1531.28	185.858
1535.41	176.36
1539.53	107.736
1543.66	184.044
1547.78	10.5185
1551.89	47.5977
1556.01	422.604
1560.12	88.3506
1564.23	31.5303
1568.33	168.82
1572.43	0
