Measurement: Raman, 514 nm, ccw, Raman Data Processed
Mineral: Diopside
Rruff sample: R050496
Ideal chemistry: CaMgSi_2_O_6_
Locality: New City Quarry, Riverside, Riverside County, Calfornia, USA
Source: California Institute of Technology
Description: Aggregate of light green irregular grains
Measured chemistry: Ca(Mg_0.66_Fe_0.33_Mn_0.01_)(Si_0.95_Al_0.05_)_2_O_6_
Pin_id: M01827
Orientation: Laser parallel to a* (1 0 0). Fiducial mark perpendicular to laser is parallel to -b [0 -1 0]
Raman shift (cm-1)	intensity
108.114	0
113.052	113.858
117.987	786.017
122.919	723.982
127.849	1609.75
132.777	4258.24
137.702	8847.15
142.624	6142.69
147.544	2137.92
152.461	665.115
157.375	278.337
162.287	4.59375
167.197	262.269
172.104	347.656
177.008	651.166
181.91	722.266
186.809	703.677
191.706	864.237
196.6	838.665
201.491	882.564
206.38	411.858
211.267	332.123
216.151	200.953
221.032	259.255
225.911	451.84
230.787	814.43
235.66	652.967
240.531	383.446
245.4	263.854
250.266	235.183
255.129	71.0666
259.99	27.2937
264.848	86.7058
269.703	40.8411
274.556	68.2197
279.407	24.5344
284.255	78.865
289.1	13.6709
293.942	175.575
298.783	404.756
303.62	900.882
308.455	1689.25
313.288	3119.63
318.117	5382.85
322.945	6381.1
327.769	5203.3
332.591	3413.15
337.411	2291.38
342.228	1757.65
347.042	1510.92
351.854	1398.1
356.663	1380.2
361.47	1273.21
366.274	1288.12
371.075	1445.91
375.874	1860.58
380.67	2772.11
385.464	4100.52
390.255	3952.8
395.043	2345.94
399.829	1127.94
404.613	478.807
409.393	249.338
414.172	286.648
418.947	171.751
423.72	156.36
428.49	108.408
433.258	69.8191
438.024	9.06299
442.786	100.07
447.546	29.1706
452.304	89.2368
457.059	169.521
461.811	179.719
466.56	196.712
471.308	157.09
476.052	215.177
480.794	174.429
485.533	334.008
490.27	345.392
495.004	439.569
499.736	838.535
504.465	1282.29
509.191	1435.82
513.915	1407.13
518.636	1209.14
523.354	1464.12
528.07	1620.21
532.784	1598.35
537.494	1546.84
542.203	1441.02
546.908	1396.51
551.611	1309.29
556.311	1304.22
561.009	1356.38
565.704	1197.91
570.397	1257.46
575.087	1075.88
579.774	694.437
584.459	296.412
589.141	149.43
593.821	19.8403
598.498	47.1475
603.172	47.4524
607.844	10.959
612.513	19.9248
617.18	155.597
621.844	222.598
626.505	453.663
631.164	560.346
635.82	924.649
640.473	1300.67
645.124	1948.41
649.773	3092.88
654.418	5482.73
659.062	10829.7
663.702	18244.6
668.34	16480.2
672.975	9017.45
677.608	4622.31
682.238	2594.91
686.866	1618.25
691.49	1063.34
696.113	700.659
700.732	600.766
705.349	446.092
709.964	306.158
714.576	169.965
719.185	94.5239
723.792	20.8323
728.396	8.82129
732.997	46.1404
737.596	1.75171
742.192	17.6811
746.785	14.2202
751.376	29.3555
755.965	11.6272
760.551	47.001
765.134	74.8166
769.714	58.5081
774.292	109.099
778.867	97.6033
783.44	55.031
788.01	34.3935
792.578	10.6953
797.142	3.06519
801.705	19.9072
806.264	13.8611
810.821	85.113
815.376	284.085
819.927	359.076
824.476	330.094
829.023	219.151
833.567	114.256
838.108	113.422
842.647	238.658
847.183	369.976
851.716	940.387
856.247	1436.8
860.776	1105.45
865.301	625.551
869.824	376.893
874.345	297.825
878.862	195.919
883.377	84.8628
887.89	155.889
892.4	146.825
896.907	106.956
901.412	94.2024
905.914	148.087
910.413	116.378
914.91	216.021
919.404	243.007
923.896	267.331
928.385	382.372
932.871	301.371
937.355	304.259
941.836	280.079
946.315	255.53
950.79	266.12
955.264	317.034
959.734	406.264
964.202	464.801
968.668	407.647
973.131	464.821
977.591	425.385
982.048	560.265
986.503	626.454
990.955	803.28
995.405	1312.78
999.852	2276.98
1004.3	4377.58
1008.74	8488.6
1013.18	11205
1017.61	6499.89
1022.05	3146.4
1026.48	2050.53
1030.91	1653.54
1035.33	1670.56
1039.76	1743.01
1044.18	1571.55
1048.6	1247.37
1053.01	994.942
1057.42	773.361
1061.84	617.501
1066.24	495.679
1070.65	514.068
1075.05	482.819
1079.45	411.149
1083.85	432.322
1088.24	417.498
1092.63	383.443
1097.02	301.686
1101.41	325.442
1105.8	334.512
1110.18	265.018
1114.56	250.119
1118.93	235.048
1123.31	282.571
1127.68	205.67
1132.04	193.721
1136.41	86.2009
1140.77	110.313
1145.13	39.4551
1149.49	32.3779
1153.85	44.8247
1158.2	55.7336
1162.55	5.34351
1166.9	3.02954
1171.24	71.5169
1175.58	26.0605
1179.92	4.44531
1184.26	2.54761
1188.6	19.5273
1192.93	17.0059
1197.26	8.19922
1201.58	23.0286
1205.9	46.5247
1210.23	40.7688
1214.55	80.8513
1218.86	72.7483
1223.17	89.6436
1227.48	65.2136
1231.79	4.62378
1236.1	75.7844
1240.4	45.6606
1244.7	151.356
1249	79.8818
1253.29	55.2353
1257.59	69.4197
1261.88	80.4163
1266.16	64.238
1270.45	135.88
1274.73	79.3386
1279.01	116.618
1283.28	108.313
1287.56	99.9734
1291.83	67.7856
1296.1	115.609
1300.36	100.922
1304.63	117.517
1308.89	94.6301
1313.15	177.429
1317.4	144.677
1321.65	109.24
1325.9	65.3294
1330.15	57.9197
1334.4	137.297
1338.64	83.2532
1342.88	130.874
1347.12	4.80542
1351.35	76.8169
1355.58	105.664
1359.81	122.953
1364.04	121.871
1368.26	124.789
1372.48	119.302
1376.7	149.872
1380.92	109.204
1385.13	175.436
1389.34	79.8875
1393.55	145.139
1397.76	185.385
1401.96	81.3709
1406.16	99.6426
1410.36	14.7849
1414.55	5.03027
1418.75	41.8816
1422.94	84.4805
1427.12	52.4109
1431.31	22.0649
1435.49	34.5898
1439.67	41.8933
1443.85	31.4477
1448.02	12.3774
1452.19	54.7068
1456.36	47.7725
1460.53	38.6401
1464.69	56.3516
1468.85	44.2336
1473.01	114.205
1477.17	34.3276
1481.32	3.48071
1485.47	40.6699
1489.62	11.9341
1493.76	102.287
1497.91	19.5701
1502.05	52.1489
1506.18	72.259
1510.32	2.07568
1514.45	38.4199
1518.58	8.19165
1522.71	19.094
1526.83	47.1201
1530.95	83.833
1535.07	67.8311
1539.19	133.844
1543.3	1.85156
1547.41	63.7441
1551.52	125.932
1555.63	227.328
1559.73	81.6912
1563.83	47.9119
1567.93	11.9558
1572.03	40.3325
1576.12	33.2097
