Measurement: Raman, 514 nm, depolarized, Raman Data Processed
Mineral: Diopside
Rruff sample: R040097
Ideal chemistry: CaMgSi_2_O_6_
Locality: Fassathal, Tyrol
Source: University of Arizona Mineral Museum
Description: Green prismatic crystals
Measured chemistry: Ca_1.00_(Mg_0.83_Al_0.10_Fe_0.09_Ca_0.02_Ti_0.02_)(Si_0.88_Al_0.12_)_2_O_6_
Pin_id: L00421
Orientation: Laser parallel to [1 0 1]. Fiducial mark perpendicular to laser is parallel to -b* (0 -1 0)
Raman shift (cm-1)	intensity
278.113	0
280.852	4.529
283.591	185.219
286.328	234.705
289.065	28.58
291.801	93.312
294.535	259.053
297.269	137.75
300.002	308.871
302.734	451.961
305.465	476.641
308.195	642.676
310.924	849.824
313.652	1487.9
316.379	2186.85
319.105	3087.02
321.83	3147.8
324.555	2799.07
327.278	2060.74
330.001	1452.84
332.722	985.426
335.443	648.627
338.163	782.008
340.882	405.453
343.599	388.939
346.316	439.754
349.032	616.482
351.747	932.186
354.462	985.809
357.175	658.203
359.887	913.744
362.598	859.193
365.309	895.129
368.018	830.287
370.727	545.463
373.435	480.904
376.141	636.221
378.847	1241.7
381.552	1990.12
384.256	2826.38
386.959	3585.09
389.661	4057.74
392.363	3132.25
395.063	1756.71
397.762	1081.13
400.461	585.502
403.158	479.832
405.855	144.123
408.55	458.377
411.245	62.861
413.939	77.559
416.632	302.48
419.324	26.516
422.015	39.486
424.705	64.488
427.395	188.811
430.083	274.107
432.77	233.27
435.457	90.717
438.143	4.568
440.827	199.643
443.511	33.318
446.194	11.176
448.876	211.693
451.557	146.227
454.237	81.531
456.916	290.064
459.595	244.977
462.272	123.59
464.949	50.619
467.624	67.631
470.299	112.148
472.973	74.729
475.646	58.693
478.317	433.062
480.989	297.084
483.659	38.859
486.328	155.16
488.996	209.166
491.664	166.799
494.33	167.094
496.996	140.998
499.661	75.135
502.324	588.648
504.987	272.385
507.649	336.066
510.31	609.701
512.971	243.404
515.63	407.057
518.288	660.609
520.946	574.119
523.603	257.645
526.258	421.289
528.913	544.861
531.567	288.369
534.22	531.854
536.872	425.244
539.523	208.668
542.174	141.879
544.823	164.996
547.472	88.285
550.119	571.168
552.766	274.072
555.412	367.264
558.057	669.936
560.701	222.465
563.344	347.172
565.986	360.711
568.628	253.234
571.268	245.941
573.908	142.045
576.547	445.52
579.185	447.887
581.822	162.051
584.458	185.205
587.093	137.154
589.727	299.107
592.36	247.527
594.993	110.68
597.625	80.594
600.255	131.896
602.885	313.281
605.514	233.637
608.142	6.102
610.769	23.844
613.396	26.35
616.021	53.428
618.646	149.117
621.269	164.807
623.892	123.967
626.514	93.615
629.135	95.492
631.755	244.295
634.374	216.525
636.993	281.295
639.61	358.426
642.227	294.664
644.842	1003.76
647.457	602.508
650.071	721.166
652.684	1047.82
655.297	1747.14
657.908	2660.3
660.518	3817.8
663.128	4495.28
665.737	4533.12
668.344	3886.85
670.951	2823.88
673.557	2001.13
676.163	1124.56
678.767	1061.46
681.37	1200.8
683.973	987.555
686.575	654.744
689.176	321.555
691.776	431.066
694.375	457.137
696.973	652.795
699.57	379.34
702.167	274.754
704.762	349.701
707.357	594.326
709.951	219.414
712.544	324.369
715.136	389.49
717.727	53.357
720.318	430.32
722.907	665.273
725.496	399.932
728.084	14.211
730.671	78.002
733.257	481.5
735.842	409.539
738.426	805.408
741.01	184.625
743.593	247.371
746.174	136.824
748.755	678.633
751.335	291.172
753.915	143.156
756.493	84.539
759.07	266.914
761.647	233.992
764.223	246.045
766.798	562.213
769.372	613.682
771.945	253.816
774.517	504.52
777.088	295.693
779.659	166.439
782.229	7.17
784.798	149.643
787.366	430.637
789.933	28.639
792.499	148.121
795.065	222.334
797.629	402.697
800.193	143.059
802.756	163.307
805.318	13.451
807.879	103.502
810.439	543.439
812.999	593.309
815.558	263.633
818.115	313.855
820.672	583.496
823.228	552.875
825.784	192.035
828.338	88.906
830.891	290.094
833.444	458.934
835.996	457.422
838.547	236.297
841.097	224.422
843.646	402.461
846.195	550.453
848.742	428.344
851.289	6.062
853.835	813.812
856.38	811.227
858.924	478.852
861.468	226.426
864.01	253.34
866.552	300.77
869.093	308.215
871.633	783.348
874.172	110.383
876.71	336.391
879.248	203.285
881.784	185.898
884.32	171.484
886.855	138.293
889.389	135.168
891.923	548.383
894.455	333.621
896.987	379.973
899.517	285.859
902.047	392.438
904.576	388.355
907.105	423.66
909.632	319.434
912.159	695.906
914.684	552.988
917.209	569.469
919.733	656.734
922.257	263.426
924.779	979.746
927.301	905.312
929.821	350.664
932.341	206.676
934.86	411.355
937.379	837.297
939.896	833.316
942.413	593.059
944.928	591.66
947.443	468.695
949.957	655.5
952.471	250.328
954.983	557.32
957.495	572.418
960.005	569.199
962.515	565.75
965.025	102.371
967.533	688.953
970.04	1335.81
972.547	301.605
975.053	302.602
977.558	879.059
980.062	1045.68
982.565	852.82
985.068	441.02
987.569	45.605
990.07	1122.33
992.57	1375.03
995.07	1212.18
997.568	1316.62
1000.07	2205.99
1002.56	3402.34
1005.06	5149.42
1007.55	7237.56
1010.05	8616.2
1012.54	6708.23
1015.03	4104.93
1017.53	2563.41
1020.02	1452.96
1022.51	1212.83
1025	1185.94
1027.48	1105.12
1029.97	613.391
1032.46	901.855
1034.94	1249.73
1037.43	1458.01
1039.91	1298.46
1042.4	1339.16
1044.88	1097.68
1047.36	1485.21
1049.85	993.375
1052.33	719.898
1054.81	836.156
1057.28	423.672
1059.76	740.348
1062.24	126.461
1064.71	572.328
1067.19	858.512
1069.66	654.145
1072.14	389.668
1074.61	605.406
1077.09	610.895
1079.56	627.441
1082.03	384.074
1084.5	799.266
1086.97	424.383
1089.43	189.875
1091.9	75.266
1094.37	109.453
1096.83	504.484
1099.3	900.375
1101.76	74.758
1104.23	319.562
1106.69	193.375
1109.15	638.168
1111.61	42.809
1114.07	295.992
1116.53	669.195
1118.99	321.609
1121.45	25.348
1123.9	208.367
