Measurement: Raman, 514 nm, depolarized, Raman Data Processed
Mineral: Diopside
Rruff sample: R040097
Ideal chemistry: CaMgSi_2_O_6_
Locality: Fassathal, Tyrol
Source: University of Arizona Mineral Museum
Description: Green prismatic crystals
Measured chemistry: Ca_1.00_(Mg_0.83_Al_0.10_Fe_0.09_Ca_0.02_Ti_0.02_)(Si_0.88_Al_0.12_)_2_O_6_
Pin_id: M00314
Orientation: Laser parallel to c [0 0 1]. Fiducial mark perpendicular to laser is parallel to b* (0 1 0)
Raman shift (cm-1)	intensity
102.428	0
106.604	22.366
110.777	144.924
114.949	310.96
119.119	226.643
123.286	67.302
127.452	0.904
131.615	81.859
135.777	177.803
139.937	354.845
144.094	276.176
148.25	97.867
152.403	24.477
156.555	77.58
160.705	136.208
164.853	201.054
168.998	247.367
173.142	159.668
177.284	9.411
181.424	358.168
185.562	562.529
189.698	391.13
193.831	644.558
197.963	569.961
202.093	155.558
206.221	86.573
210.347	105.922
214.472	20.492
218.594	296.22
222.714	652.064
226.832	1327.98
230.948	1193.94
235.063	499.856
239.175	115.402
243.286	180.7
247.394	255.956
251.501	581.21
255.605	966.441
259.708	711.648
263.808	206.89
267.907	74.581
272.004	42.764
276.099	210.123
280.192	178.01
284.283	43.632
288.372	215.332
292.459	456.938
296.544	796.982
300.627	1448.1
304.709	1978.97
308.788	2549.58
312.865	3909.96
316.941	5459.81
321.015	7588.9
325.086	9347.91
329.156	8276.49
333.224	6175.11
337.29	4313.6
341.354	3220.94
345.416	2749.03
349.476	2647.23
353.534	3014.71
357.591	3101.04
361.645	2477.09
365.698	2112.38
369.748	1908.74
373.797	1900.5
377.844	2552.35
381.889	3977.95
385.932	6503.94
389.973	10309.9
394.012	11435.8
398.049	7531.72
402.084	3757.19
406.118	1702.17
410.15	1067.77
414.179	733.947
418.207	610.45
422.233	327.619
426.257	326.513
430.279	389.854
434.299	392.706
438.318	292.682
442.334	289.397
446.349	289.67
450.361	399.016
454.372	349.953
458.381	408.676
462.388	726.689
466.394	713.414
470.397	629.442
474.398	405.272
478.398	440.904
482.396	296.341
486.391	351.577
490.385	316.619
494.377	351.458
498.368	446.093
502.356	630.524
506.342	364.753
510.327	698.766
514.31	862.563
518.291	936.155
522.27	899.545
526.247	972.731
530.222	1325.8
534.196	1548.73
538.167	1151.48
542.137	964.033
546.105	736.356
550.071	888.527
554.035	1260.91
557.998	1723.65
561.958	1190.67
565.917	711.034
569.874	672.449
573.829	565.585
577.782	442.168
581.733	130.141
585.683	169.449
589.63	209.177
593.576	191.626
597.52	95.24
601.462	140.067
605.402	58.935
609.341	169.491
613.277	225.682
617.212	111.345
621.145	326.546
625.076	421.252
629.006	695.267
632.933	828.907
636.859	992.176
640.783	1345.01
644.705	2177.34
648.625	2899.49
652.543	3961.28
656.46	6362.7
660.375	10963.6
664.288	18214.3
668.199	19304.6
672.108	12214.6
676.016	6844.17
679.921	4043.41
683.825	2702.29
687.727	1920.82
691.628	1028.99
695.526	876.813
699.423	664.291
703.318	651.429
707.211	478.229
711.102	254.688
714.992	19.206
718.879	6.437
722.765	1.604
726.649	6.575
730.532	149.958
734.412	177.116
738.291	106.415
742.168	33
746.043	76.034
749.916	73.052
753.788	86.972
757.658	9.168
761.526	3.842
765.392	212.449
769.257	66.186
773.119	21.12
776.98	37.988
780.839	145.047
784.697	242.147
788.552	179.09
792.406	315.881
796.258	92.532
800.108	329.05
803.957	535.443
807.804	591.717
811.649	377.88
815.492	343.943
819.333	639.91
823.173	875.789
827.011	1121.59
830.847	987.32
834.681	652.994
838.514	358.621
842.345	384.326
846.174	480.07
850.001	765.992
853.827	1042.1
857.651	1098.26
861.473	984.422
865.293	989.98
869.112	861.441
872.928	924.25
876.744	571.844
880.557	308.822
884.369	393.809
888.178	453.42
891.987	467.641
895.793	403.51
899.598	121.211
903.401	160.729
907.202	214.289
911.001	150.832
914.799	338.92
918.595	405.447
922.389	304.922
926.182	294.828
929.972	225.244
933.761	546.174
937.549	697.301
941.334	868.631
945.118	870.156
948.9	561.9
952.681	593.832
956.459	1085.96
960.236	1488.36
964.012	1870.93
967.785	1983.72
971.557	1916.71
975.327	1969.9
979.095	2123.31
982.862	2777.22
986.627	3432.28
990.39	4425.9
994.152	5951.46
997.912	9059.43
1001.67	14405.5
1005.43	23046.2
1009.18	32873.9
1012.93	30278.3
1016.68	16420
1020.43	8017.33
1024.18	5206.65
1027.93	4344.56
1031.67	3875.76
1035.42	3480.41
1039.16	3648.35
1042.9	4160.9
1046.63	4111.47
1050.37	3262.19
1054.11	2442.65
1057.84	1783.69
1061.57	1674.3
1065.3	1396.32
1069.03	1057.56
1072.75	689.449
1076.47	560.664
1080.2	531.209
1083.92	631.592
1087.64	802.355
1091.36	722.598
1095.07	493.686
1098.79	334.641
1102.5	343.568
1106.21	93.857
1109.92	477.527
1113.62	728.434
1117.33	737.725
1121.04	377.25
1124.74	417.273
1128.44	117.5
1132.14	26.471
1135.83	225.453
1139.53	474.828
1143.22	552.877
1146.92	403.84
1150.61	15.357
1154.3	26.422
1157.98	119.146
1161.67	91.016
1165.35	243.871
1169.04	318.475
1172.72	382.373
1176.4	274.479
1180.07	150.025
1183.75	98.705
1187.42	195.42
1191.1	448.293
1194.77	387.648
1198.44	725.186
1202.1	673.34
1205.77	672.887
1209.43	201.502
1213.1	265.307
1216.76	320.426
1220.42	483.094
1224.07	594.715
1227.73	845.807
1231.38	865.002
1235.04	713.928
1238.69	552.613
1242.34	171.98
1245.99	588.688
1249.63	434.688
1253.28	320.145
1256.92	894.979
1260.56	799.018
1264.2	552.627
1267.84	725.145
1271.48	216.885
1275.11	217.111
1278.74	266.814
1282.38	575.666
1286.01	502.836
1289.63	578.531
1293.26	1049.43
1296.89	590.441
1300.51	490.57
1304.13	113.869
1307.75	208.51
1311.37	31.414
1314.99	33.861
1318.6	78.918
1322.22	326.307
1325.83	507.318
1329.44	648.904
1333.05	271.703
1336.66	341.268
1340.26	331.129
1343.87	80.717
1347.47	39.689
1351.07	147.527
1354.67	403.748
1358.27	549.348
1361.86	645.023
1365.46	439.861
1369.05	664.375
1372.64	520.91
1376.23	335.471
1379.82	238.184
1383.41	99.5
1386.99	533.186
1390.57	526.527
1394.16	814.578
1397.74	1005.18
1401.32	799.312
1404.89	827.812
1408.47	541.885
1412.04	356.053
1415.61	520.021
1419.18	218.588
1422.75	275.965
1426.32	393.643
1429.89	506.191
1433.45	402.951
1437.01	748.057
1440.58	804.334
1444.13	394.508
1447.69	695.635
1451.25	266.34
1454.81	273.367
1458.36	173.777
1461.91	101.404
1465.46	626.461
1469.01	567.875
1472.56	1248.84
1476.1	880.193
1479.64	1174.7
1483.19	955.344
1486.73	728.973
1490.27	632.059
1493.81	548.271
1497.34	236.883
1500.88	180.576
1504.41	259.658
1507.94	342.201
1511.47	527.072
1515	850.645
1518.53	824.379
1522.05	829.871
