Measurement: Raman, 514 nm, depolarized, Raman Data Processed
Mineral: Diopside
Rruff sample: R050406
Ideal chemistry: CaMgSi_2_O_6_
Locality: unknown
Source: University of Arizona Mineral Museum
Description: Brownish gray massive
Measured chemistry: (Ca_0.95_Na_0.05_)(Mg_0.75_Fe^2+^_0.18_Fe^3+^_0.05_Al_0.01_Ti_0.01_Mn^2+^_0.01_)(Si_0.98_Al_0.02_)_2_O_6_
Pin_id: M00191
Orientation: Laser parallel to -b* (0 -1 0). Fiducial mark perpendicular to laser is parallel to c [0 0 1]
Raman shift (cm-1)	intensity
116.903	0
121.827	398.513
126.749	3175.98
131.668	6956.44
136.585	6712.6
141.5	5484.29
146.412	2141.57
151.321	709.961
156.229	44.5923
161.134	68.8115
166.036	413.331
170.936	818.899
175.834	751.253
180.729	791.91
185.622	691.529
190.512	663.088
195.4	839.86
200.286	731.643
205.169	21.4331
210.049	56.5767
214.928	4.70606
219.803	396.072
224.677	852.162
229.548	794.594
234.416	757.352
239.282	707.682
244.146	843.706
249.007	989.262
253.866	828.332
258.722	1107.83
263.576	249.621
268.427	47.3066
273.276	23.7354
278.123	161.641
282.967	230.161
287.809	610.083
292.648	833.043
297.485	1637.22
302.319	2750.81
307.151	4659.47
311.98	8021.11
316.807	11117.9
321.631	11497.2
326.454	9646.99
331.273	6932.11
336.09	5224.57
340.905	4820.24
345.717	5542.02
350.527	6285.68
355.334	6294.52
360.139	5765.84
364.941	4647.59
369.741	4350.66
374.538	5595.98
379.333	8771.56
384.126	10679.4
388.916	9628.49
393.703	6519.86
398.488	3251.5
403.271	1528.38
408.051	723.49
412.828	466.843
417.603	288.487
422.376	66.6221
427.146	70.7217
431.914	29.9434
436.679	144.762
441.442	83.9668
446.202	92.541
450.96	135.432
455.715	281.852
460.467	226.299
465.218	258.522
469.965	86.1348
474.711	117.172
479.454	98.7969
484.194	214.675
488.932	392.665
493.667	1110.75
498.4	2491.49
503.13	2731.79
507.858	2602.28
512.583	1735.84
517.306	1158.47
522.026	1304.13
526.744	1467.97
531.459	1505.83
536.172	1550.71
540.882	1410.5
545.59	1504.17
550.295	1739.71
554.998	1661.1
559.698	1545.42
564.396	1164.64
569.091	1122.67
573.784	795.316
578.474	502.606
583.162	213.304
587.847	29.9268
592.529	139.416
597.209	1081.29
601.887	0.22168
606.562	90.4512
611.235	308.957
615.905	579.116
620.572	844.243
625.237	1189.6
629.9	1832.07
634.56	2349.42
639.217	3526.42
643.872	5413.15
648.524	9377.39
653.174	18843
657.821	36932.6
662.466	47121.8
667.108	40604
671.748	25911.9
676.385	12157.7
681.02	6251.51
685.652	3796.66
690.281	2464.17
694.908	1640.04
699.533	1177.28
704.155	907.89
708.774	689.865
713.391	489.277
718.005	306.258
722.617	164.843
727.226	8.05664
731.833	9.14746
736.437	144.754
741.039	29.957
745.638	24.8008
750.234	65.5137
754.828	54.9688
759.419	59.7285
764.008	133.428
768.595	3.60352
773.178	18.9844
777.759	169.704
782.338	79.79
786.914	65.4277
791.488	50.501
796.059	29.9258
800.627	115.862
805.193	16.4658
809.756	108.588
814.317	44.918
818.875	219.231
823.431	247.38
827.984	298.394
832.534	359.301
837.082	441.129
841.627	879.906
846.17	2141.66
850.71	3975.41
855.248	4267.11
859.783	3348.29
864.316	2237.3
868.846	1865.1
873.373	1555.58
877.898	1470.98
882.42	1376.78
886.94	1423.26
891.457	1102.27
895.971	1125.35
900.483	1201.45
904.993	919.095
909.5	782.919
914.004	797.254
918.505	740.271
923.004	667.871
927.501	673.3
931.995	674.941
936.486	565.812
940.975	512.517
945.461	585.909
949.945	689.145
954.426	1013.48
958.904	1131.61
963.38	1340.49
967.853	1683.27
972.324	1718.95
976.792	1969.38
981.258	2443.56
985.72	3339.51
990.181	4708.22
994.639	7534.4
999.094	13285
1003.55	26507.3
1008	46328.8
1012.44	46395.8
1016.89	29399.8
1021.33	14286.1
1025.77	8333.74
1030.21	6327.84
1034.64	5662.52
1039.07	6141.09
1043.5	6051.3
1047.93	4913.74
1052.35	3524.48
1056.78	2631.59
1061.19	2008.53
1065.61	1656.99
1070.02	1477.23
1074.43	1254.66
1078.84	1120.74
1083.25	1198.55
1087.65	1043.4
1092.05	1026.92
1096.45	923.247
1100.85	933.307
1105.24	857.775
1109.63	823.412
1114.02	753.277
1118.4	1154.72
1122.78	1089.11
1127.16	1150.47
1131.54	724.282
1135.92	698.107
1140.29	627.787
1144.66	454.508
1149.02	175.243
1153.39	124.072
1157.75	114.741
1162.11	154.751
1166.46	57.7158
1170.82	29.3564
1175.17	31.709
1179.52	137.428
1183.86	25.1611
1188.21	81.2549
1192.55	63.9658
1196.89	51.6055
1201.22	32.4873
1205.55	142.144
1209.88	49.7988
1214.21	36.1494
1218.54	50.6973
1222.86	139.1
1227.18	26.918
1231.5	77.2607
1235.81	141.87
1240.12	245.081
1244.43	89.8965
1248.74	111.341
1253.04	266.324
1257.34	186.81
1261.64	149.139
1265.94	327.768
1270.23	416.967
1274.52	238.776
1278.81	254.16
1283.1	323.108
1287.38	347.623
1291.66	141.627
1295.94	398.512
1300.21	210.548
1304.48	180.22
1308.75	315.5
1313.02	405.894
1317.29	487.617
1321.55	382.547
1325.81	408.94
1330.06	331.603
1334.32	276.827
1338.57	296.627
1342.82	385.018
1347.06	283.285
1351.31	350.202
1355.55	451.932
1359.79	238.637
1364.02	318.828
1368.26	185.493
1372.49	33.584
1376.71	418.818
1380.94	94.5918
1385.16	198.73
1389.38	99.4766
1393.6	229.263
1397.81	166.358
1402.02	136.383
1406.23	120.197
1410.44	79.8906
1414.64	133.715
1418.85	57.3389
1423.04	149.46
1427.24	157.686
1431.43	55.8301
1435.62	92.0938
1439.81	131.636
1444	291.437
1448.18	350.597
1452.36	149.514
1456.54	160.851
1460.71	90.0391
1464.89	90.5488
1469.06	43.6943
1473.22	42.0283
1477.39	67.4316
1481.55	106.885
1485.71	57.7578
1489.86	72.7471
1494.02	148.022
1498.17	102.633
1502.32	38.6035
1506.46	17.6113
1510.61	46.8398
1514.75	70.7725
1518.88	0.708984
1523.02	54.332
1527.15	106.72
1531.28	140.579
1535.41	230.518
1539.53	214.547
1543.66	238.007
1547.78	45.084
1551.89	517.101
1556.01	492.156
1560.12	174.983
1564.23	290.229
1568.33	324.321
1572.43	0
