Measurement: Raman, 514 nm, depolarized, Raman Data Processed
Mineral: Diopside
Rruff sample: R050406
Ideal chemistry: CaMgSi_2_O_6_
Locality: unknown
Source: University of Arizona Mineral Museum
Description: Brownish gray massive
Measured chemistry: (Ca_0.95_Na_0.05_)(Mg_0.75_Fe^2+^_0.18_Fe^3+^_0.05_Al_0.01_Ti_0.01_Mn^2+^_0.01_)(Si_0.98_Al_0.02_)_2_O_6_
Pin_id: M00086
Orientation: Laser parallel to c* (0 0 1). Fiducial mark perpendicular to laser is parallel to a [1 0 0]
Raman shift (cm-1)	intensity
151.321	0
156.229	701.527
161.134	394.414
166.036	524.676
170.936	594.689
175.834	453.168
180.729	776.299
185.622	520.635
190.512	687.084
195.4	880.896
200.286	632.66
205.169	431.568
210.049	420.109
214.928	356.871
219.803	404.537
224.677	593.494
229.548	610.406
234.416	701.072
239.282	565.717
244.146	582.633
249.007	507.873
253.866	839.465
258.722	918.518
263.576	478.877
268.427	333.481
273.276	500.277
278.123	362.234
282.967	248.309
287.809	506.615
292.648	611.662
297.485	916.008
302.319	1202.2
307.151	1290.33
311.98	1889.13
316.807	2759.8
321.631	3697.62
326.454	4175.52
331.273	3121.66
336.09	2207.21
340.905	1578.87
345.717	1623.62
350.527	1900.22
355.334	2448.67
360.139	2237.03
364.941	1458.06
369.741	1431.74
374.538	1143.06
379.333	2006.02
384.126	3580.59
388.916	5221.77
393.703	4806.51
398.488	2549.82
403.271	1218.66
408.051	704.016
412.828	150.856
417.603	160.158
422.376	61.9043
427.146	97.0644
431.914	74.4356
436.679	41.7598
441.442	90.3379
446.202	17.543
450.96	87.1074
455.715	84.6875
460.467	96.3398
465.218	457.014
469.965	338.549
474.711	218.897
479.454	136.328
484.194	91.5938
488.932	78.7949
493.667	48.248
498.4	152.924
503.13	23.8281
507.858	210.981
512.583	163.318
517.306	419.977
522.026	306.826
526.744	665.834
531.459	702.115
536.172	637.596
540.882	562.422
545.59	472.445
550.295	587.307
554.998	1121.67
559.698	1357.23
564.396	787.93
569.091	275.715
573.784	295.269
578.474	286.934
583.162	210.387
587.847	17.9082
592.529	37.9512
597.209	155.041
601.887	247.789
606.562	81.0195
611.235	218.275
615.905	40.3457
620.572	62.6523
625.237	163.084
629.9	130.533
634.56	293.412
639.217	829.797
643.872	786.004
648.524	1088.04
653.174	2083.06
657.821	3959.48
662.466	7377.21
667.108	10709
671.748	7880.59
676.385	4060.86
681.02	1885.02
685.652	1284.12
690.281	787.125
694.908	686.508
699.533	484.754
704.155	458.394
708.774	609.574
713.391	231.598
718.005	167.57
722.617	221.641
727.226	142.164
731.833	320.969
736.437	72.5039
741.039	283.227
745.638	250.438
750.234	84.3164
754.828	166.562
759.419	297.703
764.008	238.348
768.595	213.254
773.178	157.519
777.759	120.172
782.338	262.051
786.914	77.2109
791.488	116.242
796.059	208.262
800.627	61.1992
805.193	367.394
809.756	104.758
814.317	214.957
818.875	189.391
823.431	74.2227
827.984	378.461
832.534	178.191
837.082	337.504
841.627	65.4492
846.17	98.9062
850.71	553.344
855.248	779.453
859.783	748.641
864.316	368.902
868.846	344.836
873.373	495.922
877.898	611.984
882.42	403.023
886.94	411.148
891.457	710.164
895.971	725.269
900.483	721.559
904.993	615.367
909.5	469.273
914.004	280.613
918.505	294.488
923.004	182.981
927.501	311.473
931.995	100.84
936.486	89.293
940.975	44.0586
945.461	341.375
949.945	11.7266
954.426	71.4531
958.904	259.93
963.38	407.875
967.853	794.668
972.324	799.301
976.792	951.922
981.258	1340.03
985.72	1780.89
990.181	1374.5
994.639	1886.37
999.094	3000.6
1003.55	5147.16
1008	10069
1012.44	17079.4
1016.89	14442.2
1021.33	6785.55
1025.77	3081
1030.21	2366.45
1034.64	1906.02
1039.07	2033.32
1043.5	2301.16
1047.93	2203.56
1052.35	1496.46
1056.78	1167.61
1061.19	698.277
1065.61	541.445
1070.02	551.91
1074.43	367.797
1078.84	265.098
1083.25	246.18
1087.65	100.523
1092.05	602.191
1096.45	96.582
1100.85	271.383
1105.24	356.906
1109.63	412.656
1114.02	345.715
1118.4	338.336
1122.78	435.852
1127.16	743.805
1131.54	505.598
1135.92	403.824
1140.29	300.227
1144.66	178.641
1149.02	326.461
1153.39	55.3867
1157.75	2.78516
1162.11	16.1172
1166.46	86.8203
1170.82	403.113
1175.17	120.812
1179.52	137.508
1183.86	343.918
1188.21	175.488
1192.55	804.133
1196.89	583.785
1201.22	337.449
1205.55	258.113
1209.88	307.766
1214.21	407.41
1218.54	525.039
1222.86	314.633
1227.18	326.184
1231.5	133.594
1235.81	462.824
1240.12	344.988
1244.43	484.074
1248.74	491.074
1253.04	448.742
1257.34	337.008
1261.64	337.602
1265.94	289.242
1270.23	1.21094
1274.52	549.816
1278.81	496.016
1283.1	478.824
1287.38	604.824
1291.66	157.887
1295.94	485.566
1300.21	102.734
1304.48	125.34
1308.75	544.356
1313.02	12.7422
1317.29	299.773
1321.55	590.856
1325.81	312.906
1330.06	355.352
1334.32	394.578
1338.57	407.074
1342.82	651.348
1347.06	443.578
1351.31	559.766
1355.55	374.863
1359.79	579.91
1364.02	289.773
1368.26	273.551
1372.49	657.125
1376.71	386.25
1380.94	343.606
1385.16	163.93
1389.38	88.2344
1393.6	112.285
1397.81	244.965
1402.02	125.199
1406.23	288.598
1410.44	501.156
1414.64	60.0039
1418.85	150.008
1423.04	9.25
1427.24	131.887
1431.43	347.383
1435.62	356.938
1439.81	597.289
1444	266.965
1448.18	294.535
1452.36	442.453
1456.54	125.598
1460.71	476.773
1464.89	381.988
1469.06	494.457
1473.22	531.094
1477.39	183.891
1481.55	716.719
1485.71	357.5
1489.86	651.652
1494.02	737.684
1498.17	398.231
1502.32	515.945
1506.46	516.488
1510.61	546.168
1514.75	263.856
1518.88	350.988
1523.02	366.617
1527.15	457.949
1531.28	562.91
1535.41	412.121
1539.53	395.848
1543.66	270.297
1547.78	396.559
1551.89	391.59
1556.01	306.164
1560.12	187.949
1564.23	85.2656
1568.33	11.3789
1572.43	0
