Measurement: Raman, 514 nm, ccw, Raman Data Processed
Mineral: Diopside
Rruff sample: R050496
Ideal chemistry: CaMgSi_2_O_6_
Locality: New City Quarry, Riverside, Riverside County, Calfornia, USA
Source: California Institute of Technology
Description: Aggregate of light green irregular grains
Measured chemistry: Ca(Mg_0.66_Fe_0.33_Mn_0.01_)(Si_0.95_Al_0.05_)_2_O_6_
Pin_id: M00901
Orientation: Laser parallel to (-1 0 -1). Fiducial mark perpendicular to laser is parallel to b [0 1 0]
Raman shift (cm-1)	intensity
101.939	0
106.879	125.423
111.818	142.941
116.753	542.948
121.686	207.104
126.617	355.508
131.545	277.184
136.471	515.559
141.393	899.857
146.314	352.496
151.232	45.3047
156.147	45.4907
161.06	11.0933
165.97	218.417
170.877	98.9028
175.782	79.2524
180.685	195.861
185.585	213.898
190.482	160.18
195.377	164.805
200.269	195.079
205.158	268.15
210.045	33.7402
214.93	209.823
219.812	332.331
224.691	358.229
229.568	418.49
234.442	554.092
239.314	303.017
244.183	171.241
249.049	236.707
253.913	132.177
258.775	231.008
263.633	90.812
268.49	69.2744
273.343	57.273
278.194	19.439
283.043	22.3403
287.889	86.6167
292.732	214.48
297.573	547.212
302.411	715.742
307.247	995.517
312.08	1395.32
316.91	2241.11
321.738	3151.4
326.563	3195.15
331.386	2438.97
336.206	1757.12
341.024	1338.22
345.839	1418.04
350.651	1764.86
355.461	2271.38
360.268	1814
365.073	1289.73
369.875	1276.54
374.674	1161.44
379.471	1712.41
384.266	3063.44
389.057	4467.52
393.846	3596.66
398.633	1742.93
403.417	659.323
408.198	299.806
412.977	47.2783
417.753	103.053
422.527	51.1397
427.298	73.5156
432.067	31.2075
436.832	8.24268
441.596	40.273
446.356	33.3433
451.115	0.354492
455.87	33.2529
460.623	32.3184
465.373	102.51
470.121	92.4189
474.866	169.853
479.609	130.284
484.349	103.438
489.086	169.689
493.821	141.829
498.553	134.752
503.283	214.547
508.01	305.208
512.734	463.727
517.456	450.098
522.175	503.315
526.892	661.377
531.606	713.291
536.317	552.035
541.026	484.608
545.732	547
550.436	550.2
555.137	576.205
559.835	581.019
564.531	406.655
569.224	404.911
573.915	346.119
578.603	246.848
583.288	156.974
587.971	33.3755
592.651	28.8599
597.329	61.0752
602.004	36.1773
606.676	95.6279
611.346	60.3071
616.013	115.029
620.678	116.401
625.34	301.516
629.999	117.449
634.656	293.721
639.31	393.023
643.962	374.16
648.611	599.936
653.257	875.45
657.901	1631.7
662.542	3183.7
667.181	4344.54
671.817	3020.02
676.45	1420.31
681.081	948.684
685.709	548.411
690.334	420.892
694.957	325.13
699.578	168.129
704.195	167.815
708.811	141.58
713.423	74.1543
718.033	63.0952
722.64	0.027832
727.245	39.772
731.847	78.564
736.446	100.773
741.043	25.4185
745.637	49.665
750.229	48.8501
754.818	7.07422
759.404	57.3008
763.988	45.8252
768.569	70.8384
773.148	101.897
777.724	1.85205
782.297	31.7124
786.868	50.4907
791.436	149.196
796.001	14.8354
800.564	25.4175
805.125	24.9287
809.682	27.3726
814.237	18.2192
818.79	150.147
823.339	188.497
827.887	179.838
832.431	89.1787
836.973	31.5269
841.513	61.1196
846.049	12.1543
850.583	151.037
855.115	348.476
859.644	288.405
864.17	273.864
868.694	81.7602
873.215	93.4966
877.733	148.903
882.249	156.296
886.762	22.189
891.273	90.1894
895.781	182.977
900.286	148.177
904.789	142.436
909.289	53.2788
913.786	225.067
918.281	106.145
922.773	176.465
927.263	170.947
931.75	97.5908
936.234	254.32
940.716	173.353
945.195	61.0591
949.672	238.501
954.146	185.161
958.617	240.045
963.086	314.113
967.552	412.369
972.015	438.81
976.476	521.561
980.934	346.093
985.39	587.098
989.843	766.305
994.293	1085.72
998.741	1821.42
1003.19	3092.02
1007.63	5728.96
1012.07	9301.41
1016.5	7740.24
1020.94	3295.53
1025.37	1781.84
1029.8	1053.28
1034.23	881.864
1038.65	912.982
1043.07	969.94
1047.49	812.537
1051.91	614.595
1056.32	388.973
1060.73	428.522
1065.14	231.102
1069.55	276.951
1073.95	280.731
1078.35	212.599
1082.75	139.524
1087.14	161.904
1091.54	155.138
1095.93	208.862
1100.31	63.2012
1104.7	137.602
1109.08	157.065
1113.46	176.744
1117.84	135.296
1122.21	199.862
1126.58	70.624
1130.95	120.044
1135.32	36.3682
1139.68	2.1416
1144.04	65.6406
1148.4	57.9004
1152.76	16.6172
1157.11	61.0059
1161.46	55.0928
1165.81	45.1455
1170.16	83.9443
1174.5	144.525
1178.84	191.8
1183.18	58.8809
1187.51	12.0322
1191.84	82.0312
1196.17	21.3066
1200.5	32.1543
1204.83	108.225
1209.15	110.746
1213.47	31.3252
1217.78	64.79
1222.1	86.7656
1226.41	165.633
1230.72	93.3965
1235.02	90.0625
1239.33	159.625
1243.63	58.0801
1247.92	45.4297
1252.22	127.677
1256.51	127.817
1260.8	124.855
1265.09	180.448
1269.38	105.275
1273.66	208.009
1277.94	130.106
1282.21	13.7021
1286.49	83.9941
1290.76	87.6064
1295.03	74.8496
1299.3	26.6328
1303.56	3.17188
1307.82	7.07031
1312.08	2.83691
1316.34	114.41
1320.59	206.002
1324.84	35.5645
1329.09	188.935
1333.34	133.425
1337.58	152.869
1341.82	52.2842
1346.06	114.113
1350.29	115.194
1354.53	194.623
1358.76	191.538
1362.98	145.406
1367.21	86.2383
1371.43	299.905
1375.65	32.7031
1379.87	144.487
1384.08	164.263
1388.29	220.034
1392.5	89.8232
1396.71	112.972
1400.91	201.002
1405.11	54.877
1409.31	117.375
1413.51	76.4453
1417.7	88.5762
1421.89	3.22852
1426.08	138.193
1430.26	157.518
1434.44	128.839
1438.62	91.6797
1442.8	152.877
1446.98	89.3711
1451.15	61.6182
1455.32	182.659
1459.49	161.227
1463.65	14.1611
1467.81	139.439
1471.97	65.0967
1476.13	52.8184
1480.28	157.614
1484.43	43.4951
1488.58	174.465
1492.73	213.513
1496.87	186.681
1501.01	251.457
1505.15	90.9209
1509.29	116.739
1513.42	221.661
1517.55	251.5
1521.67	13.9297
1525.8	311.373
1529.92	118.046
1534.04	167.588
1538.16	123.599
1542.27	16.2354
1546.39	40.5654
1550.49	182.445
1554.6	311.514
1558.71	34.0156
1562.81	179.988
1566.91	69.0527
1571	141.017
1575.1	58.3086
