Measurement: Raman, 514 nm, depolarized, Raman Data Processed
Mineral: Diopside
Rruff sample: R060276
Ideal chemistry: CaMgSi_2_O_6_
Locality: Inagli, Yakutia, Siberia, Russia
Source: Herb Obodda
Description: Transparent green cleavage fragment
Measured chemistry: (Ca_0.97_Na_0.03_)_Σ=1_(Mg_0.96_Fe_0.03_Cr_0.01_)_Σ=1_(Si_1.98_Al_0.02_)_Σ=2_O_6_
Pin_id: L01339
Orientation: Laser parallel to -b* (0 -1 0). Fiducial mark perpendicular to laser is parallel to c [0 0 1]
Raman shift (cm-1)	intensity
109.512	0
114.44	140.381
119.365	223.679
124.288	443.346
129.209	1287.08
134.127	2740.35
139.043	5263.85
143.956	3582.31
148.867	1125.34
153.775	612.549
158.681	355.396
163.585	450.315
168.486	132.758
173.385	167.167
178.282	546.316
183.176	418.978
188.067	292.233
192.956	224.105
197.843	228.087
202.727	140.767
207.609	224.411
212.489	100.433
217.366	223.309
222.24	297.044
227.112	714.803
231.982	928.306
236.849	538.376
241.714	377.981
246.577	457.088
251.437	1115.67
256.294	868.382
261.149	254.679
266.002	16.8057
270.852	188.786
275.7	68.1621
280.545	205.184
285.388	118.244
290.229	11.3477
295.067	178.617
299.902	655.894
304.735	841.053
309.566	1365.83
314.394	2713.89
319.22	5301.38
324.043	6774.32
328.864	4294.64
333.682	2116.87
338.498	1232.62
343.311	904.221
348.122	1365.3
352.931	2197.34
357.737	2905.34
362.54	2672.72
367.341	1785.26
372.14	1319.96
376.936	1483.81
381.73	2966.77
386.521	5544.85
391.31	6217.06
396.096	3452.36
400.88	1325.78
405.661	576.51
410.44	389.275
415.216	45.0586
419.99	9.85938
424.761	33.332
429.53	122.168
434.297	23.4863
439.061	73.7305
443.822	66.0664
448.581	10.8301
453.337	54.918
458.091	278.055
462.843	239.457
467.592	397.973
472.338	91.4707
477.082	95.9043
481.824	38.2539
486.563	160.523
491.3	67.7207
496.034	355.893
500.765	703.041
505.494	1716.14
510.221	1435.19
514.945	686.215
519.666	516.195
524.385	359.262
529.102	739.482
533.816	402.902
538.527	528.334
543.236	483.783
547.943	547.221
552.647	552.621
557.348	1061.05
562.047	651.139
566.744	342.494
571.438	321.719
576.129	273.227
580.818	238.002
585.504	151.838
590.188	254.41
594.87	42.0801
599.549	65.2168
604.225	54.9688
608.899	153.147
613.57	295.269
618.239	161.305
622.905	361.121
627.569	536.301
632.23	761.863
636.889	984.574
641.545	1434.77
646.198	1966.87
650.849	3267.28
655.498	7244.58
660.144	15683.6
664.787	24747.1
669.428	19166.8
674.067	8634.79
678.703	4063.36
683.336	2171.28
687.967	1428.86
692.595	918.67
697.221	508.25
701.844	511.607
706.465	537.754
711.083	635.652
715.698	274.44
720.311	389.863
724.922	179.74
729.53	110.334
734.135	137.041
738.738	223.053
743.338	108.107
747.936	26.4297
752.531	32.791
757.124	19.7266
761.714	41.957
766.302	15.0156
770.887	4.91016
775.469	49.5996
780.049	106.115
784.626	96.4844
789.201	35.293
793.773	77.9941
798.343	135.178
802.91	51.9453
807.475	52.8672
812.037	65.7734
816.596	43.0273
821.153	34.0508
825.707	64.2207
830.259	94.1934
834.808	82.0957
839.355	341.935
843.899	425.719
848.441	1315.45
852.98	2415.15
857.516	2122.84
862.05	1221.52
866.581	676.1
871.11	767.846
875.636	516.752
880.159	529.932
884.68	158.027
889.199	322.738
893.714	365.879
898.228	296.367
902.738	366.949
907.246	62.3906
911.752	288.582
916.255	287.277
920.755	311.805
925.253	199.562
929.748	287.375
934.241	32.3711
938.731	170.141
943.218	263.762
947.703	135.047
952.186	239.106
956.665	546.551
961.142	227.387
965.617	56.9414
970.089	624.668
974.558	605.602
979.025	562.742
983.489	755.113
987.951	1015.71
992.41	1578.52
996.866	2682.54
1001.32	5074.77
1005.77	12218.2
1010.22	23859.9
1014.67	22731.8
1019.11	9443.98
1023.55	4219.5
1027.99	2259.08
1032.42	1948.45
1036.86	1734.64
1041.29	2689.11
1045.72	2998.73
1050.14	2584.56
1054.56	1642.62
1058.98	1096.35
1063.4	476.641
1067.82	466.352
1072.23	256.309
1076.64	500.844
1081.05	595.25
1085.45	1065.41
1089.85	316.219
1094.25	308.82
1098.65	51.6016
1103.04	421.973
1107.43	40.9922
1111.82	69.125
1116.21	450.172
1120.59	494.508
1124.97	514.938
1129.35	190.453
1133.73	98.0547
1138.1	229.734
1142.47	365.207
1146.84	106.012
1151.21	5.77734
1155.57	156.684
1159.93	242.609
1164.29	69.4805
1168.64	103.066
1172.99	171.832
1177.34	132.098
1181.69	82.168
1186.04	21.6055
1190.38	130.59
1194.72	84.1523
1199.05	102.637
1203.39	409.086
1207.72	33.4492
1212.05	13.7695
1216.37	174.715
1220.7	303.598
1225.02	162.391
1229.34	225.051
1233.65	264.629
1237.97	322.074
1242.28	3.41016
1246.59	126.551
1250.89	366.582
1255.19	215.5
1259.49	225.285
1263.79	572.953
1268.09	421.496
1272.38	109.91
1276.67	198.168
1280.95	534.129
1285.24	157.316
1289.52	198.805
1293.8	62.2461
1298.08	380.766
1302.35	18.1055
1306.62	62.4414
1310.89	35.0859
1315.15	232.844
1319.42	250.019
1323.68	334.723
1327.94	611.394
1332.19	441.473
1336.44	507.891
1340.69	509.488
1344.94	352.324
1349.19	682.086
1353.43	160.789
1357.67	569.418
1361.9	330.527
1366.14	441.055
1370.37	460.727
1374.6	712.176
1378.83	474.617
1383.05	279.086
1387.27	331.566
1391.49	273.965
1395.7	482.406
1399.92	436.086
1404.13	259.754
1408.34	299.531
1412.54	574.34
1416.74	289.324
1420.94	407.539
1425.14	197.852
1429.34	258.312
1433.53	365.406
1437.72	479.137
1441.9	358.695
1446.09	820.891
1450.27	57.6953
1454.45	253.156
1458.63	374.172
1462.8	260.398
1466.97	365.644
1471.14	346.965
1475.31	240.398
1479.47	240.926
1483.63	616.531
1487.79	391.234
1491.94	338.281
1496.09	317.566
1500.24	446.973
1504.39	538.352
1508.54	124.191
1512.68	427.848
1516.82	580.766
1520.95	383.359
1525.09	476.762
1529.22	577.144
1533.35	287.742
1537.47	214.793
1541.6	526.242
1545.72	42.582
1549.83	172.477
1553.95	176.102
1558.06	407.656
1562.17	145.375
1566.28	8.12109
1570.38	486.852
