Measurement: Raman, 514 nm, ccw, Raman Data Processed
Mineral: Diopside
Rruff sample: R060085
Ideal chemistry: CaMgSi_2_O_6_
Locality: Tyrol, Austria
Source: University of Arizona Mineral Museum
Description: Brownish-green massive
Measured chemistry: (Ca_0.97_Na_0.03_)_Σ=1_(Mg_0.79_Fe^2+^_0.10_Fe^3+^_0.04_Al_0.04_Ti_0.02_Cr_0.01_)_Σ=1_(Si_1.90_Al_0.10_)_Σ=2_O_6_
Pin_id: M00537
Orientation: Laser parallel to (-1 0 -1). Fiducial mark perpendicular to laser is parallel to b [0 1 0]
Raman shift (cm-1)	intensity
92.595	0
97.554	179.929
102.511	94.4082
107.465	209.052
112.417	256.871
117.365	405.678
122.311	263.631
127.254	132.386
132.195	256.545
137.132	512.437
142.067	218.724
146.999	238.222
151.928	114.39
156.855	69.6953
161.778	103.789
166.699	187.477
171.618	88.25
176.533	230.13
181.446	571.302
186.356	333.85
191.263	140.137
196.167	221.47
201.069	290.288
205.968	70.5644
210.864	26.3213
215.757	72.96
220.648	251.217
225.536	323.776
230.421	498.555
235.304	380.568
240.183	570.886
245.06	315.574
249.934	504.451
254.806	587.324
259.675	193.931
264.541	42.1123
269.404	4.76269
274.265	120.219
279.122	115.967
283.977	30.6328
288.83	276.961
293.679	228.591
298.526	367.618
303.371	503.212
308.212	1016.78
313.051	1719.33
317.887	3007.17
322.72	5670.8
327.551	4941.58
332.379	2710.07
337.204	1429.76
342.026	1074.02
346.846	795.187
351.663	747.783
356.477	739.606
361.289	668.845
366.098	604.933
370.904	836.106
375.707	1152.36
380.508	1822.69
385.306	3736.1
390.101	6941.66
394.894	4929.37
399.684	2301.2
404.471	931.136
409.256	472.164
414.038	482.273
418.817	309.184
423.593	113.959
428.367	175.894
433.138	38.2285
437.907	68.5508
442.672	111.811
447.435	144.352
452.196	160.797
456.953	102.022
461.708	160.551
466.461	91.8711
471.21	46.5801
475.957	96.3242
480.702	223.43
485.443	214.887
490.182	137.195
494.918	40.3203
499.652	240.34
504.383	163.357
509.111	149.363
513.837	279.461
518.56	430.525
523.28	819.67
527.997	850.795
532.712	893.877
537.425	597.9
542.134	399.863
546.841	451.76
551.545	638.57
556.247	487.291
560.946	412.971
565.642	220.719
570.336	348.424
575.027	434.065
579.715	141.764
584.401	175.443
589.084	157.975
593.764	130.119
598.442	35.9766
603.117	14.9629
607.79	72.5547
612.459	61.2285
617.127	95.5996
621.791	281.481
626.453	87.8769
631.112	263.195
635.769	230.269
640.423	274.469
645.074	363.154
649.723	728.887
654.369	1115.1
659.013	2268.24
663.653	4318.49
668.292	4549.99
672.927	2766.24
677.56	1624.42
682.19	1132.94
686.818	778.051
691.443	699.15
696.066	604.049
700.686	492.49
705.303	363.627
709.917	209.693
714.529	388.416
719.139	307.818
723.746	140.148
728.35	255.402
732.951	145.805
737.55	73.8164
742.147	100.002
746.74	97.0371
751.331	221.488
755.92	225.19
760.506	235.467
765.089	22.5898
769.67	224.473
774.248	145.211
778.824	52.0176
783.397	127.262
787.967	272.613
792.535	292.613
797.1	176.576
801.662	143.055
806.222	222.365
810.78	183.988
815.334	170.332
819.887	314.301
824.436	263.93
828.983	424.496
833.528	510.482
838.07	313.215
842.609	320.637
847.146	173.748
851.68	262.691
856.211	390.381
860.74	158.277
865.267	330.978
869.79	231.428
874.312	231.863
878.83	492.049
883.346	142.477
887.86	186.56
892.371	245.656
896.879	377.367
901.385	52.3516
905.889	159.676
910.389	13.832
914.887	132.863
919.383	227.81
923.876	241.113
928.367	135.119
932.854	170.519
937.34	5.61328
941.823	24.0039
946.303	214.096
950.781	209.555
955.256	180.627
959.728	334.44
964.199	247.074
968.666	502.812
973.131	418.555
977.593	786.537
982.053	753.606
986.511	1019.2
990.966	1357.46
995.418	2055.71
999.868	3164.36
1004.32	5024.15
1008.76	9482.33
1013.2	12403.8
1017.64	5939.23
1022.08	2400.81
1026.51	1181.41
1030.94	928.611
1035.37	816.719
1039.8	854.338
1044.22	651.861
1048.65	659.9
1053.07	501.217
1057.48	469.422
1061.9	357.412
1066.31	463.004
1070.72	503.502
1075.13	208.832
1079.53	321.543
1083.93	427.551
1088.33	183.512
1092.73	416.859
1097.12	103.119
1101.51	165.562
1105.9	159.496
1110.29	141.131
1114.67	169.508
1119.06	170.211
1123.43	48.6387
1127.81	121.772
1132.18	267.805
1136.56	231.283
1140.93	30.7422
1145.29	357.065
1149.66	211.494
1154.02	243.984
1158.38	156.305
1162.73	324.342
1167.09	13.0625
1171.44	259.932
1175.79	12.9355
1180.14	169.959
1184.48	205.852
1188.82	99.6934
1193.16	206.109
1197.5	156.318
1201.83	74.9981
1206.16	318.154
1210.49	56.377
1214.82	276.934
1219.14	151.25
1223.47	357.113
1227.79	71.9727
1232.1	240.465
1236.42	393.834
1240.73	328.34
1245.04	277.254
1249.35	387.441
1253.65	266.234
1257.95	511.803
1262.25	254.582
1266.55	335.363
1270.84	316.215
1275.13	338.891
1279.42	328.469
1283.71	151.383
1288	90.7773
1292.28	254.43
1296.56	106.219
1300.84	200.09
1305.11	128.312
1309.38	34.125
1313.65	221.336
1317.92	451.734
1322.19	174.809
1326.45	33.125
1330.71	131.652
1334.97	66.6953
1339.22	8.06641
1343.48	275.648
1347.73	99.7656
1351.97	416.215
1356.22	163.09
1360.46	275.328
1364.7	96.6445
1368.94	312.68
1373.18	292.359
1377.41	248.793
1381.64	200.652
1385.87	292.434
1390.1	61.207
1394.32	195.469
1398.54	17.5352
1402.76	259.137
1406.98	247.633
1411.19	189.156
1415.4	202.453
1419.61	25.418
1423.82	110.238
1428.02	313.777
1432.23	199.32
1436.42	179.769
1440.62	170.973
1444.82	304.844
1449.01	284.09
1453.2	58.375
1457.39	238.168
1461.57	78.6953
1465.75	192.047
1469.93	121.394
1474.11	344.289
1478.29	394.109
1482.46	232.301
1486.63	405.492
1490.8	102.898
1494.96	255.262
1499.13	146.789
1503.29	24.2695
1507.45	421.613
1511.6	286.348
1515.76	341.387
1519.91	395.953
1524.06	163.394
1528.2	223.203
1532.35	250.523
1536.49	382.023
1540.63	165.648
1544.77	146.402
1548.9	277.57
1553.03	587.047
1557.16	384.035
1561.29	159.852
1565.41	549.578
1569.54	281.887
1573.66	5.53516
1577.77	0
