Measurement: Raman, 514 nm, depolarized, Raman Data Processed
Mineral: Diopside
Rruff sample: R050496
Ideal chemistry: CaMgSi_2_O_6_
Locality: New City Quarry, Riverside, Riverside County, Calfornia, USA
Source: California Institute of Technology
Description: Aggregate of light green irregular grains
Measured chemistry: Ca(Mg_0.66_Fe_0.33_Mn_0.01_)(Si_0.95_Al_0.05_)_2_O_6_
Pin_id: M00901
Orientation: Laser parallel to (-1 0 -1). Fiducial mark perpendicular to laser is parallel to b [0 1 0]
Raman shift (cm-1)	intensity
114.286	0
119.22	290.887
124.152	79.2168
129.081	186.134
134.008	752.283
138.932	1961
143.854	1314.63
148.773	320.184
153.69	119.896
158.604	51.6733
163.515	122.389
168.424	172.895
173.33	142.725
178.234	105.634
183.135	184.047
188.034	83.6231
192.93	232.047
197.823	283.258
202.714	354.04
207.602	197.413
212.488	102.927
217.371	214.155
222.252	303.442
227.13	307.147
232.005	459.146
236.878	284.475
241.749	227.765
246.616	234.036
251.482	180.292
256.344	120.529
261.204	63.4136
266.062	28.5395
270.917	4.05078
275.769	31.0947
280.619	82.4473
285.466	56.769
290.311	104.173
295.153	336.147
299.992	560.34
304.829	853.674
309.663	1295.89
314.495	2035.8
319.324	3008.26
324.151	3891.54
328.975	3059.8
333.796	2285.27
338.615	1634.08
343.432	1588.61
348.245	1829.96
353.056	2320.29
357.865	2193.2
362.671	1698.35
367.474	1441.64
372.275	1423.91
377.073	2051.16
381.869	3106.39
386.662	4953.59
391.452	5386.67
396.24	2959.79
401.025	1412.47
405.808	616.416
410.588	369.004
415.366	294.015
420.141	130.331
424.913	57.751
429.683	75.2378
434.45	88.4688
439.214	67.5596
443.976	56.6724
448.736	28.6328
453.493	55.3188
458.247	89.7256
462.998	161.356
467.747	255.841
472.494	174.357
477.238	131.944
481.979	219.486
486.718	313.743
491.454	233.239
496.187	415.132
500.918	434.916
505.646	229.589
510.372	510.135
515.095	584.548
519.816	771.825
524.534	875.964
529.249	959.979
533.962	865.908
538.672	837.71
543.379	752.359
548.084	687.887
552.786	727.398
557.486	782.951
562.183	659.478
566.878	663.863
571.57	610.12
576.259	482.476
580.946	340.687
585.63	207.668
590.311	126.41
594.99	24.8227
599.667	57.9409
604.34	20.3145
609.012	15.6626
613.68	108.451
618.346	150.339
623.009	59.5523
627.67	139.92
632.328	332.8
636.984	388.845
641.636	468.167
646.287	782.721
650.934	1169.03
655.579	2202.09
660.222	4092.91
664.862	6740.59
669.499	6106.9
674.134	3182.73
678.766	1688.55
683.395	926.125
688.022	637.449
692.646	390.525
697.268	382.353
701.887	322.794
706.503	286.435
711.117	61.5171
715.728	197.344
720.337	23.96
724.943	11.2529
729.546	26.5923
734.147	107.524
738.745	5.96582
743.341	62.939
747.933	26.7793
752.524	42.1006
757.111	22.7383
761.697	127.558
766.279	34.752
770.859	112.922
775.436	141.459
780.011	106.982
784.583	142.578
789.152	203.731
793.719	102.947
798.283	189.898
802.845	68.7471
807.404	83.5166
811.96	63.9844
816.514	61.4145
821.065	98.7886
825.613	209.115
830.159	62.4023
834.703	30.3413
839.243	89.8618
843.781	51.0449
848.317	316.852
852.849	624.992
857.38	958.479
861.907	616.425
866.432	407.761
870.954	261.266
875.474	197.112
879.991	171.895
884.506	166.745
889.018	89.8003
893.527	150.532
898.034	181.967
902.538	107.505
907.039	66.3086
911.538	110.001
916.034	220.172
920.528	212.052
925.018	101.095
929.507	222.309
933.992	156.71
938.476	85.2178
942.956	141.525
947.434	81.3769
951.909	148.678
956.382	138.181
960.852	285.897
965.319	431.9
969.784	315.276
974.246	447.727
978.705	429.166
983.162	650.168
987.616	660.454
992.068	923.01
996.517	1513.93
1000.96	2670.12
1005.41	4944.62
1009.85	8387.36
1014.29	10228
1018.72	5363.54
1023.16	2400.85
1027.59	1362.07
1032.02	1155.98
1036.44	965.64
1040.86	1069.23
1045.28	861.602
1049.7	728.617
1054.12	551.781
1058.53	475.438
1062.94	302.073
1067.35	285.57
1071.75	173.372
1076.15	221.702
1080.55	184.769
1084.95	20.3262
1089.34	167.995
1093.73	215.078
1098.12	127.704
1102.51	149.758
1106.89	47.8203
1111.27	263.718
1115.65	200.929
1120.03	175.975
1124.4	170.305
1128.77	93.6836
1133.14	117.097
1137.5	81.5391
1141.86	60.9502
1146.22	29.3535
1150.58	59.6084
1154.93	161.641
1159.29	120.075
1163.64	34.9053
1167.98	69.8721
1172.33	48.2441
1176.67	72.6416
1181.01	79.0547
1185.34	75.8828
1189.68	92.4873
1194.01	64.6357
1198.34	121.632
1202.66	47.5137
1206.99	101.277
1211.31	71.8731
1215.62	157.364
1219.94	157.826
1224.25	52.8438
1228.56	34.1719
1232.87	116.088
1237.17	82.0918
1241.48	200.398
1245.78	49.2119
1250.07	138.912
1254.37	141.763
1258.66	133.674
1262.95	147.478
1267.23	91.1758
1271.52	174.434
1275.8	53.5674
1280.08	105.927
1284.35	78.6152
1288.63	203.148
1292.9	113.03
1297.16	145.736
1301.43	175.96
1305.69	65.3379
1309.95	11.168
1314.21	128.077
1318.46	172.275
1322.72	162.406
1326.97	90.915
1331.21	98.3906
1335.46	232.212
1339.7	157.409
1343.94	38.168
1348.18	37.8652
1352.41	295.441
1356.64	191.931
1360.87	132.458
1365.1	223.182
1369.32	222.616
1373.54	161.25
1377.76	9.40527
1381.97	84.8447
1386.19	161.273
1390.4	91.2695
1394.6	107.43
1398.81	121.572
1403.01	145.665
1407.21	148.008
1411.41	120.508
1415.6	97.8467
1419.79	132.237
1423.98	36.3379
1428.17	135.183
1432.35	107.919
1436.54	261.75
1440.71	46.4522
1444.89	184.43
1449.06	111.314
1453.23	39.7383
1457.4	157.46
1461.57	133.049
1465.73	89.5342
1469.89	192.31
1474.05	136.21
1478.2	169.38
1482.36	128.666
1486.51	148.042
1490.65	178.659
1494.8	180.254
1498.94	229.528
1503.08	189.373
1507.22	178.14
1511.35	279.234
1515.48	177.334
1519.61	188.029
1523.74	150.197
1527.86	152.533
1531.98	103.078
1536.1	200.852
1540.22	130.87
1544.33	269.737
1548.44	212.143
1552.55	218.755
1556.65	46.3603
1560.76	22.1299
1564.86	343.733
1568.95	191.307
1573.05	121.798
1577.14	58.5195
