Measurement: Raman, 514 nm, depolarized, Raman Data Processed
Mineral: Diopside
Rruff sample: R040009
Ideal chemistry: CaMgSi_2_O_6_
Locality: Otter Lake, Quebec, Canada
Source: University of Arizona Mineral Museum
Description: Green square prismatic crystal associated with pale orange calcite
Measured chemistry: (Ca_0.97_Fe_0.02_Na_0.01_)_Σ=1_(Mg_0.97_Fe_0.02_Al_0.01_)_Σ=1_Si_2.00_O_6_; trace amounts of Mn and Ti
Pin_id: L00436
Orientation: Laser parallel to -b [0 -1 0]. Fiducial mark perpendicular to laser is parallel to -c* (0 0 -1)
Raman shift (cm-1)	intensity
96.161	0
100.34	59.823
104.516	20.72
108.691	133.056
112.864	205.46
117.034	624.56
121.203	602.004
125.369	806.975
129.534	1608.05
133.696	4384.04
137.857	8025.28
142.016	7243.98
146.172	3045.31
150.327	1092.61
154.48	567.948
158.63	258.684
162.779	183.609
166.926	160.846
171.07	178.144
175.213	296.88
179.354	592.982
183.493	562.478
187.63	267.999
191.765	148.732
195.898	124.689
200.029	84.141
204.158	40.828
208.285	38.696
212.41	8.196
216.533	22.924
220.654	64.479
224.773	181.273
228.891	493.631
233.006	823.347
237.119	689.145
241.231	311.005
245.34	342.933
249.448	773.921
253.553	1409.96
257.657	1085.07
261.758	357.629
265.858	64.602
269.956	28.503
274.052	71.016
278.146	29.241
282.237	8.72
286.327	33.911
290.416	61.705
294.502	149.963
298.586	286.891
302.668	504.053
306.749	1017.8
310.827	1832.26
314.903	2849.27
318.978	5267.01
323.051	8774.26
327.121	7960.15
331.19	4149.12
335.257	2080.99
339.322	1254.9
343.385	957.858
347.446	1044.84
351.505	1578.68
355.563	2809.44
359.618	3914.2
363.672	3187.98
367.723	1989.77
371.773	1397.56
375.821	1439.26
379.866	1870.67
383.91	3694.45
387.952	7687.21
391.992	8614.04
396.031	4499.76
400.067	1816.46
404.101	807.127
408.134	387.924
412.165	241.032
416.193	219.173
420.22	101.038
424.245	34.976
428.268	24.195
432.289	1.86
436.309	46.766
440.326	24.367
444.342	34.125
448.355	18.108
452.367	21.74
456.377	44.629
460.385	46.403
464.391	6.482
468.395	49.604
472.398	13.763
476.398	51.911
480.397	29.043
484.394	86.136
488.389	42.156
492.382	154.133
496.373	261.081
500.362	617.968
504.349	1668.79
508.335	3023.52
512.319	1828.16
516.3	744.684
520.28	346.095
524.259	351.376
528.235	402.521
532.209	337.518
536.182	408.365
540.152	296.058
544.121	144.594
548.088	125.966
552.053	212.167
556.017	173.195
559.978	259.045
563.938	142.715
567.895	117.485
571.851	125.917
575.805	153.622
579.758	109.6
583.708	148.142
587.657	92.635
591.603	88.555
595.548	145.48
599.491	165.952
603.432	199.748
607.372	269.204
611.309	254.48
615.245	353.248
619.179	468.848
623.111	673.305
627.041	774.877
630.97	986.387
634.896	1220.67
638.821	1474.03
642.744	2026.87
646.665	2770.37
650.584	3959.84
654.502	6595.1
658.418	12279.3
662.331	25694.9
666.244	39140.8
670.154	31041.7
674.062	15901.8
677.969	7891.01
681.874	4464.69
685.777	2951.52
689.678	2158.82
693.577	1381.79
697.475	1300.42
701.371	1028.71
705.265	910.565
709.157	596.17
713.047	574.431
716.936	388.351
720.823	292.832
724.708	335.775
728.591	299.354
732.472	223.896
736.352	143.821
740.23	217.307
744.106	55.698
747.98	13.434
751.853	87.484
755.723	3.147
759.592	75.38
763.459	66.744
767.325	160.751
771.188	36.384
775.05	62.463
778.91	18.369
782.768	62.971
786.625	48.315
790.479	17.913
794.332	80.225
798.183	30.731
802.033	48.856
805.88	57.336
809.726	102.329
813.57	7.219
817.413	102.673
821.253	129.196
825.092	223.355
828.929	185.169
832.764	267.655
836.598	270.827
840.429	451.697
844.259	543.285
848.088	1192.59
851.914	2931.63
855.739	4802.39
859.562	3250.89
863.383	1612.12
867.203	1151.14
871.02	637.892
874.836	564.281
878.65	513.285
882.463	506.067
886.274	478.84
890.083	377.876
893.89	369.007
897.695	303.936
901.499	327.396
905.301	363.906
909.102	374.549
912.9	269.357
916.697	261.781
920.492	213.97
924.285	108.198
928.077	197.473
931.867	204.611
935.655	230.849
939.442	156.653
943.226	188.293
947.009	225.598
950.791	167.125
954.57	93.876
958.348	245.541
962.124	183.51
965.899	327.978
969.671	364.938
973.442	558.86
977.211	707.517
980.979	549.964
984.745	746.375
988.509	1120.68
992.271	1594.53
996.032	2581.42
999.791	3746.05
1003.55	6892.84
1007.3	14266.1
1011.06	32997.4
1014.81	42508.7
1018.56	21325.9
1022.31	9119.63
1026.06	4713.42
1029.8	3367.95
1033.55	2772.54
1037.29	2759.93
1041.03	3531.03
1044.77	5109.01
1048.5	6405.33
1052.24	4587.6
1055.97	2282.82
1059.7	1315.96
1063.43	785.519
1067.16	621.708
1070.89	439.702
1074.61	376.467
1078.34	236.555
1082.06	362.354
1085.78	155.917
1089.5	153.589
1093.21	143.751
1096.93	47.075
1100.64	174.539
1104.35	107.693
1108.06	166.193
1111.77	77.949
1115.48	22.881
1119.18	177.562
1122.89	294.312
1126.59	140.219
1130.29	217.48
1133.99	128.707
1137.68	16.568
1141.38	54.73
1145.07	114.973
1148.76	134.157
1152.45	26.102
1156.14	139.718
1159.83	113.709
1163.51	84.904
1167.19	108.94
1170.88	64.441
1174.56	70.577
1178.23	4.968
1181.91	19.413
1185.59	2.09
1189.26	98.031
1192.93	106.779
1196.6	73.391
1200.27	100.83
1203.94	16.731
1207.6	144.762
1211.27	80.174
1214.93	76.963
1218.59	55.123
1222.25	80.039
1225.9	211.764
1229.56	148.064
1233.21	40.041
1236.86	9.494
1240.51	64.053
1244.16	53.021
1247.81	334.049
1251.45	163.006
1255.1	133.553
1258.74	26.467
1262.38	119.75
1266.02	221.242
1269.66	99.424
1273.29	108.318
1276.93	131.314
1280.56	35.117
1284.19	29.109
1287.82	56.146
1291.45	194.818
1295.07	31.543
1298.7	0.387
1302.32	8.219
1305.94	42.453
1309.56	108.436
1313.18	96.389
1316.8	75.41
1320.41	139.264
1324.02	172.623
1327.63	177.439
1331.24	229.148
1334.85	159.963
1338.46	223.197
1342.06	331.066
1345.67	80.949
1349.27	179.701
1352.87	273.695
1356.47	302.227
1360.07	276.393
1363.66	233.234
1367.25	263.33
1370.85	272.852
1374.44	342.439
1378.03	136.924
1381.61	156.455
1385.2	235.881
1388.78	306.023
1392.37	262.152
1395.95	133.686
1399.53	224.906
1403.1	117.254
1406.68	255.178
1410.26	234.287
1413.83	1.764
1417.4	164.527
1420.97	28.506
1424.54	114.025
1428.1	134.285
1431.67	11.449
1435.23	52.092
1438.8	118.008
1442.36	223.801
1445.91	330.539
1449.47	449.826
1453.03	327.232
1456.58	161.473
1460.13	180.064
1463.68	151.932
1467.23	600.713
1470.78	291.377
1474.33	253.979
1477.87	84.104
1481.42	506.58
1484.96	215.461
