Measurement: Raman, 514 nm, ccw, Raman Data Processed
Mineral: Diopside
Rruff sample: R060085
Ideal chemistry: CaMgSi_2_O_6_
Locality: Tyrol, Austria
Source: University of Arizona Mineral Museum
Description: Brownish-green massive
Measured chemistry: (Ca_0.97_Na_0.03_)_Σ=1_(Mg_0.79_Fe^2+^_0.10_Fe^3+^_0.04_Al_0.04_Ti_0.02_Cr_0.01_)_Σ=1_(Si_1.90_Al_0.10_)_Σ=2_O_6_
Pin_id: M00537
Orientation: Laser parallel to (-1 0 -1). Fiducial mark perpendicular to laser is parallel to b [0 1 0]
Raman shift (cm-1)	intensity
83.908	0
88.873	11.0727
93.835	130.111
98.794	139.717
103.75	86.4458
108.704	100.029
113.654	383.736
118.602	369.287
123.547	470.088
128.49	542.047
133.429	1192.27
138.366	2000.98
143.3	1236.26
148.232	443.701
153.16	276.062
158.086	128.713
163.009	39.9824
167.929	51.7974
172.847	29.04
177.761	25.6655
182.673	194.753
187.583	196.101
192.489	414.719
197.393	739.051
202.294	342.257
207.192	140.318
212.088	59.252
216.98	146.151
221.87	63.9253
226.758	383.546
231.642	392.225
236.524	426.168
241.403	218.418
246.279	145.382
251.153	86.6245
256.023	84.7261
260.891	40.6343
265.757	93.2451
270.619	36.48
275.479	39.6299
280.336	5.9624
285.191	57.5312
290.042	33.2969
294.891	87.0435
299.738	98.7207
304.581	207.941
309.422	272.968
314.26	698.166
319.095	1062.5
323.928	1587.5
328.758	1315.65
333.585	945.751
338.41	623.355
343.231	495.609
348.05	668.438
352.867	1103.2
357.68	1439
362.491	1454.06
367.299	1037.48
372.105	997.039
376.908	1117.66
381.708	1412.14
386.505	2439.55
391.3	3337.81
396.092	2039.65
400.881	903.832
405.668	530.772
410.452	199.612
415.233	143.648
420.011	61.7197
424.787	118.931
429.56	23.9521
434.331	43.0176
439.098	55.8643
443.863	127.538
448.626	8.81348
453.385	74.1064
458.142	202.348
462.897	235.442
467.648	161.536
472.397	127.259
477.144	6.69873
481.887	218.674
486.628	130.017
491.366	182.376
496.102	141.652
500.835	129.909
505.565	122.135
510.293	278.326
515.018	211.48
519.74	385.667
524.459	473.965
529.176	538.288
533.891	612.592
538.602	597.854
543.311	660.066
548.017	576.226
552.721	473.47
557.422	482.737
562.12	559.019
566.816	332.195
571.509	374.031
576.199	219.113
580.887	247.68
585.572	122.08
590.254	59.4092
594.934	41.0654
599.611	17.6162
604.285	14.7051
608.957	18.2344
613.626	75.9883
618.293	98.4053
622.957	278.926
627.618	105.804
632.277	226.842
636.933	304.557
641.586	725.365
646.237	838.269
650.885	1410.44
655.53	2483.52
660.173	5145.35
664.813	8820.71
669.451	7497.98
674.086	4049.71
678.718	2552.48
683.348	1743.24
687.975	1249.7
692.599	843.73
697.221	600.768
701.84	482.225
706.457	479.357
711.071	380.256
715.682	292.927
720.291	187.341
724.897	320.5
729.5	93.5147
734.101	110.217
738.7	221.873
743.295	187.153
747.888	113.917
752.479	68.2559
757.067	58.7051
761.652	67.3223
766.235	29.5791
770.815	54.3301
775.392	159.958
779.967	145.461
784.539	128.704
789.109	102.856
793.676	87.7568
798.241	137.089
802.803	47.2578
807.362	184.952
811.919	53.2881
816.473	287.854
821.024	112.915
825.573	158.48
830.12	104.784
834.663	70.8106
839.205	211.544
843.743	215.024
848.279	462.268
852.813	1260.33
857.344	1222.9
861.872	898.481
866.398	808.768
870.921	513.556
875.442	295.916
879.96	340.421
884.475	168.385
888.988	108.159
893.498	163.488
898.006	25.8818
902.511	141.973
907.014	120.244
911.514	91.8262
916.012	82.3789
920.507	4.51562
924.999	59.0381
929.489	46.334
933.976	176.787
938.461	58.1953
942.943	158.343
947.423	164.154
951.9	118.468
956.374	124.992
960.846	128.641
965.316	283.312
969.783	206.471
974.247	247.498
978.709	328.096
983.168	421.228
987.625	524.677
992.079	644.602
996.53	1077.63
1000.98	1749.91
1005.43	3233.6
1009.87	5943.6
1014.31	6231.8
1018.75	2724.6
1023.19	1472.36
1027.62	829.337
1032.05	875.257
1036.48	741.928
1040.91	895.456
1045.33	1242.15
1049.75	1124.72
1054.17	699.879
1058.59	683.19
1063	375.825
1067.41	370.208
1071.82	216.902
1076.23	190.665
1080.63	222.34
1085.03	197.694
1089.43	203.106
1093.83	151.188
1098.22	100.101
1102.61	89.3154
1107	181.368
1111.39	132.709
1115.77	80.1123
1120.15	59.8838
1124.53	264.215
1128.9	131.958
1133.28	8.22852
1137.65	82.3262
1142.02	12.3838
1146.38	92.9404
1150.75	8.82812
1155.11	233.622
1159.47	176.815
1163.82	77.333
1168.18	64.5312
1172.53	105.037
1176.88	124.666
1181.22	222.092
1185.57	21.0791
1189.91	227.579
1194.24	34.3408
1198.58	88.4189
1202.91	108.942
1207.25	68.3906
1211.58	71.3438
1215.9	182.081
1220.22	253.323
1224.55	105.472
1228.87	307.014
1233.18	140.348
1237.49	408.795
1241.81	36.498
1246.12	202.361
1250.42	37.5225
1254.72	160.242
1259.03	64.4004
1263.33	384.005
1267.62	109.002
1271.92	179.245
1276.21	172.404
1280.5	76.0781
1284.78	75.3496
1289.07	160.922
1293.35	42.5957
1297.63	183.51
1301.91	23.2383
1306.18	87.9082
1310.45	185.352
1314.72	185.816
1318.99	249.496
1323.25	139
1327.52	135.768
1331.78	143.846
1336.03	55.1484
1340.29	44.4648
1344.54	220.522
1348.79	226.113
1353.04	179.74
1357.28	299.676
1361.52	169.31
1365.77	300.43
1370	184.998
1374.24	180.195
1378.47	271.268
1382.7	92.0703
1386.93	366.516
1391.15	80.4785
1395.38	11.7305
1399.6	171.643
1403.82	15.0527
1408.03	181.643
1412.24	77.9648
1416.46	8.41797
1420.66	36.4434
1424.87	98.3769
1429.08	334.684
1433.28	129.818
1437.47	140.106
1441.67	187.309
1445.87	101.283
1450.06	370.312
1454.25	277.475
1458.43	200.231
1462.62	163.607
1466.8	308.533
1470.98	166.324
1475.15	124.629
1479.33	135.732
1483.5	289.238
1487.67	67.2637
1491.84	204.727
1496.01	297.527
1500.17	219.172
1504.33	82.418
1508.49	51.0996
1512.64	172.211
1516.79	168.322
1520.94	77.25
1525.09	231.941
1529.24	288.576
1533.38	354.316
1537.52	180.047
1541.66	405.326
1545.8	283.609
1549.93	358.654
1554.06	123.189
1558.19	30.7637
1562.32	114.022
1566.44	47.4121
1570.57	264.537
1574.69	105.17
