Measurement: Raman, 514 nm, depolarized, Raman Data Processed
Mineral: Dioptase
Rruff sample: R050010
Ideal chemistry: Cu^2+^SiO_3_H_2_O
Locality: Tsumeb mine, Tsumeb, Otavi District, Oshikoto, Namibia
Source: Eugene Schlepp
Description: Bluish green single crystals
Measured chemistry: Cu_1.00_Si_1.00_O_3_Â·H_2_O ; trace amounts of Mg and Al; OH estimated by difference
Pin_id: M00232
Orientation: Laser parallel to a* (1 0 0). Fiducial mark perpendicular to laser is parallel to c [0 0 1]
Raman shift (cm-1)	intensity
91.262	0
95.458	512.244
99.652	1484.31
103.843	713.044
108.033	1156.91
112.22	2092.92
116.406	2292.58
120.589	2778.15
124.77	6614.57
128.949	15031
133.126	13320.1
137.301	6856.34
141.473	1693.31
145.644	123.072
149.812	110.732
153.979	822.989
158.143	2502.39
162.305	1925.44
166.465	497.818
170.623	1012.43
174.778	3336.83
178.932	3692.28
183.083	1838.89
187.233	729.839
191.38	562.117
195.525	767.259
199.669	556.642
203.81	1026.63
207.949	1806.86
212.085	3632.22
216.22	7912.66
220.353	14434
224.483	15736.2
228.612	11239.1
232.738	6412.49
236.863	3465.1
240.985	2079.92
245.105	686.95
249.223	159.835
253.339	114.474
257.453	2433.35
261.565	8088.72
265.675	9523.62
269.783	4652.84
273.888	2157.11
277.992	1728.69
282.093	2816.17
286.193	5884.01
290.29	8902.88
294.386	6202.61
298.479	2078.92
302.57	285.528
306.659	368.902
310.746	580.363
314.831	468.302
318.914	140.791
322.995	1141.3
327.074	1072.54
331.151	535.523
335.226	342.146
339.299	760.881
343.37	1863.48
347.438	5514.94
351.505	18638.3
355.57	36111.5
359.632	22364.6
363.693	8446.96
367.751	3841.39
371.808	2469.54
375.862	2215.74
379.914	2412.96
383.965	3607.21
388.013	6376.48
392.06	12372.7
396.104	21769
400.146	20235.2
404.186	11451.4
408.225	7057.57
412.261	7249.53
416.295	8451.16
420.327	9557.21
424.357	9854.46
428.386	9857.07
432.412	9649.8
436.436	8996.64
440.458	7765.38
444.478	6326.19
448.496	5292.93
452.513	4545.3
456.527	3511.69
460.539	2519.37
464.549	1828.46
468.557	1427.45
472.563	1092.33
476.567	1033.37
480.57	1274.8
484.57	1762.95
488.568	2135.83
492.564	1535.43
496.558	1085.75
500.551	997.806
504.541	1164.6
508.529	1502.12
512.515	1966.37
516.5	2261.35
520.482	2324.08
524.462	2335.59
528.441	2239.93
532.417	1972.14
536.391	1652.28
540.364	1254.41
544.334	975.486
548.303	943.684
552.269	989.235
556.234	1569.66
560.197	2099.88
564.157	2022.91
568.116	1605.72
572.073	1201.39
576.027	769.121
579.98	357.65
583.931	109.928
587.88	2.164
591.827	68.887
595.772	52.58
599.715	159.377
603.656	110.426
607.595	56.657
611.532	52.898
615.468	38.007
619.401	124.35
623.332	218.339
627.262	403.571
631.189	587.959
635.115	910.698
639.039	1349.2
642.96	2061.55
646.88	3547.69
650.798	6672.61
654.714	13724.3
658.628	19315.8
662.54	13977.1
666.45	7488.22
670.358	3945.11
674.264	2329.62
678.169	1423.33
682.071	929.081
685.972	572.376
689.87	412.898
693.767	258.032
697.662	247.498
701.555	226.919
705.446	203.813
709.335	913.587
713.222	528.893
717.107	280.656
720.99	474.871
724.872	699.886
728.751	1106.7
732.629	1905.32
736.504	2948.74
740.378	3662.31
744.25	3360.41
748.12	2294.42
751.988	1465.24
755.854	854.103
759.719	589.331
763.581	356.562
767.442	289.659
771.3	204.894
775.157	135.213
779.012	122.832
782.865	148.922
786.716	205.967
790.565	226.948
794.413	182.854
798.258	236.684
802.102	202.442
805.943	200.149
809.783	159.809
813.621	141.418
817.457	143.002
821.292	38.545
825.124	67.042
828.954	73.487
832.783	34.167
836.61	47.987
840.435	30.957
844.258	20.141
848.079	25.605
851.898	61.359
855.715	47.433
859.531	10.874
863.345	18.509
867.157	44.533
870.967	27.387
874.775	22.295
878.581	112.223
882.386	113.177
886.188	207.161
889.989	277.181
893.788	343.259
897.585	509.694
901.38	740.993
905.174	1072.96
908.965	1736.45
912.755	2124.47
916.543	1855.03
920.329	1306.99
924.113	1043.29
927.895	988.777
931.676	1088.38
935.454	1106.05
939.231	1310.8
943.006	1538.62
946.78	2099.53
950.551	2938.54
954.32	4427.65
958.088	4939.03
961.854	3457.91
965.618	1992.12
969.38	1455.64
973.141	1096.44
976.9	1209.25
980.656	1216.36
984.411	1399.65
988.165	1721.65
991.916	2197.87
995.665	3356.36
999.413	5951.49
1003.16	9508.59
1006.9	8533.42
1010.65	6890.47
1014.39	6361.67
1018.12	5853.44
1021.86	4875.58
1025.6	4072.41
1029.33	3001.37
1033.06	2162.47
1036.79	1558.69
1040.52	1165.04
1044.25	927.518
1047.97	770.12
1051.69	727.844
1055.41	592.683
1059.13	584.631
1062.85	448.679
1066.57	374.822
1070.28	304.051
1073.99	221.363
1077.7	179.76
1081.41	175.246
1085.12	171.818
1088.82	119.593
1092.52	198.4
1096.22	242.369
1099.92	62.452
1103.62	52.032
1107.32	3.753
1111.01	7.486
1114.7	16.87
1118.39	7.339
1122.08	135.827
1125.77	101.354
1129.45	76.424
1133.14	96.796
1136.82	156.909
1140.5	166.539
1144.18	180.862
1147.85	199.119
1151.53	275.071
1155.2	254.22
1158.87	275.172
1162.54	290.468
1166.21	266.748
1169.88	258.834
1173.54	263.485
1177.2	266.607
1180.86	226.562
1184.52	190.464
1188.18	206.32
1191.83	188.158
1195.49	110.981
1199.14	134.771
1202.79	115.135
1206.44	152.183
1210.08	164.85
1213.73	175.441
1217.37	152.31
1221.01	131.094
1224.65	69.547
1228.29	96.672
1231.93	15.263
1235.56	41.058
1239.19	55.15
1242.83	23.06
1246.46	12.571
1250.08	7.647
1253.71	19.269
1257.33	0.253
1260.96	21.983
1264.58	5.415
1268.19	22.573
1271.81	9.116
1275.43	8.356
1279.04	15.827
1282.65	34.563
1286.27	4.773
1289.87	3.982
1293.48	19.751
1297.09	25.19
1300.69	54.05
1304.29	10.331
1307.89	14.996
1311.49	57.775
1315.09	81.826
1318.68	87.381
1322.28	115.698
1325.87	133.748
1329.46	126.558
1333.05	91.141
1336.63	109.493
1340.22	95.623
1343.8	111.523
1347.38	98.193
1350.96	97.641
1354.54	83.869
1358.12	83.882
1361.69	60.741
1365.26	77.338
1368.83	61.733
1372.4	29.925
1375.97	20.908
1379.54	30.68
1383.1	16.293
1386.66	31.898
1390.23	32.707
1393.79	42.025
1397.34	39.448
1400.9	21.635
1404.45	27.757
1408.01	0.944
1411.56	18.903
1415.11	31.53
1418.66	36.102
1422.2	47.778
1425.75	46.788
1429.29	23.528
1432.83	47.81
1436.37	72.726
1439.91	81.086
1443.44	86.927
1446.98	63.157
1450.51	64.151
1454.04	85.175
1457.57	86.732
1461.1	95.943
1464.63	69.515
1468.15	116.297
1471.67	104.239
1475.19	86.138
1478.71	97.656
1482.23	61.89
1485.75	22.791
1489.26	21.144
1492.78	23.618
1496.29	40.586
1499.8	45.8
1503.31	25.319
1506.81	36.44
1510.32	34.333
1513.82	0.747
1517.32	14.311
