Measurement: Raman, 514 nm, depolarized, Raman Data Processed
Mineral: Diopside
Rruff sample: R050666
Ideal chemistry: CaMgSi_2_O_6_
Locality: Franklin, Sussex County, New Jersey, USA
Source: University of Arizona Mineral Museum
Description: Brown cleavage fragment with white hardystonite
Measured chemistry: Ca(Mg_0.66_Mn_0.33_Fe_0.01_)Si_2_O_6_
Pin_id: L00536
Orientation: Laser parallel to c* (0 0 1). Fiducial mark perpendicular to laser is parallel to -a [-1 0 0]
Raman shift (cm-1)	intensity
109.512	0
114.44	208.792
119.365	2.05688
124.288	203.118
129.209	739.888
134.127	912.35
139.043	390.16
143.956	38.6292
148.867	29.0081
153.775	326.901
158.681	184.394
163.585	179.289
168.486	230.477
173.385	532.504
178.282	344.248
183.176	131.01
188.067	110.507
192.956	75.1706
197.843	54.0303
202.727	183.975
207.609	3.0354
212.489	35.1604
217.366	61.5894
222.24	132.513
227.112	255.472
231.982	547.851
236.849	253.26
241.714	220.752
246.577	239.351
251.437	281.056
256.294	310.381
261.149	305.451
266.002	189.134
270.852	126.361
275.7	166.582
280.545	196.445
285.388	313.486
290.229	614.327
295.067	1078.36
299.902	1965.1
304.735	3827.75
309.566	6599.97
314.394	8761.87
319.22	6586.98
324.043	3793.06
328.864	2565.73
333.682	2192
338.498	2831.15
343.311	4225.74
348.122	5461.33
352.931	4186.94
357.737	2769.76
362.54	2280.2
367.341	2799.1
372.14	4942.18
376.936	10147.3
381.73	15015.5
386.521	8762.66
391.31	3502.9
396.096	1422.18
400.88	760.489
405.661	380.765
410.44	352.073
415.216	127.466
419.99	77.9058
424.761	32.5569
429.53	39.9417
434.297	20.4893
439.061	59.1204
443.822	243.945
448.581	367.783
453.337	370.142
458.091	246.647
462.843	38.1216
467.592	18.259
472.338	17.2436
477.082	80.9873
481.824	45.6885
486.563	28.6272
491.3	42.26
496.034	195.144
500.765	383.032
505.494	357.934
510.221	299.894
514.945	393.917
519.666	804.038
524.385	1206.3
529.102	747.664
533.816	450.118
538.527	409.581
543.236	588.986
547.943	1623.4
552.647	3256.87
557.348	2306.28
562.047	861.6
566.744	380.832
571.438	195.953
576.129	145.882
580.818	66.5364
585.504	48.7593
590.188	15.3186
594.87	39.9282
599.549	36.2126
604.225	64.7136
608.899	171.639
613.57	216.637
618.239	328.701
622.905	398.525
627.569	674.665
632.23	829.976
636.889	1256
641.545	1956.36
646.198	3741.15
650.849	7931.89
655.498	16409
660.144	21347.3
664.787	13465.3
669.428	6386.12
674.067	3085.79
678.703	1672.48
683.336	1166.17
687.967	719.606
692.595	600.092
697.221	387.013
701.844	364.411
706.465	164.578
711.083	144.516
715.698	179.774
720.311	17.821
724.922	38.9424
729.53	3.65137
734.135	42.8101
738.738	9.46435
743.338	10.967
747.936	77.5862
752.531	22.0081
757.124	58.3655
761.714	64.7312
766.302	63.9895
770.887	54.1047
775.469	74.0041
780.049	94.7046
784.626	20.1177
789.201	6.81323
793.773	40.1279
798.343	13.9514
802.91	38.2632
807.475	29.0403
812.037	11.2224
816.596	27.3672
821.153	45.1753
825.707	45.0671
830.259	7.27051
834.808	245.414
839.355	512.01
843.899	1276.52
848.441	2029.96
852.98	1160.34
857.516	494.665
862.05	376.432
866.581	255.711
871.11	307.952
875.636	303.845
880.159	225.188
884.68	219.618
889.199	258.06
893.714	340.164
898.228	311.322
902.738	397.494
907.246	462.811
911.752	424.675
916.255	378.06
920.755	314.813
925.253	325.772
929.748	195.37
934.241	67.5151
938.731	63.7637
943.218	51.4163
947.703	136.743
952.186	266.692
956.665	312.992
961.142	360.391
965.617	474.921
970.089	525.953
974.558	746.194
979.025	946.885
983.489	996.232
987.951	1486.03
992.41	2357.02
996.866	3993.2
1001.32	8354.64
1005.77	21686.3
1010.22	51021.3
1014.67	44572.5
1019.11	15754.9
1023.55	6739.54
1027.99	4499.98
1032.42	4515.19
1036.86	6068.93
1041.29	6607.11
1045.72	3694.65
1050.14	1891.02
1054.56	1210.92
1058.98	881.836
1063.4	628.827
1067.82	485.635
1072.23	477.806
1076.64	551.082
1081.05	507.374
1085.45	408.718
1089.85	410.578
1094.25	433.413
1098.65	430.935
1103.04	299.314
1107.43	312.835
1111.82	354.306
1116.21	402.287
1120.59	577.115
1124.97	702.134
1129.35	418.506
1133.73	327.895
1138.1	282.305
1142.47	219.728
1146.84	186.149
1151.21	9.39014
1155.57	54.9736
1159.93	54.667
1164.29	41.9634
1168.64	50.8799
1172.99	14.9785
1177.34	23.6392
1181.69	36.8794
1186.04	72.3682
1190.38	7.52686
1194.72	56.7075
1199.05	48.2217
1203.39	66.0254
1207.72	26.1265
1212.05	13.499
1216.37	55.8608
1220.7	48.0444
1225.02	42.0518
1229.34	11.1094
1233.65	7.48584
1237.97	26.9019
1242.28	50.1748
1246.59	102.34
1250.89	148.407
1255.19	122.321
1259.49	170.085
1263.79	143.696
1268.09	157.52
1272.38	238.099
1276.67	164.266
1280.95	116.054
1285.24	35.0815
1289.52	126.336
1293.8	156.954
1298.08	155.801
1302.35	76.5083
1306.62	97.8154
1310.89	232.76
1315.15	217.256
1319.42	169.324
1323.68	187.944
1327.94	116.739
1332.19	149.433
1336.44	154.818
1340.69	216.669
1344.94	172.484
1349.19	187.142
1353.43	162.981
1357.67	132.409
1361.9	112.632
1366.14	132.295
1370.37	123.45
1374.6	150.455
1378.83	137.505
1383.05	153.485
1387.27	105.385
1391.49	87.3511
1395.7	30.2739
1399.92	180.09
1404.13	74.8052
1408.34	135.293
1412.54	40.4893
1416.74	98.4048
1420.94	53.5039
1425.14	16.0947
1429.34	31.5112
1433.53	50.8955
1437.72	68.0767
1441.9	92.3657
1446.09	118.393
1450.27	9.28955
1454.45	88.2163
1458.63	149.769
1462.8	103.746
1466.97	159.099
1471.14	102.538
1475.31	65.835
1479.47	30.9839
1483.63	95.2349
1487.79	45.8516
1491.94	193.871
1496.09	15.5288
1500.24	34.3833
1504.39	123.648
1508.54	94.4565
1512.68	142.321
1516.82	52.9351
1520.95	67.3857
1525.09	68.3838
1529.22	35.7349
1533.35	54.0781
1537.47	50.1484
1541.6	0.945313
1545.72	99.7007
1549.83	53.4995
1553.95	93.7866
1558.06	71.2896
1562.17	72.0654
1566.28	72.0674
1570.38	61.8569
