Measurement: Raman, 514 nm, ccw, Raman Data Processed
Mineral: Diopside
Rruff sample: R050496
Ideal chemistry: CaMgSi_2_O_6_
Locality: New City Quarry, Riverside, Riverside County, Calfornia, USA
Source: California Institute of Technology
Description: Aggregate of light green irregular grains
Measured chemistry: Ca(Mg_0.66_Fe_0.33_Mn_0.01_)(Si_0.95_Al_0.05_)_2_O_6_
Pin_id: M01464
Orientation: Laser parallel to b* (0 1 0). Fiducial mark perpendicular to laser is parallel to -c [0 0 -1]
Raman shift (cm-1)	intensity
99.467	0
104.409	20.0083
109.349	453.968
114.286	590.566
119.22	1274.48
124.152	1460.08
129.081	2036.42
134.008	5316.28
138.932	9689.17
143.854	6109.61
148.773	2321.35
153.69	965.102
158.604	441.416
163.515	299.853
168.424	209.84
173.33	306.587
178.234	327.385
183.135	195.027
188.034	365.999
192.93	347.81
197.823	443.989
202.714	362.722
207.602	43.9839
212.488	66.6958
217.371	55.1597
222.252	32.4863
227.13	52.4902
232.005	98.8496
236.878	29.2441
241.749	139.637
246.616	6.86084
251.482	52.8852
256.344	158.054
261.204	12.9609
266.062	18.3599
270.917	22.4453
275.769	101.469
280.619	85.6191
285.466	51.9053
290.311	64.1099
295.153	323.959
299.992	444.512
304.829	963.988
309.663	1747.62
314.495	3152.26
319.324	5159.2
324.151	6332.61
328.975	5534.56
333.796	4271.6
338.615	3774.27
343.432	3894.3
348.245	4678.75
353.056	5980.5
357.865	5853.45
362.671	4829.19
367.474	3940.82
372.275	3824.99
377.073	5051.94
381.869	8084.61
386.662	12638.7
391.452	12311.5
396.24	6989.2
401.025	3181.27
405.808	1630.06
410.588	1012.02
415.366	737.617
420.141	656.523
424.913	465.214
429.683	496.405
434.45	296.888
439.214	340.834
443.976	296.204
448.736	289.266
453.493	469.211
458.247	690.605
462.998	572.876
467.747	653.731
472.494	656.028
477.238	789.212
481.979	628.116
486.718	753.345
491.454	791.879
496.187	694.7
500.918	990.807
505.646	1037.26
510.372	1047.19
515.095	1195.67
519.816	1638.47
524.534	2038.51
529.249	2550.79
533.962	2363.36
538.672	2105.14
543.379	1867.07
548.084	1685.69
552.786	1524.44
557.486	1323.81
562.183	1402.4
566.878	1152.46
571.57	1136.73
576.259	784.055
580.946	543.71
585.63	229.025
590.311	5.28613
594.99	93.2197
599.667	23.5967
604.34	71.5928
609.012	113.575
613.68	132.051
618.346	311.252
623.009	599.515
627.67	906.991
632.328	1078.94
636.984	1586.62
641.636	2402.01
646.287	3540.12
650.934	5901.93
655.579	10343.4
660.222	19861.6
664.862	30893.4
669.499	25180.9
674.134	13222
678.766	6759.44
683.395	3788.82
688.022	2218.83
692.646	1574.45
697.268	1013.69
701.887	520.536
706.503	402.978
711.117	224.012
715.728	72.6318
720.337	75.7871
724.943	34.3291
729.546	129.631
734.147	47.7744
738.745	2.87402
743.341	109.365
747.933	37.7451
752.524	22.8018
757.111	30.9648
761.697	86.165
766.279	65.0264
770.859	210.566
775.436	163.825
780.011	223.812
784.583	348.508
789.152	441.978
793.719	357.176
798.283	313.318
802.845	89.0703
807.404	83.5723
811.96	25.0234
816.514	45.124
821.065	78.1094
825.613	59.9463
830.159	70.6504
834.703	178.236
839.243	287.717
843.781	693.107
848.317	1965.42
852.849	4764.74
857.38	5865.73
861.907	3995.6
866.432	2204.6
870.954	1292.74
875.474	946.618
879.991	649.418
884.506	405.022
889.018	252.182
893.527	180.349
898.034	98.0537
902.538	212.209
907.039	58.1357
911.538	142.731
916.034	54.7617
920.528	122.172
925.018	67.9961
929.507	232.21
933.992	139.765
938.476	303.769
942.956	299.119
947.434	266.151
951.909	393.295
956.382	677.785
960.852	706.801
965.319	923.238
969.784	816.061
974.246	907.26
978.705	859.83
983.162	990.766
987.616	1296.07
992.068	1824.77
996.517	3111.99
1000.96	5557.94
1005.41	10973.1
1009.85	19388.8
1014.29	22219.8
1018.72	11601.7
1023.16	5591.22
1027.59	3386.79
1032.02	2377.86
1036.44	2261.57
1040.86	2528.47
1045.28	2630.72
1049.7	2101
1054.12	1347.82
1058.53	1224.97
1062.94	943.109
1067.35	685.362
1071.75	565.773
1076.15	528.501
1080.55	616.052
1084.95	559.113
1089.34	443.044
1093.73	495.365
1098.12	588.677
1102.51	467.565
1106.89	476.072
1111.27	469.222
1115.65	383.307
1120.03	371.305
1124.4	416.329
1128.77	431.496
1133.14	289.399
1137.5	230.415
1141.86	286.394
1146.22	115.543
1150.58	45.4062
1154.93	55.1826
1159.29	72.8213
1163.64	127.57
1167.98	48.2022
1172.33	114.18
1176.67	96.5186
1181.01	65.5693
1185.34	40.6992
1189.68	44.5039
1194.01	91.4199
1198.34	155.981
1202.66	37.1553
1206.99	113.066
1211.31	167.661
1215.62	49.956
1219.94	29.918
1224.25	97.2871
1228.56	66.3535
1232.87	12.1445
1237.17	58.6494
1241.48	198.915
1245.78	102.944
1250.07	281.739
1254.37	157.323
1258.66	198.696
1262.95	169.834
1267.23	329.736
1271.52	201.402
1275.8	199.833
1280.08	232.774
1284.35	116.717
1288.63	130.116
1292.9	89.1592
1297.16	106.274
1301.43	151.337
1305.69	123.158
1309.95	44.4268
1314.21	254.369
1318.46	313.514
1322.72	199.078
1326.97	36.4287
1331.21	173.825
1335.46	172.428
1339.7	19.8926
1343.94	138.683
1348.18	261.191
1352.41	141.56
1356.64	150.218
1360.87	290.82
1365.1	277.87
1369.32	239.968
1373.54	204.958
1377.76	193.039
1381.97	173.776
1386.19	129.82
1390.4	188.859
1394.6	65.8994
1398.81	183.942
1403.01	27.2246
1407.21	61.8535
1411.41	164.978
1415.6	146.19
1419.79	74.0391
1423.98	15.3779
1428.17	150.067
1432.35	32.7822
1436.54	9.01562
1440.71	111.815
1444.89	172.29
1449.06	146.77
1453.23	95.0576
1457.4	159.736
1461.57	145.815
1465.73	247.26
1469.89	110.149
1474.05	165.243
1478.2	196.489
1482.36	134.818
1486.51	72.2754
1490.65	47.9287
1494.8	159.717
1498.94	314.804
1503.08	74.1768
1507.22	162.973
1511.35	162.808
1515.48	123.978
1519.61	40.2197
1523.74	176.064
1527.86	75.2168
1531.98	206.806
1536.1	186.922
1540.22	193.709
1544.33	95.6084
1548.44	208.55
1552.55	305.194
1556.65	204.546
1560.76	92.1045
1564.86	97.2334
1568.95	173.765
1573.05	107.252
1577.14	122.149
