Measurement: Raman, 514 nm, ccw, Raman Data Processed
Mineral: Diopside
Rruff sample: R050496
Ideal chemistry: CaMgSi_2_O_6_
Locality: New City Quarry, Riverside, Riverside County, Calfornia, USA
Source: California Institute of Technology
Description: Aggregate of light green irregular grains
Measured chemistry: Ca(Mg_0.66_Fe_0.33_Mn_0.01_)(Si_0.95_Al_0.05_)_2_O_6_
Pin_id: M01175
Orientation: Laser parallel to c* (0 0 1). Fiducial mark perpendicular to laser is parallel to -a [-1 0 0]
Raman shift (cm-1)	intensity
121.686	0
126.617	4.65527
131.545	181.275
136.471	312.468
141.393	242.298
146.314	308.317
151.232	77.0117
156.147	62.9482
161.06	251.913
165.97	169.275
170.877	104.525
175.782	44.9512
180.685	45.8096
185.585	91.9375
190.482	85.2246
195.377	221.582
200.269	20.3867
205.158	86.5664
210.045	66.084
214.93	26.3525
219.812	185.12
224.691	212.401
229.568	207.321
234.442	288.792
239.314	210.738
244.183	171.571
249.049	183.981
253.913	319.397
258.775	275.331
263.633	257.765
268.49	418.771
273.343	331.883
278.194	237.016
283.043	170.914
287.889	341.665
292.732	451.201
297.573	672.79
302.411	898.706
307.247	1309.14
312.08	1978.52
316.91	2577.06
321.738	3397.08
326.563	3335.61
331.386	2567.87
336.206	2205.21
341.024	1982.92
345.839	2102
350.651	2448.13
355.461	2437.96
360.268	1798.03
365.073	1346.46
369.875	1139.21
374.674	1247.26
379.471	1838.6
384.266	2631.22
389.057	3255.11
393.846	2022.27
398.633	1124.68
403.417	380.326
408.198	271.209
412.977	293.317
417.753	132.727
422.527	139.456
427.298	71.4502
432.067	119.281
436.832	33.1123
441.596	135.152
446.356	162.343
451.115	11.1748
455.87	201.438
460.623	328.875
465.373	174.343
470.121	168.246
474.866	285.445
479.609	220.881
484.349	86.4453
489.086	299.102
493.821	159.838
498.553	61.6719
503.283	304.592
508.01	504.553
512.734	548.54
517.456	658.542
522.175	680.543
526.892	859.534
531.606	891.513
536.317	723.465
541.026	662.375
545.732	477.228
550.436	770.012
555.137	629.717
559.835	741.369
564.531	545.188
569.224	307.877
573.915	442.438
578.603	191.022
583.288	20.5898
587.971	25.6045
592.651	114.309
597.329	61.3262
602.004	65.5439
606.676	179.704
611.346	166.565
616.013	284.281
620.678	299.428
625.34	556.434
629.999	465.598
634.656	1021.43
639.31	1324.55
643.962	1765.18
648.611	2887.09
653.257	4551.52
657.901	8440.55
662.542	14790.2
667.181	15824.4
671.817	9070.2
676.45	4434.74
681.081	2469.05
685.709	1554.49
690.334	875.873
694.957	696.059
699.578	422.498
704.195	227.738
708.811	244.363
713.423	311.037
718.033	226.367
722.64	97.8574
727.245	110.871
731.847	54.8828
736.446	5.60938
741.043	187.607
745.637	92.3594
750.229	164.367
754.818	8.69922
759.404	328.555
763.988	306.375
768.569	287.459
773.148	434.457
777.724	229.496
782.297	369.795
786.868	628.629
791.436	305.09
796.001	391.188
800.564	315.934
805.125	67.3379
809.682	151.375
814.237	108.068
818.79	214.434
823.339	327.49
827.887	136.242
832.431	0.691406
836.973	20.252
841.513	40.2695
846.049	344.475
850.583	860.822
855.115	1684.14
859.644	1444.64
864.17	908.693
868.694	452.795
873.215	222.809
877.733	228.197
882.249	220.432
886.762	69.4922
891.273	189.637
895.781	156.705
900.286	2.90039
904.789	13.5723
909.289	0.947266
913.786	45.5801
918.281	98.1797
922.773	20.043
927.263	118.148
931.75	147.309
936.234	133.541
940.716	136.273
945.195	46.9648
949.672	228.074
954.146	231.582
958.617	534.377
963.086	785.748
967.552	950.875
972.015	722.484
976.476	842.184
980.934	1045.57
985.39	868.117
989.843	1755.86
994.293	2642.83
998.741	4328.15
1003.19	7623.03
1007.63	14025.3
1012.07	20436.8
1016.5	13568.8
1020.94	6159.89
1025.37	3411.79
1029.8	2671.8
1034.23	2233.41
1038.65	2469.69
1043.07	2806.84
1047.49	2287.8
1051.91	1621.89
1056.32	1000.03
1060.73	791.801
1065.14	437.545
1069.55	472.549
1073.95	309.074
1078.35	393.967
1082.75	218
1087.14	429.268
1091.54	389.4
1095.93	325.955
1100.31	409.728
1104.7	514.758
1109.08	307.623
1113.46	455.856
1117.84	263.336
1122.21	253.428
1126.58	167.769
1130.95	288.897
1135.32	327.695
1139.68	375.068
1144.04	227.795
1148.4	178.514
1152.76	268.203
1157.11	58.9238
1161.46	186.606
1165.81	93.4844
1170.16	60.6582
1174.5	254.525
1178.84	172.598
1183.18	166.445
1187.51	209.777
1191.84	108.693
1196.17	117.397
1200.5	154.84
1204.83	179.1
1209.15	334.959
1213.47	178.742
1217.78	108.492
1222.1	369.475
1226.41	81.2129
1230.72	178.697
1235.02	254.935
1239.33	277.904
1243.63	227.607
1247.92	258.051
1252.22	132.231
1256.51	447.154
1260.8	294.82
1265.09	307.408
1269.38	532.572
1273.66	362.779
1277.94	186.435
1282.21	412.234
1286.49	107.26
1290.76	56.8359
1295.03	160.432
1299.3	42.7656
1303.56	212.252
1307.82	8.37109
1312.08	538.305
1316.34	365.076
1320.59	392.908
1324.84	430.785
1329.09	181.367
1333.34	24.2402
1337.58	53.4199
1341.82	254.33
1346.06	180.723
1350.29	234.486
1354.53	296.836
1358.76	451.244
1362.98	390.639
1367.21	496.119
1371.43	269.111
1375.65	151.945
1379.87	451.621
1384.08	254.531
1388.29	1.91406
1392.5	466.717
1396.71	228.473
1400.91	106.223
1405.11	306.824
1409.31	345.34
1413.51	337.471
1417.7	317.852
1421.89	54.4492
1426.08	238.295
1430.26	231.227
1434.44	246.248
1438.62	142.435
1442.8	174.334
1446.98	306.482
1451.15	331.625
1455.32	380.568
1459.49	248.152
1463.65	371.322
1467.81	13.5703
1471.97	315.998
1476.13	281.453
1480.28	228.928
1484.43	295.57
1488.58	292.719
1492.73	337.275
1496.87	50.959
1501.01	152.33
1505.15	341.998
1509.29	27.9102
1513.42	299.873
1517.55	307.721
1521.67	262.635
1525.8	318.312
1529.92	323.625
1534.04	253.742
1538.16	399.894
1542.27	204.137
1546.39	282.992
1550.49	66.7461
1554.6	27.6641
1558.71	456.203
1562.81	191.273
1566.91	260.965
1571	264.066
1575.1	250.254
