Measurement: Raman, 514 nm, depolarized, Raman Data Processed
Mineral: Diopside
Rruff sample: R050496
Ideal chemistry: CaMgSi_2_O_6_
Locality: New City Quarry, Riverside, Riverside County, Calfornia, USA
Source: California Institute of Technology
Description: Aggregate of light green irregular grains
Measured chemistry: Ca(Mg_0.66_Fe_0.33_Mn_0.01_)(Si_0.95_Al_0.05_)_2_O_6_
Pin_id: M01464
Orientation: Laser parallel to b* (0 1 0). Fiducial mark perpendicular to laser is parallel to -c [0 0 -1]
Raman shift (cm-1)	intensity
114.286	0
119.22	355.966
124.152	454.177
129.081	990.056
134.008	2860.94
138.932	5711.79
143.854	3000.61
148.773	987.17
153.69	461.075
158.604	38.0293
163.515	74.4004
168.424	311.822
173.33	406.279
178.234	628.812
183.135	383.125
188.034	310.773
192.93	409.541
197.823	413.828
202.714	458.4
207.602	49.2656
212.488	89.3779
217.371	51.2647
222.252	36.8076
227.13	167.027
232.005	673.226
236.878	382.42
241.749	305.442
246.616	361.448
251.482	23.0566
256.344	153.902
261.204	27.4717
266.062	71.1758
270.917	157.167
275.769	64.833
280.619	143.609
285.466	103.474
290.311	123.801
295.153	458.026
299.992	739.977
304.829	1262.95
309.663	2107.26
314.495	3508.92
319.324	5219.68
324.151	5813.02
328.975	4802.8
333.796	3426.84
338.615	2762.15
343.432	2507.48
348.245	2781.97
353.056	3230.65
357.865	2803.76
362.671	1896.44
367.474	1531.38
372.275	1766.94
377.073	1937.72
381.869	3133.7
386.662	4860.9
391.452	4803.32
396.24	2487.04
401.025	949.889
405.808	357.938
410.588	196.121
415.366	159.359
420.141	95.1621
424.913	215.781
429.683	87.1562
434.45	19.4277
439.214	5.86719
443.976	36.3906
448.736	72.8945
453.493	324.795
458.247	173.113
462.998	195.565
467.747	285.566
472.494	197.164
477.238	295.422
481.979	552.805
486.718	590.322
491.454	544.894
496.187	978.502
500.918	1727.04
505.646	2328.74
510.372	1466.31
515.095	1301.94
519.816	1485.55
524.534	1459.12
529.249	1778.63
533.962	1566.08
538.672	1433.47
543.379	1443.79
548.084	1161.02
552.786	1113.13
557.486	1114.13
562.183	1202.05
566.878	1363.96
571.57	1199.71
576.259	896.713
580.946	707.861
585.63	159.707
590.311	156.543
594.99	4.72266
599.667	72.9883
604.34	141.875
609.012	108.566
613.68	364.871
618.346	361.5
623.009	629.549
627.67	859.129
632.328	1047.09
636.984	1322.55
641.636	1812.66
646.287	2786.37
650.934	4677.67
655.579	7862.56
660.222	15681
664.862	23622
669.499	18023.9
674.134	9415.3
678.766	4926.02
683.395	2659.3
688.022	1559.13
692.646	1204.52
697.268	694.461
701.887	515.965
706.503	288.012
711.117	283.609
715.728	321.785
720.337	200.51
724.943	29.4004
729.546	129.361
734.147	36.6992
738.745	87.7988
743.341	41.6562
747.933	115.842
752.524	80.7481
757.111	47.4651
761.697	72.707
766.279	118.178
770.859	97.2441
775.436	161.133
780.011	205.336
784.583	219.303
789.152	292.898
793.719	207.207
798.283	395.25
802.845	193.029
807.404	221.56
811.96	303.85
816.514	496.914
821.065	605.769
825.613	607.432
830.159	404.908
834.703	238.211
839.243	235.356
843.781	213.353
848.317	615.219
852.849	2071.3
857.38	2325.39
861.907	1467.3
866.432	854.545
870.954	674.381
875.474	378.773
879.991	214.576
884.506	146.236
889.018	93.4512
893.527	150.732
898.034	232.606
902.538	42.3223
907.039	62.6426
911.538	167.178
916.034	248.398
920.528	4.92578
925.018	367.322
929.507	104.969
933.992	342.879
938.476	240.004
942.956	311.24
947.434	198.711
951.909	198.715
956.382	627.951
960.852	480.422
965.319	621.137
969.784	572.098
974.246	843.301
978.705	760.766
983.162	1004.48
987.616	1398.51
992.068	2106
996.517	3475.96
1000.96	7377.32
1005.41	11450.2
1009.85	20041.9
1014.29	22008.2
1018.72	10865.5
1023.16	5500.94
1027.59	3084.98
1032.02	2348.75
1036.44	2456.47
1040.86	2472.62
1045.28	2526.14
1049.7	1903.4
1054.12	1185.11
1058.53	973.066
1062.94	654.16
1067.35	479.443
1071.75	649.938
1076.15	410.843
1080.55	385.047
1084.95	485.72
1089.34	449.122
1093.73	446.19
1098.12	351.125
1102.51	324.92
1106.89	165.647
1111.27	451.465
1115.65	240.416
1120.03	229.998
1124.4	316.887
1128.77	242.543
1133.14	349.213
1137.5	347.602
1141.86	126.867
1146.22	109.018
1150.58	67.6499
1154.93	69.6289
1159.29	61.9512
1163.64	28.1875
1167.98	51.4453
1172.33	50.1133
1176.67	83.166
1181.01	4.3125
1185.34	230.769
1189.68	274.328
1194.01	8.56836
1198.34	117.275
1202.66	115.201
1206.99	129.023
1211.31	72.8594
1215.62	341.434
1219.94	337.83
1224.25	274.928
1228.56	261.785
1232.87	131.391
1237.17	122.738
1241.48	240.834
1245.78	318.648
1250.07	56.8535
1254.37	450.176
1258.66	317.961
1262.95	145.504
1267.23	146.42
1271.52	354.353
1275.8	187.842
1280.08	128.625
1284.35	231.465
1288.63	168.992
1292.9	184.916
1297.16	195.211
1301.43	18.9395
1305.69	126.883
1309.95	379.195
1314.21	429.33
1318.46	380.701
1322.72	376.682
1326.97	214.967
1331.21	201.447
1335.46	418.469
1339.7	386.654
1343.94	73.5
1348.18	375.223
1352.41	271.576
1356.64	202
1360.87	639.096
1365.1	472.098
1369.32	429.025
1373.54	227.721
1377.76	340.568
1381.97	151.432
1386.19	162.24
1390.4	417.443
1394.6	77.3594
1398.81	237.373
1403.01	335.432
1407.21	209.328
1411.41	309.277
1415.6	234.443
1419.79	254.139
1423.98	303.758
1428.17	298.193
1432.35	365.512
1436.54	73.9394
1440.71	304.662
1444.89	415.617
1449.06	259.033
1453.23	187.99
1457.4	249.596
1461.57	97.6914
1465.73	343.85
1469.89	361.109
1474.05	323.434
1478.2	318.898
1482.36	310.746
1486.51	146.699
1490.65	372.957
1494.8	246.383
1498.94	326.922
1503.08	247.824
1507.22	235.117
1511.35	197.356
1515.48	177.684
1519.61	382.434
1523.74	215.719
1527.86	456.559
1531.98	244.035
1536.1	296.613
1540.22	460.195
1544.33	42.1758
1548.44	217.051
1552.55	445.891
1556.65	310.109
1560.76	313.512
1564.86	215.934
1568.95	145.777
1573.05	258.027
1577.14	0.546875
