Measurement: Raman, 514 nm, ccw, Raman Data Processed
Mineral: Diopside
Rruff sample: R060085
Ideal chemistry: CaMgSi_2_O_6_
Locality: Tyrol, Austria
Source: University of Arizona Mineral Museum
Description: Brownish-green massive
Measured chemistry: (Ca_0.97_Na_0.03_)_Σ=1_(Mg_0.79_Fe^2+^_0.10_Fe^3+^_0.04_Al_0.04_Ti_0.02_Cr_0.01_)_Σ=1_(Si_1.90_Al_0.10_)_Σ=2_O_6_
Pin_id: M00509
Orientation: Laser parallel to a* (1 0 0). Fiducial mark perpendicular to laser is parallel to b [0 1 0]
Raman shift (cm-1)	intensity
91.916	0
96.869	93.3682
101.82	101.192
106.768	344.481
111.713	231.999
116.656	331.072
121.596	425.81
126.533	435.43
131.467	763.923
136.399	1030.39
141.328	1098.12
146.254	531.015
151.178	324.845
156.098	234.551
161.017	173.234
165.932	160.123
170.845	31.4023
175.755	103.068
180.662	198.865
185.567	150.481
190.469	186.27
195.368	372.273
200.264	221.009
205.158	197.558
210.049	103.568
214.937	32.4688
219.823	320.19
224.706	374.54
229.586	420.558
234.464	522.387
239.339	238.786
244.211	204.18
249.081	26.4189
253.947	296.719
258.812	62.3008
263.673	100.721
268.532	150.418
273.388	11.3223
278.241	76.9102
283.092	184.261
287.94	21.7432
292.785	175.15
297.628	312.562
302.468	336.483
307.305	436.617
312.14	590.922
316.972	932.615
321.801	1749.81
326.628	1938.58
331.451	1536.71
336.273	1045.39
341.091	858.572
345.907	696.328
350.72	739.237
355.531	888.821
360.339	1059.33
365.144	867.284
369.947	946.357
374.746	770.32
379.544	814.178
384.338	971.841
389.13	1677.29
393.919	1998.08
398.706	1292.98
403.49	680.236
408.271	241.385
413.05	235.078
417.826	13.3916
422.599	123.888
427.37	104.228
432.138	101.685
436.903	72.9961
441.666	117.31
446.426	16.5791
451.183	55.956
455.938	157.935
460.69	156.87
465.44	127.823
470.187	65.3555
474.931	80.3213
479.672	188.226
484.411	150.333
489.148	193.919
493.881	293.517
498.612	270.03
503.341	287.379
508.066	250.607
512.789	601.714
517.51	360.65
522.228	574.423
526.943	558
531.656	659.428
536.365	670.721
541.073	406.833
545.778	630.753
550.48	361.518
555.179	356.37
559.876	362.282
564.57	440.11
569.262	332.746
573.951	207.673
578.637	242.147
583.321	190.656
588.002	73.2266
592.68	134.31
597.356	128.56
602.03	1.40918
606.7	53.0107
611.368	94.9463
616.034	86.9668
620.697	152.038
625.357	240.582
630.014	120.565
634.67	223.06
639.322	321.717
643.972	385.56
648.619	572.937
653.264	798.943
657.906	1722.15
662.545	3009.19
667.182	4247.46
671.816	2886.68
676.448	1520.81
681.077	1164.14
685.703	655.201
690.327	555.204
694.948	379.906
699.567	432.344
704.183	359.422
708.797	362.406
713.407	217.676
718.016	273.392
722.621	323.959
727.225	201.554
731.825	312.224
736.423	304.538
741.019	215.254
745.611	128.435
750.202	41.6045
754.789	73.8506
759.374	48.706
763.957	206.734
768.537	155.514
773.114	192.746
777.689	154.066
782.261	138.662
786.831	80.3652
791.398	97.6699
795.963	54.0898
800.524	169.982
805.084	19.7363
809.641	102.775
814.195	21.6289
818.747	81.0098
823.296	285.385
827.842	253.443
832.386	274.162
836.928	178.824
841.467	228.428
846.003	122.475
850.537	228.356
855.068	288.969
859.597	624.582
864.123	584.969
868.646	343.361
873.167	208.383
877.686	183.562
882.202	317.947
886.715	145.197
891.226	45.4004
895.734	144.656
900.24	9.56445
904.743	117.262
909.244	79.0742
913.742	8.53711
918.238	22.2598
922.731	131.935
927.221	134.935
931.709	128.34
936.195	88.2519
940.678	225.582
945.158	126.455
949.636	135.221
954.111	43.0117
958.584	112.805
963.054	154.916
967.522	36.4004
971.987	8.11914
976.45	128.668
980.91	377.5
985.368	417.912
989.823	700.764
994.275	689.709
998.725	1244.75
1003.17	2248.02
1007.62	2979.53
1012.06	3697.54
1016.5	2371.98
1020.94	1216.84
1025.37	691.664
1029.81	488.82
1034.23	461.953
1038.66	537.457
1043.09	436.496
1047.51	270.596
1051.93	218.66
1056.35	241.062
1060.76	178.853
1065.17	269.723
1069.58	132.096
1073.99	254.705
1078.4	159.488
1082.8	197.408
1087.2	104.174
1091.6	7.6875
1095.99	336.35
1100.38	42.0527
1104.77	147.295
1109.16	120.898
1113.55	140.135
1117.93	4.89258
1122.31	309.894
1126.68	117.371
1131.06	158.756
1135.43	117.047
1139.8	2.10352
1144.17	19.5
1148.54	225.918
1152.9	152.156
1157.26	4.43945
1161.62	99.959
1165.97	141.633
1170.32	134.998
1174.67	88.5703
1179.02	345.867
1183.37	80.5566
1187.71	203.066
1192.05	144.744
1196.39	250.783
1200.72	236.008
1205.05	78.4238
1209.38	149.184
1213.71	220.394
1218.04	182.482
1222.36	259.051
1226.68	307.008
1231	291.113
1235.31	108.162
1239.63	346.941
1243.94	195.139
1248.25	276.078
1252.55	79.9375
1256.86	303.356
1261.15	72.4688
1265.45	196.147
1269.75	333.227
1274.04	444.408
1278.33	145.6
1282.62	58.7637
1286.91	152.494
1291.19	47.6719
1295.47	258.531
1299.75	185.301
1304.03	139.469
1308.3	208.453
1312.57	298.451
1316.84	381.387
1321.11	336.197
1325.37	351.191
1329.63	111.307
1333.89	155.613
1338.15	32.2891
1342.4	91.166
1346.65	44.3281
1350.9	299.902
1355.15	421.076
1359.4	325.553
1363.64	239.766
1367.88	441.045
1372.12	299.379
1376.35	373.822
1380.58	331.045
1384.81	486.871
1389.04	363.16
1393.26	65
1397.49	422.744
1401.71	230.441
1405.92	184.205
1410.14	139.184
1414.35	3.12109
1418.56	119.203
1422.77	338.586
1426.98	93.8691
1431.18	259.471
1435.38	310.803
1439.58	305.648
1443.78	609.896
1447.97	204.637
1452.16	668.229
1456.35	628.408
1460.54	377.779
1464.72	429.772
1468.9	478.381
1473.08	430.082
1477.26	130.887
1481.43	231.807
1485.6	420.336
1489.77	110.963
1493.94	148.246
1498.1	227.422
1502.27	264.975
1506.43	30.6641
1510.58	179.201
1514.74	10.2852
1518.89	3.66797
1523.04	338.449
1527.19	320.344
1531.34	273.697
1535.48	127.586
1539.62	263.117
1543.76	85.4609
1547.89	394.865
1552.03	422.018
1556.16	153.068
1560.29	159.535
1564.41	42.959
1568.54	271.74
1572.66	93.3242
1576.78	227.766
