Measurement: Raman, 514 nm, ccw, Raman Data Processed
Mineral: Diopside
Rruff sample: R050496
Ideal chemistry: CaMgSi_2_O_6_
Locality: New City Quarry, Riverside, Riverside County, Calfornia, USA
Source: California Institute of Technology
Description: Aggregate of light green irregular grains
Measured chemistry: Ca(Mg_0.66_Fe_0.33_Mn_0.01_)(Si_0.95_Al_0.05_)_2_O_6_
Pin_id: M01175
Orientation: Laser parallel to c* (0 0 1). Fiducial mark perpendicular to laser is parallel to -a [-1 0 0]
Raman shift (cm-1)	intensity
130.313	0
135.239	183.454
140.163	350.475
145.084	361.132
150.002	200.48
154.918	54.4941
159.832	39.5732
164.742	305.155
169.651	51.706
174.556	224.154
179.459	474.361
184.36	374.299
189.258	332.985
194.153	433.417
199.046	263.795
203.936	393.172
208.824	258.066
213.709	395.932
218.592	411.308
223.472	589.718
228.349	825.185
233.224	765.127
238.096	488.187
242.966	361.781
247.833	463.865
252.698	260.418
257.56	327.418
262.419	61.8477
267.276	14.6836
272.13	23.8936
276.982	16.208
281.831	36.2822
286.677	285.556
291.521	204.433
296.363	580.742
301.202	956.001
306.038	1245.93
310.872	2015.81
315.703	3719.6
320.531	5375
325.357	5534.15
330.181	3959.72
335.001	2462.61
339.82	1789.8
344.635	1428.26
349.448	1581.84
354.259	1620.42
359.067	1413.22
363.872	1318.23
368.675	1329.44
373.475	1885.85
378.272	3464.44
383.067	6035.2
387.86	9078.11
392.649	7707.17
397.437	3793.36
402.221	1604.67
407.003	635.087
411.783	452.029
416.56	361.127
421.334	194.94
426.106	190.285
430.875	98.1152
435.641	131.033
440.405	11.0742
445.167	86.2402
449.925	42.6397
454.681	145.838
459.435	35.3018
464.186	259.604
468.934	170.037
473.68	215.481
478.423	123.717
483.164	191.274
487.902	353.602
492.637	192.425
497.37	386.874
502.1	267.106
506.828	433.188
511.553	476.102
516.276	624.831
520.995	716.363
525.713	1046.69
530.427	1227.85
535.139	989.909
539.849	808.792
544.556	724.455
549.26	698.861
553.962	1013
558.661	943.863
563.357	849.767
568.051	677.408
572.742	650.642
577.431	443.62
582.117	356.148
586.801	3.73731
591.481	124.614
596.16	15.085
600.835	86.0459
605.508	40.9346
610.179	11.8682
614.847	163.921
619.512	42.9053
624.175	64.2471
628.835	218.096
633.492	223.343
638.147	393.411
642.799	622.977
647.449	805.493
652.096	1428.89
656.74	2386.38
661.382	4691.7
666.021	6671.83
670.658	4882.64
675.292	2640.36
679.923	1519.09
684.552	1033.49
689.178	743.621
693.802	410.94
698.423	326.287
703.041	479.213
707.657	283.916
712.27	77.666
716.881	53.2754
721.489	51.7793
726.094	40.1465
730.697	43.6641
735.297	214.188
739.894	6.48828
744.489	50.7148
749.081	84.6543
753.671	50.8105
758.258	84.0273
762.842	122.555
767.424	229.121
772.003	33.0859
776.58	159.523
781.154	222.728
785.725	132.578
790.294	260.065
794.86	322.1
799.424	53.7773
803.985	30.1855
808.543	97.9648
813.099	29.9082
817.652	7.9043
822.202	56.3672
826.75	207.522
831.295	227.393
835.838	62.9434
840.378	25.9375
844.915	167.705
849.45	80.5625
853.982	63.5605
858.512	22.3145
863.039	133.09
867.563	91.7012
872.085	32.752
876.604	92.2109
881.12	46.8965
885.634	230.26
890.145	168.303
894.654	260.137
899.16	134.102
903.663	242.047
908.164	173.508
912.662	119.438
917.158	3.97852
921.651	88.0059
926.141	50.9375
930.628	3.27344
935.113	93.3867
939.596	164.557
944.076	132.457
948.553	136.523
953.027	274.59
957.499	151.834
961.969	410.904
966.435	560.016
970.899	726.445
975.361	700.854
979.82	960.439
984.276	895.176
988.73	1491.56
993.181	2182
997.629	3433.73
1002.08	5927.97
1006.52	10585.2
1010.96	18191.6
1015.4	16202.6
1019.83	7312.07
1024.26	3375.85
1028.69	2193.53
1033.12	1798.75
1037.55	1732.25
1041.97	1782.76
1046.39	1562.29
1050.81	785.791
1055.22	653.84
1059.63	607.402
1064.04	528.418
1068.45	135.959
1072.85	269.49
1077.25	244.31
1081.65	142.725
1086.05	190.869
1090.44	195.832
1094.83	229.734
1099.22	220.273
1103.6	189.076
1107.99	333.269
1112.37	185.094
1116.74	306.66
1121.12	313.508
1125.49	172.141
1129.86	178.617
1134.23	366.973
1138.59	330.195
1142.95	67.2871
1147.31	220.477
1151.67	126.231
1156.02	41.3418
1160.38	44
1164.72	29.2539
1169.07	49.8438
1173.41	54.0723
1177.75	140.332
1182.09	167.486
1186.43	144.361
1190.76	7.30859
1195.09	66.6641
1199.42	342.443
1203.74	387.621
1208.07	70.2852
1212.39	347.635
1216.7	195.084
1221.02	443.039
1225.33	250.752
1229.64	175.213
1233.95	194.41
1238.25	248.353
1242.55	59.0723
1246.85	189.516
1251.15	294.699
1255.44	278.633
1259.73	360.315
1264.02	459.613
1268.31	391.666
1272.59	394.481
1276.87	328.961
1281.15	57.5723
1285.42	328.492
1289.69	135.648
1293.96	11.0723
1298.23	74.8418
1302.5	59.6348
1306.76	160.438
1311.02	11.7246
1315.27	234.34
1319.53	252.85
1323.78	250.234
1328.03	224.121
1332.28	157.565
1336.52	53.7598
1340.76	15.4277
1345	287.779
1349.23	233.531
1353.47	314.611
1357.7	497.16
1361.93	326.902
1366.15	494.738
1370.37	498.928
1374.59	390.519
1378.81	263.178
1383.03	225.897
1387.24	442.627
1391.45	291.312
1395.65	316.945
1399.86	198.156
1404.06	412.838
1408.26	159.971
1412.46	184.613
1416.65	51.959
1420.84	182.598
1425.03	268.297
1429.22	415.963
1433.4	28.5898
1437.58	1.00391
1441.76	152.133
1445.93	333.766
1450.11	280.914
1454.28	285.75
1458.44	213.572
1462.61	525.746
1466.77	32.5703
1470.93	361.15
1475.09	286.889
1479.24	188.699
1483.39	336.584
1487.54	252.559
1491.69	478.644
1495.84	202.881
1499.98	240.623
1504.12	202.451
1508.25	391.131
1512.38	238.117
1516.52	379.537
1520.64	252.957
1524.77	380.584
1528.89	393.406
1533.01	249.856
1537.13	502.481
1541.25	180.375
1545.36	501.793
1549.47	157.609
1553.58	433.508
1557.68	32.2383
1561.78	404.777
1565.88	107.668
1569.98	275.379
1574.07	127.215
