Measurement: Raman, 514 nm, ccw, Raman Data Processed
Mineral: Diopside
Rruff sample: R060085
Ideal chemistry: CaMgSi_2_O_6_
Locality: Tyrol, Austria
Source: University of Arizona Mineral Museum
Description: Brownish-green massive
Measured chemistry: (Ca_0.97_Na_0.03_)_Σ=1_(Mg_0.79_Fe^2+^_0.10_Fe^3+^_0.04_Al_0.04_Ti_0.02_Cr_0.01_)_Σ=1_(Si_1.90_Al_0.10_)_Σ=2_O_6_
Pin_id: M01980
Orientation: Laser parallel to -b* (0 -1 0). Fiducial mark perpendicular to laser is parallel to c [0 0 1]
Raman shift (cm-1)	intensity
119.22	0
124.152	178.006
129.081	781.819
134.008	1884.44
138.932	2867.27
143.854	2267.34
148.773	1146.2
153.69	300.831
158.604	123.58
163.515	39.5342
168.424	19.3938
173.33	125.419
178.234	88.2632
183.135	333.695
188.034	361.088
192.93	490.928
197.823	1402.02
202.714	1211.21
207.602	645.659
212.488	353.898
217.371	488.382
222.252	319.63
227.13	459.769
232.005	516.382
236.878	475.128
241.749	393.962
246.616	527.117
251.482	542.387
256.344	599.646
261.204	166.757
266.062	200.276
270.917	115.219
275.769	238.023
280.619	3.38062
285.466	136.865
290.311	80.0018
295.153	182.508
299.992	417.212
304.829	581.293
309.663	969.011
314.495	1392.45
319.324	2065.88
324.151	3122.55
328.975	3450.59
333.796	2741.14
338.615	1988.87
343.432	1422.4
348.245	1280.39
353.056	1304.08
357.865	1667.17
362.671	1596.74
367.474	1309.29
372.275	1229.07
377.073	1073.64
381.869	1102.47
386.662	1621.2
391.452	2595.68
396.24	2624.61
401.025	1537.97
405.808	752.402
410.588	404.944
415.366	95.182
420.141	57.9289
424.913	66.734
429.683	162.395
434.45	3.1686
439.214	8.81561
443.976	126.868
448.736	2.73001
453.493	97.8978
458.247	38.8389
462.998	92.7025
467.747	67.2778
472.494	137.68
477.238	36.2774
481.979	221.084
486.718	175.298
491.454	205.084
496.187	172.815
500.918	272.586
505.646	828.427
510.372	1345.32
515.095	805.303
519.816	650.388
524.534	499.459
529.249	761.468
533.962	692.488
538.672	863.408
543.379	883.152
548.084	793.656
552.786	866.949
557.486	530.539
562.183	651.466
566.878	402.737
571.57	453.397
576.259	303.353
580.946	95.0532
585.63	79.3339
590.311	203.43
594.99	10.1707
599.667	61.9275
604.34	0.105972
609.012	75.3591
613.68	44.6328
618.346	135.464
623.009	129.845
627.67	288.408
632.328	298.429
636.984	608.631
641.636	677.322
646.287	1196.33
650.934	1875.91
655.579	3386.24
660.222	6389.65
664.862	12139.9
669.499	14613
674.134	9151.31
678.766	4941.82
683.395	3040.54
688.022	2040.62
692.646	1300.18
697.268	658.251
701.887	582.885
706.503	585.125
711.117	450.092
715.728	193.796
720.337	281.315
724.943	133.516
729.546	75.8798
734.147	140.398
738.745	9.25534
743.341	32.1316
747.933	1.56059
752.524	23.198
757.111	18.0018
761.697	125.425
766.279	125.794
770.859	141.091
775.436	33.0182
780.011	144.493
784.583	78.4908
789.152	48.5394
793.719	52.8253
798.283	36.2968
802.845	169.139
807.404	40.3176
811.96	112.912
816.514	85.184
821.065	265.89
825.613	377.457
830.159	479.736
834.703	282.739
839.243	154.477
843.781	298.962
848.317	141.234
852.849	393.917
857.38	746.627
861.907	969.251
866.432	877.557
870.954	707.323
875.474	224.003
879.991	390.324
884.506	101.272
889.018	4.79782
893.527	208.677
898.034	24.0036
902.538	170.485
907.039	71.7443
911.538	41.3184
916.034	56.0719
920.528	6.64828
925.018	12.4391
929.507	26.9956
933.992	141.446
938.476	147.355
942.956	230.092
947.434	23.8136
951.909	29.5945
956.382	200.475
960.852	190.633
965.319	345.87
969.784	378.201
974.246	622.694
978.705	888.304
983.162	884.697
987.616	1468.8
992.068	2060.54
996.517	2975.58
1000.96	4301.92
1005.41	6724.43
1009.85	10848.3
1014.29	12251.8
1018.72	7338.43
1023.16	3751.87
1027.59	2440.22
1032.02	1922.13
1036.44	1926.88
1040.86	1741.04
1045.28	1714.29
1049.7	1844.17
1054.12	1042.36
1058.53	908.463
1062.94	574.487
1067.35	573.163
1071.75	402.296
1076.15	238.646
1080.55	239.559
1084.95	376.246
1089.34	229.744
1093.73	196.203
1098.12	83.523
1102.51	169.4
1106.89	262.491
1111.27	65.0199
1115.65	30.0149
1120.03	17.5075
1124.4	2.34967
1128.77	27.1877
1133.14	183.681
1137.5	98.5088
1141.86	14.7498
1146.22	46.4678
1150.58	22.6346
1154.93	84.0362
1159.29	26.9705
1163.64	102.557
1167.98	5.67718
1172.33	63.1092
1176.67	95.4781
1181.01	273.486
1185.34	58.4295
1189.68	91.522
1194.01	107.185
1198.34	167.57
1202.66	41.565
1206.99	54.8194
1211.31	17.1034
1215.62	286.33
1219.94	112.169
1224.25	86.4095
1228.56	397.289
1232.87	318.794
1237.17	190.738
1241.48	155.348
1245.78	160.667
1250.07	158.43
1254.37	339.769
1258.66	350.001
1262.95	99.0911
1267.23	105.47
1271.52	291.951
1275.8	378.817
1280.08	268.872
1284.35	111.279
1288.63	28.775
1292.9	169.218
1297.16	202.623
1301.43	410.284
1305.69	146.996
1309.95	53.6265
1314.21	308.041
1318.46	235.042
1322.72	254.033
1326.97	303.76
1331.21	79.9258
1335.46	308.188
1339.7	240.355
1343.94	87.5404
1348.18	288.718
1352.41	103.334
1356.64	293.686
1360.87	284.953
1365.1	198.589
1369.32	158.724
1373.54	238.182
1377.76	333.274
1381.97	202.373
1386.19	293.469
1390.4	241.527
1394.6	315.985
1398.81	257.153
1403.01	89.3756
1407.21	286.603
1411.41	180.573
1415.6	445.752
1419.79	95.6441
1423.98	150.708
1428.17	3.5904
1432.35	246.602
1436.54	65.2984
1440.71	197.841
1444.89	223.679
1449.06	7.21981
1453.23	305.812
1457.4	180.312
1461.57	300.893
1465.73	275.694
1469.89	283.83
1474.05	30.184
1478.2	121.797
1482.36	294.797
1486.51	146.994
1490.65	93.7631
1494.8	281.823
1498.94	25.1383
1503.08	213.35
1507.22	141.674
1511.35	190.345
1515.48	0.624283
1519.61	202.94
1523.74	257.994
1527.86	410.196
1531.98	385.384
1536.1	251.584
1540.22	283.507
1544.33	267.901
1548.44	368.662
1552.55	290.864
1556.65	127.733
1560.76	79.0122
1564.86	117.422
1568.95	9.8244
1573.05	46.3349
1577.14	0
