Measurement: Raman, 514 nm, depolarized, Raman Data Processed
Mineral: Dolomite
Rruff sample: R040030
Ideal chemistry: CaMg(CO_3_)_2_
Locality: Austria
Source: University of Arizona Mineral Museum
Description: Group of colorless tabular crystals
Measured chemistry: (Ca_0.99_Mg_0.01_)_Î£=1_Mg_1.00_(CO_3_)_2_ ; trace amounts of Mn; CO_2_ estimated by difference
Pin_id: M00035
Orientation: Laser parallel to -c* (0 0 -1). Fiducial mark perpendicular to laser is parallel to -a [-1 0 0]
Raman shift (cm-1)	intensity
99.764	0
103.943	68.33
108.121	136.97
112.297	493.226
116.47	273.463
120.642	191.292
124.811	175.125
128.979	93.659
133.144	67.632
137.307	48.796
141.469	23.112
145.628	60.646
149.786	10.542
153.941	88.574
158.094	163.679
162.245	165.421
166.395	393.125
170.542	1053.43
174.687	2870.99
178.83	4042.1
182.972	1653.38
187.111	524.176
191.248	171.726
195.383	96.557
199.516	47.462
203.647	40.358
207.777	26.874
211.904	25.731
216.029	31.323
220.152	61
224.273	20.733
228.392	65.802
232.509	10.582
236.625	32.267
240.738	66.196
244.849	107.655
248.958	22.303
253.065	53.716
257.171	102.129
261.274	36.067
265.375	4.334
269.475	5.815
273.572	78.502
277.667	116.788
281.76	126.027
285.852	163.898
289.941	308.073
294.029	562.451
298.114	1011.79
302.198	1339.5
306.279	845.476
310.359	452.361
314.436	191.637
318.512	223.553
322.586	174.196
326.657	118.552
330.727	200.073
334.795	302.935
338.861	723.778
342.924	644.274
346.986	419.538
351.046	213.306
355.104	113.844
359.16	120.259
363.214	53.307
367.267	59.26
371.317	116.5
375.365	70.128
379.411	55.235
383.456	76.728
387.498	112.467
391.539	99.005
395.577	77.275
399.614	116.111
403.649	103.325
407.681	20.739
411.712	24.792
415.741	5.287
419.768	13.501
423.793	36.531
427.816	33.678
431.837	5.047
435.857	42.462
439.874	72.019
443.889	24.707
447.903	50.56
451.914	72.251
455.924	49.803
459.932	29.206
463.938	34.499
467.941	54.679
471.943	68.78
475.944	78.774
479.942	76.503
483.938	54.428
487.932	30.976
491.925	92.502
495.915	40.905
499.904	10.222
503.891	59.404
507.876	83.451
511.859	57.071
515.84	17.824
519.819	90.766
523.796	133.317
527.771	125.647
531.745	60.807
535.716	40.074
539.686	135.146
543.654	105.801
547.62	49.771
551.584	38.626
555.546	79.471
559.506	158.31
563.465	122.803
567.421	78.665
571.376	54.68
575.329	66.881
579.279	113.313
583.228	82.712
587.175	121.202
591.121	126.628
595.064	162.067
599.006	183.809
602.945	174.993
606.883	150.843
610.819	131.214
614.753	182.896
618.685	245.105
622.615	318.014
626.544	543.748
630.471	498.052
634.395	311.52
638.318	242.65
642.239	176.901
646.158	354.925
650.076	418.314
653.991	449.185
657.905	314.767
661.817	115.779
665.726	82.625
669.635	44.33
673.541	62.966
677.445	7.74
681.348	24.538
685.248	17.246
689.147	26.776
693.044	92.15
696.94	90.632
700.833	72.1
704.724	138.324
708.614	266.263
712.502	463.491
716.388	627.624
720.272	1365.6
724.155	2693.66
728.035	3058.71
731.914	1513.79
735.791	602.829
739.666	287.83
743.539	154.862
747.41	141.965
751.28	97.045
755.148	67.102
759.014	14.132
762.878	26.104
766.74	13.016
770.601	99.856
774.46	113.603
778.316	15.763
782.172	82.217
786.025	10.155
789.876	12.507
793.726	78.754
797.574	52.961
801.42	18.857
805.264	28.266
809.107	45.343
812.947	127.349
816.786	96.346
820.623	79.33
824.459	24.861
828.292	137.223
832.124	134.283
835.954	212.149
839.782	114.461
843.608	223.293
847.433	196.915
851.255	273.227
855.076	412.054
858.895	582.919
862.713	596.814
866.528	383.734
870.342	294.658
874.154	273.58
877.965	216.502
881.773	461.458
885.58	367.417
889.385	208.377
893.188	131.347
896.989	244.319
900.789	262.331
904.587	313.377
908.383	289.448
912.177	195.241
915.97	228.349
919.76	145.819
923.55	185.876
927.337	135.929
931.122	109.189
934.906	93.756
938.688	80.744
942.468	95.534
946.247	126.18
950.023	212.401
953.798	169.173
957.572	132.505
961.343	82.773
965.113	58.19
968.881	96.642
972.647	144.13
976.411	7.651
980.174	71.859
983.935	58.465
987.694	65.941
991.452	34.411
995.207	84.931
998.961	160.513
1002.71	607.15
1006.46	278.828
1010.21	91.677
1013.96	55.545
1017.71	169.686
1021.45	340.533
1025.19	343.419
1028.93	354.053
1032.67	177.014
1036.41	171.01
1040.14	168.637
1043.87	250.707
1047.61	403.88
1051.34	442.122
1055.06	472.789
1058.79	474.804
1062.52	510.274
1066.24	910.351
1069.96	1311.03
1073.68	1757.87
1077.4	2409.68
1081.11	2894.63
1084.83	3649.73
1088.54	5218.01
1092.25	9852.29
1095.96	29686.6
1099.67	55691
1103.37	19995.4
1107.08	5729.82
1110.78	2520.3
1114.48	1324.83
1118.18	939.37
1121.88	722.984
1125.57	571.262
1129.27	354.153
1132.96	196.991
1136.65	203.695
1140.34	82.42
1144.02	146.281
1147.71	78.667
1151.39	116.446
1155.07	131.945
1158.76	143.02
1162.43	4.285
1166.11	50.377
1169.79	76.034
1173.46	89.69
1177.13	197.321
1180.8	130.899
1184.47	130.471
1188.14	17.143
1191.8	66.662
1195.46	65.933
1199.13	10.937
1202.79	80.769
1206.45	187.181
1210.1	62.143
1213.76	145.52
1217.41	124.188
1221.06	91.396
1224.71	50.138
1228.36	76.983
1232.01	56.002
1235.65	237.058
1239.3	333.084
1242.94	304.099
1246.58	185.102
1250.22	155.093
1253.85	205.07
1257.49	97.03
1261.12	246.006
1264.75	227.79
1268.38	337.88
1272.01	438.819
1275.64	344.751
1279.27	316.709
1282.89	188.671
1286.51	60.614
1290.13	170.433
1293.75	153.12
1297.37	198.602
1300.98	200.869
1304.6	216.889
1308.21	285.472
1311.82	280.959
1315.43	264.599
1319.03	210.174
1322.64	180.97
1326.24	113.267
1329.85	161.47
1333.44	140.977
1337.04	169.954
1340.64	124.671
1344.24	150.433
1347.83	82.686
1351.42	7.456
1355.01	91.053
1358.6	32.249
1362.19	112.028
1365.78	62.232
1369.36	30.618
1372.94	112.19
1376.53	160.989
1380.1	212.768
1383.68	184.087
1387.26	167.364
1390.83	103.597
1394.41	131.764
1397.98	91.782
1401.55	140.737
1405.12	265.483
1408.68	176.294
1412.25	316.137
1415.81	244.543
1419.37	239.418
1422.93	246.341
1426.49	294.367
1430.05	414.694
1433.6	446.436
1437.15	866.357
1440.71	1722.83
1444.26	2467.03
1447.81	1817.35
1451.35	1556.19
1454.9	1476.12
1458.44	1356.65
1461.98	1233.73
1465.53	956.517
1469.07	632.208
1472.6	599.751
1476.14	489.313
1479.67	414.925
1483.21	404.575
1486.74	554.038
1490.27	435.203
1493.8	330.49
1497.32	277.444
1500.85	210.97
1504.37	101.794
1507.89	36.353
1511.41	15.889
1514.93	7.271
1518.45	75.112
