Measurement: Raman, 514 nm, ccw, Raman Data Processed
Mineral: Dolomite
Rruff sample: R050357
Ideal chemistry: CaMg(CO_3_)_2_
Locality: Black Rock, Lawrence County, Arkansas, USA
Source: California Institute of Technology
Description: Aggregate of pale pink curved saddle-shaped crystals
Measured chemistry: Ca_1.00_(Mg_0.98_Fe^2+^_0.02_)_Î£=1_(CO_3_)_2_ ; CO_2_ estimated by difference
Pin_id: L00736
Orientation: Laser parallel to c* (0 0 1). Fiducial mark perpendicular to laser is parallel to a [1 0 0]
Raman shift (cm-1)	intensity
80.76	0
85.72	27.3599
90.677	41.647
95.631	42.7706
100.582	64.8821
105.531	40.2958
110.477	45.5177
115.42	103.283
120.361	91.4441
125.299	11.4078
130.234	5.50214
135.166	12.4405
140.096	56.2877
145.023	34.3646
149.947	66.0141
154.869	96.6318
159.787	190.146
164.703	374.276
169.617	922.37
174.528	2912.48
179.435	3137.69
184.341	827.045
189.243	243.45
194.143	117.897
199.04	96.3925
203.935	58.8882
208.827	8.63684
213.716	17.851
218.602	8.30957
223.486	17.7291
228.367	21.0726
233.245	0.651123
238.12	24.324
242.993	34.2523
247.863	0.251587
252.731	31.1293
257.596	9.50146
262.458	49.1645
267.317	18.1439
272.174	94.7648
277.028	128.655
281.879	215.634
286.728	390.737
291.574	783.016
296.417	1665.25
301.258	2308.75
306.096	1243.6
310.931	510.964
315.764	222.037
320.594	139.257
325.421	130.46
330.246	173.723
335.068	379.897
339.887	604.976
344.703	296.107
349.517	134.209
354.329	114.717
359.137	20.8199
363.943	36.8273
368.746	22.9031
373.547	25.9562
378.345	24.8976
383.14	16.7705
387.932	44.6558
392.722	41.5445
397.51	14.5456
402.294	35.1209
407.076	11.2237
411.855	6.90771
416.632	54.5277
421.406	1.70239
426.177	36.7736
430.946	25.1791
435.712	9.53467
440.475	49.4979
445.236	2.17828
449.994	26.017
454.75	8.16443
459.502	26.4125
464.253	39.4661
469	29.5097
473.745	19.5148
478.487	10.5378
483.227	25.3875
487.964	46.2437
492.698	20.524
497.43	22.8669
502.159	48.6854
506.885	18.1916
511.609	17.2015
516.33	21.0376
521.049	50.689
525.764	23.3425
530.478	16.0804
535.188	1.6322
539.896	56.9641
544.602	23.5841
549.304	15.0654
554.004	46.4492
558.702	12.7728
563.397	11.5406
568.089	69.9873
572.779	69.8724
577.466	9.05328
582.15	8.16016
586.832	56.0551
591.511	31.3773
596.188	56.5774
600.862	13.1075
605.533	7.36713
610.202	26.6079
614.868	42.7346
619.531	28.0516
624.192	26.2167
628.85	23.4119
633.506	42.0723
638.159	37.2258
642.81	13.2826
647.457	25.855
652.103	23.9337
656.745	3.67957
661.385	38.1825
666.023	27.3658
670.658	36.3431
675.29	56.0022
679.92	20.0012
684.547	22.9031
689.171	106.77
693.793	128.813
698.413	147.793
703.029	200.703
707.643	258.229
712.255	391.291
716.864	761.801
721.47	1631.75
726.074	2438.77
730.675	1124.8
735.274	408.821
739.87	192.676
744.463	63.6469
749.054	115.626
753.643	49.5662
758.228	62.613
762.812	20.5164
767.392	23.4316
771.97	61.3303
776.546	34.1838
781.118	7.78223
785.689	2.64111
790.256	12.8651
794.822	26.2415
799.384	47.3649
803.944	28.9271
808.502	24.3771
813.057	31.0472
817.609	51.0664
822.159	0.319214
826.706	15.3085
831.251	33.7981
835.793	43.1855
840.332	17.3946
844.869	52.9694
849.404	18.5771
853.936	78.2188
858.465	35.5266
862.992	38.8208
867.516	71.0861
872.037	67.3298
876.557	62.5552
881.073	212.76
885.587	89.9431
890.099	11.8937
894.608	44.2111
899.114	44.2964
903.618	23.6996
908.119	42.8909
912.618	18.9362
917.114	19.5149
921.608	21.4622
926.099	56.5039
930.588	53.3801
935.074	18.6132
939.557	10.3975
944.038	70.3639
948.517	4.35718
952.993	28.2987
957.466	25.9313
961.937	12.7821
966.405	24.6317
970.871	47.4829
975.334	29.7432
979.795	33.5179
984.253	42.2731
988.709	37.9972
993.162	68.7438
997.613	32.4802
1002.06	94.2225
1006.51	40.0474
1010.95	67.7032
1015.39	65.4431
1019.83	47.1833
1024.26	58.6493
1028.7	108.569
1033.13	102.311
1037.56	77.4218
1041.98	168.19
1046.4	173.549
1050.83	176.767
1055.24	261.507
1059.66	354.309
1064.07	521.143
1068.48	808.024
1072.89	1203.09
1077.3	1733.04
1081.7	2140.09
1086.1	3288.57
1090.5	7039.29
1094.89	24498.1
1099.29	39537.2
1103.68	9769.15
1108.06	2641.53
1112.45	1082.7
1116.83	620.499
1121.21	359.258
1125.59	209.338
1129.97	230.422
1134.34	127.523
1138.71	103.635
1143.08	62.7585
1147.44	50.8931
1151.81	52.0391
1156.17	8.20361
1160.53	101.394
1164.88	29.5968
1169.23	7.26929
1173.59	40.4463
1177.93	46.6294
1182.28	52.8129
1186.62	24.1703
1190.96	7.2251
1195.3	19.4476
1199.64	33.6807
1203.97	17.1151
1208.3	22.3599
1212.63	84.5054
1216.96	17.0435
1221.28	12.2207
1225.6	6.91943
1229.92	34.2478
1234.24	18.5727
1238.55	17.3279
1242.86	65.8766
1247.17	34.0971
1251.47	23.334
1255.78	58.5802
1260.08	75.8567
1264.38	73.4138
1268.68	62.4458
1272.97	51.3328
1277.26	18.0037
1281.55	33.504
1285.84	42.8429
1290.12	56.1886
1294.4	39.541
1298.68	20.5304
1302.96	82.8783
1307.23	94.6486
1311.51	99.0089
1315.78	87.3755
1320.04	92.903
1324.31	84.1271
1328.57	45.5214
1332.83	35.7485
1337.09	30.1125
1341.34	56.1605
1345.59	36.5304
1349.84	34.0452
1354.09	49.9636
1358.34	24.7406
1362.58	15.0124
1366.82	33.7755
1371.06	31.0439
1375.29	71.5071
1379.52	65.9751
1383.75	45.9155
1387.98	39.4515
1392.21	14.4327
1396.43	17.9929
1400.65	34.5792
1404.87	15.1947
1409.09	46.8398
1413.3	46.3921
1417.51	77.9211
1421.72	135.4
1425.93	67.3898
1430.13	170.949
1434.33	260.389
1438.53	679.869
1442.73	1061.32
1446.92	493.803
1451.11	295.878
1455.3	190.123
1459.49	173.645
1463.67	138.126
1467.86	63.306
1472.04	91.2959
1476.21	78.2216
1480.39	44.2468
1484.56	36.2592
1488.73	34.2764
1492.9	12.7633
1497.06	66.2538
1501.23	54.3781
1505.39	71.5874
1509.55	19.8717
1513.7	2.24524
1517.85	66.7046
1522	91.3554
1526.15	91.1768
1530.3	77.1356
1534.44	74.3862
1538.58	88.1738
1542.72	61.526
1546.86	68.6903
1550.99	2.46594
1555.13	78.8762
1559.26	15.4314
1563.38	35.8431
1567.51	76.5094
1571.63	56.2953
1575.75	42.3543
