Measurement: Raman, 514 nm, depolarized, Raman Data Processed
Mineral: Dolomite
Rruff sample: R050357
Ideal chemistry: CaMg(CO_3_)_2_
Locality: Black Rock, Lawrence County, Arkansas, USA
Source: California Institute of Technology
Description: Aggregate of pale pink curved saddle-shaped crystals
Measured chemistry: Ca_1.00_(Mg_0.98_Fe^2+^_0.02_)_Î£=1_(CO_3_)_2_ ; CO_2_ estimated by difference
Pin_id: L00736
Orientation: Laser parallel to c* (0 0 1). Fiducial mark perpendicular to laser is parallel to a [1 0 0]
Raman shift (cm-1)	intensity
77.039	0
82	42.7477
86.959	68.3841
91.916	64.8571
96.869	85.3035
101.82	64.1157
106.768	123.555
111.713	178.528
116.656	146.011
121.596	109.889
126.533	142.234
131.467	103.646
136.399	78.9905
141.328	133.161
146.254	133.074
151.178	205.625
156.098	264.368
161.017	413.862
165.932	890.739
170.845	2386.77
175.755	6918.68
180.662	4130.07
185.567	1009.9
190.469	417.028
195.368	246.446
200.264	94.2205
205.158	55.302
210.049	18.6321
214.937	49.1559
219.823	39.8328
224.706	31.3688
229.586	35.352
234.464	29.8926
239.339	13.7312
244.211	58.4729
249.081	14.5496
253.947	2.17676
258.812	24.9452
263.673	85.3289
268.532	40.3485
273.388	106.447
278.241	192.041
283.092	352.676
287.94	711.917
292.785	1698.14
297.628	3537
302.468	3749.87
307.305	1678.65
312.14	727.5
316.972	378.516
321.801	174.155
326.628	110.999
331.451	211.602
336.273	535.842
341.091	688.1
345.907	218.4
350.72	99.7473
355.531	83.1154
360.339	74.666
365.144	70.4625
369.947	9.90808
374.746	7.44019
379.544	47.7399
384.338	27.6271
389.13	33.2782
393.919	4.19629
398.706	8.41321
403.49	39.5583
408.271	0.9823
413.05	0.852417
417.826	13.0085
422.599	6.62341
427.37	20.5153
432.138	7.8595
436.903	16.6041
441.666	107.77
446.426	28.4115
451.183	9.12537
455.938	55.2039
460.69	18.5411
465.44	72.6301
470.187	2.81677
474.931	96.7843
479.672	80.7736
484.411	82.9608
489.148	62.8325
493.881	105.024
498.612	42.8212
503.341	22.5847
508.066	54.5021
512.789	75.3385
517.51	51.9705
522.228	61.3287
526.943	76.6231
531.656	52.5063
536.365	80.1764
541.073	32.5415
545.778	33.0139
550.48	36.2239
555.179	81.1848
559.876	64.579
564.57	59.1556
569.262	86.5177
573.951	67.3876
578.637	0.47229
583.321	66.2241
588.002	41.0253
592.68	61.9399
597.356	34.844
602.03	61.9558
606.7	43.7449
611.368	40.2548
616.034	97.9315
620.697	8.51428
625.357	52.2161
630.014	111.733
634.67	36.187
639.322	72.6221
643.972	28.6472
648.619	88.6892
653.264	48.1716
657.906	21.5918
662.545	29.604
667.182	39.9878
671.816	17.6025
676.448	102.823
681.077	50.8852
685.703	122.862
690.327	88.5315
694.948	171.864
699.567	234.23
704.183	266.137
708.797	401.754
713.407	544.581
718.016	1155.44
722.621	2594.33
727.225	2675.87
731.825	1079.53
736.423	417.516
741.019	278.231
745.611	151.892
750.202	121.452
754.789	101.172
759.374	12.5952
763.957	48.0945
768.537	58.6035
773.114	26.7158
777.689	23.1865
782.261	79.0845
786.831	10.9785
791.398	33.1936
795.963	31.575
800.524	4.7478
805.084	67.3581
809.641	14.9915
814.195	44.8726
818.747	47.802
823.296	114.769
827.842	43.9102
832.386	2.4895
836.928	83.0562
841.467	101.028
846.003	39.9077
850.537	79.3711
855.068	7.81811
859.597	35.6069
864.123	101.929
868.646	94.2239
873.167	76.4858
877.686	127.71
882.202	407.904
886.715	107.073
891.226	37.2256
895.734	47.218
900.24	32.1172
904.743	83.4641
909.244	8.56348
913.742	42.6279
918.238	60.9009
922.731	48.7058
927.221	33.6824
931.709	6.64453
936.195	61.2915
940.678	68.2437
945.158	20.5227
949.636	64.6191
954.111	72.2842
958.584	54.1997
963.054	31.6773
967.522	29.9368
971.987	58.885
976.45	69.8308
980.91	30.7798
985.368	1.36279
989.823	9.21802
994.275	63.7458
998.725	71.7163
1003.17	93.6975
1007.62	55.4163
1012.06	56.3945
1016.5	61.4233
1020.94	84.4851
1025.37	176.53
1029.81	89.6511
1034.23	91.5654
1038.66	229.745
1043.09	95.9622
1047.51	193.244
1051.93	247.337
1056.35	362.898
1060.76	546.271
1065.17	802.824
1069.58	1166.25
1073.99	1749.77
1078.4	2341.8
1082.8	3019.48
1087.2	5005.11
1091.6	12271.8
1095.99	44286.2
1100.38	37154.5
1104.77	8239.14
1109.16	2593.43
1113.55	1134.52
1117.93	616.513
1122.31	400.078
1126.68	258.869
1131.06	191.735
1135.43	148.624
1139.8	145.745
1144.17	83.5046
1148.54	65.833
1152.9	75.8169
1157.26	86.2959
1161.62	28.2918
1165.97	24.3201
1170.32	47.4363
1174.67	102.381
1179.02	20.6201
1183.37	20.5215
1187.71	49.4131
1192.05	1.33691
1196.39	82.2349
1200.72	12.8845
1205.05	26.9534
1209.38	16.8179
1213.71	71.4036
1218.04	83.2263
1222.36	93.2092
1226.68	6.86694
1231	27.312
1235.31	36.4209
1239.63	39.1504
1243.94	71.8669
1248.25	112.561
1252.55	102.242
1256.86	83.9165
1261.15	52.9856
1265.45	44.0107
1269.75	25.6926
1274.04	70.4138
1278.33	14.0498
1282.62	156.65
1286.91	32.2119
1291.19	6.73706
1295.47	9.40771
1299.75	127.828
1304.03	28.156
1308.3	47.4665
1312.57	53.4578
1316.84	15.7483
1321.11	36.8726
1325.37	10.0388
1329.63	17.418
1333.89	107.654
1338.15	66.8928
1342.4	88.0247
1346.65	57.2393
1350.9	31.4507
1355.15	93.5615
1359.4	63.3396
1363.64	58.5115
1367.88	57.6719
1372.12	54.1167
1376.35	73.0513
1380.58	40.262
1384.81	68.9299
1389.04	157.633
1393.26	100.809
1397.49	86.0154
1401.71	23.1951
1405.92	29.998
1410.14	118.175
1414.35	82.8831
1418.56	146.064
1422.77	102.267
1426.98	168.933
1431.18	234.291
1435.38	401.285
1439.58	1091.54
1443.78	1178.75
1447.97	436.447
1452.16	228.481
1456.35	197.499
1460.54	148.12
1464.72	146.538
1468.9	159.94
1473.08	136.427
1477.26	140.962
1481.43	78.543
1485.6	34.5767
1489.77	129.221
1493.94	115.624
1498.1	58.189
1502.27	67.8379
1506.43	96.751
1510.58	87.7334
1514.74	77.7671
1518.89	28.8926
1523.04	76.1641
1527.19	135.348
1531.34	67.6309
1535.48	85.9102
1539.62	77.5718
1543.76	58.9898
1547.89	6.43262
1552.03	76.5469
1556.16	105.744
1560.29	46.7793
1564.41	95.8023
1568.54	195.356
1572.66	46.6924
1576.78	19.835
