Measurement: Raman, 514 nm, depolarized, Raman Data Processed
Mineral: Dolomite
Rruff sample: R050370
Ideal chemistry: CaMg(CO_3_)_2_
Locality: Morro Velho mine, Nova Lima, Minas Gerais, Brazil
Source: Eugene Schlepp
Description: Colorless bladed crystals associated with pyrrhotite and albite
Measured chemistry: (Ca_0.84_Fe_0.16_)_Σ=1_(Mg_0.98_Mn_0.02_)_Σ=1_(CO_3_)_2_ ; CO_2_ estimated by difference
Pin_id: L00563
Orientation: Laser parallel to -c* (0 0 -1). Fiducial mark perpendicular to laser is parallel to a [1 0 0]
Raman shift (cm-1)	intensity
118.134	0
123.058	47.9602
127.979	30.2524
132.898	61.6711
137.814	136.613
142.728	157.535
147.639	260.407
152.549	389.217
157.455	615.44
162.359	1362.72
167.261	2544.81
172.161	3610.92
177.058	2204.12
181.952	812.183
186.845	281.519
191.734	191.656
196.622	164.858
201.507	65.1851
206.389	53.4314
211.269	21.9395
216.147	90.7412
221.022	15.229
225.895	7.06079
230.765	17.2998
235.633	2.15503
240.498	33.4846
245.361	102.085
250.222	51.3787
255.08	125.738
259.936	213.324
264.789	245.76
269.64	394.216
274.488	682.284
279.334	931.889
284.178	1419.42
289.019	2060.7
293.857	2337.2
298.693	1918.88
303.527	1071.93
308.358	543.402
313.187	323.997
318.013	171.063
322.837	122.278
327.659	165.779
332.478	289.461
337.294	349.871
342.108	250.527
346.92	144.04
351.729	45.5991
356.535	19.1997
361.34	49.8362
366.141	8.24951
370.94	12.9836
375.737	20.7063
380.531	0.421875
385.323	52.0039
390.113	0.325195
394.9	27.3125
399.684	24.8608
404.466	56.8035
409.245	15.1321
414.022	8.40185
418.797	74.99
423.569	5.37378
428.338	7.28198
433.105	11.9719
437.87	25.6924
442.632	61.4397
447.391	93.1792
452.149	21.8879
456.903	10.4409
461.655	41.6704
466.405	25.7551
471.152	78.4353
475.897	10.8801
480.639	43.7795
485.378	30.0786
490.116	80.854
494.85	25.5222
499.582	22.2029
504.312	67.8945
509.039	4.42383
513.764	77.281
518.486	108.01
523.206	104.57
527.923	108.081
532.638	52.0864
537.35	100.541
542.059	46.4231
546.766	73.3684
551.471	116.335
556.173	61.0254
560.873	60.0967
565.57	81.6475
570.264	141.803
574.957	59.0037
579.646	76.219
584.333	90.4592
589.018	85.5034
593.7	33.7666
598.379	81.1199
603.056	42.4353
607.73	57.7493
612.402	29.865
617.072	16.884
621.739	1.24927
626.403	135.425
631.065	19.4944
635.724	27.1831
640.381	55.3289
645.035	60.7707
649.687	55.5876
654.336	71.6272
658.983	43.227
663.627	103.002
668.268	122.823
672.907	4.98022
677.544	95.6995
682.178	162.779
686.809	45.9753
691.438	168.845
696.065	211.795
700.688	271.701
705.31	324.548
709.929	643.651
714.545	1085.56
719.158	1845.47
723.77	2123.25
728.378	1211.16
732.984	480.097
737.588	271.045
742.189	137.534
746.787	124.057
751.383	103.987
755.976	68.9148
760.567	23.8435
765.155	7.69971
769.741	29.0247
774.324	49.8579
778.904	18.6773
783.482	60.3596
788.058	20.252
792.631	11.0286
797.201	84.4653
801.769	55.2654
806.334	30.8948
810.897	51.6616
815.457	38.293
820.014	91.7122
824.569	42.0649
829.122	0.665771
833.671	32.3057
838.219	41.4866
842.763	9.05102
847.306	83.0232
851.845	35.9863
856.382	26.9285
860.917	25.3564
865.448	45.9165
869.978	73.7664
874.505	105.101
879.029	114.419
883.55	148.234
888.069	35.0332
892.586	33.8186
897.1	77.5974
901.611	17.6755
906.12	89.2378
910.626	47.2202
915.129	54.9788
919.63	14.2649
924.129	33.4575
928.625	42.6138
933.118	10.2637
937.609	106.74
942.097	7.23535
946.582	55.4797
951.065	24.1836
955.546	45.5281
960.023	42.7803
964.499	25.8599
968.971	80.949
973.441	11.4163
977.909	3.76636
982.374	17.7981
986.836	125.52
991.295	59.2817
995.753	80.1904
1000.21	13.0752
1004.66	98.0049
1009.11	46.9795
1013.55	98.0005
1018	171.069
1022.44	261.187
1026.88	190.355
1031.32	321.104
1035.75	316.258
1040.18	277.668
1044.61	314.171
1049.04	489.778
1053.46	493.578
1057.88	531.519
1062.3	744.615
1066.71	1232.92
1071.13	1688.45
1075.54	2290.53
1079.94	3321.54
1084.35	6603.73
1088.75	19219.2
1093.15	45958.7
1097.55	39857.2
1101.94	10890.2
1106.34	2880.62
1110.73	1291.42
1115.11	691.437
1119.5	442.49
1123.88	339.563
1128.26	254.344
1132.63	158.615
1137.01	128.862
1141.38	65.1636
1145.75	54.521
1150.12	4.92041
1154.48	64.4102
1158.84	44.9961
1163.2	135.247
1167.55	5.22314
1171.91	49.206
1176.26	67.7217
1180.61	90.7729
1184.95	94.3901
1189.29	4.29053
1193.63	56.915
1197.97	10.4761
1202.31	28.1509
1206.64	135.806
1210.97	30.0889
1215.29	48.5122
1219.62	70.4253
1223.94	112.171
1228.26	55.9219
1232.57	89.228
1236.89	32.0498
1241.2	39.7778
1245.51	31.5322
1249.81	54.4355
1254.12	165.148
1258.42	134.935
1262.72	44.5249
1267.01	40.0825
1271.3	26.1152
1275.59	36.6958
1279.88	97.1567
1284.17	11.5815
1288.45	1.99805
1292.73	14.1113
1297.01	17.0742
1301.28	101.215
1305.55	29.23
1309.82	76.1157
1314.09	125.832
1318.35	169.379
1322.61	122.773
1326.87	46.2085
1331.13	109.013
1335.38	62.3569
1339.63	103.607
1343.88	32.7241
1348.12	155.769
1352.37	31.7602
1356.61	82.6836
1360.85	138.51
1365.08	112.228
1369.31	48.1685
1373.54	82.1216
1377.77	60.8291
1381.99	32.7168
1386.22	166.346
1390.43	117.664
1394.65	77.4844
1398.87	125.323
1403.08	149.807
1407.29	64.0264
1411.49	92.3057
1415.69	34.2002
1419.89	218.202
1424.09	218.865
1428.29	288.213
1432.48	443.868
1436.67	627.133
1440.86	844.565
1445.04	747.64
1449.23	402.773
1453.4	308.379
1457.58	230.115
1461.76	233.252
1465.93	163.064
1470.1	122.046
1474.26	46.773
1478.43	106.969
1482.59	120.451
1486.75	91.1426
1490.9	154.281
1495.06	101.223
1499.21	65.3711
1503.35	35.6045
1507.5	112.95
1511.64	102.293
1515.78	98.8696
1519.92	127.722
1524.05	33.8648
1528.18	120.097
1532.31	45.3394
1536.44	22.0361
1540.56	52.4434
1544.69	66.8384
1548.8	129.545
1552.92	87.3384
1557.03	5.01074
1561.14	71.3364
1565.25	30.9346
1569.36	24.186
