Measurement: Raman, 514 nm, ccw, Raman Data Processed
Mineral: Dolomite
Rruff sample: R050357
Ideal chemistry: CaMg(CO_3_)_2_
Locality: Black Rock, Lawrence County, Arkansas, USA
Source: California Institute of Technology
Description: Aggregate of pale pink curved saddle-shaped crystals
Measured chemistry: Ca_1.00_(Mg_0.98_Fe^2+^_0.02_)_Î£=1_(CO_3_)_2_ ; CO_2_ estimated by difference
Pin_id: L00736
Orientation: Laser parallel to c* (0 0 1). Fiducial mark perpendicular to laser is parallel to a [1 0 0]
Raman shift (cm-1)	intensity
80.76	0
85.72	5.33826
90.677	48.871
95.631	27.7552
100.582	20.9866
105.531	36.9627
110.477	57.7484
115.42	102.782
120.361	84.8334
125.299	60.9763
130.234	51.5667
135.166	69.4317
140.096	109.571
145.023	95.0271
149.947	168.726
154.869	261.469
159.787	388.541
164.703	787.371
169.617	2013.51
174.528	6608.3
179.435	5990.35
184.341	1483.55
189.243	479.985
194.143	224.567
199.04	143.262
203.935	85.0628
208.827	50.9815
213.716	35.968
218.602	18.012
223.486	54.0339
228.367	9.78284
233.245	24.0362
238.12	0.000183
242.993	10.6975
247.863	20.9232
252.731	2.86139
257.596	53.4443
262.458	66.3739
267.317	124.431
272.174	167.277
277.028	264.418
281.879	437.602
286.728	824.458
291.574	1769.63
296.417	3810.24
301.258	5133.08
306.096	2544.38
310.931	1037.64
315.764	517.365
320.594	345.374
325.421	260.221
330.246	243.053
335.068	443.827
339.887	684.131
344.703	357.434
349.517	121.734
354.329	106.1
359.137	63.3823
363.943	35.1409
368.746	17.4203
373.547	81.6601
378.345	61.9437
383.14	60.2211
387.932	10.1802
392.722	6.82849
397.51	17.3368
402.294	32.3331
407.076	38.2905
411.855	3.73822
416.632	35.3469
421.406	18.399
426.177	10.4179
430.946	20.431
435.712	11.3493
440.475	2.84314
445.236	10.9777
449.994	14.7062
454.75	28.593
459.502	37.0065
464.253	8.63538
469	25.1669
473.745	20.4462
478.487	24.6028
483.227	41.9886
487.964	62.66
492.698	8.11859
497.43	30.4269
502.159	61.6657
506.885	13.8712
511.609	88.0748
516.33	27.5081
521.049	53.0656
525.764	87.7875
530.478	3.89661
535.188	48.3511
539.896	19.4276
544.602	45.973
549.304	37.9625
554.004	44.4197
558.702	43.0216
563.397	50.8997
568.089	43.7562
572.779	14.96
577.466	35.853
582.15	62.7966
586.832	32.4807
591.511	57.2144
596.188	49.7744
600.862	62.4349
605.533	28.9756
610.202	33.0404
614.868	1.38916
619.531	42.1095
624.192	66.5919
628.85	10.1439
633.506	3.48218
638.159	45.9066
642.81	22.2895
647.457	29.9055
652.103	43.9631
656.745	11.3088
661.385	5.56787
666.023	53.6591
670.658	33.0626
675.29	65.4266
679.92	56.7422
684.547	40.8889
689.171	39.259
693.793	133.975
698.413	167.494
703.029	209.625
707.643	368.222
712.255	550.539
716.864	1010.64
721.47	2225.76
726.074	3074.05
730.675	1482.1
735.274	552.139
739.87	283.305
744.463	162.234
749.054	68.1959
753.643	66.2596
758.228	62.5266
762.812	22.6427
767.392	71.4558
771.97	51.9681
776.546	49.7798
781.118	56.5856
785.689	25.507
790.256	13.1862
794.822	30.6995
799.384	15.9983
803.944	16.0273
808.502	5.69189
813.057	23.6797
817.609	21.0056
822.159	25.3052
826.706	94.8715
831.251	50.7455
835.793	71.1585
840.332	28.7849
844.869	43.8811
849.404	47.9324
853.936	47.9459
858.465	23.9294
862.992	57.8616
867.516	30.6543
872.037	23.5968
876.557	81.4202
881.073	250.213
885.587	83.9802
890.099	79.7289
894.608	51.4723
899.114	50.1893
903.618	10.2231
908.119	73.4075
912.618	38.0033
917.114	0.405518
921.608	0.068604
926.099	41.748
930.588	38.3699
935.074	2.07629
939.557	54.5194
944.038	105.008
948.517	27.9581
952.993	4.36621
957.466	19.0875
961.937	1.95007
966.405	10.5056
970.871	15.5703
975.334	36.9692
979.795	22.877
984.253	22.9905
988.709	91.376
993.162	79.7559
997.613	40.8842
1002.06	14.2925
1006.51	60.6953
1010.95	65.9802
1015.39	52.4241
1019.83	93.8807
1024.26	104.335
1028.7	112.825
1033.13	145.115
1037.56	138.514
1041.98	175.085
1046.4	193.697
1050.83	200.089
1055.24	284.255
1059.66	454.62
1064.07	633.382
1068.48	1015.31
1072.89	1601.61
1077.3	2077.9
1081.7	2814.89
1086.1	4248.34
1090.5	9280.51
1094.89	32751.2
1099.29	47256.7
1103.68	11505.6
1108.06	3249.22
1112.45	1268.4
1116.83	670.605
1121.21	400.837
1125.59	274.093
1129.97	208.396
1134.34	99.8641
1138.71	108.22
1143.08	137.6
1147.44	13.0033
1151.81	71.6868
1156.17	89.1346
1160.53	52.604
1164.88	21.2185
1169.23	16.679
1173.59	17.2316
1177.93	77.0673
1182.28	7.3446
1186.62	34.7877
1190.96	42.6694
1195.3	19.1229
1199.64	28.5873
1203.97	76.7236
1208.3	46.02
1212.63	25.0031
1216.96	39.7709
1221.28	23.2616
1225.6	28.778
1229.92	33.7629
1234.24	37.6616
1238.55	82.2427
1242.86	23.8101
1247.17	10.396
1251.47	24.9636
1255.78	54.8966
1260.08	38.6829
1264.38	31.2705
1268.68	41.8514
1272.97	29.4413
1277.26	56.014
1281.55	14.5792
1285.84	85.1349
1290.12	29.3063
1294.4	37.1775
1298.68	34.6342
1302.96	48.0802
1307.23	51.515
1311.51	58.6399
1315.78	71.7748
1320.04	34.5337
1324.31	70.9218
1328.57	15.9902
1332.83	69.3323
1337.09	36.3445
1341.34	1.95178
1345.59	71.2759
1349.84	66.1665
1354.09	35.3589
1358.34	21.522
1362.58	41.6274
1366.82	79.7185
1371.06	9.80102
1375.29	54.9021
1379.52	52.9824
1383.75	76.0915
1387.98	46.7537
1392.21	80.6497
1396.43	66.6753
1400.65	85.7036
1404.87	68.7253
1409.09	64.5215
1413.3	48.0056
1417.51	60.3335
1421.72	110.31
1425.93	142.992
1430.13	211.935
1434.33	324.924
1438.53	912.448
1442.73	1463.39
1446.92	715.148
1451.11	261.717
1455.3	270.657
1459.49	106.655
1463.67	67.6165
1467.86	123.825
1472.04	128.692
1476.21	58.783
1480.39	72.8938
1484.56	90.2024
1488.73	51.1743
1492.9	48.1453
1497.06	57.0981
1501.23	52.0847
1505.39	35.0989
1509.55	99.1201
1513.7	101.142
1517.85	107.2
1522	21.3672
1526.15	56.7366
1530.3	97.2891
1534.44	6.96777
1538.58	50.6685
1542.72	32.5283
1546.86	42.0459
1550.99	106.394
1555.13	45.6216
1559.26	13.7935
1563.38	77.365
1567.51	5.28418
1571.63	17.022
1575.75	22.9485
