Measurement: Raman, 514 nm, ccw, Raman Data Processed
Mineral: Dolomite
Rruff sample: R050357
Ideal chemistry: CaMg(CO_3_)_2_
Locality: Black Rock, Lawrence County, Arkansas, USA
Source: California Institute of Technology
Description: Aggregate of pale pink curved saddle-shaped crystals
Measured chemistry: Ca_1.00_(Mg_0.98_Fe^2+^_0.02_)_Î£=1_(CO_3_)_2_ ; CO_2_ estimated by difference
Pin_id: L00736
Orientation: Laser parallel to c* (0 0 1). Fiducial mark perpendicular to laser is parallel to a [1 0 0]
Raman shift (cm-1)	intensity
80.76	0
85.72	32.0967
90.677	12.9727
95.631	13.5953
100.582	25.7203
105.531	39.6901
110.477	51.5364
115.42	92.6695
120.361	109.865
125.299	93.2012
130.234	90.0165
135.166	86.1313
140.096	99.5644
145.023	99.3033
149.947	119.498
154.869	200.915
159.787	289.153
164.703	525.139
169.617	1320.5
174.528	4190.77
179.435	3932.21
184.341	995.814
189.243	295.708
194.143	202.259
199.04	100.306
203.935	54.7885
208.827	60.3644
213.716	33.0121
218.602	31.7156
223.486	9.47846
228.367	10.6886
233.245	7.14587
238.12	4.61877
242.993	33.7262
247.863	18.3997
252.731	19.8645
257.596	0.363647
262.458	27.2997
267.317	62.2397
272.174	84.2057
277.028	114.073
281.879	275.305
286.728	457.304
291.574	1005.08
296.417	2291.58
301.258	3112.71
306.096	1575.02
310.931	613.411
315.764	374.562
320.594	237.743
325.421	165.193
330.246	148.836
335.068	362.455
339.887	692.758
344.703	333.075
349.517	139.404
354.329	70.951
359.137	69.0935
363.943	48.38
368.746	10.6794
373.547	70.0938
378.345	81.3612
383.14	23.9425
387.932	23.8367
392.722	1.36035
397.51	52.7246
402.294	25.1245
407.076	45.677
411.855	1.2229
416.632	40.762
421.406	0.696167
426.177	21.8356
430.946	8.36755
435.712	29.0572
440.475	54.2812
445.236	14.4412
449.994	5.15771
454.75	15.4841
459.502	49.6276
464.253	24.8274
469	37.9529
473.745	0.058228
478.487	46.1185
483.227	46.1842
487.964	69.2398
492.698	15.2847
497.43	37.3179
502.159	41.7249
506.885	37.8712
511.609	54.1975
516.33	16.2262
521.049	79.016
525.764	31.0453
530.478	21.101
535.188	31.7339
539.896	54.7689
544.602	28.7726
549.304	46.4717
554.004	58.088
558.702	43.0858
563.397	54.7788
568.089	41.7677
572.779	9.72717
577.466	49.9116
582.15	30.4793
586.832	25.2334
591.511	4.48743
596.188	23.7398
600.862	5.58801
605.533	53.419
610.202	36.9967
614.868	13.9397
619.531	12.824
624.192	64.5719
628.85	42.3688
633.506	39.0842
638.159	3.21277
642.81	16.528
647.457	8.80579
652.103	49.1868
656.745	19.4106
661.385	14.9891
666.023	66.6706
670.658	0.327515
675.29	84.8695
679.92	72.011
684.547	76.9889
689.171	119.37
693.793	123.865
698.413	233.572
703.029	252.995
707.643	316.292
712.255	471.525
716.864	931.873
721.47	2084.27
726.074	2830.68
730.675	1273.58
735.274	468.944
739.87	265.295
744.463	134.561
749.054	101.847
753.643	70.9797
758.228	71.2162
762.812	91.4344
767.392	104.605
771.97	63.7836
776.546	68.5317
781.118	40.4482
785.689	23.827
790.256	22.2407
794.822	29.7517
799.384	1.58557
803.944	7.3634
808.502	45.1125
813.057	10.2468
817.609	67.4059
822.159	8.04016
826.706	26.9836
831.251	36.4252
835.793	2.16956
840.332	5.83142
844.869	72.4412
849.404	25.7627
853.936	51.9778
858.465	40.0618
862.992	21.2018
867.516	44.3129
872.037	67.3995
876.557	99.4557
881.073	230.484
885.587	113.483
890.099	78.4454
894.608	31.386
899.114	29.3088
903.618	22.1438
908.119	21.02
912.618	41.858
917.114	54.6694
921.608	35.3886
926.099	21.8776
930.588	63.848
935.074	75.3225
939.557	17.9961
944.038	52.6243
948.517	1.15271
952.993	65.7676
957.466	10.9783
961.937	30.4933
966.405	45.0048
970.871	2.83606
975.334	51.1683
979.795	3.22046
984.253	26.8793
988.709	36.6776
993.162	30.2451
997.613	73.796
1002.06	48.3767
1006.51	33.9857
1010.95	38.5841
1015.39	46.2142
1019.83	29.9053
1024.26	100.771
1028.7	119.245
1033.13	103.12
1037.56	117.896
1041.98	149.659
1046.4	133.533
1050.83	165.716
1055.24	272.577
1059.66	371.378
1064.07	520.487
1068.48	914.444
1072.89	1382.32
1077.3	1914.2
1081.7	2349.26
1086.1	3658.87
1090.5	8001.49
1094.89	28508.1
1099.29	40967.3
1103.68	9896.45
1108.06	2738.47
1112.45	1124.1
1116.83	592.001
1121.21	324.151
1125.59	227.151
1129.97	194.542
1134.34	138.92
1138.71	79.3052
1143.08	91.7466
1147.44	37.2633
1151.81	61.9978
1156.17	23.4334
1160.53	79.2112
1164.88	56.6273
1169.23	3.04431
1173.59	10.7949
1177.93	31.2258
1182.28	50.4026
1186.62	15.82
1190.96	14.7002
1195.3	31.7255
1199.64	55.171
1203.97	39.7184
1208.3	20.1888
1212.63	92.2177
1216.96	79.5043
1221.28	27.9209
1225.6	7.3291
1229.92	11.2518
1234.24	2.91052
1238.55	20.4464
1242.86	51.75
1247.17	58.0404
1251.47	9.24365
1255.78	68.5509
1260.08	54.7408
1264.38	59.8925
1268.68	65.0449
1272.97	9.1272
1277.26	32.5107
1281.55	30.4089
1285.84	20.2956
1290.12	48.3977
1294.4	47.0659
1298.68	16.1626
1302.96	71.5391
1307.23	81.2183
1311.51	48.4541
1315.78	86.0642
1320.04	32.7871
1324.31	119.263
1328.57	39.9102
1332.83	78.4346
1337.09	16.1111
1341.34	24.7512
1345.59	103.577
1349.84	128.584
1354.09	24.4663
1358.34	92.8323
1362.58	34.6733
1366.82	19.8332
1371.06	66.5977
1375.29	73.7551
1379.52	57.5403
1383.75	63.0422
1387.98	119.151
1392.21	101.243
1396.43	31.3291
1400.65	13.3184
1404.87	36.9424
1409.09	125.02
1413.3	64.9895
1417.51	62.6196
1421.72	126.71
1425.93	126.365
1430.13	153.359
1434.33	344.369
1438.53	894.71
1442.73	1204.89
1446.92	575.124
1451.11	325.326
1455.3	240.268
1459.49	150.697
1463.67	39.6982
1467.86	175.621
1472.04	8.07104
1476.21	61.3384
1480.39	17.2017
1484.56	41.1138
1488.73	25.0049
1492.9	81.5566
1497.06	19.6404
1501.23	49.2725
1505.39	56.0178
1509.55	59.2866
1513.7	75.5864
1517.85	45.8806
1522	48.374
1526.15	44.2798
1530.3	30.0474
1534.44	37.0422
1538.58	56.623
1542.72	97.2705
1546.86	71.8652
1550.99	34.614
1555.13	40.5596
1559.26	107.269
1563.38	2.15503
1567.51	22.0066
1571.63	15.1885
1575.75	76.6384
