Measurement: Raman, 514 nm, depolarized, Raman Data Processed
Mineral: Dolomite
Rruff sample: R050129
Ideal chemistry: CaMg(CO_3_)_2_
Locality: Black Cloud mine, Leadville, Lake County, Colorado, USA
Source: Dave Bunk Minerals
Description: Aggregate of colorless to white rhombohedra
Measured chemistry: Ca(Mg_0.62_Fe^2+^_0.33_Mn_0.05_)_Î£=1_(CO_3_)_2_ ; CO_2_ estimated by difference
Pin_id: M00233
Orientation: Laser parallel to -c* (0 0 -1). Fiducial mark perpendicular to laser is parallel to [1 1 0]
Raman shift (cm-1)	intensity
103.943	0
108.121	108.168
112.297	204.088
116.47	137.083
120.642	111.508
124.811	118.405
128.979	55.044
133.144	45.052
137.307	51.006
141.469	105.491
145.628	121.918
149.786	86.962
153.941	148.205
158.094	282.702
162.245	391.715
166.395	943.877
170.542	2443.49
174.687	2740.98
178.83	1059.96
182.972	494.365
187.111	309.294
191.248	189.88
195.383	161.727
199.516	149.954
203.647	54.149
207.777	6.276
211.904	24.89
216.029	43.154
220.152	32.798
224.273	22.607
228.392	39.94
232.509	27.045
236.625	4.225
240.738	23.294
244.849	19.487
248.958	11.906
253.065	11.803
257.171	9.805
261.274	62.249
265.375	63.733
269.475	89.537
273.572	173.082
277.667	266.644
281.76	378.826
285.852	681.176
289.941	1151.06
294.029	1542.88
298.114	1313.31
302.198	800.559
306.279	482.943
310.359	341.895
314.436	183.949
318.512	186.609
322.586	168.664
326.657	176.412
330.727	227.163
334.795	289.459
338.861	343.254
342.924	310.246
346.986	157.823
351.046	166.639
355.104	141.569
359.16	165.085
363.214	101.349
367.267	126.416
371.317	113.488
375.365	131.949
379.411	66.678
383.456	70.218
387.498	89.672
391.539	114.709
395.577	40.206
399.614	7.559
403.649	43.519
407.681	60.634
411.712	21.694
415.741	11.717
419.768	20.675
423.793	73.687
427.816	27.542
431.837	15.178
435.857	67.895
439.874	31.282
443.889	37.214
447.903	2.752
451.914	53.971
455.924	75.619
459.932	19.302
463.938	35.722
467.941	72.904
471.943	66.747
475.944	51.378
479.942	41.289
483.938	46.475
487.932	39.804
491.925	64.561
495.915	34.105
499.904	55.8
503.891	50.36
507.876	68.773
511.859	105.178
515.84	49.159
519.819	2.821
523.796	40.105
527.771	66.645
531.745	10.125
535.716	40.443
539.686	101.746
543.654	95.061
547.62	127.279
551.584	34.873
555.546	43.854
559.506	94.042
563.465	78.35
567.421	45.741
571.376	12.9
575.329	79.969
579.279	64.383
583.228	140.974
587.175	29.236
591.121	28.967
595.064	8.588
599.006	109.176
602.945	68.728
606.883	11.276
610.819	13.06
614.753	33.974
618.685	68.475
622.615	20.848
626.544	9.347
630.471	31.59
634.395	80.147
638.318	27.4
642.239	33.818
646.158	56.861
650.076	8.36
653.991	96.363
657.905	41.824
661.817	44.767
665.726	33.034
669.635	48.716
673.541	82.365
677.445	109.314
681.348	47.842
685.248	5.496
689.147	103.428
693.044	132.843
696.94	148.566
700.833	158.233
704.724	144.92
708.614	385.411
712.502	686.947
716.388	1184.4
720.272	2024.87
724.155	1959.47
728.035	1100.94
731.914	576.532
735.791	296.7
739.666	159.258
743.539	96.771
747.41	44.957
751.28	43.161
755.148	74.648
759.014	55.945
762.878	11.114
766.74	30.449
770.601	44.08
774.46	88.348
778.316	29.447
782.172	28.388
786.025	7.494
789.876	43.403
793.726	90.439
797.574	103.282
801.42	70.162
805.264	13.958
809.107	5.055
812.947	67.15
816.786	80.784
820.623	78.886
824.459	42.453
828.292	9.143
832.124	49.321
835.954	113.627
839.782	28.9
843.608	4.737
847.433	22.583
851.255	20.883
855.076	95.164
858.895	95.427
862.713	66.674
866.528	30.906
870.342	41.125
874.154	55.333
877.965	89.528
881.773	159.711
885.58	47.883
889.385	44.031
893.188	91.162
896.989	4.282
900.789	121.351
904.587	80.309
908.383	55.211
912.177	35.115
915.97	19.89
919.76	45.692
923.55	84.994
927.337	102.794
931.122	150.436
934.906	73.456
938.688	34.282
942.468	13.264
946.247	112.591
950.023	113.818
953.798	51.178
957.572	36.796
961.343	16.101
965.113	22.854
968.881	34.58
972.647	134.973
976.411	100.009
980.174	81.978
983.935	30.726
987.694	15.883
991.452	62.047
995.207	119.016
998.961	115.273
1002.71	141.569
1006.46	118.907
1010.21	47.252
1013.96	91.662
1017.71	136.109
1021.45	263.604
1025.19	303.356
1028.93	178.969
1032.67	208.629
1036.41	167.329
1040.14	245.345
1043.87	345.116
1047.61	466.809
1051.34	450.03
1055.06	483.164
1058.79	491.45
1062.52	662.515
1066.24	1058.74
1069.96	1393.21
1073.68	1881.58
1077.4	2172.29
1081.11	3020.61
1084.83	5355.03
1088.54	12533.9
1092.25	36095.5
1095.96	42414.5
1099.67	14866.2
1103.37	4534.08
1107.08	1850.68
1110.78	907.937
1114.48	530.763
1118.18	483.663
1121.88	522.304
1125.57	378.725
1129.27	282.713
1132.96	221.694
1136.65	229.555
1140.34	150.848
1144.02	162.373
1147.71	188.718
1151.39	71.614
1155.07	217.024
1158.76	142.442
1162.43	97.917
1166.11	23.398
1169.79	11.343
1173.46	42.188
1177.13	111.342
1180.8	100.219
1184.47	172.258
1188.14	51.216
1191.8	69.286
1195.46	37.845
1199.13	85.064
1202.79	71.447
1206.45	66.15
1210.1	148.751
1213.76	216.969
1217.41	165.015
1221.06	136.66
1224.71	64.644
1228.36	65.304
1232.01	18.388
1235.65	88.259
1239.3	150.279
1242.94	177.861
1246.58	185.247
1250.22	123.882
1253.85	64.41
1257.49	69.142
1261.12	46.593
1264.75	76.039
1268.38	128.342
1272.01	134.582
1275.64	164.73
1279.27	88.75
1282.89	61.664
1286.51	10.502
1290.13	22.834
1293.75	2.655
1297.37	17.958
1300.98	109.161
1304.6	93.265
1308.21	86.256
1311.82	110.149
1315.43	37.324
1319.03	58.207
1322.64	13.393
1326.24	0.121
1329.85	15.042
1333.44	136.096
1337.04	103.047
1340.64	119.887
1344.24	167.603
1347.83	123.203
1351.42	52.422
1355.01	22.825
1358.6	36.361
1362.19	11.594
1365.78	28.561
1369.36	58.32
1372.94	104.416
1376.53	208.265
1380.1	215.953
1383.68	189.339
1387.26	94.397
1390.83	78.609
1394.41	65.376
1397.98	1.266
1401.55	1.222
1405.12	138.794
1408.68	186.415
1412.25	151.595
1415.81	262.386
1419.37	251.496
1422.93	259.416
1426.49	227.043
1430.05	265.281
1433.6	411.288
1437.15	660.161
1440.71	656.641
1444.26	540.979
1447.81	498.758
1451.35	410.363
1454.9	331.376
1458.44	255.553
1461.98	263.963
1465.53	188.131
1469.07	150.197
1472.6	103.325
1476.14	53.309
1479.67	56.029
1483.21	157.073
1486.74	116.173
1490.27	182.088
1493.8	187.934
1497.32	206.63
1500.85	177.554
1504.37	132.178
1507.89	94.294
1511.41	91.799
1514.93	14.971
1518.45	0
