Measurement: Raman, 514 nm, depolarized, Raman Data Processed
Mineral: Dolomite
Rruff sample: R050370
Ideal chemistry: CaMg(CO_3_)_2_
Locality: Morro Velho mine, Nova Lima, Minas Gerais, Brazil
Source: Eugene Schlepp
Description: Colorless bladed crystals associated with pyrrhotite and albite
Measured chemistry: (Ca_0.84_Fe_0.16_)_Σ=1_(Mg_0.98_Mn_0.02_)_Σ=1_(CO_3_)_2_ ; CO_2_ estimated by difference
Pin_id: L01076
Orientation: Laser parallel to a* (1 0 0). Fiducial mark perpendicular to laser is parallel to c [0 0 1]
Raman shift (cm-1)	intensity
118.134	0
123.058	17.293
127.979	3.44348
132.898	65.4396
137.814	70.7913
142.728	157.535
147.639	186.011
152.549	341.211
157.455	692.572
162.359	1562.62
167.261	2860.95
172.161	3823.33
177.058	2839.58
181.952	1161.54
186.845	489.215
191.734	299.938
196.622	175.054
201.507	171.297
206.389	92.8174
211.269	72.5845
216.147	141.53
221.022	155.76
225.895	128.29
230.765	141.949
235.633	103.71
240.498	156.564
245.361	167.506
250.222	216.951
255.08	379.809
259.936	514.356
264.789	777.299
269.64	1220.96
274.488	1922.85
279.334	3029.02
284.178	4534.94
289.019	5687.45
293.857	5848.54
298.693	4623.83
303.527	2827.66
308.358	1499.66
313.187	813.744
318.013	581.186
322.837	359.831
327.659	366.224
332.478	426.705
337.294	465.229
342.108	409.789
346.92	248.377
351.729	146.986
356.535	148.619
361.34	88.2627
366.141	89.9482
370.94	23.5984
375.737	90.2659
380.531	67.9502
385.323	15.6187
390.113	5.24365
394.9	10.8157
399.684	27.2898
404.466	62.6167
409.245	9.21289
414.022	32.0618
418.797	58.0256
423.569	8.89477
428.338	19.8374
433.105	5.83838
437.87	5.91992
442.632	14.9485
447.391	42.8079
452.149	5.35181
456.903	5.40845
461.655	13.8879
466.405	11.7185
471.152	112.222
475.897	22.6675
480.639	60.1206
485.378	65.6052
490.116	54.0737
494.85	95.8796
499.582	97.1738
504.312	112.434
509.039	85.6599
513.764	69.8486
518.486	151.909
523.206	134.11
527.923	125.288
532.638	73.2852
537.35	153.748
542.059	123.364
546.766	59.2214
551.471	83.2561
556.173	43.9419
560.873	43.2793
565.57	117.749
570.264	151.991
574.957	59.5254
579.646	81.9065
584.333	70.0112
589.018	155.093
593.7	80.4443
598.379	83.0837
603.056	30.749
607.73	65.7222
612.402	62.7434
617.072	10.7021
621.739	5.35767
626.403	102.804
631.065	119.887
635.724	32.8191
640.381	53.7283
645.035	45.6206
649.687	23.4587
654.336	36.3135
658.983	14.3965
663.627	9.59448
668.268	25.6462
672.907	56.3835
677.544	132.133
682.178	72.8906
686.809	87.2344
691.438	135.818
696.065	173.076
700.688	236.107
705.31	283.029
709.929	495.855
714.545	948.77
719.158	1502.6
723.77	1767.4
728.378	1165.16
732.984	505.887
737.588	357.613
742.189	225.326
746.787	110.027
751.383	85.7429
755.976	52.425
760.567	36.7847
765.155	120.673
769.741	69.2361
774.324	73.6777
778.904	37.2222
783.482	48.6675
788.058	54.0764
792.631	46.45
797.201	27.1616
801.769	6.67456
806.334	15.1892
810.897	115.676
815.457	33.209
820.014	12.2336
824.569	22.8225
829.122	1.62744
833.671	86.8044
838.219	8.15918
842.763	41.3081
847.306	41.5537
851.845	35.7681
856.382	34.9539
860.917	94.1145
865.448	102.252
869.978	112.367
874.505	148.462
879.029	128.537
883.55	100.595
888.069	53.6362
892.586	40.6641
897.1	42.6812
901.611	50.4099
906.12	45.1863
910.626	1.07397
915.129	95.9482
919.63	23.823
924.129	77.7022
928.625	78.5906
933.118	55.9456
937.609	44.6272
942.097	26.7996
946.582	77.3262
951.065	2.3396
955.546	29.0347
960.023	54.8882
964.499	40.4958
968.971	9.14648
973.441	20.8076
977.909	33.908
982.374	85.6985
986.836	31.375
991.295	81.7698
995.753	67.2314
1000.21	98.75
1004.66	79.3262
1009.11	155.963
1013.55	93.6602
1018	135.433
1022.44	156.321
1026.88	160.305
1031.32	290.321
1035.75	321.376
1040.18	376.614
1044.61	421.562
1049.04	407.977
1053.46	611.47
1057.88	788.221
1062.3	931.133
1066.71	1270.41
1071.13	1985.4
1075.54	2613.19
1079.94	3835.47
1084.35	8342.09
1088.75	25148.5
1093.15	53073.7
1097.55	44931.4
1101.94	12902
1106.34	3400.77
1110.73	1443.56
1115.11	876.086
1119.5	543.202
1123.88	430.081
1128.26	266.32
1132.63	155.623
1137.01	174.984
1141.38	97.4346
1145.75	82.624
1150.12	79.177
1154.48	74.0142
1158.84	58.2085
1163.2	9.98071
1167.55	19.5894
1171.91	74.3386
1176.26	39.24
1180.61	1.14575
1184.95	6.7041
1189.29	6.48047
1193.63	136.723
1197.97	105.669
1202.31	1.92261
1206.64	23.8699
1210.97	18.0261
1215.29	43.9011
1219.62	59.8879
1223.94	61.4097
1228.26	89.3518
1232.57	71.3982
1236.89	114.307
1241.2	11.144
1245.51	95.0962
1249.81	20.0476
1254.12	104.623
1258.42	30.9873
1262.72	48.0832
1267.01	41.9978
1271.3	115.322
1275.59	70.8606
1279.88	28.6536
1284.17	140.656
1288.45	14.9087
1292.73	90.9128
1297.01	61.0823
1301.28	67.1143
1305.55	158.083
1309.82	5.00464
1314.09	56.6985
1318.35	10.7224
1322.61	90.8914
1326.87	79.0349
1331.13	124.265
1335.38	78.6462
1339.63	78.9519
1343.88	48.167
1348.12	118.334
1352.37	92.4438
1356.61	61.5024
1360.85	39.4912
1365.08	59.0605
1369.31	20.9194
1373.54	42.3364
1377.77	37.291
1381.99	102.124
1386.22	67.8047
1390.43	2.87158
1394.65	24.477
1398.87	67.0147
1403.08	71.8501
1407.29	121.116
1411.49	119.162
1415.69	156.631
1419.89	224.346
1424.09	315.934
1428.29	351.516
1432.48	497.009
1436.67	744.083
1440.86	905.614
1445.04	596.385
1449.23	361.078
1453.4	252.2
1457.58	275.46
1461.76	134.753
1465.93	103.364
1470.1	63.437
1474.26	158.48
1478.43	97.5879
1482.59	113.153
1486.75	112.671
1490.9	118.598
1495.06	30.937
1499.21	67.7427
1503.35	123.934
1507.5	97.1055
1511.64	97.459
1515.78	58.002
1519.92	97.8179
1524.05	106.751
1528.18	43.8179
1532.31	107.301
1536.44	92.8477
1540.56	1.97217
1544.69	82.481
1548.8	122.654
1552.92	75.1514
1557.03	103.031
1561.14	45.6621
1565.25	129.328
1569.36	67.8662
