Measurement: Raman, 514 nm, depolarized, Raman Data Processed
Mineral: Dolomite
Rruff sample: R050241
Ideal chemistry: CaMg(CO_3_)_2_
Locality: Eugui quarries, Navarre, Spain
Source: Marcus Origlieri
Description: Light gray colored tabular crystals
Measured chemistry: (Ca_0.96_Mg_0.04_)_Σ=1_(Mg_0.98_Fe^2+^_0.02_)_Σ=1_(CO_3_)_2_ ; CO_2_ estimated by difference
Pin_id: L00518
Orientation: Laser parallel to -a* (-1 0 0). Fiducial mark perpendicular to laser is parallel to c [0 0 1]
Raman shift (cm-1)	intensity
100.883	0
105.815	69.8687
110.744	75.644
115.671	100.613
120.596	173.701
125.519	149.34
130.439	186.084
135.356	141.403
140.271	151.983
145.184	233.583
150.094	194.867
155.002	354.553
159.908	532.454
164.811	1122.47
169.711	2774.46
174.61	4168.09
179.505	6559.45
184.399	1938.95
189.29	637.985
194.178	342.442
199.064	249.292
203.948	202.604
208.829	76.3823
213.708	71.5405
218.585	28.167
223.459	76.1255
228.33	36.3042
233.199	56.7978
238.066	79.2026
242.93	20.646
247.792	56.127
252.651	33.4136
257.508	56.5498
262.363	129.485
267.215	112.166
272.064	112.447
276.912	185.163
281.756	478.312
286.598	863.896
291.438	2042.63
296.276	3625.64
301.111	4787.23
305.943	3149.64
310.773	1243.17
315.601	563.905
320.426	256.38
325.248	179.961
330.068	358.242
334.886	452.699
339.701	763.016
344.514	516.403
349.324	210.862
354.132	119.375
358.938	49.5269
363.741	78.0044
368.541	6.625
373.339	114.263
378.135	124.901
382.928	41.0879
387.718	70.2461
392.506	11.3779
397.292	65.1455
402.075	93.1172
406.856	117.107
411.634	36.8384
416.41	84.314
421.183	10.7285
425.954	81.4258
430.722	142.857
435.488	22.1904
440.251	32.5654
445.012	58.9971
449.77	14.7725
454.526	57.7832
459.28	98.5869
464.03	27.4595
468.779	123.3
473.525	5.88769
478.268	120.071
483.009	132.846
487.747	35.4228
492.483	43.3545
497.217	58.4507
501.948	20.4214
506.676	144.301
511.402	64.3008
516.125	65.1763
520.846	79.5894
525.565	176.439
530.281	40.3223
534.994	78.1611
539.705	105.965
544.413	226.6
549.119	46.332
553.822	89.2222
558.523	80.6465
563.222	58.1855
567.917	115.103
572.611	43.9853
577.302	139.79
581.99	85.4102
586.676	50.5147
591.359	53.7705
596.04	139.985
600.718	188.947
605.394	35.1377
610.067	49.168
614.737	155.149
619.406	14.3691
624.071	88.8691
628.734	3.15723
633.395	43.1719
638.053	84.9619
642.708	137.332
647.361	167.185
652.012	173.691
656.66	181.206
661.305	64.4072
665.948	19.6992
670.588	34.417
675.226	68.4287
679.861	248.269
684.494	175.206
689.124	204.848
693.752	146.681
698.377	296.783
702.999	363.67
707.619	386.987
712.237	536.063
716.852	1129.77
721.464	1913.78
726.074	2503.54
730.681	1383.79
735.286	635.779
739.888	281.492
744.488	145.903
749.085	121.13
753.68	95.1338
758.272	193.174
762.861	33.0478
767.448	125.985
772.033	41.9141
776.614	60.4902
781.194	141.837
785.77	39.4609
790.345	273.768
794.916	45.626
799.485	70.7041
804.052	187.535
808.616	274.468
813.177	22.835
817.736	174.102
822.292	30.1436
826.846	111.602
831.397	39.9766
835.945	10.1602
840.491	175.695
845.035	183.725
849.576	98.9297
854.114	219.758
858.65	262.565
863.183	151.858
867.713	91.082
872.241	152.138
876.767	137.017
881.29	372.722
885.81	203.258
890.328	189.421
894.843	104.953
899.356	86.7598
903.866	135.151
908.373	60.3975
912.878	112.893
917.38	114.664
921.88	89.6152
926.377	37.5449
930.872	144.784
935.364	33.3857
939.853	283.445
944.34	116.815
948.824	152.335
953.306	72.1934
957.785	40.1641
962.261	74.9688
966.735	96.4707
971.207	39.5713
975.675	62.5986
980.141	124.228
984.605	103.238
989.066	84.9902
993.524	44.3887
997.98	97.1367
1002.43	144.505
1006.88	100.939
1011.33	159.304
1015.78	150.403
1020.22	221.673
1024.66	203.898
1029.1	159.079
1033.53	211.226
1037.97	208.038
1042.4	263.75
1046.82	101.074
1051.25	278.231
1055.67	353.738
1060.09	422.859
1064.51	597.282
1068.92	1094.59
1073.33	1758.33
1077.74	2476.85
1082.15	3137.21
1086.55	4690.93
1090.95	10692.7
1095.35	29169.1
1099.75	44051.5
1104.14	14294.1
1108.53	3320.63
1112.92	1343.57
1117.31	833.062
1121.69	350.133
1126.07	301.065
1130.45	84.7432
1134.82	111.821
1139.19	192.173
1143.57	214.343
1147.93	253.514
1152.3	134.781
1156.66	208.291
1161.02	190.607
1165.38	3.86621
1169.73	22.54
1174.08	155.827
1178.43	156.447
1182.78	80.8965
1187.12	148.607
1191.46	107.934
1195.8	134.234
1200.14	141.56
1204.47	23.8311
1208.8	38.5156
1213.13	100.987
1217.46	100.247
1221.78	72.4951
1226.1	142.234
1230.42	123.541
1234.73	45.9463
1239.04	161.415
1243.35	71.9209
1247.66	46.7852
1251.97	326.557
1256.27	65.0527
1260.57	199.57
1264.86	89.0713
1269.16	167.931
1273.45	150.207
1277.74	196.516
1282.03	24.5039
1286.31	326.09
1290.59	152.545
1294.87	17.248
1299.14	83.7656
1303.42	39.498
1307.69	152.377
1311.95	205.932
1316.22	193.387
1320.48	144.045
1324.74	173.338
1329	363.57
1333.26	121.639
1337.51	102.725
1341.76	244.69
1346	244.615
1350.25	5.61523
1354.49	135.986
1358.73	123.953
1362.96	211.658
1367.2	247.711
1371.43	42.3594
1375.66	105.824
1379.88	203.988
1384.11	75.1816
1388.33	133.309
1392.54	14.832
1396.76	81.0195
1400.97	176.332
1405.18	53.5645
1409.39	188.127
1413.59	45.8555
1417.8	131.252
1421.99	255.057
1426.19	163.238
1430.38	365.203
1434.58	480.098
1438.77	1150.89
1442.95	1442.32
1447.13	710.914
1451.32	398.481
1455.49	174.607
1459.67	450.836
1463.84	113.461
1468.01	118.467
1472.18	117.369
1476.35	164.857
1480.51	71.9121
1484.67	210.94
1488.83	326.496
1492.98	245.449
1497.13	167.768
1501.28	203.769
1505.43	19.998
1509.57	151.482
1513.71	260.904
1517.85	186.773
1521.99	330.934
1526.12	166.316
1530.25	270.057
1534.38	292.625
1538.5	121.324
1542.62	21.959
1546.74	306.023
1550.86	110.568
1554.98	341.414
1559.09	205.123
1563.2	146.957
1567.31	208.045
1571.41	0
