Measurement: Raman, 514 nm, depolarized, Raman Data Processed
Mineral: Dolomite
Rruff sample: R050357
Ideal chemistry: CaMg(CO_3_)_2_
Locality: Black Rock, Lawrence County, Arkansas, USA
Source: California Institute of Technology
Description: Aggregate of pale pink curved saddle-shaped crystals
Measured chemistry: Ca_1.00_(Mg_0.98_Fe^2+^_0.02_)_Î£=1_(CO_3_)_2_ ; CO_2_ estimated by difference
Pin_id: L01901
Orientation: Laser parallel to a* (1 0 0). Fiducial mark perpendicular to laser is parallel to c [0 0 1]
Raman shift (cm-1)	intensity
109.512	0
114.44	58.029
119.365	26.0813
124.288	68.0293
129.209	73.2554
134.127	93.8801
139.043	130.291
143.956	195.548
148.867	213.05
153.775	294.257
158.681	484.832
163.585	1109.58
168.486	2905.35
173.385	6796.05
178.282	7240.59
183.176	2170.91
188.067	656.466
192.956	271.317
197.843	178.545
202.727	161.257
207.609	21.3462
212.489	54.8533
217.366	195.821
222.24	440.106
227.112	673.747
231.982	327.832
236.849	156.231
241.714	78.9819
246.577	170.09
251.437	37.8589
256.294	152.464
261.149	177.887
266.002	260.599
270.852	365.214
275.7	612.006
280.545	1118.77
285.388	2257.11
290.229	4938.32
295.067	9622.19
299.902	13369.3
304.735	7470.13
309.566	2969.82
314.394	1360.07
319.22	799.737
324.043	444.875
328.864	510.276
333.682	613.774
338.498	948.248
343.311	411.483
348.122	220.369
352.931	115.427
357.737	121.834
362.54	91.5391
367.341	96.0828
372.14	40.1086
376.936	51.5696
381.73	14.2085
386.521	4.5686
391.31	47.7581
396.096	74.5466
400.88	43.375
405.661	22.3186
410.44	22.6099
415.216	17.5
419.99	17.646
424.761	27.8994
429.53	56.146
434.297	27.3928
439.061	33.6414
443.822	2.93628
448.581	10.8704
453.337	46.3411
458.091	45.6511
462.843	65.9277
467.592	75.2085
472.338	84.5159
477.082	9.47852
481.824	53.2656
486.563	10.9185
491.3	31.2617
496.034	14.4045
500.765	82.5957
505.494	28.8442
510.221	128.23
514.945	73.291
519.666	30.8677
524.385	130.783
529.102	82.6731
533.816	44.1763
538.527	91.0627
543.236	90.9265
547.943	43.7656
552.647	103.752
557.348	60.5972
562.047	53.5339
566.744	27.3284
571.438	57.9238
576.129	81.9717
580.818	84.6367
585.504	48.2602
590.188	54.4282
594.87	128.889
599.549	121.023
604.225	50.8755
608.899	114.335
613.57	88.7495
618.239	61.1616
622.905	20.416
627.569	59.2778
632.23	41.1509
636.889	106.402
641.545	43.8242
646.198	30.3101
650.849	15.9038
655.498	27.4062
660.144	151.745
664.787	35.6143
669.428	37.2222
674.067	67.5415
678.703	65.5215
683.336	87.0923
687.967	140.785
692.595	160.887
697.221	160.609
701.844	142.258
706.465	199.875
711.083	501.399
715.698	691.9
720.311	1440.36
724.922	2174.78
729.53	1110.53
734.135	433.524
738.738	226.808
743.338	114.055
747.936	169.248
752.531	54.4468
757.124	91.8525
761.714	70.7051
766.302	58.1533
770.887	20.1865
775.469	86.9106
780.049	79.7012
784.626	43.2202
789.201	46.8516
793.773	22.4551
798.343	58.9273
802.91	78.4375
807.475	137.873
812.037	44.3486
816.596	51.5742
821.153	113.921
825.707	102.802
830.259	38.1406
834.808	60.7217
839.355	68.5063
843.899	58.0347
848.441	128.731
852.98	103.382
857.516	67.9878
862.05	95.5527
866.581	42.0898
871.11	74.5591
875.636	269.894
880.159	375.195
884.68	295.462
889.199	53.7153
893.714	14.8589
898.228	52.2915
902.738	71.4434
907.246	27.7871
911.752	29.395
916.255	17.2773
920.755	49.2949
925.253	60.7676
929.748	83.6655
934.241	102.393
938.731	30.3628
943.218	23.1216
947.703	49.8267
952.186	10.3159
956.665	33.4898
961.142	68.3003
965.617	106.587
970.089	12.3926
974.558	146.186
979.025	78.9463
983.489	99.8272
987.951	92.7637
992.41	154.773
996.866	191.883
1001.32	2.021
1005.77	159.384
1010.22	138.602
1014.67	191.85
1019.11	65.1367
1023.55	217.456
1027.99	93.5161
1032.42	181.939
1036.86	279.456
1041.29	260.938
1045.72	301.066
1050.14	377.671
1054.56	428.144
1058.98	619.961
1063.4	875.096
1067.82	1166.43
1072.23	1901.32
1076.64	2472.06
1081.05	3211.07
1085.45	4923.78
1089.85	10688.4
1094.25	33179.2
1098.65	54110.4
1103.04	15379.8
1107.43	3874.52
1111.82	1637.33
1116.21	834.993
1120.59	742.657
1124.97	508.961
1129.35	212.327
1133.73	263.922
1138.1	28.8433
1142.47	81.3008
1146.84	131.778
1151.21	176.239
1155.57	39.7861
1159.93	124.434
1164.29	27.9385
1168.64	89.7178
1172.99	37.1352
1177.34	102.647
1181.69	14.7798
1186.04	84.168
1190.38	19.1885
1194.72	109.943
1199.05	55.0635
1203.39	124.352
1207.72	91.4424
1212.05	142.514
1216.37	13.5566
1220.7	39.6333
1225.02	184.648
1229.34	21.6113
1233.65	18.5381
1237.97	23.3164
1242.28	27.0815
1246.59	113.826
1250.89	42.5303
1255.19	138.951
1259.49	41.2202
1263.79	100.39
1268.09	109.468
1272.38	46.4805
1276.67	76.4365
1280.95	63.7983
1285.24	75.5727
1289.52	71.6133
1293.8	73.0019
1298.08	55.5254
1302.35	119.232
1306.62	53.898
1310.89	101.347
1315.15	85.8594
1319.42	72.8193
1323.68	112.044
1327.94	33.2031
1332.19	53.3188
1336.44	139.394
1340.69	84.4287
1344.94	123.31
1349.19	98.2686
1353.43	82.457
1357.67	145.418
1361.9	104.575
1366.14	132.863
1370.37	35.3037
1374.6	149.722
1378.83	105.453
1383.05	102.587
1387.27	35.2549
1391.49	114.194
1395.7	20.6396
1399.92	60.0298
1404.13	23.917
1408.34	126.592
1412.54	136.464
1416.74	81.9629
1420.94	118.081
1425.14	178.565
1429.34	128.395
1433.53	283.113
1437.72	967.667
1441.9	1565.9
1446.09	786.205
1450.27	456.245
1454.45	284.744
1458.63	133.381
1462.8	85.9746
1466.97	76.6148
1471.14	147.137
1475.31	94.771
1479.47	142.512
1483.63	129.55
1487.79	206.333
1491.94	115.852
1496.09	116.112
1500.24	59.604
1504.39	93.208
1508.54	166.831
1512.68	54.626
1516.82	131.668
1520.95	85.9004
1525.09	157.407
1529.22	186.304
1533.35	21.3023
1537.47	2.75781
1541.6	184.801
1545.72	134.659
1549.83	97.7993
1553.95	209.834
1558.06	157.479
1562.17	12.5669
1566.28	43.7485
1570.38	33.7334
