Measurement: Raman, 514 nm, depolarized, Raman Data Processed
Mineral: Dolomite
Rruff sample: R050272
Ideal chemistry: CaMg(CO_3_)_2_
Locality: Eagle mine, Gillman, Colorado, USA
Source: University of Arizona Mineral Museum
Description: Gray-white rhombohedral crystals
Measured chemistry: (Ca_0.96_Fe^2+^_0.04_)_Σ=1_(Mg_0.63_Mn^2+^_0.21_Fe^2+^_0.16_)_Σ=1_(CO_3_)_2_ ; CO_3_ estimated by difference and stoichiometry
Pin_id: L00489
Orientation: Laser parallel to -a* (-1 0 0). Fiducial mark perpendicular to laser is parallel to -c [0 0 -1]
Raman shift (cm-1)	intensity
81.521	0
85.706	17.9
89.89	43.592
94.071	80.219
98.251	70.517
102.428	18.845
106.604	64.648
110.777	58.017
114.949	91.777
119.119	98.815
123.286	48.971
127.452	25.14
131.615	42.773
135.777	69.119
139.937	69.006
144.094	91.716
148.25	159.822
152.403	149.235
156.555	219.745
160.705	478.869
164.853	813.643
168.998	1663.47
173.142	2313.46
177.284	1295.53
181.424	579.751
185.562	299.947
189.698	171.863
193.831	153.528
197.963	105.964
202.093	73.205
206.221	63.197
210.347	48.837
214.472	29.18
218.594	8.473
222.714	42.003
226.832	11.773
230.948	10.839
235.063	42.392
239.175	19.315
243.286	2.181
247.394	1.642
251.501	10.008
255.605	65.31
259.708	102.17
263.808	163.433
267.907	206.519
272.004	211.286
276.099	373.954
280.192	525.403
284.283	773.464
288.372	1173.47
292.459	1427
296.544	1407.44
300.627	968.55
304.709	597.251
308.788	364.719
312.865	269.28
316.941	228.132
321.015	190.003
325.086	201.062
329.156	235.792
333.224	240.239
337.29	270.348
341.354	244.28
345.416	189.025
349.476	107.698
353.534	116.572
357.591	118.792
361.645	101.412
365.698	117.067
369.748	112.497
373.797	59.07
377.844	96.985
381.889	64.699
385.932	70.386
389.973	59.86
394.012	40.432
398.049	49.434
402.084	52.331
406.118	58.981
410.15	54.421
414.179	35.102
418.207	32.642
422.233	31.521
426.257	47.002
430.279	43.691
434.299	36.695
438.318	41.549
442.334	16.218
446.349	7.069
450.361	9.11
454.372	20.357
458.381	42.513
462.388	41.552
466.394	40.518
470.397	36.331
474.398	28.691
478.398	58.291
482.396	70.236
486.391	39.516
490.385	48.878
494.377	56.368
498.368	29.719
502.356	37.185
506.342	64.312
510.327	55.813
514.31	67.286
518.291	74.657
522.27	97.613
526.247	36.699
530.222	57.659
534.196	61.37
538.167	62.304
542.137	41.086
546.105	73.928
550.071	50.843
554.035	66.719
557.998	54.699
561.958	39.863
565.917	60.122
569.874	59.501
573.829	57.861
577.782	49.951
581.733	2.065
585.683	49.419
589.63	13.592
593.576	12.863
597.52	49.319
601.462	19.837
605.402	26.494
609.341	22.458
613.277	26.225
617.212	12.652
621.145	20.741
625.076	59.018
629.006	32.418
632.933	12.881
636.859	17.799
640.783	22.988
644.705	2.969
648.625	16.694
652.543	2.619
656.46	9.324
660.375	1.278
664.288	36.766
668.199	12.594
672.108	22.267
676.016	20.377
679.921	33.546
683.825	65.054
687.727	44.965
691.628	68.744
695.526	51.352
699.423	122.968
703.318	121.571
707.211	301.167
711.102	509.675
714.992	960.575
718.879	1731.15
722.765	1906.73
726.649	1130.28
730.532	567.83
734.412	242.365
738.291	118.823
742.168	76.34
746.043	102.853
749.916	4.947
753.788	33.068
757.658	15.557
761.526	31.463
765.392	49.298
769.257	24.045
773.119	22.783
776.98	18.176
780.839	24.506
784.697	28.081
788.552	3.016
792.406	6.711
796.258	2.361
800.108	4.495
803.957	17.665
807.804	0.511
811.649	9.261
815.492	9.723
819.333	25.633
823.173	0.305
827.011	4.289
830.847	53.187
834.681	6.146
838.514	17.331
842.345	21.565
846.174	36.143
850.001	18.829
853.827	11.412
857.651	14.169
861.473	42.824
865.293	2.542
869.112	62.062
872.928	77.658
876.744	50.247
880.557	72.831
884.369	28.409
888.178	2.983
891.987	53.553
895.793	2.121
899.598	2.315
903.401	15.146
907.202	0.681
911.001	25.203
914.799	1.268
918.595	74.245
922.389	29.232
926.182	43.73
929.972	34.523
933.761	5.97
937.549	31.514
941.334	40.516
945.118	66.4
948.9	59.75
952.681	12.053
956.459	74.618
960.236	25.255
964.012	73.9
967.785	38.702
971.557	19.563
975.327	70.623
979.095	67.844
982.862	58.625
986.627	47.813
990.39	42.337
994.152	43.633
997.912	45.888
1001.67	60.788
1005.43	112.708
1009.18	107.677
1012.93	129.694
1016.68	129.531
1020.43	180.65
1024.18	200.819
1027.93	178.019
1031.67	181.26
1035.42	281.537
1039.16	331.845
1042.9	408.199
1046.63	403.586
1050.37	466.826
1054.11	555.034
1057.84	647.925
1061.57	836.516
1065.3	1070.06
1069.03	1447.99
1072.75	1940.44
1076.47	2603.92
1080.2	4314.78
1083.92	8906.47
1087.64	18429.4
1091.36	40315.2
1095.07	47395.2
1098.79	18124.2
1102.5	5478.9
1106.21	2209.35
1109.92	1262.72
1113.62	820.061
1117.33	574.9
1121.04	507.242
1124.74	465.696
1128.44	240.21
1132.14	225.921
1135.83	208.393
1139.53	170.07
1143.22	183.738
1146.92	147.452
1150.61	111.194
1154.3	100.633
1157.98	135.885
1161.67	71.115
1165.35	19.738
1169.04	60.983
1172.72	46.91
1176.4	103.893
1180.07	69.667
1183.75	63.138
1187.42	59.198
1191.1	94.344
1194.77	15.101
1198.44	47.614
1202.1	66.517
1205.77	168.243
1209.43	45.305
1213.1	15.602
1216.76	46.172
1220.42	22.811
1224.07	62.538
1227.73	44.558
1231.38	28.398
1235.04	50.554
1238.69	54.72
1242.34	70.831
1245.99	26.98
1249.63	5.82
1253.28	19.816
1256.92	35.24
1260.56	47.972
1264.2	47.953
1267.84	13.924
1271.48	20.859
1275.11	1.265
1278.74	12.423
1282.38	12.383
1286.01	27.166
1289.63	27.885
1293.26	27.549
1296.89	24.17
1300.51	23.667
1304.13	22.894
1307.75	29.468
1311.37	18.216
1314.99	14.003
1318.6	55.174
1322.22	6.721
1325.83	51.355
1329.44	41.354
1333.05	7.299
1336.66	1.807
1340.26	38.024
1343.87	14.193
1347.47	9.391
1351.07	15.073
1354.67	64.721
1358.27	47.341
1361.86	37.909
1365.46	39.468
1369.05	51.231
1372.64	62.853
1376.23	10.808
1379.82	11.895
1383.41	52.695
1386.99	20.554
1390.57	55.925
1394.16	51.93
1397.74	58.457
1401.32	83.695
1404.89	87.052
1408.47	94.445
1412.04	80.317
1415.61	154.251
1419.18	142.145
1422.75	193.569
1426.32	211.478
1429.89	281.187
1433.45	420.845
1437.01	515.015
1440.58	586.751
1444.13	406.274
1447.69	278.48
1451.25	194.54
1454.81	155.25
1458.36	146.981
1461.91	146.777
1465.46	50.138
1469.01	108.447
1472.56	47.693
1476.1	39.438
1479.64	47.047
1483.19	106.857
1486.73	115.795
1490.27	59.005
1493.81	82.481
1497.34	40.508
1500.88	19.177
1504.41	42.653
1507.94	17.317
1511.47	73.837
1515	64.137
1518.53	0
