Measurement: Raman, 514 nm, depolarized, Raman Data Processed
Mineral: Dolomite
Rruff sample: R050241
Ideal chemistry: CaMg(CO_3_)_2_
Locality: Eugui quarries, Navarre, Spain
Source: Marcus Origlieri
Description: Light gray colored tabular crystals
Measured chemistry: (Ca_0.96_Mg_0.04_)_Σ=1_(Mg_0.98_Fe^2+^_0.02_)_Σ=1_(CO_3_)_2_ ; CO_2_ estimated by difference
Pin_id: L00120
Orientation: Laser parallel to c* (0 0 1). Fiducial mark perpendicular to laser is parallel to b [0 1 0]
Raman shift (cm-1)	intensity
118.134	0
123.058	10.3922
127.979	25.4968
132.898	28.7659
137.814	57.322
142.728	70.8556
147.639	139.842
152.549	191.048
157.455	254.859
162.359	634.043
167.261	1887.53
172.161	4083.98
177.058	5981.29
181.952	3391
186.845	785.278
191.734	294.882
196.622	119.484
201.507	107.152
206.389	104.967
211.269	78.8455
216.147	17.7656
221.022	12.7401
225.895	20.767
230.765	72.8093
235.633	8.10278
240.498	46.0427
245.361	3.48975
250.222	17.3501
255.08	3.87353
259.936	83.2459
264.789	82.0618
269.64	37.9973
274.488	86.4981
279.334	267.538
284.178	489.818
289.019	1152.68
293.857	2493.87
298.693	4228.18
303.527	3510.55
308.358	1427.85
313.187	635.229
318.013	361.754
322.837	209.459
327.659	216.992
332.478	430.209
337.294	768.35
342.108	660.45
346.92	302.656
351.729	127.413
356.535	35.9158
361.34	119.304
366.141	101.067
370.94	71.083
375.737	95.9089
380.531	43.1431
385.323	19.6631
390.113	90.4277
394.9	33.4526
399.684	0.980225
404.466	40.1399
409.245	31.0222
414.022	22.031
418.797	45.4829
423.569	0.549805
428.338	67.1345
433.105	19.8355
437.87	12.6975
442.632	9.70874
447.391	58.3503
452.149	25.4314
456.903	50.9119
461.655	16.9155
466.405	25.1587
471.152	61.949
475.897	47.6299
480.639	70.9487
485.378	59.3572
490.116	16.0112
494.85	63.7332
499.582	17.541
504.312	120.963
509.039	101.936
513.764	61.5913
518.486	26.0776
523.206	41.8552
527.923	62.4307
532.638	64.2688
537.35	14.9802
542.059	23.1201
546.766	91.7119
551.471	85.1045
556.173	7.08667
560.873	25.9219
565.57	95.8315
570.264	106.159
574.957	73.572
579.646	7.34619
584.333	58.5151
589.018	20.426
593.7	67.7402
598.379	85.1599
603.056	27.4346
607.73	45.6594
612.402	23.364
617.072	20.6018
621.739	77.1746
626.403	24.9827
631.065	71.9604
635.724	26.4983
640.381	54.3982
645.035	11.4285
649.687	55.6768
654.336	56.3481
658.983	12.6538
663.627	76.1016
668.268	70.6646
672.907	31.5798
677.544	91.666
682.178	57.2537
686.809	180.225
691.438	189.054
696.065	146.259
700.688	278.731
705.31	337.914
709.929	562.128
714.545	863.759
719.158	1921.58
723.77	2957.96
728.378	2086.39
732.984	940.86
737.588	420.736
742.189	108.862
746.787	110.674
751.383	60.6645
755.976	66.0586
760.567	69.1006
765.155	80.1191
769.741	31.9023
774.324	0.760742
778.904	22.3364
783.482	66.9717
788.058	56.4898
792.631	45.2412
797.201	34.1836
801.769	35.3345
806.334	23.3701
810.897	50.9902
815.457	35.9609
820.014	61.3389
824.569	97.4531
829.122	82.7944
833.671	120.728
838.219	49.79
842.763	69.5171
847.306	28.8706
851.845	77.6289
856.382	1.52832
860.917	99.8784
865.448	63.3213
869.978	138.689
874.505	153.708
879.029	259.401
883.55	281.11
888.069	111.083
892.586	97.4575
897.1	50.814
901.611	33.352
906.12	55.0664
910.626	12.1704
915.129	25.1943
919.63	90.1709
924.129	13.2192
928.625	31.5781
933.118	50.0122
937.609	73.5454
942.097	12.0884
946.582	33.3843
951.065	97.6709
955.546	7.95117
960.023	33.9487
964.499	19.5029
968.971	45.9375
973.441	10.7202
977.909	55.1953
982.374	27.3833
986.836	50.2607
991.295	77.8125
995.753	71.9258
1000.21	0.647461
1004.66	36.0586
1009.11	124.353
1013.55	31.4023
1018	38.1123
1022.44	117.286
1026.88	86.9644
1031.32	134.399
1035.75	169.045
1040.18	269.344
1044.61	269.097
1049.04	348.735
1053.46	351.054
1057.88	434.013
1062.3	595.669
1066.71	996.222
1071.13	1674.56
1075.54	2356.89
1079.94	3281.03
1084.35	4269.19
1088.75	7565.3
1093.15	22039.6
1097.55	51419.5
1101.94	31244.5
1106.34	6620.84
1110.73	2072.84
1115.11	1055.28
1119.5	642.421
1123.88	455.472
1128.26	269.893
1132.63	212.851
1137.01	150.963
1141.38	82.6357
1145.75	207.32
1150.12	18.1226
1154.48	122.184
1158.84	48.1138
1163.2	74.4497
1167.55	116.007
1171.91	104.437
1176.26	137.6
1180.61	153.078
1184.95	81.7266
1189.29	23.0288
1193.63	33.394
1197.97	2.4209
1202.31	116.2
1206.64	144.615
1210.97	118.08
1215.29	49.1445
1219.62	125.269
1223.94	94.4795
1228.26	113.282
1232.57	125.409
1236.89	134.207
1241.2	58.8779
1245.51	124.366
1249.81	135.502
1254.12	62.9326
1258.42	160.182
1262.72	62.2549
1267.01	49.7353
1271.3	59.9287
1275.59	151.675
1279.88	78.4688
1284.17	91.499
1288.45	61.2471
1292.73	125.976
1297.01	95.6514
1301.28	6.74414
1305.55	68.3115
1309.82	73.2461
1314.09	118.029
1318.35	13.5342
1322.61	70.5391
1326.87	211.949
1331.13	144.627
1335.38	157.592
1339.63	162.273
1343.88	201.555
1348.12	94.5342
1352.37	118.955
1356.61	137.493
1360.85	62.876
1365.08	199.816
1369.31	114.644
1373.54	132.806
1377.77	121.241
1381.99	67.8066
1386.22	52.2227
1390.43	165.602
1394.65	62.2022
1398.87	119.475
1403.08	135.593
1407.29	200.857
1411.49	237.233
1415.69	45.9346
1419.89	96.2031
1424.09	227.326
1428.29	226.799
1432.48	338.558
1436.67	649.196
1440.86	1598.23
1445.04	1247.2
1449.23	402.06
1453.4	211.42
1457.58	272.58
1461.76	161.828
1465.93	164.779
1470.1	50.875
1474.26	87.9824
1478.43	127.353
1482.59	104.251
1486.75	128.722
1490.9	53.8809
1495.06	242.263
1499.21	91.8047
1503.35	173.684
1507.5	90.3213
1511.64	161.163
1515.78	257.068
1519.92	143.724
1524.05	189.215
1528.18	114.279
1532.31	101.335
1536.44	69.2383
1540.56	254.529
1544.69	231.73
1548.8	172.644
1552.92	134.559
1557.03	192.718
1561.14	179.682
1565.25	72.1231
1569.36	57.5234
