Measurement: Raman, 514 nm, depolarized, Raman Data Processed
Mineral: Dolomite
Rruff sample: R050272
Ideal chemistry: CaMg(CO_3_)_2_
Locality: Eagle mine, Gillman, Colorado, USA
Source: University of Arizona Mineral Museum
Description: Gray-white rhombohedral crystals
Measured chemistry: (Ca_0.96_Fe^2+^_0.04_)_Σ=1_(Mg_0.63_Mn^2+^_0.21_Fe^2+^_0.16_)_Σ=1_(CO_3_)_2_ ; CO_3_ estimated by difference and stoichiometry
Pin_id: L00059
Orientation: Laser parallel to c* (0 0 1). Fiducial mark perpendicular to laser is parallel to a [1 0 0]
Raman shift (cm-1)	intensity
70.349	0
74.54	16.883
78.729	7.872
82.916	1.454
87.101	47.735
91.284	98.53
95.465	104.757
99.644	111.519
103.82	89.151
107.995	107.408
112.168	67.114
116.339	177.196
120.508	118.146
124.675	73.905
128.84	97.704
133.003	94.722
137.164	104.039
141.323	121.39
145.48	138.365
149.635	161.113
153.788	248.242
157.939	335.722
162.088	513.469
166.235	1053.09
170.38	2221.04
174.523	2741.13
178.664	1301.21
182.803	537.268
186.94	278.269
191.076	146.214
195.209	107.114
199.34	73.893
203.47	69.544
207.597	39.544
211.722	20.686
215.846	29.495
219.967	29.568
224.087	5.601
228.204	25.676
232.32	29.093
236.434	19.345
240.545	16.541
244.655	11.795
248.763	40.346
252.869	52.721
256.973	70.551
261.075	56.905
265.175	116.55
269.273	162.27
273.369	249.851
277.463	350.058
281.556	560.13
285.646	847.895
289.734	1240.66
293.821	1703.13
297.905	1518.37
301.988	951.596
306.069	513.66
310.147	321.307
314.224	228.51
318.299	185.782
322.372	142.624
326.443	140.093
330.512	172.208
334.579	193.945
338.645	225.299
342.708	177.692
346.769	105.934
350.829	86.048
354.887	64.216
358.942	58.292
362.996	58.986
367.048	48.383
371.098	50.512
375.146	22.192
379.192	70.854
383.236	48.928
387.279	35.84
391.319	28.262
395.358	27.981
399.394	41.823
403.429	2.266
407.462	29.891
411.493	8.161
415.522	11.931
419.549	6.589
423.575	28.205
427.598	15.336
431.619	1.625
435.639	5.457
439.657	11.359
443.673	44.139
447.687	8.883
451.699	27.529
455.709	37.096
459.717	25.884
463.724	7.33
467.728	1.774
471.731	10.374
475.732	14.879
479.731	39.873
483.728	23.883
487.723	20.056
491.716	28.129
495.708	48.043
499.697	19.817
503.685	23.591
507.671	24.293
511.655	39.759
515.637	24.108
519.617	38.225
523.596	63.248
527.572	73.967
531.547	22.732
535.52	24.347
539.491	36.039
543.46	39.623
547.427	4.202
551.393	31.637
555.356	42.109
559.318	24.645
563.278	20.523
567.236	54.374
571.192	64.744
575.147	6.686
579.099	40.003
583.05	29.296
586.999	61.608
590.946	36.596
594.891	34.73
598.834	29.111
602.776	39.736
606.715	33.41
610.653	12.828
614.589	0.159
618.523	40.494
622.456	16.728
626.386	7.923
630.315	2.041
634.242	53.11
638.167	22.098
642.09	8.947
646.012	6.307
649.931	26.63
653.849	28.442
657.765	10.615
661.679	24.697
665.592	47.925
669.502	24.703
673.411	56.468
677.318	31.72
681.223	48.691
685.126	85.884
689.028	69.644
692.927	57.978
696.825	143.733
700.721	184.568
704.616	266.056
708.508	433.19
712.399	812.162
716.288	1545.58
720.175	2766.62
724.06	2504.7
727.944	1312.76
731.825	544.391
735.705	285.438
739.584	199.547
743.46	123.642
747.334	73.768
751.207	80.7
755.078	16.693
758.947	69.341
762.815	47.998
766.68	8.737
770.544	44.639
774.406	18.086
778.267	37.241
782.125	27.999
785.982	10.059
789.837	1.525
793.69	42.663
797.542	46.632
801.391	23.244
805.239	6.172
809.085	1.774
812.93	29.359
816.772	1.857
820.613	29.112
824.452	40.955
828.29	17.379
832.125	31.524
835.959	28.777
839.791	62.886
843.621	54.85
847.45	18.602
851.277	52.249
855.102	10.728
858.925	3.872
862.746	19.543
866.566	15.657
870.384	65.065
874.2	65.848
878.015	75.845
881.828	123.779
885.639	41.651
889.448	36.462
893.256	50.22
897.061	37.949
900.865	21.631
904.668	11.247
908.468	47.539
912.267	56.819
916.064	5.346
919.86	11.111
923.653	13.801
927.445	57.702
931.236	38.642
935.024	41.308
938.811	34.285
942.596	1.498
946.379	25.764
950.161	48.673
953.94	50.646
957.719	51.38
961.495	42.413
965.27	42.703
969.043	4.685
972.814	11.135
976.583	17.336
980.351	33.328
984.117	28.76
987.882	2.056
991.644	28.691
995.405	31.525
999.165	35.516
1002.92	88.425
1006.68	134.025
1010.43	66.017
1014.18	91.315
1017.93	118.182
1021.68	162.099
1025.43	169.933
1029.18	204.979
1032.92	246.996
1036.66	277.076
1040.4	278.958
1044.14	322.784
1047.88	385.133
1051.62	470.743
1055.35	565.597
1059.08	697.499
1062.81	843.818
1066.54	1062.21
1070.27	1435.71
1073.99	1880.33
1077.72	2710.19
1081.44	4492.78
1085.16	9187.47
1088.88	19371.1
1092.59	44107.1
1096.31	44007.8
1100.02	14269.4
1103.73	4455.03
1107.44	2014.82
1111.15	1164.19
1114.86	763.742
1118.57	509.533
1122.27	473.59
1125.97	362.709
1129.67	324.81
1133.37	224.632
1137.07	255.199
1140.76	214.848
1144.45	177.363
1148.15	82.493
1151.84	99.773
1155.53	98.592
1159.21	130.812
1162.9	119.027
1166.58	60.994
1170.26	109.265
1173.94	42.19
1177.62	56.407
1181.3	28.821
1184.97	93.627
1188.65	78.246
1192.32	89.462
1195.99	80.143
1199.66	50.154
1203.33	56.323
1206.99	46.287
1210.65	45.552
1214.32	91.291
1217.98	70.07
1221.64	127.96
1225.29	101.366
1228.95	56.162
1232.6	87.944
1236.26	73.394
1239.91	58.949
1243.56	47.915
1247.2	155.008
1250.85	103.082
1254.49	79.428
1258.13	68.918
1261.78	156.13
1265.41	37.5
1269.05	89.192
1272.69	0.179
1276.32	124.764
1279.95	116.133
1283.59	91.303
1287.21	20.296
1290.84	63.12
1294.47	45.753
1298.09	0.824
1301.72	2.621
1305.34	77.389
1308.96	41.954
1312.58	32.322
1316.19	83.6
1319.81	128.536
1323.42	62.257
1327.03	8.395
1330.64	0.928
1334.25	11.97
1337.86	2.141
1341.46	35.884
1345.07	25.286
1348.67	61.484
1352.27	102.292
1355.87	22.773
1359.46	18.603
1363.06	21.055
1366.65	8.462
1370.25	34.606
1373.84	8.805
1377.43	65.398
1381.02	128.379
1384.6	119.256
1388.18	204.295
1391.77	144.136
1395.35	51.41
1398.93	77.024
1402.51	342.804
1406.08	36.551
1409.66	0.893
1413.23	39.178
1416.8	122.541
1420.37	210.14
1423.94	282.354
1427.51	375.115
1431.08	413.449
1434.64	512.827
1438.2	758.738
1441.76	633.725
1445.32	441.067
1448.88	288.468
1452.43	246.995
1455.99	221.697
1459.54	180.538
1463.09	179.407
1466.64	255.847
1470.19	148.592
1473.74	158.656
1477.28	74.521
1480.83	3.41
1484.37	2.668
1487.91	7.922
1491.45	41.286
1494.98	27.206
1498.52	49.867
1502.05	148.809
1505.59	165.341
1509.12	199.281
1512.65	108.305
1516.17	172.619
