Measurement: Raman, 514 nm, ccw, Raman Data RAW
Mineral: Dolomite
Rruff sample: R050241
Ideal chemistry: CaMg(CO_3_)_2_
Locality: Eugui quarries, Navarre, Spain
Source: Marcus Origlieri
Description: Light gray colored tabular crystals
Measured chemistry: (Ca_0.96_Mg_0.04_)_Σ=1_(Mg_0.98_Fe^2+^_0.02_)_Σ=1_(CO_3_)_2_ ; CO_2_ estimated by difference
Pin_id: L00120
Orientation: Laser parallel to c* (0 0 1). Fiducial mark perpendicular to laser is parallel to b [0 1 0]
Raman shift (cm-1)	intensity
118.134	1634
123.058	1634
127.979	1627
132.898	1657
137.814	1756
142.728	1793
147.639	1776
152.549	1857
157.455	1966
162.359	2164
167.261	3176
172.161	4863
177.058	5863
181.952	3957
186.845	2331
191.734	2027
196.622	1970
201.507	1921
206.389	1919
211.269	1900
216.147	1964
221.022	1944
225.895	1985
230.765	2030.44
235.633	1985
240.498	1985
245.361	2003
250.222	2044
255.08	2045.45
259.936	2126
264.789	2065
269.64	2132
274.488	2250
279.334	2280
284.178	2462
289.019	3010
293.857	4222
298.693	5433
303.527	4455
308.358	3136
313.187	2584
318.013	2437
322.837	2338
327.659	2426
332.478	2693
337.294	3032
342.108	2981
346.92	2585
351.729	2397
356.535	2346
361.34	2300
366.141	2366
370.94	2374
375.737	2440
380.531	2382
385.323	2432
390.113	2454
394.9	2424.92
399.684	2461
404.466	2426
409.245	2518
414.022	2578
418.797	2521
423.569	2528
428.338	2535
433.105	2544
437.87	2588
442.632	2646.47
447.391	2609
452.149	2630
456.903	2597
461.655	2679
466.405	2695
471.152	2690
475.897	2664
480.639	2718
485.378	2757
490.116	2814
494.85	2770
499.582	2871
504.312	2843
509.039	2872
513.764	2824
518.486	2848
523.206	2849
527.923	2926
532.638	2902
537.35	2943
542.059	2940
546.766	2967
551.471	3029
556.173	3038
560.873	3043
565.57	3094
570.264	3100
574.957	3168
579.646	3148
584.333	3157
589.018	3166
593.7	3161
598.379	3262
603.056	3236
607.73	3231
612.402	3281
617.072	3327
621.739	3351
626.403	3384
631.065	3388
635.724	3400
640.381	3388
645.035	3494
649.687	3467
654.336	3504
658.983	3518
663.627	3537
668.268	3580.86
672.907	3572
677.544	3578
682.178	3738
686.809	3701
691.438	3760
696.065	3913
700.688	3933
705.31	4128
709.929	4348
714.545	4679
719.158	5954
723.77	7246
728.378	6350
732.984	4811
737.588	4317
742.189	4151
746.787	4093
751.383	4040
755.976	4083
760.567	4068
765.155	4016
769.741	4116
774.324	4090
778.904	4150
783.482	4199
788.058	4132
792.631	4242
797.201	4218
801.769	4355
806.334	4346
810.897	4356
815.457	4350
820.014	4455
824.569	4449
829.122	4503.82
833.671	4523
838.219	4597
842.763	4659
847.306	4547
851.845	4602
856.382	4707
860.917	4673
865.448	4760
869.978	4839
874.505	4806
879.029	4919
883.55	5034
888.069	4924
892.586	5058
897.1	4931
901.611	5019
906.12	5029
910.626	4984.9
915.129	5139
919.63	5217
924.129	5103
928.625	5192
933.118	5348
937.609	5316
942.097	5366
946.582	5407
951.065	5403
955.546	5486
960.023	5552
964.499	5437
968.971	5673
973.441	5567
977.909	5748
982.374	5706
986.836	5673
991.295	5857
995.753	5785
1000.21	5918
1004.66	6007
1009.11	5974
1013.55	6122
1018	6134
1022.44	6107
1026.88	6178
1031.32	6229
1035.75	6265
1040.18	6382
1044.61	6534
1049.04	6552
1053.46	6612
1057.88	6843
1062.3	7153
1066.71	7543
1071.13	8076
1075.54	9167.26
1079.94	9843
1084.35	10927
1088.75	14174
1093.15	28718
1097.55	58952
1101.94	38886
1106.34	13639
1110.73	9230
1115.11	7993
1119.5	7619
1123.88	7458
1128.26	7413
1132.63	7375
1137.01	7428
1141.38	7310
1145.75	7431
1150.12	7396
1154.48	7405
1158.84	7504
1163.2	7445
1167.55	7599
1171.91	7685
1176.26	7620
1180.61	7685
1184.95	7800
1189.29	7797
1193.63	7878
1197.97	7932
1202.31	7951
1206.64	8039
1210.97	8093
1215.29	8195
1219.62	8176
1223.94	8188
1228.26	8305
1232.57	8363
1236.89	8350
1241.2	8429
1245.51	8527
1249.81	8512
1254.12	8509
1258.42	8635
1262.72	8584
1267.01	8729
1271.3	8789.17
1275.59	8791
1279.88	8910
1284.17	8958
1288.45	8974
1292.73	8946
1297.01	9139.25
1301.28	9133
1305.55	9198
1309.82	9282
1314.09	9247
1318.35	9351
1322.61	9440
1326.87	9542
1331.13	9590
1335.38	9669
1339.63	9660
1343.88	9665
1348.12	9922.46
1352.37	9786
1356.61	9927
1360.85	9889
1365.08	9989
1369.31	10031
1373.54	10086
1377.77	10177
1381.99	10261
1386.22	10284
1390.43	10358
1394.65	10290
1398.87	10492
1403.08	10356
1407.29	10634
1411.49	10586
1415.69	10654
1419.89	10807
1424.09	10872
1428.29	10990
1432.48	11145
1436.67	11695
1440.86	13002
1445.04	12339
1449.23	11653
1453.4	11403
1457.58	11364
1461.76	11356
1465.93	11435
1470.1	11461
1474.26	11502
1478.43	11521
1482.59	11781
1486.75	11785
1490.9	11827
1495.06	11908
1499.21	11986
1503.35	12010
1507.5	11946
1511.64	12185
1515.78	12136
1519.92	12326
1524.05	12307
1528.18	12460
1532.31	12406
1536.44	12601
1540.56	12605
1544.69	12578
1548.8	12629
1552.92	12678
1557.03	12834
1561.14	12844
1565.25	12927
1569.36	13088
