Measurement: Raman, 514 nm, depolarized, Raman Data Processed
Mineral: Dolomite
Rruff sample: R040030
Ideal chemistry: CaMg(CO_3_)_2_
Locality: Austria
Source: University of Arizona Mineral Museum
Description: Group of colorless tabular crystals
Measured chemistry: (Ca_0.99_Mg_0.01_)_Î£=1_Mg_1.00_(CO_3_)_2_ ; trace amounts of Mn; CO_2_ estimated by difference
Pin_id: M00005
Orientation: Laser parallel to a* (1 0 0). Fiducial mark perpendicular to laser is parallel to -c [0 0 -1]
Raman shift (cm-1)	intensity
95.582	0
99.764	146.638
103.943	172.974
108.121	204.084
112.297	221.139
116.47	233.545
120.642	198.906
124.811	154.782
128.979	126.29
133.144	63.9
137.307	23.799
141.469	79.231
145.628	31.19
149.786	60.8
153.941	71.622
158.094	221.05
162.245	217.045
166.395	510.004
170.542	1368.43
174.687	4006.53
178.83	6768.06
182.972	3265.04
187.111	985.547
191.248	321.119
195.383	125.865
199.516	91.66
203.647	58.424
207.777	19.85
211.904	10.265
216.029	37.243
220.152	42.7
224.273	141.129
228.392	482.444
232.509	311.164
236.625	101.786
240.738	23.663
244.849	71.054
248.958	60.917
253.065	4.765
257.171	36.586
261.274	36.375
265.375	51.887
269.475	54.758
273.572	133.989
277.667	326.469
281.76	486.128
285.852	748.582
289.941	1446.37
294.029	2903.25
298.114	5703.71
302.198	8030.71
306.279	5435.74
310.359	2437.79
314.436	1133.54
318.512	677.624
322.586	462.966
326.657	338.043
330.727	241.057
334.795	330.177
338.861	749.868
342.924	847.645
346.986	326.731
351.046	222.408
355.104	158.099
359.16	156.48
363.214	45.717
367.267	74.129
371.317	100.312
375.365	25.441
379.411	48.037
383.456	17.468
387.498	90.479
391.539	56.714
395.577	68.904
399.614	54.834
403.649	42.539
407.681	28.168
411.712	7.515
415.741	25.219
419.768	10.75
423.793	11.995
427.816	5.385
431.837	27.387
435.857	8.778
439.874	79.063
443.889	11.497
447.903	12.48
451.914	16.423
455.924	30.241
459.932	75.84
463.938	40.322
467.941	88.714
471.943	97.055
475.944	93.325
479.942	53.488
483.938	81.206
487.932	82.5
491.925	110.363
495.915	6.136
499.904	10.202
503.891	14.344
507.876	86.755
511.859	121.457
515.84	86.73
519.819	36.286
523.796	147.978
527.771	128.93
531.745	90.782
535.716	54.67
539.686	49.473
543.654	129.773
547.62	164.969
551.584	57.966
555.546	68.061
559.506	164.105
563.465	130.416
567.421	91.823
571.376	84.702
575.329	8.984
579.279	96.434
583.228	110.55
587.175	91.865
591.121	81.252
595.064	177.812
599.006	194.616
602.945	146.462
606.883	80.64
610.819	88.197
614.753	143.905
618.685	194.661
622.615	201.755
626.544	341.194
630.471	398.415
634.395	202.413
638.318	178.298
642.239	149.758
646.158	218.258
650.076	297.701
653.991	302.426
657.905	215.635
661.817	90.464
665.726	52.606
669.635	42.748
673.541	102.389
677.445	70.979
681.348	11.991
685.248	36.503
689.147	88.802
693.044	62.876
696.94	126.918
700.833	78.958
704.724	82
708.614	243.568
712.502	393.211
716.388	434.017
720.272	762.707
724.155	1522.33
728.035	1843.1
731.914	1024.58
735.791	474.284
739.666	147.111
743.539	115.92
747.41	102.71
751.28	102.463
755.148	120.159
759.014	20.539
762.878	21.828
766.74	14.292
770.601	93.559
774.46	134.052
778.316	52.489
782.172	48.169
786.025	22.977
789.876	76.131
793.726	141.212
797.574	92.835
801.42	19.851
805.264	13.167
809.107	27.759
812.947	153.65
816.786	62.507
820.623	95.245
824.459	26.177
828.292	99.712
832.124	79.928
835.954	143.864
839.782	126.585
843.608	138.826
847.433	130.846
851.255	184.934
855.076	284.418
858.895	402.074
862.713	475.727
866.528	233.378
870.342	135.026
874.154	163.672
877.965	223.319
881.773	539.984
885.58	422.68
889.385	173.381
893.188	75.108
896.989	111.882
900.789	239.682
904.587	200.512
908.383	188.306
912.177	95.887
915.97	44.972
919.76	62.428
923.55	169.359
927.337	155.963
931.122	122.438
934.906	79.251
938.688	52.009
942.468	86.887
946.247	102.83
950.023	198.794
953.798	134.582
957.572	45.408
961.343	48.481
965.113	0.973
968.881	127.171
972.647	105.096
976.411	61.934
980.174	37.825
983.935	107.633
987.694	23.472
991.452	116.611
995.207	195.801
998.961	228.036
1002.71	351.335
1006.46	199.668
1010.21	17.037
1013.96	43.445
1017.71	173.885
1021.45	325.355
1025.19	413.855
1028.93	357.854
1032.67	164.691
1036.41	229.282
1040.14	256.359
1043.87	344.16
1047.61	443.166
1051.34	506.447
1055.06	518.587
1058.79	452.487
1062.52	632.752
1066.24	1013.1
1069.96	1521.42
1073.68	2027.94
1077.4	2749.22
1081.11	3154.59
1084.83	3887.05
1088.54	5316.12
1092.25	9881.67
1095.96	29927.2
1099.67	60132.2
1103.37	24507.8
1107.08	6743.43
1110.78	2861.06
1114.48	1551.99
1118.18	1065.67
1121.88	792.388
1125.57	678.55
1129.27	534.064
1132.96	367.593
1136.65	227.835
1140.34	137.58
1144.02	80.724
1147.71	162.809
1151.39	208.544
1155.07	265.623
1158.76	246.026
1162.43	135.936
1166.11	108.614
1169.79	32.273
1173.46	117.911
1177.13	183.511
1180.8	176.173
1184.47	146.052
1188.14	115.033
1191.8	101.786
1195.46	35.161
1199.13	26.482
1202.79	109.324
1206.45	116.6
1210.1	136.845
1213.76	139.562
1217.41	155.999
1221.06	110.038
1224.71	69.611
1228.36	99.431
1232.01	21.577
1235.65	150.788
1239.3	261.406
1242.94	291.71
1246.58	308.988
1250.22	231.292
1253.85	142.051
1257.49	36.412
1261.12	118.875
1264.75	157.808
1268.38	302.902
1272.01	370.88
1275.64	231.857
1279.27	208.846
1282.89	129.841
1286.51	106.69
1290.13	3.435
1293.75	130.923
1297.37	173.182
1300.98	196.246
1304.6	171.143
1308.21	304.862
1311.82	231.498
1315.43	162.038
1319.03	209.45
1322.64	74.268
1326.24	45.127
1329.85	132.146
1333.44	71.565
1337.04	146.183
1340.64	173.154
1344.24	174.637
1347.83	137.596
1351.42	37.868
1355.01	93.223
1358.6	57.419
1362.19	41.449
1365.78	18.773
1369.36	36.832
1372.94	163.837
1376.53	192.396
1380.1	155.571
1383.68	224.607
1387.26	151.552
1390.83	72.084
1394.41	6.216
1397.98	45.365
1401.55	37.849
1405.12	131.232
1408.68	244.803
1412.25	383.58
1415.81	279.337
1419.37	273.323
1422.93	238.124
1426.49	167.612
1430.05	194.933
1433.6	347.813
1437.15	506.309
1440.71	1224.73
1444.26	1972.76
1447.81	1314.55
1451.35	1219.58
1454.9	1029.77
1458.44	948.803
1461.98	834.566
1465.53	569.978
1469.07	434.491
1472.6	304.151
1476.14	238.638
1479.67	215.2
1483.21	287.973
1486.74	382.522
1490.27	388.261
1493.8	380.971
1497.32	328.962
1500.85	214.71
1504.37	179.448
1507.89	31.136
1511.41	66.179
1514.93	0.57
1518.45	0
