Measurement: Raman, 514 nm, depolarized, Raman Data Processed
Mineral: Dolomite
Rruff sample: R050129
Ideal chemistry: CaMg(CO_3_)_2_
Locality: Black Cloud mine, Leadville, Lake County, Colorado, USA
Source: Dave Bunk Minerals
Description: Aggregate of colorless to white rhombohedra
Measured chemistry: Ca(Mg_0.62_Fe^2+^_0.33_Mn_0.05_)_Î£=1_(CO_3_)_2_ ; CO_2_ estimated by difference
Pin_id: M00287
Orientation: Laser parallel to a* (1 0 0). Fiducial mark perpendicular to laser is parallel to c [0 0 1]
Raman shift (cm-1)	intensity
88.608	0
92.793	19.059
96.976	119.706
101.157	40.526
105.336	88.101
109.513	107.683
113.688	257.736
117.861	188.466
122.032	36.736
126.201	43.275
130.367	1.929
134.532	67.309
138.695	197.895
142.856	143.654
147.014	205.817
151.171	370.289
155.325	549.806
159.478	993.781
163.629	1995.98
167.777	3525.19
171.924	3871.68
176.068	2432.2
180.211	1176.5
184.351	539.176
188.49	263.062
192.626	198.762
196.761	110.095
200.893	95.182
205.024	20.02
209.152	0.522
213.279	55.633
217.403	16.646
221.526	14.697
225.646	40.581
229.765	16.751
233.881	73.618
237.996	48.26
242.108	76.412
246.219	149.944
250.328	162.395
254.434	384.291
258.539	457.873
262.641	780.181
266.742	1107.88
270.84	1563.96
274.937	2349.28
279.032	3515.17
283.125	5035.5
287.215	6395.58
291.304	6884.81
295.391	5881.96
299.476	3938.31
303.558	2527.01
307.639	1543.88
311.718	1203.24
315.795	1009.2
319.87	877.591
323.943	751.64
328.014	694.899
332.083	658.35
336.15	590.862
340.215	445
344.279	380.841
348.34	390.878
352.399	370.907
356.457	318.477
360.512	370.985
364.565	340.504
368.617	253.425
372.666	168.311
376.714	166.489
380.76	186.521
384.803	141.948
388.845	82.738
392.885	114.106
396.923	73.387
400.959	97.928
404.993	62.667
409.025	57.274
413.055	83.993
417.084	88.591
421.11	4.201
425.134	127.322
429.157	32.552
433.177	78.686
437.196	51.868
441.213	34.292
445.227	39.088
449.24	85.847
453.251	66.176
457.26	28.532
461.267	116.108
465.272	63.799
469.276	9.458
473.277	22.502
477.276	130.633
481.274	92.75
485.27	77.813
489.263	93.964
493.255	90.409
497.245	82.719
501.233	111.135
505.219	67.208
509.203	71.67
513.186	119.065
517.166	133.397
521.145	116.551
525.121	58.473
529.096	87.5
533.069	100.412
537.04	138.047
541.009	192.529
544.976	130.476
548.941	117.127
552.905	136.258
556.866	146.772
560.826	124.271
564.784	149.473
568.74	138.114
572.694	120.54
576.646	25.319
580.596	89.541
584.544	112.333
588.491	71.318
592.435	125.354
596.378	109.485
600.319	20.574
604.258	105.602
608.195	61.009
612.131	68.326
616.064	97.881
619.995	26.206
623.925	1.175
627.853	61.305
631.779	104.059
635.703	33.389
639.625	27.656
643.546	9.494
647.464	76.299
651.381	7.906
655.296	68.632
659.209	32.731
663.12	50.546
667.029	30.514
670.937	12.874
674.842	23.024
678.746	10.744
682.648	138.246
686.548	116.193
690.447	76.922
694.343	58.509
698.238	74.523
702.13	173.435
706.021	293.464
709.91	552.552
713.798	975.371
717.683	1689.94
721.567	2036.76
725.448	1527.58
729.328	719.427
733.206	393.627
737.083	304.343
740.957	179.084
744.83	176.407
748.701	187.749
752.57	134.447
756.437	120.278
760.302	200.362
764.166	185.958
768.027	207.096
771.887	243.992
775.745	296.962
779.602	337.686
783.456	468.623
787.309	575.639
791.16	569.893
795.009	553.193
798.856	570.135
802.702	658.793
806.545	862.947
810.387	990.248
814.227	1039.28
818.065	1145.07
821.902	1406.05
825.737	1452.85
829.569	1275.7
833.401	1147.65
837.23	974.5
841.057	777.349
844.883	633.65
848.707	626.062
852.529	417.403
856.35	404.577
860.168	372
863.985	289.425
867.8	350.856
871.613	390.297
875.425	254.747
879.234	258.206
883.042	112.677
886.848	81.164
890.653	33.662
894.455	15.176
898.256	169.708
902.055	108.262
905.852	92.829
909.648	96.385
913.442	10.953
917.233	22.628
921.024	53.863
924.812	31.793
928.599	48.5
932.384	12.766
936.167	15.973
939.948	15.267
943.728	61.484
947.506	3.254
951.282	64.953
955.056	2.774
958.829	75.538
962.6	40.34
966.369	11.205
970.136	66.072
973.902	27.919
977.666	1.804
981.428	52.722
985.188	25.67
988.947	29.306
992.704	22.644
996.459	101.624
1000.21	35.663
1003.96	85.267
1007.71	77.946
1011.46	151.984
1015.21	109.15
1018.95	215.693
1022.7	196.193
1026.44	147.79
1030.18	262.411
1033.91	196.275
1037.65	415.732
1041.39	496.681
1045.12	500.383
1048.85	589.392
1052.58	612.213
1056.31	620.016
1060.03	774.382
1063.76	1025.37
1067.48	1323.43
1071.2	1708.84
1074.92	2053.5
1078.63	3289.13
1082.35	6193.15
1086.06	14298
1089.78	36382.1
1093.49	44594.9
1097.19	19838.1
1100.9	6390.05
1104.61	2424.94
1108.31	1238.09
1112.01	810.167
1115.71	663.353
1119.41	528.919
1123.11	499.734
1126.8	336.913
1130.5	187.877
1134.19	106.325
1137.88	225.88
1141.57	106.888
1145.25	84.514
1148.94	229.062
1152.62	186.894
1156.3	63.466
1159.98	76.262
1163.66	32.275
1167.34	116.673
1171.01	183.477
1174.68	208.116
1178.36	225.092
1182.02	213.486
1185.69	74.472
1189.36	94.611
1193.02	59.626
1196.69	71.829
1200.35	152.119
1204.01	160.367
1207.66	138.577
1211.32	127.102
1214.98	60.618
1218.63	159.537
1222.28	4.581
1225.93	147.24
1229.58	277.082
1233.22	197.493
1236.87	178.853
1240.51	200.882
1244.15	28.848
1247.79	133.929
1251.43	105.233
1255.07	85.708
1258.7	156.395
1262.33	246.667
1265.96	286.591
1269.59	176.162
1273.22	235.325
1276.85	214.24
1280.47	27.081
1284.1	41.349
1287.72	129.547
1291.34	57.436
1294.95	134.914
1298.57	162.105
1302.19	18.728
1305.8	145.041
1309.41	79.492
1313.02	15.799
1316.63	60.673
1320.23	145.17
1323.84	169.35
1327.44	63.013
1331.05	116.691
1334.64	169.818
1338.24	142.649
1341.84	105.063
1345.43	42.452
1349.03	0.362
1352.62	108.565
1356.21	172.872
1359.8	164.036
1363.39	345.909
1366.97	186.375
1370.56	148.424
1374.14	179.838
1377.72	102.955
1381.3	39.056
1384.87	204.335
1388.45	29.751
1392.02	143.781
1395.6	248.263
1399.17	172.819
1402.74	230.608
1406.3	279.085
1409.87	386.521
1413.43	369.635
1417	288.462
1420.56	225.06
1424.12	430.638
1427.67	576.641
1431.23	782.174
1434.79	900.982
1438.34	1312.87
1441.89	1009.66
1445.44	749.961
1448.99	536.486
1452.54	458.238
1456.08	316.561
1459.62	327.246
1463.17	177.35
1466.71	188.181
1470.24	268.792
1473.78	158.578
1477.32	338.239
1480.85	418.143
1484.38	410.749
1487.91	384.028
1491.44	218.107
1494.97	223.183
1498.5	149.511
1502.02	11.247
1505.54	120.935
1509.07	2.195
1512.59	254.074
1516.1	0
