Measurement: Raman, 514 nm, depolarized, Raman Data Processed
Mineral: Dravite
Rruff sample: R040088
Ideal chemistry: NaMg_3_Al_6_(Si_6_O_18_)(BO_3_)_3_(OH)_3_OH
Locality: Yinnietharra Station, Pilbara, Western Australia, Australia
Source: University of Arizona Mineral Museum
Description: Brown short prismatic crystal
Measured chemistry: (Na_0.88_Ca_0.06_[box]_0.06_)(Mg_0.88_Al_0.10_Ti_0.04_Fe_0.02_)_3_Al_6.00_(B_1_O_3_)_3_Si_6.00_O_18_((OH)_0.98_F_0.02_)_4_
Pin_id: L00133
Orientation: Laser parallel to a [1 0 0]. Fiducial mark perpendicular to laser is parallel to c* (0 0 1)
Raman shift (cm-1)	intensity
169.151	0
173.316	268.259
177.479	78.2461
181.639	39.5605
185.798	355.174
189.954	900.659
194.108	1516.3
198.261	2696.13
202.41	5290.95
206.558	10416.6
210.704	16607.8
214.847	17933.7
218.989	13773.4
223.128	9936.53
227.265	8882.67
231.4	9498.93
235.532	11553.4
239.663	13765.3
243.792	14090.5
247.918	11058.5
252.042	7298.9
256.164	4059.86
260.284	2671.26
264.402	2103.61
268.518	1797.11
272.632	1501.82
276.743	1057.78
280.852	384.974
284.96	93.6055
289.065	95.5186
293.168	81.7148
297.269	144.956
301.368	125.722
305.465	394.589
309.559	1435.65
313.652	1709.29
317.742	521.052
321.83	252.793
325.917	695.083
330.001	1037.9
334.083	1385.9
338.163	2209.81
342.241	2992.65
346.316	3342.87
350.39	4525.55
354.462	6890.2
358.531	11406.5
362.598	19494.2
366.664	27663.1
370.727	26093
374.788	17403.9
378.847	10585.6
382.904	7028.09
386.959	5271.36
391.012	4485.34
395.063	3619.83
399.112	3246.78
403.158	3042.77
407.203	2764.24
411.245	1928.04
415.286	1210.41
419.324	760.911
423.36	505.06
427.395	400.834
431.427	242.746
435.457	114.273
439.485	273.633
443.511	153.369
447.535	83.4609
451.557	37.75
455.577	264.211
459.595	157.724
463.61	352.527
467.624	253.865
471.636	685.388
475.646	1097.06
479.653	1248.88
483.659	1610.88
487.662	2073.05
491.664	2815.38
495.663	2737.88
499.661	2480.77
503.656	2124.11
507.649	1627.8
511.641	1411.79
515.63	1036.06
519.617	470.57
523.603	525.311
527.586	810.256
531.567	965.392
535.546	920.702
539.523	806.175
543.499	911.848
547.472	497.695
551.443	153.684
555.412	180.19
559.379	54.1611
563.344	27.8887
567.307	21.6367
571.268	65.5215
575.227	209.644
579.185	4.16016
583.14	50.7578
587.093	15.082
591.044	59.1055
594.993	113.015
598.94	546.933
602.885	540.87
606.828	534.667
610.769	756.579
614.708	1110.63
618.646	1464.4
622.581	2128.64
626.514	2782.87
630.445	3947.08
634.374	4481.26
638.301	3915.41
642.227	3389.51
646.15	3753.57
650.071	4747.58
653.991	5181.53
657.908	5385.42
661.823	5829.25
665.737	6732.99
669.648	8576.65
673.557	10060.2
677.465	9583.69
681.37	8327.05
685.274	6850.31
689.176	6733.45
693.075	7986.48
696.973	10169.4
700.869	11468
704.762	9932.59
708.654	6616.09
712.544	4231.2
716.432	2767.87
720.318	2279.03
724.202	1626.29
728.084	1374.43
731.964	1445.79
735.842	1490.23
739.718	1629.64
743.593	1841
747.465	2372.22
751.335	3442.22
755.204	4633.08
759.07	4553.39
762.935	3674.08
766.798	2734.06
770.658	2713.89
774.517	3113.55
778.374	3833.02
782.229	4332.3
786.082	4931.4
789.933	4980.3
793.782	4879.02
797.629	4507.53
801.475	4115.85
805.318	4393.97
809.159	5551.89
812.999	6629.61
816.837	6637.13
820.672	5584.44
824.506	3841.54
828.338	2768.44
832.168	2165.14
835.996	2101.62
839.822	1567.92
843.646	1254.06
847.469	680.076
851.289	34.0332
855.108	81.5176
858.924	296.838
862.739	262.037
866.552	137.053
870.363	328.301
874.172	334.742
877.979	272.141
881.784	60.3184
885.588	20.9297
889.389	68.1719
893.189	2.57031
896.987	83.2793
900.783	114.057
904.576	374.777
908.369	565.418
912.159	565.965
915.947	386.334
919.733	356.518
923.518	446.514
927.301	896.32
931.081	875.928
934.86	975.344
938.637	864.568
942.413	1223.61
946.186	1392.45
949.957	1791.1
953.727	1909.57
957.495	2327.84
961.261	2205.93
965.025	2083.83
968.787	2698.97
972.547	2544.87
976.305	2686.39
980.062	2784.16
983.817	2521.12
987.569	2197.89
991.32	2337.93
995.07	2276.53
998.817	3162.94
1002.56	3337.44
1006.31	3183.96
1010.05	3437.91
1013.79	4054.97
1017.53	4813.39
1021.26	5868.5
1025	6637.65
1028.73	7266.86
1032.46	7115.06
1036.19	6898.22
1039.91	6635.05
1043.64	6415.43
1047.36	6686.88
1051.09	6146.23
1054.81	5820.99
1058.52	5272.69
1062.24	4929.24
1065.95	5004.72
1069.66	4909.98
1073.38	4254.21
1077.09	3748.17
1080.79	3332.09
1084.5	2615.96
1088.2	1869.67
1091.9	1403.2
1095.6	1466.54
1099.3	1409.7
1102.99	1252.68
1106.69	1095.47
1110.38	1048.08
1114.07	720.506
1117.76	542.736
1121.45	494.769
1125.13	476.606
1128.82	678.648
1132.5	520.057
1136.18	481.758
1139.86	3.77148
1143.53	152.703
1147.21	51.457
1150.88	139.15
1154.55	77.9668
1158.22	352.065
1161.88	394.389
1165.55	38.2539
1169.21	117.26
1172.88	126.621
1176.54	92.3398
1180.19	102.016
1183.85	202.272
1187.51	332.891
1191.16	166.201
1194.81	211.654
1198.46	201.834
1202.11	199.418
1205.75	79.4102
1209.4	133.969
1213.04	248.318
1216.68	524.602
1220.32	541.203
1223.95	407.291
1227.59	792.824
1231.22	539.059
1234.85	532.916
1238.48	617.309
1242.11	750.691
1245.74	1064.1
1249.36	1038.04
1252.98	850.703
1256.61	833.781
1260.22	705.783
1263.84	617.592
1267.46	588.793
1271.07	1039.88
1274.68	1159.4
1278.3	829.092
1281.9	909.123
1285.51	703.596
1289.12	142.131
1292.72	246.633
1296.32	57.4375
1299.92	142.852
1303.52	35.2285
1307.12	658.262
1310.71	454.096
1314.3	636.396
1317.89	737.719
1321.48	410.281
1325.07	297.352
1328.66	63.082
1332.24	4.33008
1335.83	62.0762
1339.41	49.0918
1342.98	313.467
1346.56	479.502
1350.14	275.697
1353.71	423.75
1357.28	222.248
1360.85	242.697
1364.42	121.943
1367.99	228.715
1371.56	161.125
1375.12	410.094
1378.68	711.889
1382.24	646.781
1385.8	921.154
1389.36	754.99
1392.91	588.301
1396.46	130.617
1400.02	422.309
1403.57	236.881
1407.11	275.795
1410.66	685.074
1414.2	539.328
1417.75	776.68
1421.29	824.492
1424.83	588.246
1428.37	417.707
1431.9	448.834
1435.44	498.484
1438.97	478.805
1442.5	829.809
1446.03	569.779
1449.56	1260.84
1453.09	1291.44
1456.61	1438.61
1460.13	1325.03
1463.65	1202.03
1467.17	858.975
1470.69	725.059
1474.2	800.863
1477.72	377.67
1481.23	497.408
1484.74	219.908
1488.25	163.09
1491.76	297.695
1495.27	354.438
1498.77	574.768
1502.27	968.894
1505.77	718.158
1509.27	586.189
1512.77	489.65
1516.27	0
