Measurement: Raman, 514 nm, depolarized, Raman Data Processed
Mineral: Dravite
Rruff sample: R050059
Ideal chemistry: NaMg_3_Al_6_(Si_6_O_18_)(BO_3_)_3_(OH)_3_OH
Locality: Nepal
Source: Rock Currier
Description: Dark brown single crystal
Measured chemistry: (Na_0.79_[box]_0.16_Ca_0.05_)_Σ=1_(Mg_2.44_Al_0.29_[box]_0.14_Fe^2+^_0.08_Ti_0.05_)_Σ=3_Al_6.00_(BO_3_)_3_Si_6.00_O_18_(OH)_4_ ; H_2_O assumed ideal from stoichiometry; B_2_O_3_ estimated by difference
Pin_id: L00191
Orientation: Laser parallel to -a* (-1 0 0). Fiducial mark perpendicular to laser is parallel to -c [0 0 -1]
Raman shift (cm-1)	intensity
104.6	0
108.781	134.253
112.959	267.979
117.136	476.485
121.31	402.979
125.482	478.188
129.653	575.011
133.821	850.195
137.987	1224.38
142.152	1213.43
146.314	1122.3
150.474	882.689
154.633	628.865
158.789	386.109
162.943	189.066
167.095	3.202
171.246	90.844
175.394	79.057
179.54	120.41
183.684	36.855
187.826	213.807
191.967	540.612
196.105	993.548
200.241	1531.04
204.375	2924.59
208.507	5759.64
212.638	9830.9
216.766	13382.3
220.892	12273.1
225.016	9152.16
229.139	7340.19
233.259	7518.67
237.377	8677.83
241.493	9707.66
245.608	9418.14
249.72	8309.26
253.83	6381.02
257.939	4615.68
262.045	3543.77
266.15	3167.32
270.252	2947.34
274.353	2265.43
278.451	1510.76
282.548	1045.57
286.642	675.682
290.735	397.667
294.826	194.767
298.914	332.361
303.001	392.421
307.086	647.757
311.168	1524.97
315.249	2238.44
319.328	1097.33
323.405	435.591
327.48	423.545
331.553	755.727
335.624	1005.98
339.693	1279.43
343.76	1644.23
347.826	2288.39
351.889	3087.28
355.95	4245.41
360.01	7053.64
364.067	12634.2
368.123	19865.1
372.176	20326.3
376.228	14227.9
380.277	8909.78
384.325	5601.99
388.371	3695.55
392.415	3071.48
396.457	2618.78
400.497	2422.46
404.535	2232.47
408.571	2032.39
412.605	1737.65
416.638	1194.72
420.668	738.677
424.697	447.172
428.723	390.605
432.748	465.405
436.77	377.26
440.791	331.813
444.81	503.303
448.827	308.891
452.842	102.604
456.855	113.469
460.867	171.507
464.876	244.743
468.883	354.224
472.889	327.988
476.892	455.04
480.894	767.374
484.894	1083
488.892	1254.95
492.888	1561.3
496.882	1986.22
500.874	2214.81
504.865	2068.02
508.853	1827.84
512.84	1660.03
516.824	1464.46
520.807	1099.12
524.788	741.994
528.767	768.078
532.744	1084.37
536.719	1128.86
540.693	1030.55
544.664	739.467
548.634	564.631
552.601	440.133
556.567	162.039
560.531	48.676
564.493	117.084
568.453	67.361
572.412	133.255
576.368	55.955
580.323	170.443
584.275	134.121
588.226	30.922
592.175	4.816
596.122	14.353
600.068	68.521
604.011	180.502
607.952	359.582
611.892	504.756
615.83	429.02
619.766	565.37
623.7	822.8
627.632	1160.31
631.563	1822.88
635.491	2918.51
639.418	3297.21
643.343	3024.95
647.266	3160.73
651.187	3711.55
655.106	3863.4
659.024	3911.26
662.939	4004.13
666.853	4631.99
670.765	5397.83
674.675	6263.65
678.583	6779.44
682.49	6395.2
686.394	5698.92
690.297	5288.59
694.198	5641.29
698.097	7019.31
701.995	9218.75
705.89	9041.5
709.784	6595.77
713.675	4129
717.565	2799.9
721.453	1999.71
725.34	1627.64
729.224	1347.59
733.107	1182.25
736.988	1200.91
740.867	1289.72
744.744	1622.21
748.62	1851.07
752.493	2261.01
756.365	2868.28
760.235	2954.05
764.103	2477.44
767.969	1909.69
771.834	1615.77
775.697	1545.69
779.558	1805.44
783.417	2162.02
787.274	2565.43
791.13	2530.65
794.983	2198.7
798.835	1901.56
802.686	1990.24
806.534	2043.72
810.38	2274.02
814.225	2268.11
818.068	2167.01
821.909	1784.71
825.749	1401.2
829.586	1106.49
833.422	810.568
837.256	652.439
841.088	472.099
844.919	350.547
848.748	201.78
852.575	49.772
856.4	35.454
860.223	50.242
864.045	19.571
867.864	36.067
871.682	83.184
875.499	65.5
879.313	37.412
883.126	98.727
886.937	30.582
890.746	18.165
894.553	93.756
898.359	130.283
902.163	78.751
905.965	157.077
909.765	221.258
913.564	340.306
917.361	358.237
921.156	465.016
924.949	450.629
928.74	521.082
932.53	572.335
936.318	742.39
940.104	832.248
943.889	862.91
947.672	989.374
951.453	1156.64
955.232	1367.71
959.01	1671.6
962.785	1839.28
966.559	1955.78
970.332	1976.09
974.102	2062.3
977.871	2084.14
981.638	2189.89
985.404	2093.46
989.167	2041.85
992.929	1981.07
996.689	1935.11
1000.45	2042.76
1004.2	2346.06
1007.96	2775.5
1011.71	3220.24
1015.46	3521.81
1019.21	3812.93
1022.96	4242.61
1026.71	4700.6
1030.45	5058.45
1034.19	5276.2
1037.94	5074.14
1041.68	4712.59
1045.41	4440.72
1049.15	4195.58
1052.88	4172
1056.62	4149.6
1060.35	4094.26
1064.08	3788.33
1067.8	3645.16
1071.53	3334.53
1075.25	3143.94
1078.97	2672.18
1082.7	2337.27
1086.41	1976.1
1090.13	1585.22
1093.85	1323.72
1097.56	1054.18
1101.27	871.741
1104.98	771.177
1108.69	692.443
1112.4	672.573
1116.1	601.643
1119.81	506.655
1123.51	426.61
1127.21	475.511
1130.91	477.412
1134.61	584.483
1138.3	526.229
1141.99	417.074
1145.68	219.839
1149.38	139.534
1153.06	39.456
1156.75	26.706
1160.43	19.456
1164.12	81.811
1167.8	131.986
1171.48	81.47
1175.16	65.423
1178.83	37.408
1182.51	35.535
1186.18	16.402
1189.85	31.188
1193.52	13.999
1197.19	10.269
1200.86	7.698
1204.52	10.844
1208.19	8.167
1211.85	92.438
1215.51	18.176
1219.17	0.024
1222.82	23.011
1226.48	95.148
1230.13	83.022
1233.78	122.894
1237.43	104.678
1241.08	54.436
1244.73	29.171
1248.37	78.884
1252.01	126.577
1255.66	163.245
1259.3	170.889
1262.93	162.508
1266.57	122.078
1270.21	99.594
1273.84	61.071
1277.47	8.486
1281.1	124.843
1284.73	109.168
1288.36	175.458
1291.98	120.718
1295.6	120.951
1299.23	75.299
1302.85	70.414
1306.46	50.315
1310.08	46.57
1313.7	31.309
1317.31	150.513
1320.92	140.611
1324.53	123.763
1328.14	211.965
1331.75	123.108
1335.35	81.205
1338.96	59.342
1342.56	58.912
1346.16	141.502
1349.76	118.869
1353.36	196.741
1356.95	196.202
1360.55	186.517
1364.14	191.863
1367.73	176.953
1371.32	165.29
1374.91	46.066
1378.49	67.345
1382.08	135.061
1385.66	200.738
1389.24	203.502
1392.82	272.265
1396.4	262.881
1399.97	270.14
1403.55	216.453
1407.12	230.594
1410.69	148.867
1414.26	195.996
1417.83	139.534
1421.4	204.188
1424.96	229.311
1428.53	184.623
1432.09	223.864
1435.65	148.684
1439.21	181.569
1442.76	117.17
1446.32	117.486
1449.87	18.396
1453.43	4.73
1456.98	2.094
1460.53	94.901
1464.07	64.84
1467.62	133.078
1471.16	147.851
1474.71	176.986
1478.25	200.507
1481.79	141.788
1485.32	96.031
1488.86	80.529
1492.39	13.419
1495.93	59.691
1499.46	44.558
1502.99	59.173
1506.52	124.605
1510.05	166.319
1513.57	154.351
