Measurement: Raman, 514 nm, depolarized, Raman Data Processed
Mineral: Dravite
Rruff sample: R060280
Ideal chemistry: NaMg_3_Al_6_(Si_6_O_18_)(BO_3_)_3_(OH)_3_OH
Locality: near Merelani, Tanzania
Source: Herb Obodda
Description: Green fragment
Measured chemistry: (Na_0.45_Ca_0.40_[box]_0.15_)(Mg_0.89_Al_0.07_Ti_0.04_)_3_Al_6_(BO_3_)_3_(Si_0.93_B_0.07_)_6_O_18_((OH)_0.95_O_0.05_)_4_
Pin_id: L01324
Orientation: Laser parallel to a* (1 0 0). Fiducial mark perpendicular to laser is parallel to c [0 0 1]
Raman shift (cm-1)	intensity
168.486	0
173.385	239.898
178.282	62.4922
183.176	49.8223
188.067	1005.44
192.956	2446.81
197.843	4269.46
202.727	8167.21
207.609	14984.7
212.489	22971.2
217.366	24911.8
222.24	18837.8
227.112	13383.5
231.982	13135
236.849	14982.5
241.714	17252.1
246.577	16251.3
251.437	12005.5
256.294	7616.59
261.149	5504.96
266.002	4457.83
270.852	3857.12
275.7	2825.73
280.545	1225.43
285.388	178.084
290.229	205.393
295.067	311.898
299.902	39.1309
304.735	491.139
309.566	1484.32
314.394	2258.2
319.22	1791.71
324.043	1524.12
328.864	2454.2
333.682	4329.07
338.498	5922.92
343.311	6641.06
348.122	7795.84
352.931	11670.7
357.737	18614.4
362.54	29675.8
367.341	39414.6
372.14	38389.8
376.936	27554.4
381.73	16871.9
386.521	11107.1
391.31	8271.31
396.096	6679.28
400.88	6090.03
405.661	5530.47
410.44	3815.51
415.216	2377.07
419.99	1224.88
424.761	666.193
429.53	1112.7
434.297	1169.06
439.061	1449.49
443.822	1542.56
448.581	1318.1
453.337	1268.39
458.091	941.625
462.843	891.85
467.592	613.334
472.338	950.053
477.082	1380.77
481.824	1955.37
486.563	2546.77
491.3	3375.89
496.034	4570.64
500.765	5533.96
505.494	5990.79
510.221	5233.07
514.945	3752.73
519.666	2580.58
524.385	2139.04
529.102	2896.61
533.816	3595.39
538.527	3943.33
543.236	3106.38
547.943	1996.48
552.647	936.59
557.348	366.654
562.047	372.764
566.744	296.707
571.438	488.133
576.129	546.154
580.818	317.65
585.504	210.203
590.188	149.309
594.87	590.312
599.549	857.609
604.225	1275.32
608.899	1738.3
613.57	2206.15
618.239	2959.43
622.905	4196.74
627.569	5018.53
632.23	5021.7
636.889	4156.21
641.545	4056.02
646.198	4869.08
650.849	6320.38
655.498	7517.86
660.144	8698.51
664.787	10393.3
669.428	11771.1
674.067	11954
678.703	10798
683.336	9911.95
687.967	10345.9
692.595	12386.7
697.221	15559.5
701.844	19340.9
706.465	20422.9
711.083	16898.2
715.698	10701.4
720.311	6430.97
724.922	4000.08
729.53	2888.39
734.135	3011.71
738.738	3138.87
743.338	4087.3
747.936	5818.47
752.531	7757.41
757.124	9918.01
761.714	9697.48
766.302	8215.88
770.887	6743.67
775.469	5937.8
780.049	5599.47
784.626	5740.67
789.201	6106.38
793.773	6096.6
798.343	6168.32
802.91	6476.55
807.475	7373.25
812.037	9411.42
816.596	11055
821.153	10992.1
825.707	9556.65
830.259	7252.95
834.808	4936.95
839.355	3589.12
843.899	2137
848.441	880.107
852.98	239.871
857.516	122.078
862.05	38.123
866.581	276.213
871.11	212.594
875.636	326.982
880.159	299.803
884.68	179.447
889.199	181.16
893.714	68.7734
898.228	446.654
902.738	470.877
907.246	641.033
911.752	716.691
916.255	992.848
920.755	944.299
925.253	995.525
929.748	1123.83
934.241	1565.81
938.731	1656.3
943.218	1990.17
947.703	2464.45
952.186	2822.08
956.665	3391
961.142	3770.21
965.617	4372.72
970.089	4533.52
974.558	4603.61
979.025	4757.99
983.489	4199.63
987.951	4214.87
992.41	4043.25
996.866	3924.86
1001.32	4501.69
1005.77	4639.82
1010.22	5098.75
1014.67	5568.8
1019.11	6726.66
1023.55	7779.16
1027.99	8384.32
1032.42	8940.65
1036.86	10253.8
1041.29	10727.5
1045.72	11657.5
1050.14	12197.4
1054.56	12370.8
1058.98	12596.2
1063.4	12625.5
1067.82	12576
1072.23	12107.5
1076.64	11306.6
1081.05	10033.4
1085.45	8286.11
1089.85	6721.95
1094.25	5400.46
1098.65	4213.67
1103.04	3557.58
1107.43	3373.2
1111.82	3065.54
1116.21	2660.63
1120.59	2235.47
1124.97	1816.14
1129.35	1402.73
1133.73	696.816
1138.1	549.143
1142.47	276.981
1146.84	175.486
1151.21	114.986
1155.57	41.2422
1159.93	147.818
1164.29	75.4981
1168.64	28.7637
1172.99	149.387
1177.34	86.6016
1181.69	199.182
1186.04	91.5234
1190.38	99.709
1194.72	10.4824
1199.05	22.9395
1203.39	94.8965
1207.72	66.5312
1212.05	5.17969
1216.37	399.904
1220.7	538.91
1225.02	667.848
1229.34	786.723
1233.65	1005.55
1237.97	1041.34
1242.28	1292.11
1246.59	1167.87
1250.89	1049.61
1255.19	1042.33
1259.49	1032.04
1263.79	1047.73
1268.09	899.408
1272.38	1069.04
1276.67	1089.89
1280.95	1092.07
1285.24	993.166
1289.52	810.428
1293.8	779.002
1298.08	676.396
1302.35	480.164
1306.62	280.248
1310.89	641.234
1315.15	681.715
1319.42	762.088
1323.68	741.574
1327.94	690.369
1332.19	213.897
1336.44	348.062
1340.69	348.94
1344.94	278.725
1349.19	248.656
1353.43	340.742
1357.67	230.332
1361.9	178.908
1366.14	266.707
1370.37	423.588
1374.6	555.551
1378.83	579.633
1383.05	503.951
1387.27	390.518
1391.49	560.34
1395.7	407.719
1399.92	306.83
1404.13	350.578
1408.34	251.754
1412.54	85.3223
1416.74	27.3711
1420.94	282.807
1425.14	179.924
1429.34	89.5606
1433.53	48.1289
1437.72	322.83
1441.9	441.879
1446.09	529.256
1450.27	707.184
1454.45	657.336
1458.63	618.396
1462.8	454.059
1466.97	188.213
1471.14	404.857
1475.31	68.9961
1479.47	148.734
1483.63	7.11914
1487.79	32.8047
1491.94	136.994
1496.09	67.2461
1500.24	7.0957
1504.39	77.4277
1508.54	104.209
1512.68	222.359
1516.82	273.385
1520.95	130.326
1525.09	180.228
1529.22	76.1914
1533.35	157.981
1537.47	253.504
1541.6	47.2148
1545.72	264.514
1549.83	235.619
1553.95	223.598
1558.06	132.076
1562.17	16.168
1566.28	244.988
1570.38	1.95703
