Measurement: Raman, 514 nm, depolarized, Raman Data Processed
Mineral: Dravite
Rruff sample: R060286
Ideal chemistry: NaMg_3_Al_6_(Si_6_O_18_)(BO_3_)_3_(OH)_3_OH
Locality: Badakshan Province, Afghanistan
Source: Herb Obodda
Description: Brown prismatic tourmaline crystal
Measured chemistry: (Na_0.48_Ca_0.38_[box]_0.14_)_Σ=1_(Mg_2.90_Ti_0.10_)_Σ=3_Al_6.00_(B_1.00_O_3_)_3_(Si_5.56_B_0.44_)_Σ=6_O_18_(OH)_4_; (OH) assumed from stoichiometry; B estimated by difference and charge balance
Pin_id: L00909
Orientation: Laser parallel to a* (1 0 0). Fiducial mark perpendicular to laser is parallel to -c [0 0 -1]
Raman shift (cm-1)	intensity
118.134	0
123.058	271.678
127.979	190.303
132.898	1066.77
137.814	1706.68
142.728	2384.13
147.639	2482.39
152.549	2207.48
157.455	774.879
162.359	6.91309
167.261	232.108
172.161	17.1699
177.058	201.649
181.952	463.43
186.845	3667.38
191.734	7791.11
196.622	12926.1
201.507	12165.2
206.389	17483.1
211.269	28654.6
216.147	32044.5
221.022	22076
225.895	14846.6
230.765	13694.2
235.633	16491.4
240.498	21913.1
245.361	22976.3
250.222	16511
255.08	8864.07
259.936	5707.14
264.789	4164.92
269.64	3200.1
274.488	2670.65
279.334	1672.83
284.178	743.416
289.019	508.801
293.857	180.539
298.693	73.3975
303.527	403.496
308.358	1136.78
313.187	2739.89
318.013	3045.68
322.837	2671.56
327.659	3285.98
332.478	4798.78
337.294	6835.54
342.108	8277.15
346.92	9464.59
351.729	12438.8
356.535	19377.7
361.34	32352.3
366.141	45636.6
370.94	48635.5
375.737	36513.9
380.531	22091.9
385.323	13788.4
390.113	9733.15
394.9	7943.26
399.684	7260.62
404.466	6900.15
409.245	5630.8
414.022	3524.71
418.797	1959.94
423.569	1065.56
428.338	918.74
433.105	985.04
437.87	921.312
442.632	1190.61
447.391	1359.59
452.149	1265.95
456.903	1250.66
461.655	1471.7
466.405	1867.88
471.152	2611.93
475.897	3789.57
480.639	4588.76
485.378	5038.45
490.116	5353.63
494.85	5748.1
499.582	5523.95
504.312	4925.09
509.039	3770.46
513.764	2657.01
518.486	1943.69
523.206	1789.44
527.923	2064.21
532.638	2360.96
537.35	2376.62
542.059	1811.16
546.766	1050.52
551.471	455.661
556.173	70.5264
560.873	183.42
565.57	363.688
570.264	432.421
574.957	537.12
579.646	319.335
584.333	166.849
589.018	137.342
593.7	290.833
598.379	617.99
603.056	930.949
607.73	1324.13
612.402	1895.95
617.072	2628.16
621.739	3724.64
626.403	5483.96
631.065	6667.41
635.724	6030.81
640.381	5859.1
645.035	7071.26
649.687	9659.25
654.336	11507
658.983	13374.5
663.627	15865.8
668.268	18749.7
672.907	20532.3
677.544	18248.5
682.178	14269.3
686.809	12592.6
691.438	13650.5
696.065	16353.9
700.688	20299.5
705.31	21882.9
709.929	17659.3
714.545	11564.6
719.158	7070.34
723.77	5268.12
728.378	4517.1
732.984	4282.09
737.588	4636.77
742.189	5123.5
746.787	6588.62
751.383	8707.97
755.976	11538.2
760.567	12955.1
765.155	11453.6
769.741	9743.91
774.324	8915.35
778.904	8371.93
783.482	7958.66
788.058	8316.53
792.631	8882.54
797.201	9339.69
801.769	8662.98
806.334	8066.41
810.897	7437.97
815.457	7290.67
820.014	7088.51
824.569	6183.46
829.122	4594.54
833.671	3030.74
838.219	1662.49
842.763	809.477
847.306	414.195
851.845	16.4385
856.382	185.715
860.917	100.015
865.448	311.669
869.978	317.163
874.505	197.056
879.029	19.2598
883.55	31.0645
888.069	57.0693
892.586	392.824
897.1	386.499
901.611	647.302
906.12	666.438
910.626	861.058
915.129	948.484
919.63	1144.63
924.129	1227.34
928.625	1488.76
933.118	1876.74
937.609	2097.48
942.097	2512.78
946.582	3023.51
951.065	3290.56
955.546	3921.91
960.023	4747.58
964.499	5193.58
968.971	5762.92
973.441	5985.6
977.909	5903.64
982.374	5569.84
986.836	5010.32
991.295	4603.97
995.753	4365.69
1000.21	4390.89
1004.66	4595.93
1009.11	5107.44
1013.55	6434.13
1018	7809.37
1022.44	9069.59
1026.88	10552.7
1031.32	12071.5
1035.75	13653.9
1040.18	15094.4
1044.61	16074.3
1049.04	16863.5
1053.46	16740.3
1057.88	15052
1062.3	14005
1066.71	13409.3
1071.13	12746.6
1075.54	11801.2
1079.94	9938.6
1084.35	8379.01
1088.75	6843.24
1093.15	5778.33
1097.55	4813.26
1101.94	4302.07
1106.34	3955.74
1110.73	3551.3
1115.11	3513.76
1119.5	3351.34
1123.88	3115.72
1128.26	2588.39
1132.63	2073.39
1137.01	1538.01
1141.38	1011.3
1145.75	438.846
1150.12	284.987
1154.48	99.4844
1158.84	5.05762
1163.2	45.5898
1167.55	111.015
1171.91	19.8223
1176.26	181.106
1180.61	41.4111
1184.95	30.7256
1189.29	104.809
1193.63	95.8359
1197.97	111.62
1202.31	30.418
1206.64	63.2705
1210.97	109.678
1215.29	237.072
1219.62	461.479
1223.94	604.831
1228.26	721.121
1232.57	744.352
1236.89	764.531
1241.2	834.663
1245.51	693.743
1249.81	767.774
1254.12	828.746
1258.42	643.64
1262.72	724.433
1267.01	685.094
1271.3	673.594
1275.59	738.901
1279.88	587.003
1284.17	709.893
1288.45	601.106
1292.73	401.084
1297.01	619.808
1301.28	643.66
1305.55	450.051
1309.82	476.429
1314.09	368.359
1318.35	499.943
1322.61	253.675
1326.87	375.188
1331.13	294.619
1335.38	271.887
1339.63	282.557
1343.88	359.633
1348.12	327.842
1352.37	356.664
1356.61	187.44
1360.85	282.274
1365.08	379.771
1369.31	404.759
1373.54	337.846
1377.77	482.373
1381.99	509.348
1386.22	459.716
1390.43	510.053
1394.65	426.406
1398.87	350.519
1403.08	379.677
1407.29	385.956
1411.49	269.342
1415.69	333.865
1419.89	247.531
1424.09	290.474
1428.29	149.885
1432.48	43.0488
1436.67	27.3359
1440.86	52.3984
1445.04	85.8887
1449.23	21.5957
1453.4	57.5537
1457.58	18.6885
1461.76	82.2344
1465.93	20.6338
1470.1	30.7979
1474.26	38.5488
1478.43	115.666
1482.59	64.1846
1486.75	260.174
1490.9	101.72
1495.06	211.897
1499.21	411.781
1503.35	492.417
1507.5	406.47
1511.64	582.061
1515.78	656.865
1519.92	644.11
1524.05	397.566
1528.18	536.805
1532.31	500.388
1536.44	282.452
1540.56	212.032
1544.69	237.751
1548.8	159.768
1552.92	329.43
1557.03	247.951
1561.14	108.63
1565.25	275.66
1569.36	1.75293
