Measurement: Raman, 514 nm, depolarized, Raman Data Processed
Mineral: Dravite
Rruff sample: R060534
Ideal chemistry: NaMg_3_Al_6_(Si_6_O_18_)(BO_3_)_3_(OH)_3_OH
Locality: Sri Lanka
Source: Gemological Institute of America
Description: Black trigonal prism
Measured chemistry: (Na_0.79_Ca_0.21_)(Mg_0.68_Fe^2+^_0.29_Ti_0.02_Al_0.01_)_3_Al_6.00_(BO_3_)_3_(Si_0.95_Al_005_)_6.00_O_18_(OH)_4_
Pin_id: L01264
Orientation: Laser parallel to a* (1 0 0). Fiducial mark perpendicular to laser is parallel to -c [0 0 -1]
Raman shift (cm-1)	intensity
168.486	0
173.385	63.334
178.282	518.01
183.176	686.406
188.067	2328.38
192.956	3961.97
197.843	6320.66
202.727	11175.5
207.609	11851
212.489	18516.5
217.366	19162.2
222.24	15439.5
227.112	12963.9
231.982	14452.5
236.849	20270.6
241.714	25718
246.577	25596.2
251.437	17813.9
256.294	11271.8
261.149	8234.71
266.002	5073.44
270.852	3725.65
275.7	2968.63
280.545	1566.63
285.388	442.594
290.229	42.8965
295.067	613.18
299.902	612.826
304.735	237.066
309.566	1088.2
314.394	2465.88
319.22	3300.27
324.043	2360.46
328.864	2069.21
333.682	2774.55
338.498	3849.47
343.311	5407.94
348.122	7293.07
352.931	9516.81
357.737	14726.5
362.54	23080.5
367.341	34806.9
372.14	39217.5
376.936	30691.1
381.73	20478.1
386.521	14913
391.31	11569.5
396.096	9636.56
400.88	8680.19
405.661	8031
410.44	7216.89
415.216	5693.28
419.99	4171.2
424.761	3052.69
429.53	2322.08
434.297	1629.87
439.061	1220.84
443.822	398.912
448.581	52.0352
453.337	48.4395
458.091	45.123
462.843	101.744
467.592	172.545
472.338	576.35
477.082	1290.72
481.824	1575.76
486.563	2003.02
491.3	2783.27
496.034	3193.02
500.765	3461.95
505.494	2936.2
510.221	2066.86
514.945	1798.03
519.666	548.361
524.385	493.707
529.102	623.832
533.816	908.293
538.527	1359.1
543.236	1165.27
547.943	1173.82
552.647	704.762
557.348	503.574
562.047	217.303
566.744	170.045
571.438	62.3711
576.129	188.059
580.818	38.7305
585.504	93.1367
590.188	78.9844
594.87	159.791
599.549	27.7461
604.225	90.5606
608.899	184.256
613.57	703.449
618.239	1139.27
622.905	2807.8
627.569	4213.8
632.23	6302.94
636.889	6359.2
641.545	6519.53
646.198	7913.89
650.849	8448.22
655.498	7955.47
660.144	8335.59
664.787	10004.5
669.428	11761.2
674.067	12163.5
678.703	10280.5
683.336	8521.94
687.967	8267.86
692.595	10224.4
697.221	12596.7
701.844	16241
706.465	15991.5
711.083	11764.9
715.698	8662.02
720.311	8245.55
724.922	8688.56
729.53	9014.89
734.135	9182.18
738.738	10036.8
743.338	11044
747.936	12109.3
752.531	13006.9
757.124	13462.6
761.714	13435.2
766.302	13321
770.887	12963.7
775.469	12207.2
780.049	11320.4
784.626	10524.4
789.201	9719.89
793.773	8447.96
798.343	6704.52
802.91	5011.48
807.475	3859.82
812.037	3549.47
816.596	2946.39
821.153	2118.53
825.707	1184.85
830.259	732.291
834.808	579.635
839.355	223.022
843.899	399.379
848.441	469.168
852.98	379.51
857.516	245.603
862.05	277.043
866.581	112.006
871.11	53.8535
875.636	216.879
880.159	433.68
884.68	452.717
889.199	550.922
893.714	823.131
898.228	1263.56
902.738	1516.53
907.246	1812.63
911.752	1801.11
916.255	2105.01
920.755	2412.55
925.253	2540.22
929.748	2926.13
934.241	2981.27
938.731	3452.96
943.218	3598.55
947.703	4253.08
952.186	4936.28
956.665	5644.32
961.142	6004.69
965.617	6715.08
970.089	6713.63
974.558	7234.52
979.025	7015.22
983.489	6623.38
987.951	6659.42
992.41	6723.51
996.866	6538.84
1001.32	6865.38
1005.77	6940.09
1010.22	7841.9
1014.67	8813.39
1019.11	10210.7
1023.55	11513.1
1027.99	12301.7
1032.42	13315
1036.86	13460.1
1041.29	13498.2
1045.72	13564.2
1050.14	13136.5
1054.56	12501.5
1058.98	11349.3
1063.4	10516.2
1067.82	9897.26
1072.23	9155.13
1076.64	8259.62
1081.05	7322.77
1085.45	6380.34
1089.85	5740.62
1094.25	5188.54
1098.65	4614.59
1103.04	4068.45
1107.43	3774.01
1111.82	3377.37
1116.21	3276.91
1120.59	3029.01
1124.97	2457.38
1129.35	2022.49
1133.73	1501.05
1138.1	1361.67
1142.47	1394.04
1146.84	1242.27
1151.21	685.873
1155.57	683.549
1159.93	459.711
1164.29	231.309
1168.64	500.822
1172.99	303.094
1177.34	313.266
1181.69	133.875
1186.04	91.2109
1190.38	60.2988
1194.72	23.5508
1199.05	315.25
1203.39	180.91
1207.72	4.89062
1212.05	103.891
1216.37	200.545
1220.7	23.3535
1225.02	24.6445
1229.34	74.4883
1233.65	6.05469
1237.97	179.658
1242.28	358.676
1246.59	172.949
1250.89	525.422
1255.19	476.033
1259.49	456.725
1263.79	152.461
1268.09	308.211
1272.38	511.769
1276.67	510.652
1280.95	546.307
1285.24	532.9
1289.52	536.424
1293.8	568.328
1298.08	386.582
1302.35	320.57
1306.62	339.215
1310.89	108.164
1315.15	396.111
1319.42	410.838
1323.68	530.936
1327.94	718.414
1332.19	486.301
1336.44	488.475
1340.69	423.225
1344.94	567.404
1349.19	429.701
1353.43	491.4
1357.67	311.338
1361.9	441.961
1366.14	167.631
1370.37	442.644
1374.6	184.647
1378.83	170.207
1383.05	209.994
1387.27	456.424
1391.49	195.949
1395.7	124.125
1399.92	224.07
1404.13	60.8008
1408.34	87.0703
1412.54	343.486
1416.74	224.924
1420.94	51.6348
1425.14	56.6016
1429.34	114.438
1433.53	5.88672
1437.72	75.25
1441.9	96.582
1446.09	196.881
1450.27	4.5918
1454.45	211.06
1458.63	418.76
1462.8	122.205
1466.97	89.6074
1471.14	245.859
1475.31	375.535
1479.47	270.451
1483.63	258.693
1487.79	425.342
1491.94	607.477
1496.09	509.185
1500.24	593.865
1504.39	427.356
1508.54	511.201
1512.68	506.049
1516.82	669.236
1520.95	408.922
1525.09	606.197
1529.22	596.945
1533.35	495.107
1537.47	275.33
1541.6	307.445
1545.72	262.643
1549.83	412.039
1553.95	273.412
1558.06	337.359
1562.17	163.477
1566.28	361.19
1570.38	402.613
