Measurement: Raman, 514 nm, depolarized, Raman Data Processed
Mineral: Dravite
Rruff sample: R050059
Ideal chemistry: NaMg_3_Al_6_(Si_6_O_18_)(BO_3_)_3_(OH)_3_OH
Locality: Nepal
Source: Rock Currier
Description: Dark brown single crystal
Measured chemistry: (Na_0.79_[box]_0.16_Ca_0.05_)_Σ=1_(Mg_2.44_Al_0.29_[box]_0.14_Fe^2+^_0.08_Ti_0.05_)_Σ=3_Al_6.00_(BO_3_)_3_Si_6.00_O_18_(OH)_4_ ; H_2_O assumed ideal from stoichiometry; B_2_O_3_ estimated by difference
Pin_id: L00432
Orientation: Laser parallel to -c* (0 0 -1). Fiducial mark perpendicular to laser is parallel to a [1 0 0]
Raman shift (cm-1)	intensity
126.873	0
131.042	265.545
135.21	362.417
139.376	613.365
143.539	632.24
147.701	781.162
151.861	807.089
156.018	706.589
160.174	386.572
164.327	12.944
168.479	26.181
172.628	60.7
176.776	168.67
180.922	244.44
185.065	583.669
189.207	773.469
193.346	829.112
197.484	784.565
201.619	1098.19
205.753	1478.51
209.884	2402.44
214.014	3139.7
218.141	3284.98
222.267	3116.58
226.391	2548.04
230.512	2376.83
234.632	2411.57
238.749	2627.66
242.865	2625.04
246.979	1968.63
251.09	1285.38
255.2	788.225
259.308	612.948
263.414	576.43
267.517	697.715
271.619	794.852
275.719	947.884
279.817	519.859
283.913	249.815
288.007	70.792
292.099	12.726
296.189	141.456
300.277	71.86
304.363	117.674
308.447	281.636
312.529	321.552
316.609	112.152
320.687	30.215
324.764	331.001
328.838	685.697
332.91	1126.67
336.981	1440.58
341.049	1626.09
345.116	1821.48
349.18	1795.76
353.243	2169.6
357.304	2670.09
361.362	3339.28
365.419	3901.24
369.474	5285.01
373.527	6918.35
377.578	7011.12
381.627	5632.77
385.674	4261.49
389.719	3359.94
393.762	2718.52
397.804	2303.31
401.843	1844.33
405.881	1517.58
409.916	1281.07
413.95	1086.83
417.981	916.852
422.011	818.16
426.039	695.764
430.065	767.676
434.089	849.905
438.111	754.46
442.131	842.347
446.149	750.13
450.166	621.487
454.18	543.219
458.193	509.851
462.203	372.02
466.212	470.096
470.219	459.123
474.224	529.139
478.227	657.843
482.228	789.905
486.227	1143.75
490.224	1333.56
494.22	1490.89
498.213	1692.62
502.205	1604.71
506.194	1627.16
510.182	1201.97
514.168	1030.16
518.152	879.72
522.134	863.672
526.114	1145.02
530.093	1685.77
534.069	1914.93
538.044	2168.51
542.017	1880.53
545.987	1814.09
549.956	1753.46
553.923	1804.88
557.889	1768.37
561.852	1486.95
565.813	1143.67
569.773	907.525
573.731	752.447
577.686	574.347
581.64	452.041
585.593	392.423
589.543	315.373
593.491	213.836
597.438	146.791
601.382	166.217
605.325	165.097
609.266	324.561
613.205	324.426
617.142	258.966
621.078	351.984
625.011	252.606
628.943	271.254
632.872	149.214
636.8	147.427
640.726	112.515
644.651	250.075
648.573	189.625
652.494	43.838
656.412	318.581
660.329	633.672
664.244	977.102
668.157	1051.86
672.069	762.936
675.978	737.32
679.886	653.002
683.792	667.973
687.696	813.218
691.598	1000.73
695.498	1087.49
699.397	1361.44
703.293	2098.73
707.188	2685.19
711.081	3933.71
714.972	5131.43
718.862	6671.84
722.749	8775.59
726.635	10281.9
730.519	10000.8
734.401	7667.97
738.281	6681.47
742.16	5662.68
746.036	5740.06
749.911	6045.92
753.784	6760.74
757.655	7404.1
761.525	8197.11
765.392	9019.93
769.258	9372.57
773.122	9585
776.984	10517.2
780.844	12389.2
784.703	14560.9
788.56	15602.4
792.415	15163.6
796.268	14072.4
800.119	12171.5
803.969	11328.8
807.816	11502.1
811.662	11721.6
815.506	11280.8
819.349	9089.64
823.189	6768.11
827.028	4549.19
830.865	3121.89
834.7	2530.18
838.534	1922.06
842.365	1537.52
846.195	844.553
850.023	396.147
853.85	103.267
857.674	73.319
861.497	196.155
865.318	109.667
869.137	134.756
872.955	133.503
876.77	135.108
880.584	170.384
884.396	19.316
888.207	8.466
892.015	133.163
895.822	227.063
899.627	321.318
903.43	352.615
907.232	488.206
911.032	580.975
914.83	733.378
918.626	844.498
922.42	894.271
926.213	1045.7
930.004	1221.71
933.793	1244.27
937.581	1495.34
941.366	1673.94
945.15	1783.06
948.932	2049.72
952.713	2147.02
956.491	2282.04
960.268	2388.74
964.044	2408
967.817	2429.8
971.589	2507.15
975.359	2491.06
979.127	2596.52
982.893	2581.55
986.658	2607.16
990.421	2663.33
994.183	2588.09
997.942	2534.44
1001.7	2620.26
1005.46	2555.81
1009.21	2550.85
1012.96	2561.7
1016.71	2560.48
1020.46	2782.93
1024.21	3049.19
1027.96	3240.8
1031.7	3430.54
1035.44	3716.31
1039.18	3939.87
1042.92	4481.66
1046.66	4940.31
1050.39	5471.95
1054.13	5616.38
1057.86	5644.39
1061.59	5904
1065.32	6077.15
1069.05	6272.6
1072.77	6058.9
1076.49	5456.46
1080.22	4485.11
1083.94	3616.25
1087.65	3016.26
1091.37	2408.22
1095.09	2061.12
1098.8	1875.99
1102.51	1791.82
1106.22	1734.63
1109.93	1554.41
1113.63	1554.17
1117.34	1404.93
1121.04	1506.81
1124.74	1410.45
1128.44	1255.22
1132.14	1418.02
1135.84	1312.85
1139.53	1162.72
1143.22	706.68
1146.91	377.695
1150.61	301.832
1154.29	262.146
1157.98	263.769
1161.66	281.001
1165.35	231.96
1169.03	291.625
1172.71	205.073
1176.38	163.466
1180.06	163.349
1183.73	198
1187.41	196.101
1191.08	131.582
1194.75	97.292
1198.41	11.168
1202.08	15.875
1205.74	65.902
1209.41	133.035
1213.07	72.476
1216.73	3.796
1220.38	33.828
1224.04	23.31
1227.69	6.456
1231.35	39.217
1235	100.001
1238.65	113.873
1242.3	178.866
1245.94	290.98
1249.59	337.218
1253.23	342.58
1256.87	396.066
1260.51	397.678
1264.15	419.413
1267.78	392.156
1271.42	391.32
1275.05	316.681
1278.68	304.694
1282.31	344.372
1285.94	398.548
1289.56	280.146
1293.19	250.349
1296.81	247.44
1300.43	211.772
1304.05	180.827
1307.67	185.376
1311.29	269.366
1314.9	292.614
1318.52	246.881
1322.13	304.982
1325.74	217.366
1329.34	237.024
1332.95	216.131
1336.56	179.086
1340.16	294.075
1343.76	309.251
1347.36	253.921
1350.96	396.037
1354.56	391.582
1358.15	319.521
1361.74	238.976
1365.34	189.652
1368.93	153.461
1372.52	233.266
1376.1	108.064
1379.69	232.067
1383.27	354.045
1386.85	319.106
1390.43	302.24
1394.01	345.441
1397.59	312.696
1401.17	315.986
1404.74	163.254
1408.31	163.409
1411.88	114.181
1415.45	133.658
1419.02	167.734
1422.59	215.279
1426.15	136.503
1429.71	61.431
1433.28	89.095
1436.84	37.115
1440.39	11.636
1443.95	22.77
1447.5	43.027
1451.06	69.922
1454.61	115.066
1458.16	180.283
1461.71	146.573
1465.26	180.956
1468.8	189.285
1472.34	293.554
1475.89	178.803
1479.43	83.727
1482.97	90.901
1486.5	251.388
1490.04	91.78
1493.57	117.897
1497.11	168.799
1500.64	116.401
1504.17	220.432
1507.69	152.173
1511.22	149.535
1514.74	35.292
1518.27	74.362
