Measurement: Raman, 514 nm, depolarized, Raman Data Processed
Mineral: Dravite
Rruff sample: R050077
Ideal chemistry: NaMg_3_Al_6_(Si_6_O_18_)(BO_3_)_3_(OH)_3_OH
Locality: Yinnietharra Station, Western Australia, Australia
Source: Rock Currier
Description: Dark brown euhedral prismatic single crystal
Measured chemistry: (Na_0.783_Ca_0.217_)(Mg_0.771_Fe^2+^_0.221_Ti^4+^_0.008_)_3_(Al_0.956_Mg_0.044_)_6_(BO_3_)_3_[Si_6_O_18_]((OH)_0.914_F_0.086_)_4_
Pin_id: L01436
Orientation: Laser parallel to c* (0 0 1). Fiducial mark perpendicular to laser is parallel to a [1 0 0]
Raman shift (cm-1)	intensity
118.134	0
123.058	727.738
127.979	404.691
132.898	3199.73
137.814	6050.04
142.728	8035.01
147.639	9552.01
152.549	10601.2
157.455	8578.12
162.359	8346.54
167.261	8442.35
172.161	8938.88
177.058	7992.62
181.952	7630.93
186.845	7835.23
191.734	7442.64
196.622	7976.75
201.507	8959.74
206.389	10710.2
211.269	12290.8
216.147	11252.2
221.022	8897.33
225.895	6934.15
230.765	6888.52
235.633	5676.86
240.498	4844.79
245.361	2709.81
250.222	1232.57
255.08	1177.87
259.936	848.932
264.789	949.914
269.64	859.346
274.488	759.625
279.334	258.106
284.178	422.434
289.019	407.627
293.857	766.156
298.693	604.711
303.527	318.043
308.358	31.6777
313.187	925.104
318.013	1500.43
322.837	2482.04
327.659	3762.78
332.478	5053.57
337.294	5954.53
342.108	6199.12
346.92	6401.98
351.729	7142.1
356.535	8454.95
361.34	10145.6
366.141	13006
370.94	14861.6
375.737	13702.3
380.531	11493.2
385.323	9512.36
390.113	8238.11
394.9	7080.56
399.684	6146.33
404.466	5467
409.245	4893.21
414.022	4255.31
418.797	3918.29
423.569	3205.34
428.338	2639.36
433.105	1889.43
437.87	1428.14
442.632	905.596
447.391	508.219
452.149	227.059
456.903	210.148
461.655	145.875
466.405	724.529
471.152	978.172
475.897	1606.5
480.639	1475.86
485.378	2179.52
490.116	2117.76
494.85	2165.36
499.582	2116.26
504.312	1582.94
509.039	1266.54
513.764	1283.02
518.486	1495.72
523.206	1932.76
527.923	3084.23
532.638	3632.27
537.35	3994.43
542.059	4461.42
546.766	4251.3
551.471	4598.22
556.173	3846.06
560.873	3306.26
565.57	3037.98
570.264	2690.76
574.957	2132.36
579.646	2180.26
584.333	1667.63
589.018	1415.12
593.7	1487.07
598.379	1121.43
603.056	885.527
607.73	756.648
612.402	1003.1
617.072	1292.39
621.739	1363.41
626.403	999.059
631.065	378.293
635.724	87.9375
640.381	539.689
645.035	326.988
649.687	293.688
654.336	1677.6
658.983	3117.73
663.627	3292
668.268	2769.34
672.907	1821.65
677.544	1611.85
682.178	1742.83
686.809	2834.47
691.438	3671.66
696.065	5390.63
700.688	7217.53
705.31	9619.14
709.929	12939.7
714.545	17447
719.158	22682.7
723.77	25403.5
728.378	24628.5
732.984	23897.1
737.588	24705.7
742.189	26501.2
746.787	27563.5
751.383	28167.4
755.976	28199.7
760.567	28056.8
765.155	27910.4
769.741	27345.7
774.324	25650.2
778.904	24168.2
783.482	22958.4
788.058	21017.9
792.631	17129
797.201	12988
801.769	10687.1
806.334	9840.04
810.897	8858.74
815.457	7237.12
820.014	5083.09
824.569	3373.55
829.122	1764.4
833.671	856.545
838.219	195.361
842.763	300
847.306	523.717
851.845	354.914
856.382	601.523
860.917	185.315
865.448	78.5781
869.978	8.64258
874.505	355.815
879.029	276.783
883.55	686.215
888.069	1003.75
892.586	1226.79
897.1	1674.49
901.611	1894.97
906.12	2283.28
910.626	2816.42
915.129	3080.73
919.63	3257.62
924.129	3373.75
928.625	3488.34
933.118	3793.32
937.609	4291.84
942.097	4744.27
946.582	5294.28
951.065	5798.91
955.546	6328.87
960.023	6555.04
964.499	7036.6
968.971	7323.09
973.441	7563.06
977.909	7496.06
982.374	7808.31
986.836	7172.16
991.295	6989
995.753	6753.69
1000.21	6478.78
1004.66	6100.13
1009.11	5793.92
1013.55	6205.98
1018	6225.67
1022.44	6644.39
1026.88	6801.65
1031.32	7488.69
1035.75	7710.47
1040.18	8403.86
1044.61	8860.93
1049.04	9096.37
1053.46	8945.14
1057.88	8963.84
1062.3	9355.44
1066.71	9306.52
1071.13	8457.5
1075.54	7848.63
1079.94	6925.58
1084.35	6236.21
1088.75	5681.73
1093.15	5242.41
1097.55	5068.34
1101.94	4772.02
1106.34	4415.5
1110.73	4091.58
1115.11	3623
1119.5	3582.11
1123.88	3142.11
1128.26	2414.02
1132.63	1502.06
1137.01	967.894
1141.38	939.188
1145.75	713.082
1150.12	631.381
1154.48	741.738
1158.84	435.045
1163.2	474.602
1167.55	525.012
1171.91	205.373
1176.26	64.7324
1180.61	75
1184.95	10.9395
1189.29	294.607
1193.63	73.0547
1197.97	189.31
1202.31	249.523
1206.64	10.4102
1210.97	164.74
1215.29	202.975
1219.62	84.5996
1223.94	187.531
1228.26	475.527
1232.57	902.326
1236.89	1159.92
1241.2	1123.91
1245.51	1371.37
1249.81	1369.08
1254.12	1190.35
1258.42	1405.11
1262.72	1416.29
1267.01	1397.21
1271.3	1265.05
1275.59	1053.21
1279.88	1261.22
1284.17	1353.86
1288.45	1287.13
1292.73	1229.11
1297.01	1388.71
1301.28	1561.68
1305.55	1138.36
1309.82	1367.7
1314.09	929.967
1318.35	1122.96
1322.61	1027.25
1326.87	938.019
1331.13	1147.75
1335.38	437.404
1339.63	515.65
1343.88	364.312
1348.12	380.565
1352.37	483.065
1356.61	551.807
1360.85	536.738
1365.08	434.697
1369.31	296.641
1373.54	237.904
1377.77	668.824
1381.99	239.432
1386.22	349.119
1390.43	164.656
1394.65	300.098
1398.87	362.492
1403.08	38.2012
1407.29	108.916
1411.49	58.0723
1415.69	207.232
1419.89	10.2363
1424.09	71.75
1428.29	73.2051
1432.48	223.42
1436.67	107.367
1440.86	91.1269
1445.04	74.0098
1449.23	244.19
1453.4	158.938
1457.58	128.385
1461.76	273.074
1465.93	265.318
1470.1	586.504
1474.26	597.85
1478.43	851.455
1482.59	720.406
1486.75	764.727
1490.9	792.729
1495.06	723.34
1499.21	799.43
1503.35	749.51
1507.5	666.984
1511.64	817.715
1515.78	596.314
1519.92	618.303
1524.05	684.721
1528.18	427.066
1532.31	401.725
1536.44	424.152
1540.56	343.045
1544.69	355.031
1548.8	548.084
1552.92	200.586
1557.03	245.981
1561.14	57.6406
1565.25	189.961
1569.36	59.793
