Measurement: Raman, 514 nm, depolarized, Raman Data Processed
Mineral: Dravite
Rruff sample: R050077
Ideal chemistry: NaMg_3_Al_6_(Si_6_O_18_)(BO_3_)_3_(OH)_3_OH
Locality: Yinnietharra Station, Western Australia, Australia
Source: Rock Currier
Description: Dark brown euhedral prismatic single crystal
Measured chemistry: (Na_0.783_Ca_0.217_)(Mg_0.771_Fe^2+^_0.221_Ti^4+^_0.008_)_3_(Al_0.956_Mg_0.044_)_6_(BO_3_)_3_[Si_6_O_18_]((OH)_0.914_F_0.086_)_4_
Pin_id: L00540
Orientation: Laser parallel to -a* (-1 0 0). Fiducial mark perpendicular to laser is parallel to c [0 0 1]
Raman shift (cm-1)	intensity
118.134	0
123.058	798.428
127.979	159.235
132.898	658.171
137.814	1655.45
142.728	2300.07
147.639	2673.96
152.549	2626.3
157.455	1115.18
162.359	964.894
167.261	1025.05
172.161	1314.55
177.058	1491.84
181.952	2233.22
186.845	3706.21
191.734	5556.45
196.622	8957.83
201.507	15640.6
206.389	24453.8
211.269	29695.2
216.147	25266.7
221.022	20495.4
225.895	18723.7
230.765	22810.2
235.633	29275.6
240.498	31843.7
245.361	24054.1
250.222	14316
255.08	8629.53
259.936	6660.31
264.789	4449.69
269.64	3153.42
274.488	1783.77
279.334	684.789
284.178	197.344
289.019	419.191
293.857	572.158
298.693	340.466
303.527	778.309
308.358	2607.21
313.187	3069.95
318.013	1569.51
322.837	1388.31
327.659	2091.7
332.478	3342.95
337.294	4772.57
342.108	6510.82
346.92	8558.31
351.729	12842.8
356.535	21789.3
361.34	36420.9
366.141	48417.9
370.94	40954.4
375.737	26436.4
380.531	16797.8
385.323	12224.8
390.113	10372.2
394.9	9202.31
399.684	8782.02
404.466	7688.3
409.245	5968.27
414.022	3981.8
418.797	2609.47
423.569	1832.53
428.338	1036.04
433.105	388.035
437.87	292.438
442.632	25.5186
447.391	65.6621
452.149	517.367
456.903	2457.77
461.655	5929.14
466.405	4151.57
471.152	2846.11
475.897	2839.83
480.639	3419.77
485.378	4009.98
490.116	4722.5
494.85	4867.44
499.582	4281
504.312	3247.3
509.039	2220.34
513.764	1143.14
518.486	589.725
523.206	540.098
527.923	1052.28
532.638	1346.27
537.35	1210.09
542.059	988.74
546.766	698.232
551.471	460.566
556.173	114.751
560.873	47.9004
565.57	229.545
570.264	203.123
574.957	100.599
579.646	128.544
584.333	108.27
589.018	3.81641
593.7	104.923
598.379	261.525
603.056	289.634
607.73	653.036
612.402	1475.55
617.072	2154.97
621.739	4097.18
626.403	6852.09
631.065	7860.64
635.724	7271.75
640.381	7847.39
645.035	9589.51
649.687	10362.1
654.336	10502
658.983	11329.2
663.627	13078.7
668.268	15418.5
672.907	15075.3
677.544	13206.3
682.178	11432.4
686.809	11390.4
691.438	13899.3
696.065	17393.5
700.688	18487.1
705.31	14011.5
709.929	9117.07
714.545	6554.76
719.158	5905.92
723.77	5845.45
728.378	5815.47
732.984	6287.44
737.588	7055.56
742.189	7865.93
746.787	9185.66
751.383	9523.6
755.976	9796.88
760.567	9290.91
765.155	8709.59
769.741	8603.11
774.324	8324.15
778.904	7827.12
783.482	7969.98
788.058	7173.67
792.631	5963.15
797.201	4386.36
801.769	3613.27
806.334	3677.83
810.897	3420.99
815.457	3044.71
820.014	1991.95
824.569	1370.68
829.122	706.839
833.671	252.38
838.219	44.1162
842.763	160.773
847.306	223.41
851.845	274.774
856.382	253.109
860.917	179.251
865.448	127.83
869.978	3.66797
874.505	71.7656
879.029	145.757
883.55	295.935
888.069	339.69
892.586	643.276
897.1	751.854
901.611	762.534
906.12	1226.47
910.626	1302.47
915.129	1494.81
919.63	1601.49
924.129	1857.63
928.625	2124.32
933.118	2315.55
937.609	2537.5
942.097	3051.14
946.582	3512.57
951.065	4102.62
955.546	4847.28
960.023	5249.43
964.499	5419.04
968.971	5696.69
973.441	5581.96
977.909	5347.35
982.374	5586.7
986.836	5255.05
991.295	5104.28
995.753	5250.63
1000.21	5633.47
1004.66	6114.02
1009.11	7173.17
1013.55	8374.87
1018	9707.61
1022.44	11139
1026.88	12053.2
1031.32	12439
1035.75	12267.6
1040.18	12552.3
1044.61	11909.7
1049.04	11755.1
1053.46	11076.5
1057.88	9895.41
1062.3	9147.23
1066.71	8527.46
1071.13	7390.17
1075.54	6387.07
1079.94	5509.69
1084.35	4419.89
1088.75	3844.84
1093.15	3364.62
1097.55	2844.35
1101.94	2728.09
1106.34	2361.94
1110.73	2060.2
1115.11	1880.66
1119.5	2037.92
1123.88	2233.01
1128.26	1271.85
1132.63	714.359
1137.01	657.267
1141.38	385.172
1145.75	346.851
1150.12	320.194
1154.48	285.99
1158.84	111.15
1163.2	235.126
1167.55	156.339
1171.91	73.2832
1176.26	30.5273
1180.61	93.1475
1184.95	37.7949
1189.29	24.6377
1193.63	70.71
1197.97	138.173
1202.31	109.159
1206.64	166.536
1210.97	4.46484
1215.29	79.5117
1219.62	85.3574
1223.94	137.435
1228.26	230.792
1232.57	179.431
1236.89	421.345
1241.2	528.529
1245.51	560.96
1249.81	673.61
1254.12	477.449
1258.42	608.441
1262.72	348.565
1267.01	492.791
1271.3	466.1
1275.59	607.473
1279.88	452.9
1284.17	354.377
1288.45	528.896
1292.73	400.473
1297.01	692.277
1301.28	453.752
1305.55	583.56
1309.82	702.532
1314.09	504.76
1318.35	493.044
1322.61	575.459
1326.87	460.556
1331.13	474.58
1335.38	485.752
1339.63	227.124
1343.88	375.358
1348.12	318.494
1352.37	169.255
1356.61	318.171
1360.85	171.244
1365.08	460.479
1369.31	246.881
1373.54	325.45
1377.77	405.192
1381.99	273.679
1386.22	212.812
1390.43	313.879
1394.65	309.881
1398.87	384.944
1403.08	302.103
1407.29	180.438
1411.49	293.947
1415.69	220.636
1419.89	149.122
1424.09	141.197
1428.29	60.3701
1432.48	114.287
1436.67	55.8701
1440.86	83.6514
1445.04	134.533
1449.23	83.335
1453.4	76.2275
1457.58	53.9678
1461.76	63.1445
1465.93	171.172
1470.1	232.788
1474.26	49.7178
1478.43	139.009
1482.59	161.68
1486.75	345.46
1490.9	355.182
1495.06	408.158
1499.21	417.394
1503.35	439.54
1507.5	543.447
1511.64	545.652
1515.78	553.493
1519.92	542.148
1524.05	468.312
1528.18	373.479
1532.31	388.765
1536.44	338.991
1540.56	333.872
1544.69	247.751
1548.8	80.6074
1552.92	150.412
1557.03	146.994
1561.14	279.666
1565.25	116.153
1569.36	149.607
