Measurement: Raman, 514 nm, depolarized, Raman Data Processed
Mineral: Dravite
Rruff sample: R060534
Ideal chemistry: NaMg_3_Al_6_(Si_6_O_18_)(BO_3_)_3_(OH)_3_OH
Locality: Sri Lanka
Source: Gemological Institute of America
Description: Black trigonal prism
Measured chemistry: (Na_0.79_Ca_0.21_)(Mg_0.68_Fe^2+^_0.29_Ti_0.02_Al_0.01_)_3_Al_6.00_(BO_3_)_3_(Si_0.95_Al_005_)_6.00_O_18_(OH)_4_
Pin_id: L01032
Orientation: Laser parallel to c* (0 0 1). Fiducial mark perpendicular to laser is parallel to a [1 0 0]
Raman shift (cm-1)	intensity
297.485	0
301.111	145.273
304.735	7.93359
308.358	117.422
311.98	170.082
315.601	312.338
319.22	647.014
322.837	1182.81
326.454	1822.64
330.068	2339.84
333.682	3195.13
337.294	3001.85
340.905	2881.18
344.514	3147.15
348.122	3199.82
351.729	3044.36
355.334	3597.91
358.938	4136.39
362.54	5302.74
366.141	6571.56
369.741	7368.95
373.339	7038.69
376.936	6030.13
380.531	5321.39
384.126	4789.75
387.718	4017.36
391.31	3378.17
394.9	3332.09
398.488	2736.42
402.075	2242.51
405.661	2140.82
409.245	1792.69
412.828	1249.88
416.41	927.193
419.99	761.584
423.569	340.043
427.146	440.568
430.722	175.168
434.297	290.861
437.87	45.2793
441.442	1.51367
445.012	140.32
448.581	175.414
452.149	55.0254
455.715	186.606
459.28	7.57812
462.843	25.5586
466.405	492.943
469.965	586.627
473.525	649.518
477.082	822.543
480.639	1227.59
484.194	1411.59
487.747	1669.52
491.3	1876.34
494.85	1704.05
498.4	1884.13
501.948	1841.86
505.494	1648.97
509.039	1640.24
512.583	1567.76
516.125	1511.62
519.666	1757.01
523.206	1881.92
526.744	2183.6
530.281	2453.32
533.816	2834.18
537.35	2858.05
540.882	3011.62
544.413	3173.86
547.943	2981.76
551.471	3011.38
554.998	2883.78
558.523	2584.17
562.047	2374.33
565.57	2322.36
569.091	2194.4
572.611	1965.62
576.129	1817.93
579.646	1557.19
583.162	1481.79
586.676	1483.79
590.188	1478.12
593.7	1022.13
597.209	1013.43
600.718	992.49
604.225	673.35
607.73	895.879
611.235	687.975
614.737	619.606
618.239	750.725
621.739	830.293
625.237	632.254
628.734	309.578
632.23	116.244
635.724	177.773
639.217	145.832
642.708	104.092
646.198	187.463
649.687	178.115
653.174	260.893
656.66	563.871
660.144	1102.03
663.627	1129.36
667.108	1227.84
670.588	695.445
674.067	799.154
677.544	391.951
681.02	268.809
684.494	774.164
687.967	977.879
691.438	1126.65
694.908	2017.7
698.377	2206.38
701.844	3475.62
705.31	3680.95
708.774	4837.76
712.237	6199.61
715.698	7537.94
719.158	8567.44
722.617	9057.23
726.074	9173.23
729.53	9229.71
732.984	9592.42
736.437	10497.1
739.888	11905
743.338	13017.1
746.787	13756
750.234	14073.2
753.68	14398.4
757.124	14825.8
760.567	15413.6
764.008	15849
767.448	15692.8
770.887	15240.8
774.324	15804.8
777.759	16230.1
781.194	15737
784.626	13412.8
788.058	10580.7
791.488	7455.22
794.916	5061.83
798.343	3723.97
801.769	3013.17
805.193	2716.56
808.616	2474.13
812.037	1928.88
815.457	1374.81
818.875	730.906
822.292	396.158
825.707	152.488
829.122	210.684
832.534	148.539
835.945	120.83
839.355	4.84375
842.763	136.748
846.17	222.254
849.576	364.154
852.98	96.418
856.382	279.555
859.783	200.932
863.183	210.478
866.581	52.3223
869.978	164.004
873.373	164.09
876.767	101.953
880.159	235.514
883.55	217.932
886.94	195.312
890.328	424.664
893.714	433.055
897.1	733.531
900.483	671.162
903.866	848.961
907.246	889.943
910.626	995.148
914.004	1005.77
917.38	1237.84
920.755	1540.32
924.129	1431.19
927.501	1572.3
930.872	1892.67
934.241	1994.39
937.609	2060.47
940.975	2367.97
944.34	2495.03
947.703	2955.79
951.065	2917.94
954.426	3202.61
957.785	3145.38
961.142	3324.23
964.499	3286.19
967.853	3388.51
971.207	3663.92
974.558	3501.28
977.909	3251.63
981.258	3672.28
984.605	3657.76
987.951	3608.85
991.295	3854.74
994.639	3572.85
997.98	3366.97
1001.32	3575.83
1004.66	3549.23
1008	3477.27
1011.33	3426.94
1014.67	3560.01
1018	3671.32
1021.33	3623.19
1024.66	3797.1
1027.99	3570.62
1031.32	4008.09
1034.64	4050.07
1037.97	4313.1
1041.29	4506.39
1044.61	5062.4
1047.93	5025.42
1051.25	5337.59
1054.56	5415.51
1057.88	5622.09
1061.19	5279.25
1064.51	5280.65
1067.82	5291.72
1071.13	4819.45
1074.43	4302.74
1077.74	3886.23
1081.05	3537.88
1084.35	3254.61
1087.65	2973.97
1090.95	2740.11
1094.25	2565.86
1097.55	2501.18
1100.85	2586.85
1104.14	2636.19
1107.43	2405.76
1110.73	2059.91
1114.02	2058.77
1117.31	2020.36
1120.59	1658.84
1123.88	1482.19
1127.16	1391.45
1130.45	1200.79
1133.73	1157.61
1137.01	1043.04
1140.29	676.803
1143.57	592.033
1146.84	555.65
1150.12	512.828
1153.39	401.346
1156.66	370.269
1159.93	577.525
1163.2	141.074
1166.46	368.883
1169.73	61.9082
1172.99	368.119
1176.26	417.631
1179.52	445.117
1182.78	44.9043
1186.04	110.789
1189.29	20.8379
1192.55	148.065
1195.8	14.4336
1199.05	22.1855
1202.31	35.4277
1205.55	219.494
1208.8	197.727
1212.05	26.6348
1215.29	31.9551
1218.54	41.7734
1221.78	101.293
1225.02	158.5
1228.26	168.615
1231.5	153.897
1234.73	175.336
1237.97	359.928
1241.2	309.658
1244.43	528.51
1247.66	458.477
1250.89	563.541
1254.12	535.695
1257.34	970.924
1260.57	497.223
1263.79	755.568
1267.01	677.961
1270.23	1138.21
1273.45	864.182
1276.67	876.769
1279.88	839.742
1283.1	510.09
1286.31	879.107
1289.52	1001.8
1292.73	971.074
1295.94	817.693
1299.14	1171.12
1302.35	1027.23
1305.55	891.807
1308.75	963.955
1311.95	992.154
1315.15	914.818
1318.35	973.65
1321.55	1148.13
1324.74	846.225
1327.94	893.938
1331.13	1038.62
1334.32	1025.63
1337.51	926.295
1340.69	884.885
1343.88	902.5
1347.06	657.701
1350.25	766.023
1353.43	689.769
1356.61	505.838
1359.79	317.914
1362.96	313.887
1366.14	394.613
1369.31	374.148
1372.49	494.408
1375.66	196.742
1378.83	298.992
1381.99	80.8965
1385.16	97.041
1388.33	69.5781
1391.49	219.209
1394.65	111.223
1397.81	17.2949
1400.97	6.85547
1404.13	140.547
1407.29	41.9238
1410.44	192.707
1413.59	188.955
1416.74	19.2168
1419.89	51.373
1423.04	268.281
1426.19	340.17
1429.34	420.83
1432.48	129.022
1435.62	64.4941
1438.77	104.207
1441.9	164.135
1445.04	165.678
1448.18	104.549
1451.32	94.625
1454.45	192.953
1457.58	329.371
1460.71	251.414
1463.84	151.455
1466.97	233.924
1470.1	465.856
1473.22	308.846
1476.35	383.93
1479.47	537.127
1482.59	405.42
1485.71	448.205
1488.83	565.609
1491.94	582.688
1495.06	726.939
1498.17	545.787
1501.28	555.953
1504.39	610.727
1507.5	621.115
1510.61	471.441
1513.71	551.625
1516.82	476.166
1519.92	441.83
1523.02	515.037
1526.12	392.168
1529.22	562.672
1532.31	537.066
1535.41	560.885
1538.5	396.508
1541.6	458.623
1544.69	229.736
1547.78	420.248
1550.86	486.207
1553.95	280.764
1557.03	270.553
1560.12	491.877
1563.2	267.785
1566.28	74.2969
1569.36	70.6211
1572.43	0
