Measurement: Raman, 514 nm, depolarized, Raman Data Processed
Mineral: Dravite
Rruff sample: R060280
Ideal chemistry: NaMg_3_Al_6_(Si_6_O_18_)(BO_3_)_3_(OH)_3_OH
Locality: near Merelani, Tanzania
Source: Herb Obodda
Description: Green fragment
Measured chemistry: (Na_0.45_Ca_0.40_[box]_0.15_)(Mg_0.89_Al_0.07_Ti_0.04_)_3_Al_6_(BO_3_)_3_(Si_0.93_B_0.07_)_6_O_18_((OH)_0.95_O_0.05_)_4_
Pin_id: L00930
Orientation: Laser parallel to c* (0 0 1). Fiducial mark perpendicular to laser is parallel to -b [0 -1 0]
Raman shift (cm-1)	intensity
168.486	0
173.385	256.877
178.282	86.3789
183.176	161.016
188.067	955.41
192.956	1704.39
197.843	2411.8
202.727	3807.87
207.609	5471.77
212.489	8994.28
217.366	10442.6
222.24	7228.52
227.112	5220.03
231.982	4927.96
236.849	6207.44
241.714	6818.48
246.577	5605.87
251.437	3032.16
256.294	1004.9
261.149	698.498
266.002	1049.08
270.852	2192.68
275.7	2547.26
280.545	1794.67
285.388	659.758
290.229	220.477
295.067	229.772
299.902	208.588
304.735	138.152
309.566	410.285
314.394	133.668
319.22	595.117
324.043	2204.97
328.864	3905.26
333.682	6256.47
338.498	8151.97
343.311	7859.17
348.122	7193.7
352.931	8102.15
357.737	11142.2
362.54	16139.7
367.341	21932.6
372.14	25309.8
376.936	22454.2
381.73	15895.7
386.521	10488.8
391.31	7233.77
396.096	5197.64
400.88	4484.07
405.661	3861.43
410.44	2764.33
415.216	1977.74
419.99	1273.56
424.761	994.084
429.53	1706.25
434.297	2164
439.061	3172.28
443.822	2314.16
448.581	2235.62
453.337	1729.71
458.091	1313.14
462.843	1111.12
467.592	1268.72
472.338	2152.7
477.082	3031.72
481.824	4219.96
486.563	4671.7
491.3	5235.86
496.034	5965.39
500.765	6394.24
505.494	6663.24
510.221	5655.59
514.945	4537.1
519.666	3830.75
524.385	4679.48
529.102	6559.26
533.816	8608.07
538.527	8898.87
543.236	7964.62
547.943	7017.27
552.647	5428.76
557.348	4677.07
562.047	3976.14
566.744	3033.8
571.438	2377.39
576.129	1244.49
580.818	263.18
585.504	304.744
590.188	399.065
594.87	405.772
599.549	107.83
604.225	125.301
608.899	26.082
613.57	124.361
618.239	543.662
622.905	1007.42
627.569	1519.36
632.23	1545.36
636.889	1086.38
641.545	153.357
646.198	158.211
650.849	655.842
655.498	1657.36
660.144	2763.5
664.787	3484.42
669.428	3575.02
674.067	3401.24
678.703	2919.04
683.336	2592.36
687.967	2752.18
692.595	3106.43
697.221	4597.07
701.844	6165.07
706.465	8132.38
711.083	11362.9
715.698	15768.7
720.311	21031.1
724.922	26574.4
729.53	25690.1
734.135	19052.8
738.738	13455.3
743.338	11222
747.936	11490.2
752.531	13156.9
757.124	14981.3
761.714	15884.3
766.302	14968.2
770.887	13725.6
775.469	13449.6
780.049	13024.1
784.626	13366.2
789.201	13715.6
793.773	14433.5
798.343	13546.8
802.91	13126.4
807.475	14779.8
812.037	18208
816.596	21481.9
821.153	21848
825.707	18975.5
830.259	14312.2
834.808	10588.2
839.355	7030.43
843.899	4319.9
848.441	2038.58
852.98	1163.45
857.516	431.5
862.05	154.873
866.581	287.951
871.11	512.162
875.636	394.185
880.159	268.807
884.68	255.461
889.199	142.5
893.714	227.367
898.228	795.971
902.738	796.926
907.246	1136.12
911.752	1254.84
916.255	1326.97
920.755	1610.93
925.253	1631.57
929.748	1825.83
934.241	1957.87
938.731	2074.52
943.218	2570.68
947.703	2752.03
952.186	3218.58
956.665	3615.33
961.142	3912.28
965.617	4415.45
970.089	4918.85
974.558	5513.48
979.025	5609.35
983.489	5799.47
987.951	5613.85
992.41	4883.73
996.866	4606.28
1001.32	4809.97
1005.77	4485.06
1010.22	4385.32
1014.67	5488.23
1019.11	6232.34
1023.55	7435.8
1027.99	8430.44
1032.42	9204.54
1036.86	10585.6
1041.29	12294.1
1045.72	13767.3
1050.14	14642.2
1054.56	15515.2
1058.98	16763.5
1063.4	18209.9
1067.82	20011.9
1072.23	20228.9
1076.64	18447
1081.05	15550.7
1085.45	12852.7
1089.85	9949.4
1094.25	7743.89
1098.65	6216.15
1103.04	4966.2
1107.43	4100.06
1111.82	3568.72
1116.21	3188.2
1120.59	2684.53
1124.97	2224.97
1129.35	1561.78
1133.73	1093.28
1138.1	845.623
1142.47	225.16
1146.84	291.893
1151.21	82.3926
1155.57	66.1133
1159.93	37.4414
1164.29	138.982
1168.64	16.8848
1172.99	55.3379
1177.34	93.0098
1181.69	286.125
1186.04	39.8848
1190.38	95.5957
1194.72	291.385
1199.05	118.519
1203.39	7.29102
1207.72	110.59
1212.05	324.74
1216.37	294.769
1220.7	650.738
1225.02	629.746
1229.34	955.799
1233.65	1187.85
1237.97	1380.88
1242.28	1405.83
1246.59	1500.7
1250.89	1468.48
1255.19	1379.18
1259.49	1487.79
1263.79	1337.32
1268.09	1594.73
1272.38	1769
1276.67	1465.08
1280.95	1208.82
1285.24	1307.76
1289.52	1253.87
1293.8	1192.36
1298.08	1185.63
1302.35	864.08
1306.62	697.57
1310.89	943.373
1315.15	827.332
1319.42	1053.76
1323.68	1103.97
1327.94	757.414
1332.19	553.33
1336.44	299.379
1340.69	383.293
1344.94	192.576
1349.19	381.529
1353.43	300.861
1357.67	202.213
1361.9	400.232
1366.14	275.144
1370.37	571.703
1374.6	459.221
1378.83	524.127
1383.05	598.096
1387.27	523.172
1391.49	538.375
1395.7	573.703
1399.92	241.033
1404.13	324.537
1408.34	299.1
1412.54	73.3008
1416.74	179.635
1420.94	84.1719
1425.14	95.7012
1429.34	87.9102
1433.53	174.988
1437.72	372.236
1441.9	452.662
1446.09	754.795
1450.27	625.394
1454.45	776.113
1458.63	701.629
1462.8	321.295
1466.97	414.627
1471.14	8.49023
1475.31	42.2012
1479.47	196.914
1483.63	66.0117
1487.79	168.467
1491.94	160.461
1496.09	105.115
1500.24	130.738
1504.39	261.234
1508.54	469.236
1512.68	65.0644
1516.82	226.43
1520.95	335.227
1525.09	344.012
1529.22	207.106
1533.35	390.986
1537.47	406.904
1541.6	413.352
1545.72	46.6172
1549.83	207.1
1553.95	176.135
1558.06	92.9766
1562.17	94.8574
1566.28	140.291
1570.38	230.787
