Measurement: Raman, 514 nm, depolarized, Raman Data Processed
Mineral: Dravite
Rruff sample: R040088
Ideal chemistry: NaMg_3_Al_6_(Si_6_O_18_)(BO_3_)_3_(OH)_3_OH
Locality: Yinnietharra Station, Pilbara, Western Australia, Australia
Source: University of Arizona Mineral Museum
Description: Brown short prismatic crystal
Measured chemistry: (Na_0.88_Ca_0.06_[box]_0.06_)(Mg_0.88_Al_0.10_Ti_0.04_Fe_0.02_)_3_Al_6.00_(B_1_O_3_)_3_Si_6.00_O_18_((OH)_0.98_F_0.02_)_4_
Pin_id: M00003
Orientation: Laser parallel to c* (0 0 1). Fiducial mark perpendicular to laser is parallel to a [1 0 0]
Raman shift (cm-1)	intensity
180.044	0
184.183	4.289
188.319	184.643
192.454	310.771
196.586	269.941
200.717	382.625
204.846	950.823
208.972	1659.02
213.097	2787.79
217.22	3638.35
221.341	3446.14
225.46	2450.64
229.577	1899.02
233.692	1809.62
237.805	2160.68
241.916	2578.88
246.025	2707.88
250.132	2078.16
254.237	1325.37
258.34	799.403
262.442	675.344
266.541	746.619
270.639	825.813
274.734	1027.36
278.828	901.739
282.919	480.44
287.009	247.024
291.097	34.185
295.183	197.591
299.266	326.799
303.348	225.527
307.428	187.308
311.507	255.344
315.583	177.646
319.657	123.254
323.729	126.207
327.8	482.87
331.868	783.596
335.935	1227.04
339.999	1677.42
344.062	1821.93
348.123	1912.23
352.182	2057.77
356.239	2628.56
360.294	3088.22
364.347	3956.48
368.398	4903.17
372.448	7168.34
376.495	8251.87
380.54	7113.41
384.584	5352.91
388.626	4190.57
392.666	3370.61
396.704	2772.32
400.74	2325.28
404.774	1973.71
408.806	1724.32
412.836	1413.21
416.865	1205.62
420.891	963.799
424.916	877.732
428.939	892.02
432.959	837.546
436.978	924.187
440.996	967.621
445.011	855.986
449.024	772.314
453.036	645.241
457.045	440.993
461.053	472.224
465.059	467.971
469.063	428.748
473.065	496.869
477.065	581.994
481.063	781.953
485.06	1018.93
489.054	1155.6
493.047	1526.58
497.038	1697.93
501.027	1549.91
505.014	1361.47
508.999	1045.28
512.982	830.262
516.964	508.444
520.944	582.838
524.921	701.465
528.897	1292.35
532.871	1576.51
536.844	1830.99
540.814	1695.79
544.783	1780.97
548.749	1606.61
552.714	1793.03
556.677	1710.47
560.638	1539.07
564.597	1328.88
568.555	992.988
572.511	708.383
576.464	567.096
580.416	391.936
584.366	188.838
588.315	62.599
592.261	104.89
596.206	8.239
600.148	51.029
604.089	5.73
608.028	58.253
611.965	104.079
615.901	199.849
619.834	283.359
623.766	320.509
627.696	478.533
631.624	494.071
635.551	489.207
639.475	182.639
643.398	65.976
647.318	144.118
651.237	32.956
655.155	343.398
659.07	689.272
662.984	1040.36
666.895	1193.27
670.805	960.364
674.713	781.854
678.62	725.724
682.524	713.967
686.427	574.572
690.328	765.529
694.227	789.828
698.124	1142.46
702.02	1524.51
705.913	2133.52
709.805	3025.87
713.695	4131.97
717.584	5623.74
721.47	7831.79
725.355	10548.4
729.238	10794.5
733.119	8419.22
736.998	6122.02
740.876	5135.48
744.752	4941.23
748.626	5241.71
752.498	5840.9
756.368	6916.92
760.237	7772.4
764.104	8728.02
767.969	9633.47
771.832	9888.74
775.693	10573.8
779.553	12298.6
783.411	15543.2
787.267	18467.6
791.122	19271.6
794.974	18075.3
798.825	16147.9
802.674	13582.6
806.522	12869.5
810.367	14181.7
814.211	15103.6
818.053	15385.1
821.893	12756.1
825.732	9026.77
829.568	6176.96
833.403	4536.69
837.236	3795.94
841.068	3204.72
844.898	2227.01
848.726	1125.79
852.552	459.059
856.376	136.771
860.199	31.361
864.02	121.919
867.839	192.319
871.656	170.723
875.472	149.198
879.286	185.703
883.098	82.302
886.909	51.72
890.717	57.276
894.524	147.043
898.33	193.312
902.133	319.058
905.935	491.563
909.735	669.476
913.533	711.895
917.33	889.939
921.124	988.59
924.918	1268.82
928.709	1292.48
932.499	1403.58
936.286	1682.09
940.073	1742.01
943.857	2008.33
947.64	2169.06
951.421	2424.22
955.2	2561.87
958.978	2595.06
962.753	2628.69
966.527	2722.74
970.3	2828.23
974.071	2854.15
977.84	3037.52
981.607	2992.33
985.372	2896.59
989.136	2771.32
992.898	2763.51
996.659	2924.18
1000.42	2882.32
1004.17	2872.66
1007.93	2798.88
1011.68	2719.87
1015.43	2810.21
1019.18	3105.91
1022.93	3332.55
1026.68	3532.8
1030.42	3720.8
1034.17	3967.93
1037.91	4171.59
1041.65	4841.35
1045.39	5367.11
1049.12	6202.16
1052.86	6270.89
1056.59	6180.85
1060.33	6303.1
1064.06	6798.21
1067.78	7263.5
1071.51	7276.87
1075.23	6628
1078.96	5488.4
1082.68	4467.51
1086.4	3345.64
1090.12	2793.66
1093.83	2331.56
1097.55	2159.36
1101.26	1901.06
1104.97	1846.68
1108.68	1787.21
1112.39	1826.66
1116.1	2047.04
1119.8	1308.37
1123.5	1376.64
1127.2	898.885
1130.9	600.099
1134.6	568.309
1138.3	387.54
1141.99	163.773
1145.69	125.043
1149.38	208.375
1153.07	243.791
1156.76	323.361
1160.44	260.295
1164.13	278.955
1167.81	226.945
1171.49	79.216
1175.17	36.591
1178.85	162.475
1182.52	93.986
1186.2	737.529
1189.87	120.852
1193.54	64.285
1197.21	80.114
1200.88	44.535
1204.55	30.516
1208.21	70.33
1211.88	83.929
1215.54	19.978
1219.2	71.758
1222.86	63.714
1226.51	17.561
1230.17	108.725
1233.82	148.014
1237.47	239.31
1241.12	241.593
1244.77	290.854
1248.42	475.085
1252.06	471.268
1255.71	431.443
1259.35	412.721
1262.99	613.228
1266.63	438.836
1270.26	536.037
1273.9	518.257
1277.53	600.541
1281.16	591.528
1284.8	500.065
1288.42	432.062
1292.05	270.522
1295.68	257.415
1299.3	252.648
1302.92	219.036
1306.55	338.971
1310.16	399.304
1313.78	194.241
1317.4	167.915
1321.01	71.554
1324.62	52.742
1328.24	227.15
1331.85	163.491
1335.45	234.303
1339.06	370.309
1342.66	394.858
1346.27	403.071
1349.87	465.134
1353.47	357.664
1357.07	334.815
1360.66	173.688
1364.26	262.186
1367.85	248.165
1371.44	278.718
1375.04	399.026
1378.62	437.891
1382.21	481.354
1385.8	532.324
1389.38	513.568
1392.96	432.42
1396.54	358.854
1400.12	391.961
1403.7	193.082
1407.28	359.192
1410.85	299.227
1414.42	336.121
1417.99	346.779
1421.56	285.972
1425.13	285.458
1428.7	247.306
1432.26	106.749
1435.83	20.947
1439.39	45.045
1442.95	49.197
1446.51	18.355
1450.06	41.967
1453.62	193.72
1457.17	272.915
1460.73	263.462
1464.28	325.564
1467.83	232.517
1471.37	54.586
1474.92	154.491
1478.46	203.796
1482.01	210.948
1485.55	261.304
1489.09	278.908
1492.63	337.279
1496.16	445.235
1499.7	365.541
1503.23	430.001
1506.76	258.378
1510.29	369.659
1513.82	193.72
1517.35	47.288
1520.88	0.058
1524.4	56.674
1527.92	68.575
1531.44	35.614
1534.96	0.054
