Measurement: Raman, 514 nm, depolarized, Raman Data Processed
Mineral: Dravite
Rruff sample: R060286
Ideal chemistry: NaMg_3_Al_6_(Si_6_O_18_)(BO_3_)_3_(OH)_3_OH
Locality: Badakshan Province, Afghanistan
Source: Herb Obodda
Description: Brown prismatic tourmaline crystal
Measured chemistry: (Na_0.48_Ca_0.38_[box]_0.14_)_Σ=1_(Mg_2.90_Ti_0.10_)_Σ=3_Al_6.00_(B_1.00_O_3_)_3_(Si_5.56_B_0.44_)_Σ=6_O_18_(OH)_4_; (OH) assumed from stoichiometry; B estimated by difference and charge balance
Pin_id: L01259
Orientation: Laser parallel to c* (0 0 1). Fiducial mark perpendicular to laser is parallel to a [1 0 0]
Raman shift (cm-1)	intensity
118.134	0
123.058	1040.03
127.979	1681.08
132.898	2750.45
137.814	2950.62
142.728	2986.62
147.639	3038.75
152.549	2375.92
157.455	1184.74
162.359	88.9072
167.261	29.6797
172.161	15.3896
177.058	188.892
181.952	337.81
186.845	1359.16
191.734	2942.59
196.622	4168.38
201.507	7138.03
206.389	11364.9
211.269	18348.8
216.147	19447.5
221.022	13680.4
225.895	9043.8
230.765	8014.35
235.633	9896
240.498	11369.7
245.361	9828.18
250.222	4946.47
255.08	1561.55
259.936	991.461
264.789	767.705
269.64	1575.59
274.488	2350.99
279.334	1925.1
284.178	447.389
289.019	213.766
293.857	394.609
298.693	99.291
303.527	266.914
308.358	638.1
313.187	658.912
318.013	866.318
322.837	2852.32
327.659	5450.75
332.478	8776.36
337.294	11243.3
342.108	12225.4
346.92	11392.8
351.729	11533.4
356.535	17442
361.34	22602
366.141	31718.8
370.94	38442.8
375.737	34603.2
380.531	24174.9
385.323	15674.4
390.113	10743
394.9	8009.23
399.684	6596.6
404.466	5797.03
409.245	5094.5
414.022	3181.11
418.797	2053.86
423.569	1226.77
428.338	1097.87
433.105	982.193
437.87	1256.81
442.632	1564.77
447.391	1696.41
452.149	1361.22
456.903	1442.03
461.655	1513.12
466.405	2847.44
471.152	5134.84
475.897	7597.26
480.639	9166.35
485.378	9299.36
490.116	8815.26
494.85	8704
499.582	7860.54
504.312	6353.86
509.039	4422.95
513.764	3306.77
518.486	3461.25
523.206	4730.36
527.923	6449.04
532.638	7413.25
537.35	6511.93
542.059	5481.04
546.766	4716.52
551.471	4039.32
556.173	3395.39
560.873	3849.68
565.57	2741.12
570.264	2365.65
574.957	1681.25
579.646	846.252
584.333	195.902
589.018	426.35
593.7	484.164
598.379	548.637
603.056	325.76
607.73	75.9824
612.402	37.1934
617.072	739.021
621.739	1214.04
626.403	2336.98
631.065	2747.3
635.724	1941.68
640.381	1206.02
645.035	952.246
649.687	1605.29
654.336	3208.59
658.983	4765.5
663.627	6409.51
668.268	6952.03
672.907	6550.97
677.544	6192.27
682.178	5416.84
686.809	5566.55
691.438	6337.2
696.065	8402.48
700.688	11134.4
705.31	15113.3
709.929	20679
714.545	29029.4
719.158	38055.8
723.77	40843.6
728.378	34806.9
732.984	26300.7
737.588	21120.7
742.189	20415.1
746.787	22651.3
751.383	25832.9
755.976	29977.8
760.567	32599.2
765.155	32097
769.741	30178
774.324	28355.5
778.904	26684.4
783.482	26008.6
788.058	26216.2
792.631	27204
797.201	26141.1
801.769	23674.8
806.334	21641
810.897	21543.7
815.457	21856.6
820.014	20890.7
824.569	17811.8
829.122	12923.1
833.671	8380.35
838.219	5066.64
842.763	2881.93
847.306	1276.19
851.845	190.263
856.382	301.165
860.917	380.458
865.448	498.305
869.978	481.065
874.505	393.833
879.029	128.988
883.55	12.7051
888.069	289.587
892.586	534.617
897.1	847.076
901.611	1275.35
906.12	1640.6
910.626	2113.19
915.129	2531.12
919.63	2785.97
924.129	3078.59
928.625	3399.14
933.118	3846.95
937.609	4337.91
942.097	4649.26
946.582	5424.47
951.065	5694.01
955.546	6350.86
960.023	6929.03
964.499	7635.56
968.971	8172.47
973.441	8982.8
977.909	9787.58
982.374	10105.8
986.836	9457.67
991.295	8397.66
995.753	7822.85
1000.21	7048.3
1004.66	6555.2
1009.11	6865.91
1013.55	7544.44
1018	8994.99
1022.44	10680.8
1026.88	12119.4
1031.32	14247.5
1035.75	16545.7
1040.18	19219.9
1044.61	21374.5
1049.04	22784.3
1053.46	23269.1
1057.88	24257.7
1062.3	26461.5
1066.71	28237.1
1071.13	28080.3
1075.54	25073.4
1079.94	21024.5
1084.35	16624.8
1088.75	13206.1
1093.15	10350.1
1097.55	8344.85
1101.94	6921.34
1106.34	5852.63
1110.73	5097.72
1115.11	5200.64
1119.5	5638.56
1123.88	5918.42
1128.26	5960.72
1132.63	5420.82
1137.01	3848
1141.38	2508.06
1145.75	1189.86
1150.12	572.621
1154.48	506.639
1158.84	273.963
1163.2	93.3906
1167.55	13.3594
1171.91	32.334
1176.26	86.4961
1180.61	225.478
1184.95	105.277
1189.29	154.32
1193.63	248.25
1197.97	115.861
1202.31	238.781
1206.64	25.1172
1210.97	60.5918
1215.29	737.113
1219.62	761.492
1223.94	1249.73
1228.26	1473.83
1232.57	1722.8
1236.89	1824.63
1241.2	1934.33
1245.51	2238.89
1249.81	2549.33
1254.12	2212.61
1258.42	2223.28
1262.72	2236.5
1267.01	2029.99
1271.3	2200.1
1275.59	2101.78
1279.88	1966.99
1284.17	1942.72
1288.45	1913.94
1292.73	1854.61
1297.01	1638.59
1301.28	1454.54
1305.55	1495.05
1309.82	1417.55
1314.09	1325.08
1318.35	1240.45
1322.61	1253.22
1326.87	1007.94
1331.13	983.717
1335.38	816.393
1339.63	764.59
1343.88	905.457
1348.12	770.531
1352.37	730.955
1356.61	739.6
1360.85	583.191
1365.08	775.748
1369.31	717.283
1373.54	802.818
1377.77	829.963
1381.99	1090.51
1386.22	823.375
1390.43	875.734
1394.65	687.998
1398.87	552.191
1403.08	534.326
1407.29	271.383
1411.49	246.35
1415.69	299.213
1419.89	76.125
1424.09	107.231
1428.29	66.4531
1432.48	60.9453
1436.67	64.3789
1440.86	61.7363
1445.04	144.853
1449.23	98.3633
1453.4	133.869
1457.58	81.5019
1461.76	77.5234
1465.93	93.7168
1470.1	231.111
1474.26	289.748
1478.43	342.693
1482.59	615.107
1486.75	709.154
1490.9	710.951
1495.06	744.646
1499.21	889.598
1503.35	985.309
1507.5	990.762
1511.64	1097.11
1515.78	1121.77
1519.92	1259.74
1524.05	1049.9
1528.18	889.143
1532.31	975.99
1536.44	1052.74
1540.56	666.436
1544.69	554.033
1548.8	546.305
1552.92	481.516
1557.03	318.307
1561.14	193.938
1565.25	160.641
1569.36	67.2734
