Measurement: Raman, 514 nm, ccw, Raman Data Processed
Mineral: Eckermannite
Rruff sample: R060320
Ideal chemistry: NaNa_2_(Mg_4_Al)Si_8_O_22_(OH)_2_
Locality: Norra Karr Complex, near Granna, Ostergotsland, Sweden
Source: Michael Scott
Description: Parallel aggregate of blue elongated bladed crystals
Measured chemistry: (Na_2.50_K_0.30_[box]_0.20_)_Σ=3_(Mg_2.35_Fe^2+^_1.35_Al_1.20_Mn_0.10_)_Σ=5_Si_8.00_O_22_((OH)_1.18_F_0.82_)_Σ=2_; OH estimated by charge balance, dark material
Pin_id: M01673
Orientation: Laser parallel to (1 0 1). Fiducial mark perpendicular to laser is parallel to b [0 1 0]
Raman shift (cm-1)	intensity
103.085	0
108.032	1222.71
112.976	4223.77
117.917	8248.79
122.856	10072.7
127.792	5475.02
132.725	1124.57
137.656	224.527
142.583	309.037
147.508	1062.45
152.431	3078.97
157.35	4653.49
162.267	3712.45
167.181	4591.4
172.092	6925.39
177.001	9922.97
181.907	14335
186.81	14723.5
191.711	9114.45
196.608	6636.35
201.503	9025.3
206.395	12209.7
211.285	14979.6
216.172	14518
221.056	12568.1
225.937	11995.2
230.816	10707.3
235.692	7759.83
240.565	5186.62
245.436	3861.73
250.304	3387.06
255.169	2741.38
260.031	1708.54
264.891	991.359
269.748	88.1016
274.602	153.678
279.454	71.4609
284.303	139.685
289.149	172.742
293.992	213.838
298.833	570.055
303.671	1575.01
308.507	2761.3
313.339	3943.08
318.169	4247.1
322.996	3542.35
327.821	2855.27
332.643	3174.33
337.462	3510.68
342.279	3804.94
347.092	3563.08
351.904	3650.06
356.712	3483.47
361.518	3719.73
366.321	3656.76
371.121	3719.47
375.919	3673.87
380.714	3347.94
385.506	3403.72
390.296	3926.21
395.083	4229.42
399.867	4407.04
404.649	4819.83
409.428	5474.78
414.204	6989.87
418.978	8102.58
423.749	6895.62
428.517	3529.76
433.282	1116.72
438.045	275.586
442.806	176.422
447.563	214.014
452.318	9.36523
457.07	97.9043
461.82	14.3594
466.567	47.627
471.311	124.295
476.053	146.859
480.792	153.508
485.528	200.672
490.262	456.916
494.992	558.123
499.721	910.519
504.446	1489.85
509.169	1896.36
513.89	2602.39
518.607	3135.58
523.322	3582.05
528.035	4120.82
532.745	4335.92
537.452	5271.84
542.156	6528.46
546.858	8187.94
551.557	9517.34
556.254	9407.56
560.947	7978.94
565.639	5624.09
570.327	3635.17
575.013	2669.82
579.697	1924.3
584.377	1546.41
589.055	1090.83
593.731	945.588
598.403	813.703
603.074	741.299
607.741	479.129
612.406	239.537
617.068	147.512
621.728	110.397
626.385	15.8047
631.039	36.998
635.691	233.996
640.34	594.588
644.987	656.654
649.63	734.426
654.272	1192.3
658.91	1574.6
663.546	2205.47
668.18	3611.68
672.81	6013.62
677.439	11265.6
682.064	22561.5
686.687	36241.1
691.307	33762.3
695.925	18016
700.54	8865.18
705.153	5570.93
709.763	4178.39
714.37	3413.46
718.974	3459.18
723.577	2437.72
728.176	1434.2
732.773	1111.71
737.367	737.578
741.959	657.35
746.548	846.635
751.134	1845.84
755.718	2534.87
760.299	2846.27
764.878	1931.47
769.454	920.354
774.028	182.258
778.598	98.5117
783.167	15.2324
787.732	174.91
792.295	21.3867
796.856	225.736
801.414	3.42969
805.969	136.629
810.522	23.1504
815.072	40.918
819.62	1.61719
824.165	91.8496
828.707	221.385
833.247	336.965
837.784	26.084
842.319	225.783
846.851	164.125
851.381	389.174
855.908	541.977
860.432	496.574
864.954	438.01
869.473	177.322
873.99	145.553
878.504	307.721
883.015	523.93
887.524	1089.24
892.031	1714.72
896.535	2523.7
901.036	3626.27
905.535	4676.21
910.031	5817.05
914.524	6585.95
919.015	6934.27
923.504	6121.62
927.99	5073.81
932.473	3716.46
936.954	2699.52
941.432	2060.3
945.908	1875.05
950.381	1746.09
954.852	2367.78
959.32	3610.83
963.785	4638.76
968.248	6242.48
972.708	7415.24
977.166	9353.41
981.622	12151.3
986.074	14408.2
990.525	15370.2
994.972	15202.3
999.417	13713.4
1003.86	12105.3
1008.3	11007
1012.74	10305.4
1017.17	9044.91
1021.61	7331.56
1026.04	5948.53
1030.46	4322.2
1034.89	3316.18
1039.31	2838.27
1043.73	2385.84
1048.15	2537.52
1052.56	2129.33
1056.97	2267.97
1061.38	2522
1065.79	2530.83
1070.19	3038.15
1074.6	4151.56
1079	5782.5
1083.39	8509.22
1087.79	9226.88
1092.18	6647.99
1096.57	4574.22
1100.96	3497.48
1105.34	2869.35
1109.72	2875.82
1114.1	2660.85
1118.48	2273.43
1122.85	2186.52
1127.22	1944.16
1131.6	1646.28
1135.96	1250.8
1140.33	1114.7
1144.69	848.947
1149.05	852.51
1153.4	534.361
1157.76	842.586
1162.11	463.971
1166.46	270.553
1170.81	150.752
1175.15	94.918
1179.49	39.459
1183.83	98.2891
1188.17	115.586
1192.5	109.467
1196.84	36.416
1201.16	371.287
1205.49	94.9824
1209.82	119.691
1214.14	25.3418
1218.46	3.56641
1222.77	32.9062
1227.09	378.58
1231.4	67.0664
1235.71	319.975
1240.02	342.342
1244.32	401.486
1248.62	249.709
1252.92	382.16
1257.22	508.535
1261.51	578.172
1265.81	551.391
1270.1	321.17
1274.38	417.51
1278.67	577.402
1282.95	524.844
1287.23	696.58
1291.51	416.242
1295.78	653.432
1300.05	532.031
1304.32	516.664
1308.59	711.715
1312.86	438.156
1317.12	529.299
1321.38	547.424
1325.63	474.932
1329.89	542.141
1334.14	514.354
1338.39	247.143
1342.64	381.789
1346.88	208.803
1351.13	173.83
1355.37	239.5
1359.61	151.877
1363.84	408.059
1368.07	127.818
1372.3	26.3516
1376.53	455.32
1380.76	105.016
1384.98	355.199
1389.2	318.312
1393.42	190.438
1397.64	171.441
1401.85	184.715
1406.06	132.492
1410.27	385.668
1414.47	211.715
1418.68	252.402
1422.88	154.164
1427.08	230.023
1431.27	583.117
1435.47	676.727
1439.66	961.227
1443.85	1352.25
1448.03	978.035
1452.22	1022.65
1456.4	1131.98
1460.58	942.066
1464.76	553.762
1468.93	584.898
1473.1	269.531
1477.27	205.211
1481.44	242.387
1485.6	168.848
1489.77	236.574
1493.92	129.621
1498.08	40.5039
1502.24	200.629
1506.39	259.211
1510.54	121.301
1514.69	259.941
1518.83	134.352
1522.97	264.539
1527.12	153.129
1531.25	110.438
1535.39	302.484
1539.52	85.7578
1543.65	178.723
1547.78	512.769
1551.91	422.938
1556.03	41.4219
1560.15	184.644
1564.27	18.7422
1568.39	247.09
1572.5	347.121
1576.61	0
