Measurement: Raman, 514 nm, ccw, Raman Data Processed
Mineral: Eckermannite
Rruff sample: R060320
Ideal chemistry: NaNa_2_(Mg_4_Al)Si_8_O_22_(OH)_2_
Locality: Norra Karr Complex, near Granna, Ostergotsland, Sweden
Source: Michael Scott
Description: Parallel aggregate of blue elongated bladed crystals
Measured chemistry: (Na_2.50_K_0.30_[box]_0.20_)_Σ=3_(Mg_2.35_Fe^2+^_1.35_Al_1.20_Mn_0.10_)_Σ=5_Si_8.00_O_22_((OH)_1.18_F_0.82_)_Σ=2_; OH estimated by charge balance, dark material
Pin_id: M01072
Orientation: Laser parallel to -c* (0 0 -1). Fiducial mark perpendicular to laser is parallel to -a [-1 0 0]
Raman shift (cm-1)	intensity
102.823	0
107.744	853.988
112.662	1372.24
117.578	3395.67
122.492	4605
127.403	2246.77
132.312	346.607
137.22	169.062
142.124	206.02
147.027	1812.24
151.927	5171.72
156.826	6992.01
161.721	4285.27
166.615	3921.04
171.507	6427.12
176.396	10609.5
181.283	14416.5
186.167	14015.5
191.05	8437.25
195.93	5503.66
200.808	6468.56
205.683	9247.33
210.557	12713.2
215.428	14246.4
220.296	15641
225.163	17527.1
230.027	16922.2
234.889	12240.2
239.749	8824.98
244.606	7420.47
249.461	6928.07
254.314	6307.28
259.164	4434.6
264.012	2590.06
268.858	1296.7
273.702	567.401
278.543	438.708
283.382	315.066
288.218	228.699
293.053	306.292
297.885	952.069
302.714	1831.17
307.542	3385.65
312.366	4729.76
317.189	4973.99
322.009	4060.08
326.827	3016.89
331.643	2923.88
336.456	3186.81
341.267	3152.49
346.076	3061.76
350.882	2826.21
355.686	2664.82
360.488	2576.51
365.287	2824.12
370.084	2618.58
374.878	2548.86
379.67	2448.93
384.46	2392.77
389.247	2758.35
394.032	2945.68
398.815	3199.05
403.595	3385.42
408.373	4034.75
413.148	5386.02
417.922	6810.23
422.692	6035.31
427.461	3159.37
432.226	1220.4
436.99	335.666
441.751	81.771
446.51	188.612
451.266	83.4136
456.02	106.202
460.772	134.402
465.521	97.0742
470.267	92.6397
475.012	40.0395
479.754	207.185
484.493	418.159
489.23	451.187
493.965	649.542
498.697	1019.97
503.427	1497.31
508.154	2151.97
512.879	2542.05
517.601	2678.63
522.321	2794.71
527.039	3060.25
531.754	3627.48
536.467	4411.28
541.177	6330.75
545.885	8565.78
550.59	10334.1
555.293	10699.5
559.993	8784.68
564.691	6335.73
569.387	4002.6
574.08	2777.26
578.77	1811.54
583.459	1481.95
588.144	916.115
592.827	702.246
597.508	473.601
602.186	398.21
606.862	178.681
611.535	44.8232
616.206	49.6143
620.874	19.9434
625.54	124.238
630.204	175.512
634.864	257.769
639.523	378.345
644.179	518.302
648.832	757.26
653.483	1186.41
658.131	1583.58
662.777	2327.71
667.42	3483.73
672.061	6075.84
676.699	11755.5
681.335	23679.1
685.968	39490.7
690.599	38095.3
695.227	20943.9
699.853	10291.7
704.476	6033.61
709.097	4404.08
713.715	3548.42
718.331	2882.65
722.944	2281.11
727.554	1531.97
732.162	1020.4
736.768	633.928
741.371	697.062
745.971	834.141
750.569	1080.35
755.164	1436.79
759.757	1644.55
764.347	1214.67
768.935	702.465
773.52	380.773
778.103	205.591
782.683	126.818
787.26	2.02881
791.835	58.9419
796.407	47.5957
800.977	60.5586
805.544	59.8008
810.109	130.859
814.671	153.696
819.23	126.429
823.787	19.7144
828.341	26.9678
832.893	63.2051
837.442	134.145
841.989	167.83
846.533	150.309
851.074	129.626
855.613	131.779
860.149	71.9292
864.683	132.985
869.214	134.012
873.742	159.035
878.268	281.099
882.791	402.248
887.312	586.566
891.83	1014.29
896.345	1656.54
900.858	2315.27
905.368	3202.28
909.876	4199.56
914.381	4963.27
918.883	5471.65
923.383	4895.96
927.88	4259.55
932.374	3291.52
936.866	2859.62
941.355	2475.28
945.842	2232.08
950.326	2403.17
954.807	3141.23
959.286	3679.81
963.762	4435.19
968.235	5647.43
972.706	7693.21
977.174	10515.8
981.64	13945.5
986.103	17380.2
990.563	18523.9
995.021	17476.5
999.476	15420.1
1003.93	12916.6
1008.38	10840
1012.83	9446.33
1017.27	7471.56
1021.71	5779.01
1026.15	4374.72
1030.59	3121.63
1035.02	2540.41
1039.45	2087.62
1043.88	1830.83
1048.31	1747.85
1052.73	1849.78
1057.15	1982.83
1061.57	2377.22
1065.98	2799.86
1070.39	3603.71
1074.8	5404.23
1079.21	8154.02
1083.62	12208.3
1088.02	13360.8
1092.41	9413.33
1096.81	5621.45
1101.2	3759.88
1105.6	3013.11
1109.98	2561.08
1114.37	2201.19
1118.75	1926.24
1123.13	1994.56
1127.51	1809.53
1131.88	1677.32
1136.26	1392.89
1140.63	1329.28
1144.99	1121.66
1149.36	934.696
1153.72	763.374
1158.08	542.892
1162.43	498.707
1166.79	251.644
1171.14	170.767
1175.48	126.66
1179.83	15.6528
1184.17	18.6201
1188.51	41.5161
1192.85	122.431
1197.18	22.9409
1201.51	1.7334
1205.84	77.7471
1210.17	6.51025
1214.49	0.00293
1218.81	20.3213
1223.13	63.6201
1227.44	0.902832
1231.76	59.9014
1236.07	19.3013
1240.37	56.3247
1244.68	1.49951
1248.98	3.02295
1253.28	85.6675
1257.57	172.758
1261.87	106.154
1266.16	158.517
1270.44	158.468
1274.73	168.155
1279.01	281.303
1283.29	133.834
1287.57	223.716
1291.84	296.225
1296.11	279.376
1300.38	346.566
1304.65	335.844
1308.91	297.059
1313.17	272.484
1317.43	301.981
1321.68	251.792
1325.93	316.628
1330.18	352.172
1334.43	314.376
1338.67	205.139
1342.91	265.653
1347.15	286.421
1351.39	150.009
1355.62	183.097
1359.85	163.78
1364.08	223.237
1368.3	238.517
1372.52	216.106
1376.74	243.663
1380.95	192.764
1385.17	192.443
1389.38	146.691
1393.59	219.286
1397.79	133.415
1401.99	90.5259
1406.19	166.036
1410.39	124.883
1414.58	145.259
1418.77	168.353
1422.96	123.078
1427.14	179.437
1431.33	82.8379
1435.51	63.1724
1439.68	194.196
1443.86	196.651
1448.03	181.706
1452.2	32.1934
1456.36	4.97754
1460.53	52.5459
1464.68	96.4912
1468.84	33.2822
1473	114.685
1477.15	46.5444
1481.3	27.3447
1485.44	21.3193
1489.59	79.6675
1493.73	167.748
1497.86	17.0649
1502	81.1768
1506.13	54.2822
1510.26	77.1646
1514.38	94.6079
1518.51	108.865
1522.63	108.464
1526.75	72.8042
1530.86	68.0347
1534.97	116.419
1539.08	42.998
1543.19	81.6177
1547.29	132.084
1551.39	149.832
1555.49	143.261
1559.59	73.6108
1563.68	76.1621
1567.77	70.7192
1571.85	55.7642
1575.94	0.206055
