Measurement: Raman, 514 nm, depolarized, Raman Data Processed
Mineral: Eckermannite
Rruff sample: R060320
Ideal chemistry: NaNa_2_(Mg_4_Al)Si_8_O_22_(OH)_2_
Locality: Norra Karr Complex, near Granna, Ostergotsland, Sweden
Source: Michael Scott
Description: Parallel aggregate of blue elongated bladed crystals
Measured chemistry: (Na_2.50_K_0.30_[box]_0.20_)_Σ=3_(Mg_2.35_Fe^2+^_1.35_Al_1.20_Mn_0.10_)_Σ=5_Si_8.00_O_22_((OH)_1.18_F_0.82_)_Σ=2_; OH estimated by charge balance, dark material
Pin_id: M01072
Orientation: Laser parallel to -c* (0 0 -1). Fiducial mark perpendicular to laser is parallel to -a [-1 0 0]
Raman shift (cm-1)	intensity
102.823	0
107.744	527.743
112.662	1031.18
117.578	2384.81
122.492	2622.34
127.403	958.965
132.312	75.1543
137.22	164.457
142.124	498.71
147.027	2664.48
151.927	6753.48
156.826	9496.99
161.721	5995.03
166.615	5039.25
171.507	7715.39
176.396	12069.3
181.283	16073.1
186.167	15103.9
191.05	9877.22
195.93	6776.25
200.808	8145.18
205.683	11669.1
210.557	15847.3
215.428	18335
220.296	20472.7
225.163	23782.7
230.027	23902.6
234.889	17793.4
239.749	12543.9
244.606	10010
249.461	8688.82
254.314	7452.71
259.164	5669.13
264.012	3760.36
268.858	2355.35
273.702	1352
278.543	899.311
283.382	762.915
288.218	557.037
293.053	785.854
297.885	1044.45
302.714	2154.54
307.542	3835.2
312.366	5561.48
317.189	5902.11
322.009	4741.04
326.827	3114.67
331.643	2377.51
336.456	2378.19
341.267	2321.35
346.076	2216.87
350.882	1861.56
355.686	1781.05
360.488	1749.14
365.287	1768.68
370.084	1946.58
374.878	2073.8
379.67	2057.29
384.46	2568.02
389.247	2946.95
394.032	3520.09
398.815	3774.94
403.595	4136.48
408.373	4826.6
413.148	6428.26
417.922	8266.41
422.692	7648.93
427.461	5305.02
432.226	1631.53
436.99	539.195
441.751	67.9526
446.51	67.3965
451.266	46.4683
456.02	145.758
460.772	241.95
465.521	221.143
470.267	65.4356
475.012	5.50586
479.754	164.168
484.493	342.278
489.23	650.51
493.965	798.065
498.697	1103.55
503.427	1625.89
508.154	2470.73
512.879	2909.14
517.601	2947.11
522.321	2957.73
527.039	3085.25
531.754	3827.73
536.467	4994.37
541.177	7205.88
545.885	10214.6
550.59	12625.5
555.293	12946.2
559.993	10885.1
564.691	7619.9
569.387	4762.74
574.08	3255.54
578.77	2175.28
583.459	1631.86
588.144	1289.71
592.827	950.171
597.508	778.23
602.186	704.43
606.862	322.033
611.535	75.5425
616.206	50.436
620.874	28.7817
625.54	33.0381
630.204	156.906
634.864	291.459
639.523	431.287
644.179	652.662
648.832	958.872
653.483	1307.57
658.131	1743.42
662.777	2722.14
667.42	4217.63
672.061	7093.36
676.699	13937.6
681.335	27609.2
685.968	47180.7
690.599	47561.3
695.227	26242.2
699.853	12851.8
704.476	7493.17
709.097	5223.41
713.715	4331.52
718.331	3900.53
722.944	2951.43
727.554	1865.4
732.162	1136.71
736.768	829.633
741.371	796.523
745.971	794.595
750.569	1004.93
755.164	1235.33
759.757	1433.08
764.347	1125.55
768.935	573.426
773.52	236.307
778.103	164.273
782.683	18.6138
787.26	15.959
791.835	8.22021
796.407	7.33057
800.977	124.938
805.544	129.095
810.109	155.33
814.671	97.8315
819.23	85.0327
823.787	10.5386
828.341	76.5698
832.893	138.689
837.442	84.6655
841.989	173.414
846.533	118.971
851.074	199.378
855.613	69.6714
860.149	141.89
864.683	72.0713
869.214	140.245
873.742	131.439
878.268	217.674
882.791	335.975
887.312	596.471
891.83	905.385
896.345	1392.93
900.858	2120.25
905.368	2902.85
909.876	3977.71
914.381	4855.55
918.883	5205.16
923.383	4669.96
927.88	3899.46
932.374	3126.88
936.866	2595
941.355	2231.16
945.842	1944.61
950.326	1969.64
954.807	2250.39
959.286	3005.09
963.762	3659.74
968.235	4637.36
972.706	5990.27
977.174	7851.45
981.64	10846.3
986.103	12390.1
990.563	13180.8
995.021	12558.3
999.476	10997.8
1003.93	9487.19
1008.38	8163.5
1012.83	7105.73
1017.27	6006.86
1021.71	4941.89
1026.15	3929.83
1030.59	2992.68
1035.02	2405.4
1039.45	2453.98
1043.88	1812.55
1048.31	1945.05
1052.73	1881.44
1057.15	2121.65
1061.57	2427.02
1065.98	2917.4
1070.39	3973.18
1074.8	5950.51
1079.21	9283.29
1083.62	13492.9
1088.02	15428.6
1092.41	10848
1096.81	6525.85
1101.2	4381.68
1105.6	3298.14
1109.98	2686.66
1114.37	2467.14
1118.75	2269.09
1123.13	2154.51
1127.51	2032.86
1131.88	1764.85
1136.26	1632.46
1140.63	1502.8
1144.99	1275.4
1149.36	959.464
1153.72	862.329
1158.08	697.142
1162.43	448.497
1166.79	287.757
1171.14	183.339
1175.48	102.643
1179.83	7.11084
1184.17	113.134
1188.51	36.9224
1192.85	146.248
1197.18	84.7222
1201.51	43.0557
1205.84	54.1792
1210.17	68.2236
1214.49	2.86035
1218.81	117.901
1223.13	34.7422
1227.44	43.5102
1231.76	75.5112
1236.07	93.9111
1240.37	120.216
1244.68	38.0234
1248.98	96.3901
1253.28	98.9541
1257.57	174.591
1261.87	81.6865
1266.16	152.168
1270.44	156.103
1274.73	210.485
1279.01	176.298
1283.29	253.014
1287.57	325.676
1291.84	323.714
1296.11	219.052
1300.38	330.004
1304.65	269.314
1308.91	331.757
1313.17	361.653
1317.43	275.573
1321.68	320.37
1325.93	238.084
1330.18	347.991
1334.43	273.818
1338.67	198.154
1342.91	261.688
1347.15	293.159
1351.39	133.195
1355.62	154.458
1359.85	119.119
1364.08	280.039
1368.3	134.235
1372.52	137.459
1376.74	233.521
1380.95	152.48
1385.17	138.583
1389.38	165.457
1393.59	120.316
1397.79	143.41
1401.99	155.649
1406.19	116.936
1410.39	141.054
1414.58	105.133
1418.77	74.5854
1422.96	93.9463
1427.14	132.679
1431.33	129.628
1435.51	159.367
1439.68	189.164
1443.86	152.456
1448.03	155.527
1452.2	166.501
1456.36	78.6436
1460.53	65.3691
1464.68	17.7856
1468.84	119.124
1473	124.713
1477.15	64.8931
1481.3	11.2036
1485.44	75.7188
1489.59	80.6328
1493.73	112.615
1497.86	69.9814
1502	130.722
1506.13	84.7734
1510.26	84.1011
1514.38	102.819
1518.51	129.864
1522.63	301.561
1526.75	39.9092
1530.86	81.0947
1534.97	11.0679
1539.08	49.1812
1543.19	130.94
1547.29	47.6641
1551.39	226.644
1555.49	344.748
1559.59	27.752
1563.68	155.44
1567.77	68.2891
1571.85	70.3164
1575.94	0.36377
