Measurement: Raman, 514 nm, ccw, Raman Data Processed
Mineral: Eckermannite
Rruff sample: R060320
Ideal chemistry: NaNa_2_(Mg_4_Al)Si_8_O_22_(OH)_2_
Locality: Norra Karr Complex, near Granna, Ostergotsland, Sweden
Source: Michael Scott
Description: Parallel aggregate of blue elongated bladed crystals
Measured chemistry: (Na_2.50_K_0.30_[box]_0.20_)_Σ=3_(Mg_2.35_Fe^2+^_1.35_Al_1.20_Mn_0.10_)_Σ=5_Si_8.00_O_22_((OH)_1.18_F_0.82_)_Σ=2_; OH estimated by charge balance, dark material
Pin_id: M00815
Orientation: Laser parallel to a* (1 0 0). Fiducial mark perpendicular to laser is parallel to b [0 1 0]
Raman shift (cm-1)	intensity
136.684	0
141.592	493.078
146.499	13.6543
151.402	463.897
156.304	372.666
161.203	534.711
166.099	1620.7
170.993	2722.12
175.885	4602.15
180.774	7278.7
185.661	9528.04
190.545	9410.41
195.427	9405.43
200.307	12459.7
205.184	18673.3
210.059	25711.8
214.931	26900.6
219.801	21800
224.668	16021.5
229.533	11065
234.396	8314.85
239.256	6691.68
244.114	5084.06
248.969	4384.94
253.822	3773.9
258.672	3162.81
263.52	1665.64
268.365	1074.81
273.208	511.647
278.049	100.012
282.887	296.514
287.723	288.957
292.556	303.598
297.387	493.852
302.215	1694
307.041	4271.38
311.865	7934.72
316.686	10621.2
321.504	9401.43
326.32	7047.36
331.134	4055.78
335.945	2431.38
340.754	1996.07
345.56	1959.67
350.364	2947.9
355.165	4875.74
359.964	7471.91
364.76	9821.1
369.554	9543.16
374.346	8838.92
379.135	7652.26
383.921	8005.11
388.705	9696.45
393.487	11449.2
398.266	11142.5
403.043	10191.1
407.817	9979.06
412.589	11127.4
417.358	14225.1
422.125	16389.9
426.889	11466.1
431.651	5300.84
436.41	2099.39
441.167	481.268
445.921	43.0098
450.673	209.402
455.423	271.353
460.17	37.9316
464.914	4.40625
469.656	97.6348
474.396	643.061
479.133	1729.63
483.867	2703.16
488.599	3177.83
493.329	2501.07
498.056	1877.84
502.78	1547.91
507.502	1500.72
512.222	2519.36
516.939	3143.75
521.654	3870.42
526.366	4702.02
531.075	5866.72
535.782	7190.12
540.487	9282.16
545.189	11554.9
549.889	14603.2
554.586	15597.2
559.28	14346.7
563.973	11372.8
568.662	8785.92
573.349	6861.64
578.034	5819.93
582.716	4981.8
587.396	4362.5
592.073	3274.1
596.747	2693.28
601.419	2053.27
606.089	1179.64
610.756	468.35
615.42	55.2402
620.082	82.0996
624.742	146.074
629.399	191.734
634.053	56.7988
638.705	313.584
643.355	617.867
648.002	922.781
652.646	1333.91
657.288	1824.27
661.927	2685.25
666.564	3904.5
671.199	6068.31
675.831	10327.7
680.46	20080.4
685.087	40122.3
689.711	55652.4
694.333	39348.2
698.952	19920.8
703.569	10671
708.183	7270.05
712.794	7163.93
717.403	6683.37
722.01	5755.61
726.614	4388.34
731.216	2423.11
735.815	1924.1
740.411	1664.61
745.005	1529.29
749.596	1699.69
754.185	2339.36
758.772	2919.63
763.355	3022.68
767.937	2009.8
772.515	1338.73
777.091	380.342
781.665	55.3711
786.236	144.67
790.805	212.565
795.371	87.8691
799.934	78.0059
804.495	121.117
809.054	89.1367
813.61	176.734
818.163	16.0039
822.714	115.893
827.262	344.584
831.808	204.107
836.351	635.502
840.891	443.812
845.429	292.072
849.965	235.328
854.498	62.3867
859.028	59.8848
863.556	6.24609
868.082	48.584
872.604	37.543
877.125	277.891
881.642	696.457
886.157	1392.28
890.67	2307.65
895.18	3170.89
899.687	3965.82
904.192	4721.27
908.695	4757.07
913.194	5194.88
917.692	5044.5
922.186	4458.74
926.678	3573.41
931.168	2551.63
935.655	1610.4
940.139	1015.23
944.621	673.648
949.101	329.848
953.577	263.195
958.052	566.113
962.523	1085.92
966.992	1479.44
971.459	1761.51
975.923	2032.84
980.384	2765.36
984.843	2887.82
989.299	4120.97
993.753	4620.72
998.204	5075.55
1002.65	5649.45
1007.1	4770.32
1011.54	3999.62
1015.98	3621.1
1020.42	3358.62
1024.86	3169.28
1029.29	2661.99
1033.72	2264.71
1038.15	2587.43
1042.57	2352.62
1047	1954.18
1051.42	1947.79
1055.84	2011.75
1060.25	2224.48
1064.66	2301.12
1069.07	2808.61
1073.48	2714.7
1077.88	3106.57
1082.29	4096.96
1086.69	4563.51
1091.08	4177.4
1095.48	3238.51
1099.87	3322.19
1104.26	3363.4
1108.65	3298.14
1113.03	3723.38
1117.41	3490.1
1121.79	2684.45
1126.17	2165.09
1130.54	1881.66
1134.91	1702.27
1139.28	1240.19
1143.65	1005.21
1148.01	747.809
1152.37	960.906
1156.73	674.492
1161.09	517.922
1165.44	263.5
1169.79	30.2539
1174.14	297.121
1178.48	116.988
1182.83	230.859
1187.17	448.789
1191.51	98.7383
1195.84	363.348
1200.17	327.691
1204.5	71.082
1208.83	243.055
1213.15	87.5352
1217.48	42.5664
1221.8	397.676
1226.11	428.922
1230.43	501.941
1234.74	429.644
1239.05	292.156
1243.36	369.305
1247.66	719.152
1251.96	689.34
1256.26	654.992
1260.56	429.566
1264.85	417.719
1269.14	349.254
1273.43	295.875
1277.71	576.465
1282	133.93
1286.28	220.019
1290.56	357.094
1294.83	520.617
1299.11	622.578
1303.38	542.672
1307.64	736.856
1311.91	725.492
1316.17	567.617
1320.43	595.231
1324.69	610.535
1328.94	188.769
1333.19	299.75
1337.44	0.324219
1341.69	273.023
1345.93	353.453
1350.18	114.57
1354.41	191.164
1358.65	202.32
1362.89	134.227
1367.12	259.723
1371.35	489.312
1375.57	185.891
1379.8	167.644
1384.02	121.633
1388.23	11.9492
1392.45	31.3281
1396.66	3.44531
1400.87	190.574
1405.08	298.621
1409.29	325.324
1413.49	257.82
1417.69	350.93
1421.89	37.3047
1426.08	294.555
1430.27	412.555
1434.46	522.769
1438.65	785.672
1442.83	939.789
1447.02	503.578
1451.19	740.113
1455.37	956.352
1459.55	600.418
1463.72	823.441
1467.88	639.445
1472.05	718.062
1476.21	684.477
1480.38	572.754
1484.53	182.797
1488.69	412.906
1492.84	52.5039
1496.99	327.074
1501.14	40.7734
1505.29	467.981
1509.43	383.797
1513.57	260.777
1517.71	418.008
1521.84	462.789
1525.97	34.2266
1530.1	69.0547
1534.23	388.215
1538.35	440.188
1542.47	268.848
1546.59	277.047
1550.71	480.559
1554.82	488.035
1558.94	6.10547
1563.04	683.356
1567.15	128.398
1571.25	160.852
1575.35	411.672
