Measurement: Raman, 514 nm, ccw, Raman Data Processed
Mineral: Eckermannite
Rruff sample: R060320
Ideal chemistry: NaNa_2_(Mg_4_Al)Si_8_O_22_(OH)_2_
Locality: Norra Karr Complex, near Granna, Ostergotsland, Sweden
Source: Michael Scott
Description: Parallel aggregate of blue elongated bladed crystals
Measured chemistry: (Na_2.50_K_0.30_[box]_0.20_)_Σ=3_(Mg_2.35_Fe^2+^_1.35_Al_1.20_Mn_0.10_)_Σ=5_Si_8.00_O_22_((OH)_1.18_F_0.82_)_Σ=2_; OH estimated by charge balance, dark material
Pin_id: M01673
Orientation: Laser parallel to (1 0 1). Fiducial mark perpendicular to laser is parallel to b [0 1 0]
Raman shift (cm-1)	intensity
103.085	0
108.032	1083.21
112.976	3078.64
117.917	4479.81
122.856	2979.7
127.792	813.926
132.725	170.328
137.656	97.7441
142.583	592.328
147.508	3202.24
152.431	8655.46
157.35	11864.8
162.267	7694.07
167.181	7381.98
172.092	12139.4
177.001	20239.5
181.907	27303.6
186.81	26488.4
191.711	17042.8
196.608	12833.8
201.503	15283
206.395	21824.4
211.285	28898.9
216.172	32964.6
221.056	35245
225.937	41571.2
230.816	43294.3
235.692	32200.6
240.565	21217.1
245.436	16045.7
250.304	13001.2
255.169	10886.7
260.031	8296.87
264.891	5316.51
269.748	2912.66
274.602	1367.74
279.454	824.244
284.303	405.334
289.149	127.488
293.992	168.002
298.833	1066.28
303.671	2540.83
308.507	5005.81
313.339	8139.55
318.169	8041
322.996	6321.78
327.821	3232.09
332.643	2609.98
337.462	2369.44
342.279	2463.84
347.092	2292.83
351.904	2363.02
356.712	2866.48
361.518	3346.79
366.321	4093.72
371.121	5125.05
375.919	5810.7
380.714	5544.67
385.506	5338.95
390.296	5783.52
395.083	6625.37
399.867	6879.54
404.649	6843.02
409.428	7911.88
414.204	10782.3
418.978	14402.3
423.749	13110.9
428.517	7083.08
433.282	3012.08
438.045	1732.26
442.806	954.615
447.563	845.023
452.318	532.361
457.07	52.3574
461.82	204.822
466.567	563.428
471.311	83.8828
476.053	503.625
480.792	185.846
485.528	94.8008
490.262	421.805
494.992	1276.27
499.721	1880.96
504.446	2268.38
509.169	2630.01
513.89	3017.63
518.607	3349.95
523.322	3526.53
528.035	4655.77
532.745	5983.96
537.452	8207.57
542.156	11398.5
546.858	15990.9
551.557	20353.1
556.254	22097.6
560.947	19360.4
565.639	13427.4
570.327	8648.63
575.013	5164.93
579.697	3716.3
584.377	2632.74
589.055	1885.68
593.731	1642.57
598.403	1523.97
603.074	1303.06
607.741	702.025
612.406	549.055
617.068	114.838
621.728	261.094
626.385	114.728
631.039	258.904
635.691	325.969
640.34	843.166
644.987	1360.61
649.63	1720.84
654.272	2851.61
658.91	3457.16
663.546	5005.03
668.18	7842.75
672.81	12874.2
677.439	24628
682.064	48957.2
686.687	84945.7
691.307	85198.5
695.925	44870.2
700.54	21957.4
705.153	14470.8
709.763	10755.6
714.37	9618.76
718.974	9381.31
723.577	7677.3
728.176	4582.76
732.773	2491.78
737.367	1554.52
741.959	1289.63
746.548	1088.97
751.134	1199.35
755.718	1560.38
760.299	1870.87
764.878	1580.74
769.454	999.488
774.028	290.607
778.598	96.4434
783.167	46.6289
787.732	300.598
792.295	597.141
796.856	329.213
801.414	106.65
805.969	79.0117
810.522	433.967
815.072	182.236
819.62	41.0938
824.165	113.656
828.707	43.4727
833.247	67.666
837.784	108.518
842.319	299.402
846.851	674.107
851.381	1527.71
855.908	2078.25
860.432	2156.2
864.954	1757.43
869.473	1005.17
873.99	746.104
878.504	984.266
883.015	1287.71
887.524	2301.51
892.031	3390.76
896.535	4916.52
901.036	6683.76
905.535	9294.48
910.031	12128.5
914.524	14635
919.015	15365.6
923.504	14025.7
927.99	10695.2
932.473	7529.4
936.954	4541.8
941.432	2700.82
945.908	1546.02
950.381	1497.65
954.852	2217.03
959.32	3980.08
963.785	6876.5
968.248	8414.85
972.708	6948.91
977.166	5570.33
981.622	5345.31
986.074	6034.85
990.525	6567.99
994.972	6597.72
999.417	6595.07
1003.86	6300.03
1008.3	5749.62
1012.74	5929.84
1017.17	5476.7
1021.61	4883.2
1026.04	4222.33
1030.46	3704.52
1034.89	3461.48
1039.31	3447.5
1043.73	3478.14
1048.15	3008.42
1052.56	3050.3
1056.97	3110.71
1061.38	3319.21
1065.79	4078.39
1070.19	5352.13
1074.6	7917.69
1079	12485.5
1083.39	18589.2
1087.79	21229.4
1092.18	15213.8
1096.57	9512.58
1100.96	6755.25
1105.34	5721
1109.72	5452.36
1114.1	5643.49
1118.48	4958.35
1122.85	4104.01
1127.22	3620.09
1131.6	3003.88
1135.96	2687.23
1140.33	2278.09
1144.69	1760.42
1149.05	1554.17
1153.4	1472.3
1157.76	1140.77
1162.11	784.529
1166.46	479.519
1170.81	182.701
1175.15	94.9766
1179.49	10.6836
1183.83	56.4141
1188.17	0.611328
1192.5	123.904
1196.84	421.914
1201.16	268.019
1205.49	347.418
1209.82	106.602
1214.14	349.527
1218.46	83.6738
1222.77	102.144
1227.09	171.725
1231.4	149.586
1235.71	245.635
1240.02	385.289
1244.32	397.922
1248.62	545.783
1252.92	448.002
1257.22	538.576
1261.51	665.502
1265.81	586.711
1270.1	694.283
1274.38	786.014
1278.67	585.982
1282.95	471.994
1287.23	561.463
1291.51	673.279
1295.78	779.941
1300.05	899.244
1304.32	640.875
1308.59	736.787
1312.86	948.484
1317.12	641.762
1321.38	766.15
1325.63	563.814
1329.89	517.609
1334.14	276.361
1338.39	354.141
1342.64	267.365
1346.88	190.129
1351.13	295.732
1355.37	163.033
1359.61	120.299
1363.84	441.443
1368.07	233.377
1372.3	295.758
1376.53	292.312
1380.76	228.197
1384.98	324.783
1389.2	268.475
1393.42	250.498
1397.64	180.324
1401.85	204.94
1406.06	298.58
1410.27	288.547
1414.47	67.3945
1418.68	265.533
1422.88	219.809
1427.08	494.133
1431.27	603.195
1435.47	858.988
1439.66	1258.12
1443.85	1435.91
1448.03	1909.61
1452.22	1698.02
1456.4	1590.61
1460.58	1177.81
1464.76	893.768
1468.93	748.682
1473.1	671.746
1477.27	357.033
1481.44	536.004
1485.6	397.535
1489.77	173.695
1493.92	22.1191
1498.08	63.4492
1502.24	47.4648
1506.39	105.891
1510.54	187.084
1514.69	299.295
1518.83	135.789
1522.97	120.109
1527.12	273.832
1531.25	199.062
1535.39	264.846
1539.52	94.3633
1543.65	209.205
1547.78	230.596
1551.91	402.807
1556.03	26.791
1560.15	48.3809
1564.27	58.4355
1568.39	74.9551
1572.5	16.75
1576.61	0
