Measurement: Raman, 514 nm, ccw, Raman Data Processed
Mineral: Eckermannite
Rruff sample: R060320
Ideal chemistry: NaNa_2_(Mg_4_Al)Si_8_O_22_(OH)_2_
Locality: Norra Karr Complex, near Granna, Ostergotsland, Sweden
Source: Michael Scott
Description: Parallel aggregate of blue elongated bladed crystals
Measured chemistry: (Na_2.50_K_0.30_[box]_0.20_)_Σ=3_(Mg_2.35_Fe^2+^_1.35_Al_1.20_Mn_0.10_)_Σ=5_Si_8.00_O_22_((OH)_1.18_F_0.82_)_Σ=2_; OH estimated by charge balance, dark material
Pin_id: M01619
Orientation: Laser parallel to b* (0 1 0). Fiducial mark perpendicular to laser is parallel to -c [0 0 -1]
Raman shift (cm-1)	intensity
136.684	0
141.592	441.973
146.499	429.586
151.402	3080.63
156.304	8329.65
161.203	8191.27
166.099	6292.52
170.993	8568.9
175.885	16608.4
180.774	28368.2
185.661	37312.7
190.545	33184.8
195.427	25659
200.307	25264.2
205.184	35082.8
210.059	48483.8
214.931	56610.9
219.801	51776.3
224.668	46507.4
229.533	45322.8
234.396	37783.6
239.256	26169.1
244.114	18551.8
248.969	14982
253.822	12260.3
258.672	10554.3
263.52	6979.83
268.365	3627.64
273.208	1065.5
278.049	65.8359
282.887	269.488
287.723	234.68
292.556	363.269
297.387	458.285
302.215	848.508
307.041	4244.38
311.865	9515.33
316.686	13095.2
321.504	11319.2
326.32	7457.97
331.134	4953.04
335.945	4193.85
340.754	4040.66
345.56	4257.38
350.364	4534.05
355.165	5523.75
359.964	7250.03
364.76	10052.3
369.554	12847.5
374.346	15554.4
379.135	15520.6
383.921	13214.8
388.705	13571.6
393.487	15553.1
398.266	16538
403.043	15361.2
407.817	15174.9
412.589	16739.9
417.358	24129
422.125	25688.3
426.889	20281.2
431.651	10032
436.41	3581.88
441.167	1357.5
445.921	835.231
450.673	811.199
455.423	595.902
460.17	309.912
464.914	1128.39
469.656	436.969
474.396	267.723
479.133	524.012
483.867	34.0898
488.599	95.4356
493.329	320.801
498.056	761.102
502.78	1946.35
507.502	3754.78
512.222	6279.76
516.939	6951.44
521.654	6960.32
526.366	8134.51
531.075	9874.72
535.782	12582.7
540.487	16477.7
545.189	22049.4
549.889	28649.7
554.586	33507.1
559.28	32218.4
563.973	25678.3
568.662	18168
573.349	12196.7
578.034	8733.35
582.716	6650
587.396	5043.22
592.073	4268.28
596.747	3463.32
601.419	2219.24
606.089	1553.15
610.756	484.275
615.42	48.9043
620.082	291.373
624.742	592.646
629.399	786.26
634.053	837.785
638.705	1577.41
643.355	2126.49
648.002	2949.01
652.646	4384.73
657.288	5000
661.927	6700.26
666.564	9277.81
671.199	14216.3
675.831	23653.3
680.46	45675.7
685.087	91137.5
689.711	132556
694.333	101836
698.952	51006
703.569	27710.5
708.183	19241.8
712.794	16386.1
717.403	16133.3
722.01	15287.5
726.614	11161.7
731.216	6472.1
735.815	3872.02
740.411	3115.34
745.005	3100.8
749.596	3315.03
754.185	4069.32
758.772	4493.96
763.355	4956.07
767.937	3592.86
772.515	2083.95
777.091	1116.84
781.665	390.367
786.236	469.586
790.805	357.578
795.371	325.586
799.934	482.824
804.495	432.398
809.054	431.676
813.61	88.7852
818.163	195.938
822.714	256.769
827.262	131.707
831.808	235.891
836.351	318.496
840.891	626.578
845.429	844.269
849.965	1463.69
854.498	1439.93
859.028	2066.11
863.556	2231.36
868.082	2716.77
872.604	3036.46
877.125	4219.53
881.642	5243.02
886.157	6966.07
890.67	8759.08
895.18	11793.3
899.687	15380.7
904.192	18861.9
908.695	22427.1
913.194	26063.7
917.692	28384.5
922.186	27649.4
926.678	23749.7
931.168	18486.5
935.655	12329.8
940.139	8309.47
944.621	5414.38
949.101	4397.74
953.577	4938.21
958.052	6688.99
962.523	10569.6
966.992	14843.2
971.459	14138.8
975.923	10959.8
980.384	9291.79
984.843	9616.16
989.299	11479.4
993.753	13739.2
998.204	15925
1002.65	17636.7
1007.1	16382.5
1011.54	14431.4
1015.98	14230.3
1020.42	12908.3
1024.86	11307.4
1029.29	9181.57
1033.72	7872.78
1038.15	7358.05
1042.57	6867.85
1047	6493.7
1051.42	6381.79
1055.84	6018.65
1060.25	6100.86
1064.66	5877.39
1069.07	7076.76
1073.48	8430.87
1077.88	11282.6
1082.29	16476
1086.69	21922.2
1091.08	19942.2
1095.48	13286.8
1099.87	9528.69
1104.26	8386.49
1108.65	8234.04
1113.03	8364.28
1117.41	8675.14
1121.79	8407.55
1126.17	7342.45
1130.54	6313.77
1134.91	4756.43
1139.28	3469.38
1143.65	2653.53
1148.01	1896.81
1152.37	1873.16
1156.73	1177.5
1161.09	936.762
1165.44	525.875
1169.79	59.7617
1174.14	220.703
1178.48	443.621
1182.83	275.922
1187.17	25.4414
1191.51	30.0391
1195.84	291.891
1200.17	703.238
1204.5	397.598
1208.83	40.8047
1213.15	153.32
1217.48	241.773
1221.8	423.863
1226.11	434.426
1230.43	608.656
1234.74	736.519
1239.05	734.988
1243.36	962.016
1247.66	1114.59
1251.96	1233.69
1256.26	1447.17
1260.56	1476.41
1264.85	1591.98
1269.14	1787.98
1273.43	1775.4
1277.71	1985.24
1282	2003.56
1286.28	2409.29
1290.56	2839.41
1294.83	2801.91
1299.11	3421.81
1303.38	3001.53
1307.64	2569
1311.91	2650.55
1316.17	2391.9
1320.43	2386.67
1324.69	1957.82
1328.94	1768.18
1333.19	1734.43
1337.44	1361.58
1341.69	1351.19
1345.93	963.586
1350.18	1112.75
1354.41	810.898
1358.65	1102.17
1362.89	977.606
1367.12	969.34
1371.35	939.086
1375.57	731.394
1379.8	1020.82
1384.02	914.594
1388.23	609.773
1392.45	762.453
1396.66	1044.57
1400.87	466.262
1405.08	838.57
1409.29	303.527
1413.49	635.348
1417.69	787.856
1421.89	560.766
1426.08	674.863
1430.27	1027.98
1434.46	952.398
1438.65	1491.38
1442.83	2009.42
1447.02	2006.62
1451.19	1982.72
1455.37	2255.92
1459.55	2623.31
1463.72	1816.96
1467.88	1552.35
1472.05	1280.86
1476.21	886.543
1480.38	709.508
1484.53	773.754
1488.69	492.481
1492.84	343.793
1496.99	393.606
1501.14	317.211
1505.29	27.7305
1509.43	40.3047
1513.57	6.61719
1517.71	231.414
1521.84	169.293
1525.97	213.824
1530.1	10.1016
1534.23	177.391
1538.35	54.0039
1542.47	288.648
1546.59	249.516
1550.71	214.109
1554.82	798.34
1558.94	387.633
1563.04	55.8906
1567.15	329.16
1571.25	438.387
1575.35	14.75
