Measurement: Raman, 514 nm, depolarized, Raman Data Processed
Mineral: Eckermannite
Rruff sample: R060320
Ideal chemistry: NaNa_2_(Mg_4_Al)Si_8_O_22_(OH)_2_
Locality: Norra Karr Complex, near Granna, Ostergotsland, Sweden
Source: Michael Scott
Description: Parallel aggregate of blue elongated bladed crystals
Measured chemistry: (Na_2.50_K_0.30_[box]_0.20_)_Σ=3_(Mg_2.35_Fe^2+^_1.35_Al_1.20_Mn_0.10_)_Σ=5_Si_8.00_O_22_((OH)_1.18_F_0.82_)_Σ=2_; OH estimated by charge balance, dark material
Pin_id: M01619
Orientation: Laser parallel to b* (0 1 0). Fiducial mark perpendicular to laser is parallel to -c [0 0 -1]
Raman shift (cm-1)	intensity
136.684	0
141.592	447.023
146.499	240.688
151.402	4490.65
156.304	10112.3
161.203	8686.63
166.099	4433.75
170.993	5364.5
175.885	10953.7
180.774	18791.7
185.661	22492.6
190.545	18959.1
195.427	13834.2
200.307	13423
205.184	18202.5
210.059	25850.2
214.931	32755.8
219.801	32893.3
224.668	33401.8
229.533	34959.6
234.396	31372.6
239.256	22508.5
244.114	16332.1
248.969	13042.1
253.822	10792.9
258.672	9231.34
263.52	5544.66
268.365	3186.25
273.208	906.777
278.049	306.918
282.887	388.914
287.723	26.8398
292.556	633.738
297.387	261.832
302.215	1634.57
307.041	5671.41
311.865	11748
316.686	17249.5
321.504	16439.3
326.32	11930.9
331.134	7323.61
335.945	4475.85
340.754	3646.66
345.56	3884.44
350.364	4766.04
355.165	5350.09
359.964	6835.06
364.76	8761.52
369.554	10944.5
374.346	11743.2
379.135	10964.2
383.921	9812.53
388.705	11144.4
393.487	12686
398.266	12792.9
403.043	12086
407.817	12121.1
412.589	13497.1
417.358	17239
422.125	20070.3
426.889	15010.5
431.651	6575.5
436.41	1654.02
441.167	230.449
445.921	831.637
450.673	54.8789
455.423	117.281
460.17	134.769
464.914	273.562
469.656	1100.11
474.396	3331
479.133	5260.16
483.867	5928.55
488.599	6438.06
493.329	5197.74
498.056	4531.77
502.78	5565.52
507.502	7751.09
512.222	11372.5
516.939	12385.8
521.654	9586.62
526.366	8258.9
531.075	9163.98
535.782	11341.8
540.487	16217.8
545.189	22156.8
549.889	27642.6
554.586	30073.9
559.28	27635.8
563.973	21825.9
568.662	15527
573.349	10597.6
578.034	7965.56
582.716	6137.69
587.396	4456.78
592.073	3612.97
596.747	2653.42
601.419	1570.19
606.089	805.074
610.756	196.031
615.42	129.219
620.082	189.055
624.742	69.418
629.399	100.852
634.053	365.805
638.705	1345.71
643.355	2014.41
648.002	2243.3
652.646	3156.84
657.288	3923.16
661.927	5100.66
666.564	7324.83
671.199	11042.4
675.831	18835.4
680.46	36406.5
685.087	71262.6
689.711	104798
694.333	79324.7
698.952	39113.2
703.569	20833.6
708.183	13897.1
712.794	12275.7
717.403	11970.5
722.01	11031.8
726.614	8055.47
731.216	5031.69
735.815	3677.61
740.411	2955.89
745.005	3079.89
749.596	3452.16
754.185	3892.8
758.772	4431.44
763.355	4229.03
767.937	2899.07
772.515	1119.24
777.091	302.887
781.665	4.92188
786.236	714.023
790.805	846.371
795.371	647.062
799.934	511.359
804.495	305.539
809.054	198.875
813.61	640.191
818.163	86.2578
822.714	110.242
827.262	613.277
831.808	567.551
836.351	929.191
840.891	1335.32
845.429	1240.07
849.965	1697.57
854.498	1701.93
859.028	1897.29
863.556	1996.72
868.082	1904.3
872.604	1653.11
877.125	2029.29
881.642	2353.12
886.157	3264.04
890.67	4360.72
895.18	6435.27
899.687	8672.07
904.192	10888.2
908.695	12602.5
913.194	13854.6
917.692	14569.7
922.186	13625
926.678	11629.7
931.168	8680.6
935.655	6360.32
940.139	4095.57
944.621	3164.35
949.101	3350.55
953.577	4872.7
958.052	7678.22
962.523	11145
966.992	14868.9
971.459	15700.7
975.923	13655.3
980.384	12052.1
984.843	13008.8
989.299	14433.5
993.753	16243.3
998.204	18170.1
1002.65	19266.1
1007.1	16180.9
1011.54	12610
1015.98	10508.1
1020.42	8519.35
1024.86	6817.69
1029.29	5134.08
1033.72	4482.48
1038.15	4070.84
1042.57	4209.86
1047	4775.59
1051.42	4075.98
1055.84	3554.31
1060.25	3084.57
1064.66	3735.09
1069.07	4670.46
1073.48	6390.5
1077.88	10187.6
1082.29	15925
1086.69	21894.3
1091.08	19698.7
1095.48	12227.8
1099.87	7996.46
1104.26	6403.69
1108.65	5961.39
1113.03	6451.48
1117.41	6183.9
1121.79	5463.57
1126.17	4718.09
1130.54	3758.36
1134.91	3464.34
1139.28	2608.27
1143.65	2021.14
1148.01	1320.81
1152.37	1312.32
1156.73	906.629
1161.09	600.519
1165.44	256.906
1169.79	72.9531
1174.14	424.457
1178.48	226.609
1182.83	2.30469
1187.17	463.652
1191.51	331.981
1195.84	203.031
1200.17	742.699
1204.5	163.578
1208.83	577.215
1213.15	157.512
1217.48	320.594
1221.8	1135.83
1226.11	1500.42
1230.43	1865.32
1234.74	1594.52
1239.05	1303.96
1243.36	1209.63
1247.66	1311.48
1251.96	1394.25
1256.26	1614.62
1260.56	1660.87
1264.85	1558.58
1269.14	1129.07
1273.43	1347.35
1277.71	1545.99
1282	2147.01
1286.28	2664.11
1290.56	2906.89
1294.83	3244.66
1299.11	3229.43
1303.38	2619.88
1307.64	2927.65
1311.91	2603.35
1316.17	2290.4
1320.43	1924.78
1324.69	1437.06
1328.94	1314.23
1333.19	1196.74
1337.44	671.555
1341.69	838.984
1345.93	870.137
1350.18	842.438
1354.41	950.484
1358.65	317.32
1362.89	315.969
1367.12	450.363
1371.35	282.324
1375.57	372.34
1379.8	78.9961
1384.02	464.613
1388.23	445.242
1392.45	404.914
1396.66	233.969
1400.87	342.449
1405.08	99.3125
1409.29	40.2227
1413.49	315.059
1417.69	262.988
1421.89	481.106
1426.08	1235.73
1430.27	1939.65
1434.46	2484.86
1438.65	3560.52
1442.83	4230.59
1447.02	4115.76
1451.19	4309.89
1455.37	4168.55
1459.55	3902.53
1463.72	3315.98
1467.88	2672.02
1472.05	2065.58
1476.21	1932.78
1480.38	867.254
1484.53	576.133
1488.69	104.981
1492.84	115.938
1496.99	166.848
1501.14	56.6953
1505.29	423.043
1509.43	279.938
1513.57	294.852
1517.71	178.262
1521.84	134.875
1525.97	73.5273
1530.1	216.477
1534.23	484.266
1538.35	74.6289
1542.47	384
1546.59	412.527
1550.71	622.457
1554.82	858.465
1558.94	295.051
1563.04	478.359
1567.15	61.4102
1571.25	619.844
1575.35	637.074
