Measurement: Raman, 514 nm, ccw, Raman Data Processed
Mineral: Eckermannite
Rruff sample: R060320
Ideal chemistry: NaNa_2_(Mg_4_Al)Si_8_O_22_(OH)_2_
Locality: Norra Karr Complex, near Granna, Ostergotsland, Sweden
Source: Michael Scott
Description: Parallel aggregate of blue elongated bladed crystals
Measured chemistry: (Na_2.50_K_0.30_[box]_0.20_)_Σ=3_(Mg_2.35_Fe^2+^_1.35_Al_1.20_Mn_0.10_)_Σ=5_Si_8.00_O_22_((OH)_1.18_F_0.82_)_Σ=2_; OH estimated by charge balance, dark material
Pin_id: M01673
Orientation: Laser parallel to (1 0 1). Fiducial mark perpendicular to laser is parallel to b [0 1 0]
Raman shift (cm-1)	intensity
103.085	0
108.032	524.898
112.976	514.551
117.917	1450.44
122.856	1959
127.792	192.953
132.725	19.3057
137.656	392.26
142.583	786.312
147.508	2215.14
152.431	3886.59
157.35	4892.62
162.267	3778.93
167.181	2801.81
172.092	3861.81
177.001	5514.05
181.907	7662.12
186.81	8544.99
191.711	8455.81
196.608	10509.2
201.503	15452.7
206.395	21910.4
211.285	25303
216.172	22353
221.056	15754.4
225.937	10120.5
230.816	6476.33
235.692	4057.6
240.565	2701.32
245.436	1868.51
250.304	1118.25
255.169	823.232
260.031	385.893
264.891	184.419
269.748	154.073
274.602	84.9707
279.454	162.52
284.303	129.745
289.149	52.0283
293.992	15.4551
298.833	338.571
303.671	1141.34
308.507	2738.65
313.339	4155.61
318.169	4380.65
322.996	3353.72
327.821	2021.88
332.643	1194.17
337.462	822.179
342.279	630.231
347.092	747.364
351.904	909.36
356.712	1098.63
361.518	1285.88
366.321	1446.02
371.121	2002.03
375.919	2666.89
380.714	3420.6
385.506	4257.1
390.296	5478.56
395.083	6193.8
399.867	6588.81
404.649	7906.44
409.428	9125.97
414.204	11245.5
418.978	12460.2
423.749	10616.9
428.517	5675.34
433.282	2435.43
438.045	829.594
442.806	407.575
447.563	112.748
452.318	55.5557
457.07	291.002
461.82	106.147
466.567	409.946
471.311	439.521
476.053	573.278
480.792	707.594
485.528	654.22
490.262	806.146
494.992	596.113
499.721	974.818
504.446	1415.57
509.169	1706.97
513.89	2189.26
518.607	2538.79
523.322	2733.99
528.035	2940
532.745	3330.02
537.452	4451.81
542.156	5807.24
546.858	7760.34
551.557	8805.02
556.254	8533.58
560.947	7027.55
565.639	4884.38
570.327	3231.83
575.013	2349.73
579.697	1930.83
584.377	1597.33
589.055	1368.65
593.731	1033.65
598.403	747.427
603.074	757.112
607.741	675.773
612.406	245.583
617.068	17.0889
621.728	168.041
626.385	163.347
631.039	148.223
635.691	110.615
640.34	166.811
644.987	393.39
649.63	362.044
654.272	1187.03
658.91	1114.13
663.546	1884.85
668.18	3199.93
672.81	6469.55
677.439	11312.6
682.064	21908.5
686.687	34940.2
691.307	33546.8
695.925	18068.8
700.54	8852.94
705.153	5008.38
709.763	3315.66
714.37	2220.95
718.974	1703.96
723.577	960.74
728.176	670.288
732.773	350.574
737.367	337.788
741.959	143.289
746.548	333.481
751.134	589.59
755.718	855.895
760.299	915.926
764.878	694.524
769.454	116.643
774.028	315.128
778.598	3.92285
783.167	135.647
787.732	215.199
792.295	118.533
796.856	43.3359
801.414	7.27539
805.969	172.139
810.522	40.0605
815.072	112.408
819.62	152.383
824.165	261.893
828.707	441.08
833.247	456.978
837.784	470.613
842.319	457.006
846.851	549.184
851.381	116.07
855.908	158.986
860.432	46.6465
864.954	67.5957
869.473	126.875
873.99	139.457
878.504	161.887
883.015	109.416
887.524	464.748
892.031	809.715
896.535	1254.24
901.036	1931.81
905.535	1970.82
910.031	2152.59
914.524	1976.36
919.015	1979.51
923.504	1694.35
927.99	1468.48
932.473	997.383
936.954	800.623
941.432	648.807
945.908	626.785
950.381	567.928
954.852	754.061
959.32	1264.21
963.785	1584.61
968.248	2152.05
972.708	2752.09
977.166	3201.97
981.622	4299.34
986.074	5178.2
990.525	6036.56
994.972	6671.06
999.417	6796.45
1003.86	6875.38
1008.3	7137.36
1012.74	7899.27
1017.17	8394.36
1021.61	8813.82
1026.04	7727.89
1030.46	5943.55
1034.89	4334.8
1039.31	2942.62
1043.73	2546.1
1048.15	2383.55
1052.56	2258.31
1056.97	2348.36
1061.38	2366.54
1065.79	2493.77
1070.19	2660.39
1074.6	3465.43
1079	4525.49
1083.39	6633.45
1087.79	6988.49
1092.18	5065.5
1096.57	3354.08
1100.96	2521.38
1105.34	2184
1109.72	2023.95
1114.1	1929.46
1118.48	1805.28
1122.85	1703.15
1127.22	1479.34
1131.6	1302.31
1135.96	1166.61
1140.33	1102.89
1144.69	975.596
1149.05	705.662
1153.4	779.258
1157.76	476.826
1162.11	85.5566
1166.46	319.275
1170.81	188.025
1175.15	15.8516
1179.49	0.619141
1183.83	41.8145
1188.17	220.344
1192.5	109.137
1196.84	119.547
1201.16	0.714844
1205.49	23.3301
1209.82	122.303
1214.14	72.1035
1218.46	125.158
1222.77	19.793
1227.09	99.9512
1231.4	82.1582
1235.71	74.0859
1240.02	267.004
1244.32	116.039
1248.62	262.51
1252.92	376.775
1257.22	290.832
1261.51	188.58
1265.81	345.039
1270.1	133.139
1274.38	185.022
1278.67	567.648
1282.95	334.055
1287.23	341.203
1291.51	228.775
1295.78	269.832
1300.05	424.99
1304.32	407.023
1308.59	303.373
1312.86	418.43
1317.12	379.705
1321.38	415.598
1325.63	91.6055
1329.89	208.93
1334.14	425.728
1338.39	301.516
1342.64	29.3008
1346.88	138.459
1351.13	215.164
1355.37	106.592
1359.61	11.666
1363.84	101.525
1368.07	179.59
1372.3	179.144
1376.53	113.699
1380.76	189.533
1384.98	444.918
1389.2	172.342
1393.42	215.107
1397.64	198.082
1401.85	294.09
1406.06	213.057
1410.27	251.51
1414.47	119.346
1418.68	105.344
1422.88	78.0117
1427.08	152.6
1431.27	380.582
1435.47	392.144
1439.66	476.295
1443.85	587.756
1448.03	553.318
1452.22	405.461
1456.4	529.875
1460.58	328.545
1464.76	446.092
1468.93	272.887
1473.1	142.242
1477.27	255.957
1481.44	67.0156
1485.6	67.7148
1489.77	47.1738
1493.92	10.6152
1498.08	236.019
1502.24	4.85938
1506.39	126.984
1510.54	59.293
1514.69	205.012
1518.83	130.416
1522.97	272.201
1527.12	285.619
1531.25	23.3281
1535.39	360.961
1539.52	128.877
1543.65	315.057
1547.78	175.898
1551.91	366.867
1556.03	336.924
1560.15	119.744
1564.27	354.769
1568.39	127.978
1572.5	122.674
1576.61	0
