Measurement: Raman, 514 nm, ccw, Raman Data Processed
Mineral: Eckermannite
Rruff sample: R060320
Ideal chemistry: NaNa_2_(Mg_4_Al)Si_8_O_22_(OH)_2_
Locality: Norra Karr Complex, near Granna, Ostergotsland, Sweden
Source: Michael Scott
Description: Parallel aggregate of blue elongated bladed crystals
Measured chemistry: (Na_2.50_K_0.30_[box]_0.20_)_Σ=3_(Mg_2.35_Fe^2+^_1.35_Al_1.20_Mn_0.10_)_Σ=5_Si_8.00_O_22_((OH)_1.18_F_0.82_)_Σ=2_; OH estimated by charge balance, dark material
Pin_id: M01619
Orientation: Laser parallel to b* (0 1 0). Fiducial mark perpendicular to laser is parallel to -c [0 0 -1]
Raman shift (cm-1)	intensity
136.684	0
141.592	11.2539
146.499	1035.34
151.402	4710.07
156.304	10130
161.203	10304.6
166.099	4026.71
170.993	3548.92
175.885	7931.91
180.774	14766
185.661	17703.6
190.545	15088.2
195.427	10833.7
200.307	10893
205.184	14427
210.059	20068.3
214.931	24925.3
219.801	25738.4
224.668	27090.6
229.533	31289.6
234.396	29960.3
239.256	22177.5
244.114	14161.5
248.969	9722.98
253.822	7590.34
258.672	6882.32
263.52	4600.71
268.365	2364.32
273.208	606.967
278.049	238.533
282.887	560.299
287.723	199.986
292.556	386.641
297.387	98.0898
302.215	1063.7
307.041	3473.16
311.865	7104.39
316.686	10483.2
321.504	10379.8
326.32	7214.8
331.134	4458.21
335.945	2869.61
340.754	2530.22
345.56	3125.08
350.364	3906.4
355.165	4834.28
359.964	6465.43
364.76	8121.92
369.554	9531.51
374.346	10042.1
379.135	8991.44
383.921	7703.57
388.705	8701.69
393.487	9921.79
398.266	9954.77
403.043	9525.23
407.817	9324.12
412.589	8974.38
417.358	11210.9
422.125	13070
426.889	9988.28
431.651	4135.76
436.41	1033.25
441.167	278.029
445.921	647.316
450.673	220.647
455.423	161.883
460.17	168.26
464.914	45.627
469.656	1525.15
474.396	3665.72
479.133	5160.38
483.867	4615.64
488.599	4188.02
493.329	3331.23
498.056	2663.27
502.78	3694.04
507.502	5745.16
512.222	8844
516.939	9697.11
521.654	7014.77
526.366	5846.24
531.075	6358.03
535.782	7961.8
540.487	11134.8
545.189	15912.7
549.889	19838
554.586	21923.4
559.28	20562.5
563.973	16273.4
568.662	11802.7
573.349	8098.35
578.034	6363.33
582.716	4946.69
587.396	3720.34
592.073	2815.3
596.747	2366.35
601.419	1546.76
606.089	933.275
610.756	429.562
615.42	100.506
620.082	41.0391
624.742	14.5684
629.399	42.3652
634.053	381.162
638.705	407.397
643.355	1255.72
648.002	1295.1
652.646	1912.35
657.288	2522.77
661.927	3356.6
666.564	4677.56
671.199	7425.92
675.831	12422
680.46	24682.3
685.087	48664.9
689.711	74075.9
694.333	57813.6
698.952	28563.7
703.569	14921.5
708.183	10234.5
712.794	8821.84
717.403	8706.62
722.01	8016.09
726.614	5981.08
731.216	3727.98
735.815	2726.7
740.411	2220.46
745.005	2238.57
749.596	2693.14
754.185	2901.03
758.772	3246.44
763.355	2988.68
767.937	2126.86
772.515	1311.59
777.091	689.031
781.665	172.822
786.236	51.3359
790.805	105.84
795.371	380.307
799.934	397.635
804.495	265.797
809.054	284.779
813.61	10.9316
818.163	44.4531
822.714	169.559
827.262	77.584
831.808	6.94141
836.351	226.861
840.891	511.125
845.429	536.004
849.965	878.594
854.498	1038.98
859.028	1048.27
863.556	1191.51
868.082	1331.75
872.604	1156.04
877.125	1758.47
881.642	2185.14
886.157	3343.25
890.67	4252.43
895.18	6390.39
899.687	8178.7
904.192	9971.01
908.695	11053.8
913.194	12178.7
917.692	12542
922.186	11807.7
926.678	10100.4
931.168	7785.64
935.655	5525.36
940.139	4004.58
944.621	3116.13
949.101	3300.12
953.577	4574.32
958.052	6091.17
962.523	9229.33
966.992	12239.5
971.459	11979.2
975.923	9648.26
980.384	8266.47
984.843	8412.03
989.299	9520.85
993.753	11572.9
998.204	13504.2
1002.65	14559.8
1007.1	12536.7
1011.54	10100
1015.98	8622.25
1020.42	7713.83
1024.86	6151.62
1029.29	5319.41
1033.72	4293.74
1038.15	4335.99
1042.57	4361.34
1047	4181.67
1051.42	4157.72
1055.84	3968.87
1060.25	3786.77
1064.66	3952.32
1069.07	4688.8
1073.48	6461.98
1077.88	9239.98
1082.29	13908.9
1086.69	19038.6
1091.08	17257.5
1095.48	10511.3
1099.87	7094.89
1104.26	5457.76
1108.65	4751.32
1113.03	4447.87
1117.41	4822.77
1121.79	4656.24
1126.17	4899.17
1130.54	3925.76
1134.91	3317.81
1139.28	3141.19
1143.65	2507.49
1148.01	1775.34
1152.37	1486.67
1156.73	1120.43
1161.09	763.578
1165.44	531.039
1169.79	258.754
1174.14	38.6641
1178.48	48.3594
1182.83	65.6231
1187.17	136.481
1191.51	137.123
1195.84	179.691
1200.17	494.213
1204.5	265.924
1208.83	268.299
1213.15	116.51
1217.48	200.904
1221.8	99.6035
1226.11	339.4
1230.43	468.258
1234.74	288.769
1239.05	207.062
1243.36	52.3594
1247.66	372.297
1251.96	227.303
1256.26	231.773
1260.56	138.184
1264.85	272.871
1269.14	604.842
1273.43	338.662
1277.71	506.088
1282	589.027
1286.28	812.449
1290.56	770.947
1294.83	1106.35
1299.11	1230.61
1303.38	999.783
1307.64	995.863
1311.91	945.488
1316.17	851.008
1320.43	600.227
1324.69	723.365
1328.94	420.746
1333.19	647.033
1337.44	424.305
1341.69	334.859
1345.93	437.332
1350.18	449.147
1354.41	252.824
1358.65	190.275
1362.89	236.006
1367.12	364.441
1371.35	210.545
1375.57	189.08
1379.8	132.432
1384.02	153.744
1388.23	138.793
1392.45	78.7344
1396.66	61.8105
1400.87	41.0625
1405.08	198.193
1409.29	122.818
1413.49	64.1641
1417.69	433.285
1421.89	429.209
1426.08	329.982
1430.27	973.654
1434.46	1096.35
1438.65	1494.04
1442.83	1661.55
1447.02	1694.51
1451.19	1518.05
1455.37	1389.78
1459.55	1343.15
1463.72	1216.38
1467.88	887.846
1472.05	953.893
1476.21	663.861
1480.38	658.197
1484.53	560.602
1488.69	462.627
1492.84	206.791
1496.99	310.574
1501.14	135.346
1505.29	301.748
1509.43	198.656
1513.57	231.94
1517.71	259.617
1521.84	178.078
1525.97	23.8613
1530.1	190.102
1534.23	422.359
1538.35	123.766
1542.47	304.656
1546.59	331.967
1550.71	382.041
1554.82	798.031
1558.94	274.65
1563.04	287.742
1567.15	49.0391
1571.25	123.772
1575.35	25.5762
