Measurement: Raman, 514 nm, ccw, Raman Data Processed
Mineral: Eckermannite
Rruff sample: R060320
Ideal chemistry: NaNa_2_(Mg_4_Al)Si_8_O_22_(OH)_2_
Locality: Norra Karr Complex, near Granna, Ostergotsland, Sweden
Source: Michael Scott
Description: Parallel aggregate of blue elongated bladed crystals
Measured chemistry: (Na_2.50_K_0.30_[box]_0.20_)_Σ=3_(Mg_2.35_Fe^2+^_1.35_Al_1.20_Mn_0.10_)_Σ=5_Si_8.00_O_22_((OH)_1.18_F_0.82_)_Σ=2_; OH estimated by charge balance, dark material
Pin_id: M01072
Orientation: Laser parallel to -c* (0 0 -1). Fiducial mark perpendicular to laser is parallel to -a [-1 0 0]
Raman shift (cm-1)	intensity
102.823	0
107.744	780.844
112.662	1101.26
117.578	2361.99
122.492	2443.04
127.403	311.413
132.312	213.013
137.22	73.4775
142.124	2028.3
147.027	7563.78
151.927	17954.4
156.826	24533.3
161.721	15693.7
166.615	12623.7
171.507	18878.2
176.396	28540.4
181.283	35593.8
186.167	30971
191.05	19187.4
195.93	13037.4
200.808	13888.3
205.683	19402.5
210.557	27782.3
215.428	36662
220.296	46653.5
225.163	60926.3
230.027	64569.2
234.889	48875.9
239.749	34551.4
244.606	27725.4
249.461	23174.8
254.314	19210.8
259.164	15402.1
264.012	11575.4
268.858	7812.43
273.702	5796.19
278.543	4565.66
283.382	3874.81
288.218	3557.9
293.053	3057.92
297.885	3938.5
302.714	5646.31
307.542	8746
312.366	13135.8
317.189	13814.6
322.009	10047
326.827	6409.92
331.643	4256.05
336.456	3373.5
341.267	2780.86
346.076	2444.47
350.882	1817.21
355.686	1569.7
360.488	1481.67
365.287	1739.99
370.084	2051.09
374.878	2237.26
379.67	2552.72
384.46	3475.27
389.247	4594.7
394.032	5588.01
398.815	6077.94
403.595	6787.57
408.373	8200.8
413.148	11268.6
417.922	15161.8
422.692	14522.5
427.461	8043.06
432.226	3299.64
436.99	1100.1
441.751	316.312
446.51	111.157
451.266	237.612
456.02	335.57
460.772	453.451
465.521	507.7
470.267	358.369
475.012	98.3633
479.754	155.405
484.493	789.894
489.23	1259.62
493.965	1811.53
498.697	2307.52
503.427	3657.01
508.154	5220.99
512.879	6625.67
517.601	6164.15
522.321	5412.52
527.039	5765.11
531.754	7353.32
536.467	10105.7
541.177	15214.6
545.885	21616.4
550.59	27096.8
555.293	28482.6
559.993	23848.2
564.691	16579.2
569.387	10216.7
574.08	6418.34
578.77	4327.8
583.459	3135.08
588.144	2318.09
592.827	1916.63
597.508	1282.06
602.186	927.718
606.862	378.609
611.535	82.0772
616.206	194.311
620.874	101.279
625.54	11.71
630.204	333.452
634.864	571.582
639.523	974.78
644.179	1408.91
648.832	1902.63
653.483	2821.69
658.131	4051.67
662.777	5820.24
667.42	9114.79
672.061	15542.3
676.699	29574.4
681.335	59278.3
685.968	101428
690.599	104492
695.227	57486
699.853	27897.7
704.476	16147.3
709.097	11621.9
713.715	10019.5
718.331	8959.42
722.944	7156.49
727.554	4423.79
732.162	2637.51
736.768	1832.52
741.371	1562.65
745.971	1538.18
750.569	1701.84
755.164	2047.53
759.757	2639.58
764.347	2029.18
768.935	1432.57
773.52	716.149
778.103	285.063
782.683	184.618
787.26	48.6748
791.835	24.7339
796.407	88.3618
800.977	148.153
805.544	103.989
810.109	277.897
814.671	142.806
819.23	145.504
823.787	138.72
828.341	115.247
832.893	13.7896
837.442	82.9253
841.989	233.42
846.533	469.411
851.074	440.957
855.613	446.123
860.149	388.966
864.683	286.71
869.214	343.924
873.742	318.139
878.268	432.22
882.791	512.201
887.312	858.348
891.83	1217.28
896.345	2553.36
900.858	3329.3
905.368	4373.32
909.876	6266.16
914.381	7896.47
918.883	8582.94
923.383	7862.02
927.88	6777.42
932.374	5417.23
936.866	4026.88
941.355	3338.97
945.842	2572.74
950.326	2400.52
954.807	2517.17
959.286	3016.83
963.762	3840.49
968.235	4769.39
972.706	5943.83
977.174	7065.89
981.64	8429.27
986.103	10033
990.563	10316.1
995.021	9785.55
999.476	8511.29
1003.93	7139.29
1008.38	5736.57
1012.83	4632.1
1017.27	3751.94
1021.71	2944.07
1026.15	2516.47
1030.59	2474.12
1035.02	2384.01
1039.45	2394.11
1043.88	2421.43
1048.31	2386.98
1052.73	2785.19
1057.15	3251.21
1061.57	4109.69
1065.98	5539.04
1070.39	8207.71
1074.8	12992.6
1079.21	20549
1083.62	31030
1088.02	35553.5
1092.41	24984.6
1096.81	14478.9
1101.2	9416.44
1105.6	7135.25
1109.98	5895.1
1114.37	5446.35
1118.75	5115.22
1123.13	4805.53
1127.51	4402.54
1131.88	3973.51
1136.26	3594.78
1140.63	3262.02
1144.99	2889.88
1149.36	2308.03
1153.72	1981.31
1158.08	1510.04
1162.43	1211.52
1166.79	819.089
1171.14	411.763
1175.48	288.646
1179.83	10.6479
1184.17	50.1279
1188.51	118.35
1192.85	42.396
1197.18	173.186
1201.51	113.01
1205.84	144.932
1210.17	68.2007
1214.49	28.2251
1218.81	55.4658
1223.13	62.4893
1227.44	33.9761
1231.76	63.6123
1236.07	15.3408
1240.37	179.928
1244.68	78.5781
1248.98	43.2398
1253.28	163.825
1257.57	113.939
1261.87	277.519
1266.16	186.609
1270.44	226.91
1274.73	291.591
1279.01	369.258
1283.29	260.226
1287.57	473.273
1291.84	506.506
1296.11	470.909
1300.38	432.164
1304.65	496.067
1308.91	498.776
1313.17	545.498
1317.43	385.79
1321.68	630.461
1325.93	579.649
1330.18	446.263
1334.43	497.143
1338.67	535.007
1342.91	352.953
1347.15	372.536
1351.39	378.097
1355.62	444.568
1359.85	324.486
1364.08	335.306
1368.3	297.822
1372.52	245.39
1376.74	260.322
1380.95	242.949
1385.17	140.139
1389.38	274.315
1393.59	267.573
1397.79	127.597
1401.99	196.634
1406.19	121.709
1410.39	190.567
1414.58	137.118
1418.77	187.432
1422.96	114.489
1427.14	262.257
1431.33	224.558
1435.51	156.593
1439.68	224.705
1443.86	136.412
1448.03	75.3779
1452.2	90.71
1456.36	152.602
1460.53	66.5903
1464.68	124.388
1468.84	132.236
1473	107.094
1477.15	26.5098
1481.3	157.402
1485.44	91.2817
1489.59	167.055
1493.73	118.74
1497.86	115.631
1502	43.7036
1506.13	152.575
1510.26	96.8184
1514.38	198.194
1518.51	112.867
1522.63	137.598
1526.75	23.4663
1530.86	211.238
1534.97	18.4629
1539.08	93.0742
1543.19	132.326
1547.29	81.4307
1551.39	166.262
1555.49	182.732
1559.59	42.9917
1563.68	154.536
1567.77	29.7246
1571.85	103.001
1575.94	115.315
