Measurement: Raman, 514 nm, ccw, Raman Data Processed
Mineral: Eckermannite
Rruff sample: R060320
Ideal chemistry: NaNa_2_(Mg_4_Al)Si_8_O_22_(OH)_2_
Locality: Norra Karr Complex, near Granna, Ostergotsland, Sweden
Source: Michael Scott
Description: Parallel aggregate of blue elongated bladed crystals
Measured chemistry: (Na_2.50_K_0.30_[box]_0.20_)_Σ=3_(Mg_2.35_Fe^2+^_1.35_Al_1.20_Mn_0.10_)_Σ=5_Si_8.00_O_22_((OH)_1.18_F_0.82_)_Σ=2_; OH estimated by charge balance, dark material
Pin_id: M00815
Orientation: Laser parallel to a* (1 0 0). Fiducial mark perpendicular to laser is parallel to b [0 1 0]
Raman shift (cm-1)	intensity
136.684	0
141.592	429.477
146.499	114.559
151.402	1115.59
156.304	2744.29
161.203	4462.4
166.099	6546.96
170.993	7887.87
175.885	9454.88
180.774	14282.2
185.661	17891.5
190.545	17234.2
195.427	16193.5
200.307	20371.3
205.184	31882.8
210.059	42213.7
214.931	44871.7
219.801	35868.1
224.668	25096.3
229.533	16928.2
234.396	11562.7
239.256	8913.01
244.114	7258.64
248.969	7229.12
253.822	6883.73
258.672	5880
263.52	3347.15
268.365	1340.23
273.208	507.016
278.049	377.125
282.887	180.469
287.723	501.637
292.556	682.031
297.387	465.281
302.215	1210.9
307.041	4671.26
311.865	9375.68
316.686	12992.4
321.504	12151.7
326.32	8803.75
331.134	5286.38
335.945	2590.06
340.754	1372.1
345.56	1116.38
350.364	1318.75
355.165	2577.2
359.964	4496.41
364.76	7099.66
369.554	7832.85
374.346	7831.41
379.135	8246.12
383.921	9579.87
388.705	12335.6
393.487	14202.3
398.266	14796
403.043	14639.5
407.817	15250
412.589	17560.2
417.358	23102.3
422.125	25090
426.889	18513.2
431.651	8755.7
436.41	3296.84
441.167	1171.44
445.921	249.951
450.673	358.586
455.423	444.529
460.17	190.371
464.914	96.209
469.656	412.139
474.396	1069.67
479.133	2119.89
483.867	3564.17
488.599	4283.15
493.329	3983.9
498.056	3132.86
502.78	3226.06
507.502	3908.28
512.222	6133.49
516.939	7602.88
521.654	9114.59
526.366	10835.8
531.075	12449
535.782	14233.4
540.487	16342.5
545.189	20045.1
549.889	23471.7
554.586	25447
559.28	23111.1
563.973	18469.9
568.662	13798.4
573.349	10760.3
578.034	9480.43
582.716	8123.09
587.396	7028.82
592.073	6136.38
596.747	5144.71
601.419	3558.6
606.089	2482.82
610.756	964.129
615.42	481.656
620.082	107.115
624.742	517.227
629.399	154.469
634.053	240.853
638.705	229.133
643.355	602.5
648.002	1098.09
652.646	1507.65
657.288	2393.8
661.927	3265.74
666.564	5179.21
671.199	8609.68
675.831	14985.4
680.46	29724.5
685.087	59587.2
689.711	83546.7
694.333	59877.2
698.952	29679.7
703.569	15613
708.183	10176.4
712.794	7743.68
717.403	6669.02
722.01	4923.31
726.614	3546.34
731.216	2458.55
735.815	2160.72
740.411	1999.48
745.005	2511.05
749.596	3656.8
754.185	5861.16
758.772	7744.77
763.355	6634.18
767.937	4106.16
772.515	2501.4
777.091	1144.88
781.665	428.297
786.236	240.418
790.805	76.5859
795.371	345.305
799.934	315.449
804.495	139.621
809.054	342.359
813.61	238.125
818.163	188.34
822.714	119.812
827.262	337.266
831.808	839.41
836.351	712.363
840.891	793.184
845.429	788.949
849.965	526.723
854.498	303.578
859.028	158.57
863.556	188.727
868.082	329.137
872.604	83.3828
877.125	304.555
881.642	639.883
886.157	1414.66
890.67	2196.09
895.18	3217.74
899.687	4165.02
904.192	4497.3
908.695	4176.37
913.194	4481.9
917.692	3959.46
922.186	3668.86
926.678	3212
931.168	2355.01
935.655	1985.43
940.139	1660.51
944.621	1902.16
949.101	1305.02
953.577	1770.72
958.052	2622.69
962.523	2838.05
966.992	3420.02
971.459	4018.85
975.923	4842.56
980.384	6516.96
984.843	7885.03
989.299	8785.71
993.753	8601.02
998.204	8018.03
1002.65	7641.81
1007.1	6633.06
1011.54	6235.97
1015.98	6046.56
1020.42	6787.76
1024.86	6704.66
1029.29	6385.23
1033.72	5830.43
1038.15	5739.82
1042.57	6066.46
1047	4938.57
1051.42	4366.75
1055.84	4195.38
1060.25	4587.48
1064.66	4428.62
1069.07	4802.55
1073.48	5338.22
1077.88	6428.12
1082.29	8802.02
1086.69	10852.6
1091.08	9316.87
1095.48	7446.02
1099.87	6347.45
1104.26	5773.88
1108.65	5585.26
1113.03	5293.49
1117.41	4823.98
1121.79	4551.15
1126.17	3837.08
1130.54	3253.05
1134.91	3003.45
1139.28	2494.2
1143.65	2189.42
1148.01	1609.97
1152.37	1596.89
1156.73	1605.62
1161.09	1260.06
1165.44	707.285
1169.79	490.57
1174.14	91.8867
1178.48	37.1016
1182.83	504.207
1187.17	288.551
1191.51	59.9453
1195.84	212.602
1200.17	136.941
1204.5	35.6016
1208.83	284.449
1213.15	23.9453
1217.48	156.148
1221.8	196.414
1226.11	90.0977
1230.43	232.629
1234.74	63.9375
1239.05	177.543
1243.36	149.746
1247.66	219.09
1251.96	432.691
1256.26	362.051
1260.56	255.379
1264.85	493.519
1269.14	342.566
1273.43	484.418
1277.71	429.938
1282	367.231
1286.28	364.438
1290.56	418.512
1294.83	447.664
1299.11	599.258
1303.38	550.606
1307.64	638.68
1311.91	733.164
1316.17	651.719
1320.43	607.277
1324.69	615.914
1328.94	634.059
1333.19	330.375
1337.44	250.301
1341.69	570.418
1345.93	375.824
1350.18	167.078
1354.41	274.922
1358.65	15.3633
1362.89	299.301
1367.12	424.523
1371.35	203.719
1375.57	441.891
1379.8	493.262
1384.02	11.5625
1388.23	191.461
1392.45	374.547
1396.66	80.6719
1400.87	61.5039
1405.08	175.445
1409.29	166.586
1413.49	198.801
1417.69	273.356
1421.89	8.28906
1426.08	223.215
1430.27	471.504
1434.46	308.231
1438.65	919.832
1442.83	934.93
1447.02	943.312
1451.19	957.945
1455.37	930.594
1459.55	921.074
1463.72	947.723
1467.88	710.566
1472.05	566.039
1476.21	292.566
1480.38	549.992
1484.53	301.043
1488.69	326.484
1492.84	318.766
1496.99	292.934
1501.14	620.238
1505.29	226.519
1509.43	265.281
1513.57	165.856
1517.71	397.508
1521.84	466.152
1525.97	310.121
1530.1	401.723
1534.23	449.938
1538.35	450.559
1542.47	33.2734
1546.59	17.5469
1550.71	368.606
1554.82	400.523
1558.94	513.309
1563.04	104.305
1567.15	379.992
1571.25	256.816
1575.35	205.781
