Measurement: Raman, 514 nm, depolarized, Raman Data Processed
Mineral: Eckermannite
Rruff sample: R060320
Ideal chemistry: NaNa_2_(Mg_4_Al)Si_8_O_22_(OH)_2_
Locality: Norra Karr Complex, near Granna, Ostergotsland, Sweden
Source: Michael Scott
Description: Parallel aggregate of blue elongated bladed crystals
Measured chemistry: (Na_2.50_K_0.30_[box]_0.20_)_Σ=3_(Mg_2.35_Fe^2+^_1.35_Al_1.20_Mn_0.10_)_Σ=5_Si_8.00_O_22_((OH)_1.18_F_0.82_)_Σ=2_; OH estimated by charge balance, dark material
Pin_id: M01673
Orientation: Laser parallel to (1 0 1). Fiducial mark perpendicular to laser is parallel to b [0 1 0]
Raman shift (cm-1)	intensity
103.085	0
108.032	1304.18
112.976	2736.82
117.917	4828.45
122.856	5577.46
127.792	2370.48
132.725	234.402
137.656	258.151
142.583	181.233
147.508	1997.78
152.431	4404.8
157.35	5624.82
162.267	4315.73
167.181	4780.09
172.092	7250.31
177.001	11522.6
181.907	15315.5
186.81	15108.8
191.711	10394.3
196.608	8634.59
201.503	11530.9
206.395	16525.3
211.285	20345.6
216.172	20356.8
221.056	18789.7
225.937	18029.9
230.816	16802.7
235.692	12446.9
240.565	8277.24
245.436	6561.75
250.304	5220.86
255.169	4289.18
260.031	2810.43
264.891	1668.47
269.748	702.535
274.602	222.486
279.454	29.5352
284.303	174.442
289.149	221.891
293.992	68.416
298.833	494.378
303.671	1401.51
308.507	3119.33
313.339	4621.83
318.169	4936.3
322.996	3676.71
327.821	2490.24
332.643	2188.81
337.462	2319.43
342.279	2191.15
347.092	1990.87
351.904	2341.15
356.712	2421.2
361.518	2784.27
366.321	3159.32
371.121	3485.88
375.919	3736.32
380.714	3606.23
385.506	3817.02
390.296	4451.55
395.083	5091.66
399.867	5202.55
404.649	5701.1
409.428	7004.25
414.204	8495.01
418.978	10078.4
423.749	8859.65
428.517	4618.33
433.282	1957.23
438.045	844.651
442.806	302.49
447.563	224.331
452.318	218.307
457.07	47.6435
461.82	210.286
466.567	119.835
471.311	259.868
476.053	46.0537
480.792	191.724
485.528	188.758
490.262	497.362
494.992	710.035
499.721	1024.1
504.446	1310.34
509.169	1941.63
513.89	2357.54
518.607	2765.87
523.322	3238.44
528.035	3646.07
532.745	4408.18
537.452	5531.49
542.156	7663.81
546.858	10180.1
551.557	11704.3
556.254	11952.4
560.947	9867.37
565.639	7052.18
570.327	4543
575.013	3142.91
579.697	2318.01
584.377	1931.57
589.055	1644.3
593.731	1287.89
598.403	1132.2
603.074	766.03
607.741	337.841
612.406	56.0107
617.068	38.1006
621.728	96.9316
626.385	34.6435
631.039	120.763
635.691	182.701
640.34	568.205
644.987	677.362
649.63	997.042
654.272	1260.75
658.91	1784.21
663.546	2870.48
668.18	4490.69
672.81	7629.75
677.439	14485.9
682.064	28417.2
686.687	46608.8
691.307	44963.8
695.925	23890.8
700.54	12059.6
705.153	7281.16
709.763	5445.5
714.37	4637.64
718.974	4376.6
723.577	3448.4
728.176	2097.1
732.773	1086.74
737.367	876.661
741.959	642.9
746.548	837.188
751.134	1330.4
755.718	1904.29
760.299	1987.47
764.878	1432.95
769.454	657.454
774.028	356.035
778.598	130.764
783.167	201.025
787.732	49.082
792.295	98.6699
796.856	243.526
801.414	185.915
805.969	36.5449
810.522	53.4756
815.072	66.5625
819.62	66.0713
824.165	160.858
828.707	292.638
833.247	187.894
837.784	172.987
842.319	236.961
846.851	231.862
851.381	538.734
855.908	433.622
860.432	573.567
864.954	396.613
869.473	15.1953
873.99	388.17
878.504	225.753
883.015	701.356
887.524	1151.79
892.031	1912.48
896.535	2869.89
901.036	4018.97
905.535	5301.84
910.031	6599.36
914.524	7542.68
919.015	7738.82
923.504	7086.74
927.99	5473.03
932.473	4180.79
936.954	2692.24
941.432	1780.93
945.908	1358.07
950.381	1254.63
954.852	1981.06
959.32	3050.42
963.785	4470.61
968.248	5624.56
972.708	5993.78
977.166	6786.16
981.622	8648.7
986.074	10316.4
990.525	11147.2
994.972	11009.3
999.417	10161.5
1003.86	9203.7
1008.3	8210.28
1012.74	7976.04
1017.17	7388.99
1021.61	6637.12
1026.04	5232.45
1030.46	4199.95
1034.89	3423.61
1039.31	2716.43
1043.73	2432.58
1048.15	2248.66
1052.56	2279.63
1056.97	2522.47
1061.38	2511.33
1065.79	2651.03
1070.19	3428.96
1074.6	4672.28
1079	6809.56
1083.39	9829.35
1087.79	10764.5
1092.18	8158.17
1096.57	5082.66
1100.96	3913.21
1105.34	3321.2
1109.72	3253.01
1114.1	3033.59
1118.48	2853.66
1122.85	2296.2
1127.22	2216.37
1131.6	1650.74
1135.96	1519.56
1140.33	1387.73
1144.69	1159.19
1149.05	922.924
1153.4	758.123
1157.76	673.463
1162.11	456.934
1166.46	317.531
1170.81	31.7754
1175.15	2.92578
1179.49	14.541
1183.83	69.8672
1188.17	20.0312
1192.5	174.352
1196.84	108.461
1201.16	105.787
1205.49	85.0684
1209.82	180.648
1214.14	37.7715
1218.46	123.947
1222.77	215.756
1227.09	85.7852
1231.4	80.4043
1235.71	109.709
1240.02	180.113
1244.32	253.389
1248.62	385.209
1252.92	159.123
1257.22	267.506
1261.51	472.252
1265.81	645.148
1270.1	420.33
1274.38	639.533
1278.67	337.154
1282.95	240.32
1287.23	499.06
1291.51	483.559
1295.78	660.92
1300.05	506.273
1304.32	499.773
1308.59	434.051
1312.86	662.16
1317.12	485.238
1321.38	421.906
1325.63	544.062
1329.89	497.643
1334.14	165.285
1338.39	221.42
1342.64	277.656
1346.88	179.117
1351.13	136.795
1355.37	163.469
1359.61	194.559
1363.84	327.377
1368.07	556.352
1372.3	271.353
1376.53	157.959
1380.76	228.06
1384.98	244.066
1389.2	329.773
1393.42	139.154
1397.64	250.764
1401.85	277.678
1406.06	312.383
1410.27	98.5488
1414.47	48.2695
1418.68	394.098
1422.88	104.426
1427.08	294.447
1431.27	390.162
1435.47	530.521
1439.66	718.146
1443.85	813.219
1448.03	938.004
1452.22	980.08
1456.4	609.74
1460.58	532.125
1464.76	600.451
1468.93	566.705
1473.1	283.19
1477.27	312.478
1481.44	309.975
1485.6	262.076
1489.77	128.65
1493.92	245.209
1498.08	128.992
1502.24	349.178
1506.39	166.148
1510.54	133.207
1514.69	147.93
1518.83	196.129
1522.97	163.027
1527.12	265.018
1531.25	180.279
1535.39	72.3301
1539.52	198.1
1543.65	88.9316
1547.78	118.791
1551.91	470.787
1556.03	433.158
1560.15	27.7227
1564.27	50.3379
1568.39	8.31055
1572.5	116.381
1576.61	0
