Measurement: Raman, 514 nm, ccw, Raman Data Processed
Mineral: Eckermannite
Rruff sample: R060320
Ideal chemistry: NaNa_2_(Mg_4_Al)Si_8_O_22_(OH)_2_
Locality: Norra Karr Complex, near Granna, Ostergotsland, Sweden
Source: Michael Scott
Description: Parallel aggregate of blue elongated bladed crystals
Measured chemistry: (Na_2.50_K_0.30_[box]_0.20_)_Σ=3_(Mg_2.35_Fe^2+^_1.35_Al_1.20_Mn_0.10_)_Σ=5_Si_8.00_O_22_((OH)_1.18_F_0.82_)_Σ=2_; OH estimated by charge balance, dark material
Pin_id: M01619
Orientation: Laser parallel to b* (0 1 0). Fiducial mark perpendicular to laser is parallel to -c [0 0 -1]
Raman shift (cm-1)	intensity
136.684	0
141.592	77.6523
146.499	963.219
151.402	6430.12
156.304	15670.2
161.203	16341.2
166.099	7114.17
170.993	6018.07
175.885	12405.5
180.774	21018.3
185.661	25554.4
190.545	21613
195.427	16877.4
200.307	15072.1
205.184	17709.1
210.059	24279.4
214.931	32796.9
219.801	35282.2
224.668	38042.2
229.533	43328.5
234.396	39026.6
239.256	27500
244.114	17818.9
248.969	13657.6
253.822	10814.6
258.672	9084.75
263.52	5903.66
268.365	2615
273.208	311.426
278.049	721.348
282.887	469.566
287.723	200.586
292.556	261.117
297.387	234.219
302.215	2930.06
307.041	7506.41
311.865	15087
316.686	21543.4
321.504	21381
326.32	16052.5
331.134	9925.2
335.945	7769.43
340.754	7712.79
345.56	9991.68
350.364	10749.1
355.165	10206.5
359.964	10956.4
364.76	13300.8
369.554	15562
374.346	15784.4
379.135	14207.9
383.921	13344.4
388.705	15095.7
393.487	16769.7
398.266	15785.5
403.043	14036.7
407.817	12973.4
412.589	14063.5
417.358	17523.7
422.125	20532.8
426.889	15820.1
431.651	6407.46
436.41	1506.42
441.167	612.777
445.921	1038.03
450.673	654.283
455.423	151.682
460.17	260.691
464.914	682.059
469.656	1939.78
474.396	4433.98
479.133	7106.34
483.867	8555.52
488.599	9695.83
493.329	8438.37
498.056	8033.77
502.78	9081.34
507.502	11557.8
512.222	15494.3
516.939	16123.4
521.654	12568.2
526.366	11229.4
531.075	12276.6
535.782	15915.4
540.487	23107.1
545.189	32269.7
549.889	38730
554.586	39812.1
559.28	35991.1
563.973	28897.4
568.662	20621.7
573.349	14994.5
578.034	11060.2
582.716	8743.43
587.396	6838.52
592.073	5321.19
596.747	4079.67
601.419	2808.16
606.089	1574.68
610.756	749.564
615.42	7.33789
620.082	354.617
624.742	46.334
629.399	76.2168
634.053	208.383
638.705	833.756
643.355	1334.33
648.002	2370.71
652.646	3421.72
657.288	4218.51
661.927	5769.5
666.564	8149.96
671.199	12650
675.831	21628.2
680.46	40758.4
685.087	78228.8
689.711	114617
694.333	88325.9
698.952	43309.8
703.569	22439.9
708.183	14752.3
712.794	11901.9
717.403	11006
722.01	10021.5
726.614	7179.96
731.216	4799.94
735.815	3299.28
740.411	2779.98
745.005	3083.38
749.596	3455.23
754.185	4574.59
758.772	5664.5
763.355	5429.1
767.937	3650.81
772.515	1946.38
777.091	550.852
781.665	96.5371
786.236	170.334
790.805	471.996
795.371	522.033
799.934	435.611
804.495	525.551
809.054	386.285
813.61	164.125
818.163	173.578
822.714	255.773
827.262	345.748
831.808	180.328
836.351	811.529
840.891	1082.08
845.429	1828.25
849.965	2578.87
854.498	3200.42
859.028	3631.92
863.556	4246.48
868.082	4622.13
872.604	4557.94
877.125	4747.02
881.642	4155.52
886.157	4932.82
890.67	6151.69
895.18	8081.26
899.687	10307.4
904.192	12015.6
908.695	12850.3
913.194	13814.2
917.692	13818.9
922.186	12814.5
926.678	11212.8
931.168	9084.49
935.655	7214.97
940.139	6544.02
944.621	6992.67
949.101	9009.87
953.577	12401.8
958.052	15764.5
962.523	20488.5
966.992	25600.9
971.459	27561.5
975.923	24449.5
980.384	20494.2
984.843	18978.4
989.299	19796.2
993.753	21299.6
998.204	22747.6
1002.65	22674.2
1007.1	19783.4
1011.54	15822.2
1015.98	13096.3
1020.42	10669.9
1024.86	8464.72
1029.29	6965.11
1033.72	6016.06
1038.15	6554.5
1042.57	8528.18
1047	10412
1051.42	8621.47
1055.84	6522.04
1060.25	5742.59
1064.66	6420.28
1069.07	7522.24
1073.48	10015.9
1077.88	14607.1
1082.29	21890.2
1086.69	29607.8
1091.08	27199.5
1095.48	16535.7
1099.87	10649.6
1104.26	7701.86
1108.65	6821.67
1113.03	6227.1
1117.41	6393.44
1121.79	6353.37
1126.17	5679.73
1130.54	4908.24
1134.91	4369.77
1139.28	3960.25
1143.65	2988.56
1148.01	2440.6
1152.37	1963.28
1156.73	1175.49
1161.09	1082.64
1165.44	636.066
1169.79	68.7773
1174.14	91.6152
1178.48	103.353
1182.83	193.736
1187.17	83.6113
1191.51	216.158
1195.84	355.361
1200.17	499.891
1204.5	393.59
1208.83	319.777
1213.15	502.592
1217.48	72.8555
1221.8	130.254
1226.11	239.435
1230.43	409.195
1234.74	501.627
1239.05	397.67
1243.36	514.029
1247.66	750.803
1251.96	570.041
1256.26	741.731
1260.56	939.848
1264.85	933.352
1269.14	814.269
1273.43	932.537
1277.71	1037.15
1282	1266.2
1286.28	1548.65
1290.56	1776.41
1294.83	1854.72
1299.11	1876.69
1303.38	1916.12
1307.64	1551.93
1311.91	1962.24
1316.17	1481.11
1320.43	1551.37
1324.69	1346.07
1328.94	1245.56
1333.19	955.106
1337.44	960.791
1341.69	537.076
1345.93	554.598
1350.18	884.027
1354.41	449.014
1358.65	682.295
1362.89	458.67
1367.12	563.404
1371.35	495.943
1375.57	442.606
1379.8	382.914
1384.02	307.426
1388.23	586.465
1392.45	450.822
1396.66	365.912
1400.87	321.221
1405.08	16.4062
1409.29	254.238
1413.49	201.148
1417.69	297.502
1421.89	483.676
1426.08	767.557
1430.27	1246.12
1434.46	1384.02
1438.65	1666.43
1442.83	1767.55
1447.02	1942.69
1451.19	2034.62
1455.37	1990.52
1459.55	1895.62
1463.72	1658.09
1467.88	1248.97
1472.05	1146.02
1476.21	782.152
1480.38	1092.57
1484.53	616.176
1488.69	505.5
1492.84	260.908
1496.99	192.506
1501.14	62.8945
1505.29	127.346
1509.43	188.084
1513.57	370.164
1517.71	81.5469
1521.84	830.623
1525.97	41.8535
1530.1	7.16016
1534.23	53.2168
1538.35	350.828
1542.47	431.559
1546.59	236.869
1550.71	189.398
1554.82	699.785
1558.94	168.752
1563.04	20.1777
1567.15	14.6777
1571.25	1.22852
1575.35	232.957
