Measurement: Raman, 514 nm, ccw, Raman Data Processed
Mineral: Eckermannite
Rruff sample: R060320
Ideal chemistry: NaNa_2_(Mg_4_Al)Si_8_O_22_(OH)_2_
Locality: Norra Karr Complex, near Granna, Ostergotsland, Sweden
Source: Michael Scott
Description: Parallel aggregate of blue elongated bladed crystals
Measured chemistry: (Na_2.50_K_0.30_[box]_0.20_)_Σ=3_(Mg_2.35_Fe^2+^_1.35_Al_1.20_Mn_0.10_)_Σ=5_Si_8.00_O_22_((OH)_1.18_F_0.82_)_Σ=2_; OH estimated by charge balance, dark material
Pin_id: M00815
Orientation: Laser parallel to a* (1 0 0). Fiducial mark perpendicular to laser is parallel to b [0 1 0]
Raman shift (cm-1)	intensity
136.684	0
141.592	239.234
146.499	709.894
151.402	4620.46
156.304	11146.4
161.203	10222.5
166.099	5246.43
170.993	4761.8
175.885	8269.02
180.774	13670.3
185.661	18351.6
190.545	17972.5
195.427	18190.4
200.307	24591.2
205.184	37972.3
210.059	52160
214.931	54403.6
219.801	43121.9
224.668	29393.2
229.533	19697.9
234.396	13003.8
239.256	8705.18
244.114	5713.42
248.969	3931.22
253.822	2995.56
258.672	2649.26
263.52	1110.4
268.365	263.963
273.208	70.9688
278.049	612.174
282.887	671.356
287.723	406.254
292.556	538.201
297.387	149.986
302.215	1177.97
307.041	3253.79
311.865	6943.37
316.686	9697.69
321.504	9139.94
326.32	7106.78
331.134	4374.53
335.945	2681.31
340.754	1521.62
345.56	1468.53
350.364	1316.64
355.165	1941.31
359.964	2159.3
364.76	2998.64
369.554	4039.41
374.346	4708.4
379.135	6427.46
383.921	8329.47
388.705	11040.1
393.487	12912.4
398.266	14695.5
403.043	16212.4
407.817	18420.4
412.589	21649.5
417.358	26343.6
422.125	27733.7
426.889	20186.1
431.651	9718.98
436.41	4237.01
441.167	1683.57
445.921	824.635
450.673	358.981
455.423	139.752
460.17	219.188
464.914	689.506
469.656	561.904
474.396	1048.43
479.133	1470.99
483.867	2090.75
488.599	2012.71
493.329	2033.58
498.056	2193.77
502.78	2912.44
507.502	4083.66
512.222	5362.3
516.939	6228.12
521.654	7402.48
526.366	7695.42
531.075	8217.17
535.782	9799.61
540.487	12362.6
545.189	16635.1
549.889	21227.2
554.586	22855.9
559.28	21194.3
563.973	15911.1
568.662	11452.2
573.349	7994.45
578.034	6320.83
582.716	5336.05
587.396	4623.14
592.073	3803.7
596.747	3119.58
601.419	2556.92
606.089	2196.76
610.756	1105.06
615.42	85.5977
620.082	378.412
624.742	199.826
629.399	322.346
634.053	315.822
638.705	4.12109
643.355	288.443
648.002	690.65
652.646	1242.63
657.288	1611.49
661.927	2814.36
666.564	4634.39
671.199	7633.95
675.831	14333.4
680.46	30117
685.087	60970.2
689.711	83464.2
694.333	59887.9
698.952	29471.3
703.569	14979.6
708.183	9023.48
712.794	5884.09
717.403	4026.34
722.01	2962.19
726.614	1817.07
731.216	1680.69
735.815	742.137
740.411	654.41
745.005	711.441
749.596	1189.08
754.185	2015.83
758.772	2433.3
763.355	2297.02
767.937	1338.62
772.515	746.769
777.091	400.685
781.665	360.047
786.236	789.488
790.805	965.943
795.371	614.971
799.934	204.498
804.495	15.3242
809.054	89.2363
813.61	576.541
818.163	551.551
822.714	610.369
827.262	1420.04
831.808	1761.61
836.351	2093.13
840.891	2096.63
845.429	1734.16
849.965	1686.77
854.498	903.502
859.028	226.402
863.556	71.5156
868.082	275.691
872.604	566.104
877.125	408.455
881.642	2.86719
886.157	576.211
890.67	1397.8
895.18	2385.9
899.687	3534.76
904.192	4074.8
908.695	4042.81
913.194	4148.41
917.692	3753.84
922.186	3173.42
926.678	2919.93
931.168	2535.33
935.655	1511.05
940.139	918.469
944.621	579.426
949.101	567.606
953.577	756.227
958.052	1329.24
962.523	1411.4
966.992	2317.73
971.459	2769.79
975.923	3141.78
980.384	3841.51
984.843	5699.4
989.299	6907.44
993.753	8290.65
998.204	10320
1002.65	12341.4
1007.1	12713.8
1011.54	13630.5
1015.98	16302
1020.42	18489.9
1024.86	17887.5
1029.29	15269.5
1033.72	11482.9
1038.15	9085.53
1042.57	7366.43
1047	6468.98
1051.42	5910.84
1055.84	5952.2
1060.25	5803.65
1064.66	5592.28
1069.07	5976.36
1073.48	6914.75
1077.88	9096.21
1082.29	12618.1
1086.69	16092.8
1091.08	13882.5
1095.48	10044.6
1099.87	7187.32
1104.26	5993.15
1108.65	5639.89
1113.03	5530.62
1117.41	4850.46
1121.79	4453.74
1126.17	3813.43
1130.54	3370.45
1134.91	2939.29
1139.28	2326.6
1143.65	2330.86
1148.01	1832.33
1152.37	1649.69
1156.73	1213.64
1161.09	1015.98
1165.44	533.957
1169.79	550.93
1174.14	16.1484
1178.48	112.648
1182.83	181.172
1187.17	154.402
1191.51	95.3984
1195.84	115.816
1200.17	320.566
1204.5	150.352
1208.83	58.582
1213.15	221.883
1217.48	192.746
1221.8	104.688
1226.11	49.7969
1230.43	253.769
1234.74	315.836
1239.05	342.406
1243.36	235.328
1247.66	757.902
1251.96	767.051
1256.26	477.957
1260.56	351.231
1264.85	529.879
1269.14	479.18
1273.43	457.367
1277.71	271.012
1282	65.2539
1286.28	316.129
1290.56	648.055
1294.83	763.422
1299.11	900.769
1303.38	851.887
1307.64	705.008
1311.91	816.973
1316.17	860.891
1320.43	815.644
1324.69	632.539
1328.94	486.438
1333.19	175.059
1337.44	116.246
1341.69	188.301
1345.93	253.043
1350.18	220.566
1354.41	16.1523
1358.65	25.2656
1362.89	281.273
1367.12	8.37891
1371.35	112.344
1375.57	65.1094
1379.8	198.508
1384.02	219.492
1388.23	161.082
1392.45	170.348
1396.66	149.129
1400.87	142.598
1405.08	11.4609
1409.29	214.254
1413.49	219.387
1417.69	85.5508
1421.89	224.644
1426.08	155.918
1430.27	433.938
1434.46	579.723
1438.65	752.637
1442.83	1231.39
1447.02	1291.04
1451.19	1337.51
1455.37	1387.49
1459.55	1331.94
1463.72	1198.82
1467.88	622.941
1472.05	883.391
1476.21	951.086
1480.38	716.125
1484.53	236.023
1488.69	545.324
1492.84	176.93
1496.99	62.8125
1501.14	74.8047
1505.29	195.074
1509.43	155.887
1513.57	197.035
1517.71	128.273
1521.84	213.922
1525.97	104.336
1530.1	240.367
1534.23	223.344
1538.35	405.891
1542.47	335.727
1546.59	518.16
1550.71	557.152
1554.82	213.496
1558.94	302.113
1563.04	256.059
1567.15	111.547
1571.25	415.914
1575.35	100.562
