Measurement: Raman, 514 nm, ccw, Raman Data Processed
Mineral: Eckermannite
Rruff sample: R060320
Ideal chemistry: NaNa_2_(Mg_4_Al)Si_8_O_22_(OH)_2_
Locality: Norra Karr Complex, near Granna, Ostergotsland, Sweden
Source: Michael Scott
Description: Parallel aggregate of blue elongated bladed crystals
Measured chemistry: (Na_2.50_K_0.30_[box]_0.20_)_Σ=3_(Mg_2.35_Fe^2+^_1.35_Al_1.20_Mn_0.10_)_Σ=5_Si_8.00_O_22_((OH)_1.18_F_0.82_)_Σ=2_; OH estimated by charge balance, dark material
Pin_id: M01072
Orientation: Laser parallel to -c* (0 0 -1). Fiducial mark perpendicular to laser is parallel to -a [-1 0 0]
Raman shift (cm-1)	intensity
102.823	0
107.744	328.038
112.662	553.964
117.578	1216.79
122.492	1159.34
127.403	59.1943
132.312	37.0029
137.22	488.166
142.124	445.351
147.027	1031.84
151.927	2514.26
156.826	3487.22
161.721	2378.07
166.615	1804.82
171.507	2307.2
176.396	3731.63
181.283	5236.48
186.167	5832.1
191.05	5587.06
195.93	6324.52
200.808	9571.88
205.683	13651.5
210.557	15999
215.428	14199.6
220.296	10352.1
225.163	6742.21
230.027	4408.82
234.889	2921.02
239.749	2014.84
244.606	1463.29
249.461	858.043
254.314	678.135
259.164	260.659
264.012	89.1948
268.858	141.558
273.702	131.89
278.543	102.187
283.382	111.981
288.218	56.3394
293.053	12.3066
297.885	221.95
302.714	599.556
307.542	1484.06
312.366	2553.08
317.189	2827.28
322.009	2253.22
326.827	1515.08
331.643	1016.06
336.456	824.514
341.267	716.624
346.076	610.967
350.882	759.551
355.686	782.24
360.488	851.856
365.287	1098.32
370.084	1391.59
374.878	1693.67
379.67	2004.54
384.46	2659.21
389.247	3282.69
394.032	3749.98
398.815	4150.22
403.595	4612.04
408.373	5518.88
413.148	6748.37
417.922	7835.12
422.692	6810.85
427.461	3935.16
432.226	1688.87
436.99	742.361
441.751	138.468
446.51	69.7842
451.266	30.9077
456.02	98.5107
460.772	143.815
465.521	265.86
470.267	221.993
475.012	453.565
479.754	415.907
484.493	483.7
489.23	428.056
493.965	483.252
498.697	510.873
503.427	866.063
508.154	1109.17
512.879	1413.01
517.601	1627.62
522.321	1743.73
527.039	1932.39
531.754	2201.86
536.467	2590.42
541.177	3500.85
545.885	4687.01
550.59	5700.92
555.293	5741.75
559.993	4604.97
564.691	3270.74
569.387	2327.93
574.08	1677.56
578.77	1293.9
583.459	1108.64
588.144	838.005
592.827	699.654
597.508	617.93
602.186	508.928
606.862	486.52
611.535	182.878
616.206	27.7241
620.874	115.211
625.54	166.641
630.204	69.4482
634.864	5.49805
639.523	66.1553
644.179	158.35
648.832	298.239
653.483	443.372
658.131	608.01
662.777	1095.01
667.42	1699.11
672.061	2978.57
676.699	6107.66
681.335	12528.1
685.968	21692.9
690.599	22110.4
695.227	12301.3
699.853	6010.8
704.476	3359.79
709.097	2207.85
713.715	1516.28
718.331	1071.76
722.944	869.615
727.554	560.956
732.162	379.533
736.768	329.96
741.371	348.787
745.971	303.284
750.569	432.466
755.164	570.919
759.757	599.713
764.347	357.276
768.935	156.046
773.52	76.0115
778.103	53.6069
782.683	134.254
787.26	138.435
791.835	139.732
796.407	73.7417
800.977	44.8286
805.544	31.3308
810.109	58.773
814.671	43.8948
819.23	2.13403
823.787	115.139
828.341	178.981
832.893	278.679
837.442	390.253
841.989	217.721
846.533	214.101
851.074	114.412
855.613	17.6704
860.149	48.1313
864.683	80.2754
869.214	3.03003
873.742	39.9319
878.268	87.8638
882.791	138.595
887.312	397.564
891.83	671.763
896.345	945.376
900.858	1328.75
905.368	1483.92
909.876	1716.3
914.381	1811.25
918.883	1601.84
923.383	1471.23
927.88	1292.28
932.374	1061.67
936.866	914.498
941.355	748.776
945.842	663.174
950.326	776.321
954.807	1035.46
959.286	1275.9
963.762	1604.89
968.235	2147.39
972.706	3003.44
977.174	4052.98
981.64	5315.01
986.103	6705.46
990.563	7184.37
995.021	7652.18
999.476	6997.13
1003.93	6717.16
1008.38	6525.34
1012.83	6563.75
1017.27	6685.32
1021.71	6321.61
1026.15	5559.26
1030.59	4186.29
1035.02	2968.95
1039.45	2198.96
1043.88	1792.36
1048.31	1558.55
1052.73	1662.56
1057.15	1636.14
1061.57	1727.19
1065.98	1638
1070.39	1762.03
1074.8	2093.67
1079.21	2815.39
1083.62	3978.4
1088.02	4525.17
1092.41	3371.76
1096.81	2144.91
1101.2	1601.36
1105.6	1385.19
1109.98	1217.49
1114.37	1143.78
1118.75	1032.06
1123.13	925.524
1127.51	841.511
1131.88	793.567
1136.26	612.938
1140.63	575.012
1144.99	511.071
1149.36	460.312
1153.72	343.217
1158.08	296.85
1162.43	180.932
1166.79	177.363
1171.14	66.9465
1175.48	14.7358
1179.83	33.4746
1184.17	16.4519
1188.51	78.5649
1192.85	27.2341
1197.18	52.2297
1201.51	36.7749
1205.84	46.5915
1210.17	17.0137
1214.49	45.5369
1218.81	69.6523
1223.13	37.5251
1227.44	18.6238
1231.76	7.61255
1236.07	20.5291
1240.37	40.9873
1244.68	74.0703
1248.98	6.91577
1253.28	32.7219
1257.57	42.9605
1261.87	74.0559
1266.16	35.0823
1270.44	56.6333
1274.73	167.642
1279.01	106.349
1283.29	75.8013
1287.57	209.87
1291.84	137.721
1296.11	120.409
1300.38	137.43
1304.65	133.01
1308.91	123.457
1313.17	127.652
1317.43	134.766
1321.68	239.346
1325.93	208.69
1330.18	54.0723
1334.43	156.03
1338.67	156.736
1342.91	76.8962
1347.15	121.947
1351.39	96.0347
1355.62	135.109
1359.85	71.1602
1364.08	122.174
1368.3	86.6448
1372.52	89.6768
1376.74	58.0576
1380.95	48.6768
1385.17	27.0811
1389.38	18.7954
1393.59	49.0989
1397.79	68.9792
1401.99	51.0425
1406.19	95.0203
1410.39	39.2317
1414.58	58.2266
1418.77	158.097
1422.96	146.274
1427.14	98.3201
1431.33	3.43384
1435.51	57.2283
1439.68	62.154
1443.86	55.8335
1448.03	69.5085
1452.2	54.5488
1456.36	10.6148
1460.53	0.712402
1464.68	54.2053
1468.84	45.5322
1473	12.552
1477.15	46.7251
1481.3	49.4365
1485.44	51.0989
1489.59	75.7129
1493.73	12.7087
1497.86	21.9277
1502	46.8567
1506.13	31.5456
1510.26	35.4578
1514.38	31.3342
1518.51	77.939
1522.63	33.8098
1526.75	63.8606
1530.86	76.1106
1534.97	13.9475
1539.08	30.377
1543.19	47.936
1547.29	1.95776
1551.39	126.913
1555.49	138.346
1559.59	23.7117
1563.68	107.684
1567.77	85.8477
1571.85	20.3184
1575.94	2.76709
