Measurement: Raman, 514 nm, depolarized, Raman Data Processed
Mineral: Eckermannite
Rruff sample: R060320
Ideal chemistry: NaNa_2_(Mg_4_Al)Si_8_O_22_(OH)_2_
Locality: Norra Karr Complex, near Granna, Ostergotsland, Sweden
Source: Michael Scott
Description: Parallel aggregate of blue elongated bladed crystals
Measured chemistry: (Na_2.50_K_0.30_[box]_0.20_)_Σ=3_(Mg_2.35_Fe^2+^_1.35_Al_1.20_Mn_0.10_)_Σ=5_Si_8.00_O_22_((OH)_1.18_F_0.82_)_Σ=2_; OH estimated by charge balance, dark material
Pin_id: M00815
Orientation: Laser parallel to a* (1 0 0). Fiducial mark perpendicular to laser is parallel to b [0 1 0]
Raman shift (cm-1)	intensity
136.684	0
141.592	15.8477
146.499	202.68
151.402	1265.96
156.304	4660.25
161.203	4939.26
166.099	4906.02
170.993	5581.37
175.885	8037.01
180.774	12733.7
185.661	15927.6
190.545	15576
195.427	14558
200.307	19180.1
205.184	29546
210.059	40514.9
214.931	43383.1
219.801	35279.5
224.668	24242.3
229.533	16499
234.396	11243.4
239.256	8267.69
244.114	6090.2
248.969	5396.04
253.822	4702.19
258.672	4201.25
263.52	2257.18
268.365	838.941
273.208	241.496
278.049	27.375
282.887	428.996
287.723	198.328
292.556	597.316
297.387	307.352
302.215	1090.38
307.041	4067.08
311.865	8003.84
316.686	11130.5
321.504	10843.2
326.32	7928.33
331.134	4911.8
335.945	2822.5
340.754	1630.84
345.56	1760.49
350.364	1860.02
355.165	3060.93
359.964	4708.28
364.76	6543.65
369.554	7006.57
374.346	7305.65
379.135	7993.69
383.921	8883.6
388.705	11188.3
393.487	13127.8
398.266	14049.1
403.043	14204
407.817	14825.7
412.589	17100.1
417.358	21391.1
422.125	23961.9
426.889	17497.9
431.651	8373.02
436.41	3815.57
441.167	1497.44
445.921	401.629
450.673	31.6172
455.423	164.941
460.17	13.3359
464.914	129.727
469.656	636.254
474.396	715.297
479.133	1704.28
483.867	2505.89
488.599	3129.68
493.329	3033.11
498.056	2335.69
502.78	2622.49
507.502	3226.66
512.222	4846.91
516.939	5923.75
521.654	7281.57
526.366	8619.58
531.075	9337.31
535.782	11112.3
540.487	13285.4
545.189	16577.5
549.889	20303.5
554.586	21963.8
559.28	19831.8
563.973	16311.8
568.662	11492
573.349	9245.28
578.034	7088.73
582.716	6625.07
587.396	5746.58
592.073	4939.34
596.747	3861.12
601.419	3314.19
606.089	1877.93
610.756	840.148
615.42	632.551
620.082	73.0039
624.742	440.348
629.399	195.668
634.053	134.465
638.705	305.039
643.355	590.891
648.002	1409.06
652.646	1237.19
657.288	2119.08
661.927	3031.92
666.564	4873.38
671.199	7683.1
675.831	13312.8
680.46	26828.9
685.087	53696.6
689.711	74972.9
694.333	55401.7
698.952	27247.9
703.569	14978.5
708.183	9371.55
712.794	6867.07
717.403	5629.05
722.01	4620.46
726.614	3710.39
731.216	2201.24
735.815	1450.49
740.411	1518.38
745.005	1480.13
749.596	2087.31
754.185	3826.42
758.772	4737.63
763.355	4541.29
767.937	2952.25
772.515	1407.19
777.091	393.254
781.665	80.2305
786.236	117.484
790.805	84.3086
795.371	232.57
799.934	168.746
804.495	16.832
809.054	373.125
813.61	281.684
818.163	282.867
822.714	456.723
827.262	475.609
831.808	1004.73
836.351	1060
840.891	1109.18
845.429	942.312
849.965	573.461
854.498	301.668
859.028	72.9766
863.556	83.625
868.082	426.934
872.604	471.781
877.125	96.332
881.642	481.07
886.157	974.121
890.67	1345.73
895.18	2789.78
899.687	3468.38
904.192	4106.98
908.695	4380.05
913.194	4397.64
917.692	4331.45
922.186	4097.64
926.678	3275.07
931.168	2196.8
935.655	1989.14
940.139	1344.12
944.621	1051.95
949.101	870.949
953.577	826.856
958.052	1606.72
962.523	2151.56
966.992	2292.56
971.459	3354.73
975.923	3887.02
980.384	5078.46
984.843	5975.25
989.299	6945.27
993.753	7649.46
998.204	7798.5
1002.65	8699.87
1007.1	7607.67
1011.54	7859.97
1015.98	8728.16
1020.42	8713.15
1024.86	9347.53
1029.29	8206.39
1033.72	6660.65
1038.15	5749.25
1042.57	5415.1
1047	4592.73
1051.42	3866.18
1055.84	3788.97
1060.25	4380.03
1064.66	4253.34
1069.07	4610.95
1073.48	5143.83
1077.88	6247.3
1082.29	8915.96
1086.69	10792.8
1091.08	10045.5
1095.48	6457.64
1099.87	5726.75
1104.26	5253.93
1108.65	5538.75
1113.03	5272.91
1117.41	6352.94
1121.79	4098.56
1126.17	3431.66
1130.54	3071.61
1134.91	2781.61
1139.28	2151.52
1143.65	1717.66
1148.01	1409.41
1152.37	1688.92
1156.73	1102.62
1161.09	1026.64
1165.44	720.352
1169.79	171.273
1174.14	439.219
1178.48	45.7578
1182.83	105.898
1187.17	449.891
1191.51	194.734
1195.84	206.961
1200.17	666.852
1204.5	240.109
1208.83	299.922
1213.15	134.125
1217.48	112.094
1221.8	122.227
1226.11	371.883
1230.43	350.531
1234.74	607.656
1239.05	783.633
1243.36	262.5
1247.66	280.102
1251.96	709.367
1256.26	762.281
1260.56	920.359
1264.85	633.25
1269.14	444.711
1273.43	497.516
1277.71	391.797
1282	172.531
1286.28	111.797
1290.56	497.266
1294.83	318.867
1299.11	205.82
1303.38	954.141
1307.64	830.398
1311.91	740.336
1316.17	902.953
1320.43	718.219
1324.69	968.414
1328.94	914.094
1333.19	482.133
1337.44	215.156
1341.69	424
1345.93	526.5
1350.18	238.039
1354.41	260.625
1358.65	381.227
1362.89	188.875
1367.12	152.289
1371.35	131.602
1375.57	436.898
1379.8	67.1484
1384.02	121.781
1388.23	282.758
1392.45	246.234
1396.66	394.578
1400.87	102.492
1405.08	85.4141
1409.29	53.2812
1413.49	2.97656
1417.69	42.3125
1421.89	501.508
1426.08	231.875
1430.27	120.406
1434.46	945.359
1438.65	596.305
1442.83	667.578
1447.02	976.031
1451.19	1235.44
1455.37	1175.4
1459.55	1412.62
1463.72	980.641
1467.88	971.031
1472.05	690.43
1476.21	897.047
1480.38	326.867
1484.53	907.773
1488.69	59.2812
1492.84	475.641
1496.99	172.023
1501.14	539.594
1505.29	360.859
1509.43	496.711
1513.57	400.586
1517.71	594.547
1521.84	12.5859
1525.97	358.312
1530.1	972.336
1534.23	250.617
1538.35	450.945
1542.47	637.883
1546.59	786.305
1550.71	605.961
1554.82	954.656
1558.94	246.273
1563.04	396.195
1567.15	99.6953
1571.25	494.109
1575.35	311.289
