Measurement: Raman, 514 nm, depolarized, Raman Data Processed
Mineral: Edenite
Rruff sample: R060029
Ideal chemistry: NaCa_2_Mg_5_(Si_7_Al)O_22_(OH)_2_
Locality: Renfrew County, Ontario, Canada
Source: University of Arizona Mineral Museum
Description: Black prismatic
Measured chemistry: (Na_0.62_K_0.34_[box]_0.04_)(Ca_0.86_Na_0.14_)_2_(Mg_0.57_Fe^2+^_0.30_Fe^3+^_0.07_Al_0.05_Ti_0.01_Mn_0.01_)_5_(Si_6.61_Al_1.39_)O_22_((OH)_0.69_F_0.31_)_2_
Pin_id: M00286
Orientation: Laser parallel to (-1 0 -1). Fiducial mark perpendicular to laser is parallel to b [0 1 0]
Raman shift (cm-1)	intensity
131.668	0
136.585	54.2559
141.5	259.328
146.412	1433.75
151.321	4613.55
156.229	5331.77
161.134	2268.31
166.036	1897.76
170.936	1939.91
175.834	2490.71
180.729	3457.02
185.622	3248.55
190.512	3154.47
195.4	3697.04
200.286	4955.7
205.169	2782.67
210.049	2676.19
214.928	5772.81
219.803	9702.85
224.677	11551.1
229.548	10114.7
234.416	7476.7
239.282	4896.97
244.146	2648.64
249.007	1477.81
253.866	579.914
258.722	101.879
263.576	323.703
268.427	193.547
273.276	159.656
278.123	803.891
282.967	1493.12
287.809	2090.2
292.648	2354.74
297.485	2452.53
302.319	1990.86
307.151	1404.58
311.98	872.604
316.807	532.996
321.631	236.955
326.454	68.9785
331.273	107.705
336.09	20.2246
340.905	115.422
345.717	614.451
350.527	1115.11
355.334	2456.44
360.139	2804.2
364.941	3012.63
369.741	3146.21
374.538	2900.19
379.333	2572.68
384.126	1701.79
388.916	1211.27
393.703	826.971
398.488	404.865
403.271	189.102
408.051	80.8106
412.828	110.061
417.603	165.147
422.376	763.303
427.146	1093.89
431.914	1400.89
436.679	1227.15
441.442	976.576
446.202	857.092
450.96	446.85
455.715	617.109
460.467	378.269
465.218	183.652
469.965	221.627
474.711	81.918
479.454	268.19
484.194	205.803
488.932	463.938
493.667	1016.47
498.4	1595.19
503.13	2335.64
507.858	2728.22
512.583	3422.1
517.306	3672.25
522.026	4196.65
526.744	4859.27
531.459	5256.12
536.172	5248.16
540.882	4798.15
545.59	4405.2
550.295	4041.12
554.998	3643.02
559.698	3184.71
564.396	2730.55
569.091	2409.76
573.784	2085.9
578.474	1587.43
583.162	889.162
587.847	296.809
592.529	271.656
597.209	208.924
601.887	151.537
606.562	0.857422
611.235	87.1562
615.905	484.469
620.572	893.295
625.237	1500.39
629.9	1831.05
634.56	2720.64
639.217	3464.61
643.872	4620.53
648.524	6029.57
653.174	7740.73
657.821	10500
662.466	14673.5
667.108	18128.1
671.748	17374.9
676.385	13133.9
681.02	9194.15
685.652	6091.62
690.281	4464.98
694.908	3130.04
699.533	2395.95
704.155	2161.11
708.774	2374.26
713.391	2848.09
718.005	2981.63
722.617	2884.5
727.226	2831.27
731.833	2638.3
736.437	2388.52
741.039	1924.69
745.638	1447.84
750.234	979.781
754.828	689.115
759.419	590.406
764.008	576.865
768.595	595.168
773.178	593.725
777.759	728.369
782.338	714.41
786.914	822.998
791.488	815.746
796.059	838.887
800.627	779.814
805.193	731.566
809.756	666.709
814.317	647.6
818.875	337.715
823.431	305.086
827.984	4.73633
832.534	81.4785
837.082	168.029
841.627	293.496
846.17	196.414
850.71	139.34
855.248	30.4766
859.783	306.529
864.316	579.053
868.846	692.826
873.373	805.217
877.898	1218.02
882.42	1297.67
886.94	1512.6
891.457	1921.44
895.971	2264.09
900.483	2577.6
904.993	2951.77
909.5	3182.93
914.004	3453.05
918.505	3397.44
923.004	3670.05
927.501	3711.7
931.995	3534.73
936.486	3384.99
940.975	3328.73
945.461	3292.53
949.945	3210.09
954.426	3261.8
958.904	3237.14
963.38	3227.98
967.853	3266.6
972.324	3228.86
976.792	3133.9
981.258	3163.22
985.72	3291.69
990.181	3505.59
994.639	3986.77
999.094	4527.04
1003.55	5004.52
1008	5307.4
1012.44	5630.28
1016.89	5788.21
1021.33	5860.41
1025.77	5874.96
1030.21	5793.77
1034.64	5823.55
1039.07	5649.49
1043.5	5461.19
1047.93	5317.71
1052.35	5191.86
1056.78	4966.26
1061.19	4554.73
1065.61	4111.52
1070.02	3791.62
1074.43	3371.61
1078.84	3137.65
1083.25	2978.78
1087.65	2377.52
1092.05	2229.69
1096.45	1945.56
1100.85	1828.55
1105.24	1573
1109.63	1432.37
1114.02	950.721
1118.4	911.697
1122.78	869.99
1127.16	520.562
1131.54	351.834
1135.92	164.635
1140.29	38.5039
1144.66	120.188
1149.02	25.5566
1153.39	107.848
1157.75	128.295
1162.11	30.7109
1166.46	42.0586
1170.82	51.2891
1175.17	2.94141
1179.52	247.836
1183.86	8.70312
1188.21	24.7949
1192.55	160.117
1196.89	198.725
1201.22	5.82422
1205.55	66.8848
1209.88	35.873
1214.21	114.893
1218.54	116.799
1222.86	74.1426
1227.18	182.904
1231.5	203.67
1235.81	180.59
1240.12	276.844
1244.43	262.445
1248.74	330.592
1253.04	129.982
1257.34	95.6582
1261.64	203.572
1265.94	164.799
1270.23	168.34
1274.52	142.174
1278.81	83.2598
1283.1	166.473
1287.38	87.5352
1291.66	315.16
1295.94	137.603
1300.21	140.574
1304.48	252.482
1308.75	280.621
1313.02	217.838
1317.29	304.332
1321.55	156.699
1325.81	135.117
1330.06	293.258
1334.32	140.551
1338.57	218.211
1342.82	124.039
1347.06	59.875
1351.31	246.014
1355.55	222.049
1359.79	75.7656
1364.02	236.477
1368.26	356.147
1372.49	280.68
1376.71	289.902
1380.94	266.191
1385.16	311.877
1389.38	256.318
1393.6	269.522
1397.81	197.635
1402.02	230.92
1406.23	170.518
1410.44	196.934
1414.64	119.154
1418.85	157.639
1423.04	90.5664
1427.24	230.139
1431.43	0.347656
1435.62	178.391
1439.81	178.264
1444	134.815
1448.18	209.875
1452.36	236.94
1456.54	91.4883
1460.71	141.266
1464.89	346.859
1469.06	252.492
1473.22	291.898
1477.39	328.08
1481.55	250.619
1485.71	327.062
1489.86	104.189
1494.02	232.103
1498.17	122.805
1502.32	214.795
1506.46	49.8438
1510.61	158.768
1514.75	33.5781
1518.88	168.383
1523.02	11.2109
1527.15	56.6934
1531.28	219.861
1535.41	214.262
1539.53	141.523
1543.66	160.846
1547.78	150.443
1551.89	207.533
1556.01	167.678
1560.12	199.148
1564.23	182.264
1568.33	67.2266
