Measurement: Raman, 514 nm, depolarized, Raman Data Processed
Mineral: Edenite
Rruff sample: R050415
Ideal chemistry: NaCa_2_Mg_5_(Si_7_Al)O_22_(OH)_2_
Locality: Mogok, Burma
Source: Marcus Origlieri
Description: Transparent pale green water worn fragment
Measured chemistry: (Na_0.83_K_0.17_)(Ca_1.76_Na_0.24_)_=2_(Mg_4.54_Al_0.40_Fe^3+^_0.06_)_=5_(Si_6.74_Al_1.26_)O_22_((OH)_0.52_F_0.48_)_2_
Pin_id: L01128
Orientation: Laser parallel to -c* (0 0 -1). Fiducial mark perpendicular to laser is parallel to -a [-1 0 0]
Raman shift (cm-1)	intensity
100.883	0
105.815	734.337
110.744	1243.58
115.671	2712.78
120.596	4571.72
125.519	3394.94
130.439	948.699
135.356	58.583
140.271	53.7031
145.184	179.391
150.094	60.5889
155.002	1190.47
159.908	3052.56
164.811	7219.75
169.711	7511.32
174.61	4722.27
179.505	4112.49
184.399	4037.65
189.29	3349.36
194.178	2307.88
199.064	2067.82
203.948	2584.76
208.829	3880.28
213.708	6383.07
218.585	10052.4
223.459	14548.1
228.33	17174.5
233.199	16249.8
238.066	15899
242.93	13923.8
247.792	10780.6
252.651	8114.56
257.508	5808.86
262.363	3288.34
267.215	1651.75
272.064	869.307
276.912	452.886
281.756	454.579
286.598	560.153
291.438	784.586
296.276	1108.1
301.111	1456.21
305.943	1723.25
310.773	2470.04
315.601	3450.02
320.426	4070.84
325.248	3527.79
330.068	2660.68
334.886	2266.46
339.701	2189.26
344.514	2413.43
349.324	2917.89
354.132	3395.06
358.938	3887.96
363.741	4196.49
368.541	4913.53
373.339	5316.01
378.135	5630.88
382.928	5446.09
387.718	5979.61
392.506	6409.44
397.292	5521.1
402.075	3934.56
406.856	2638.69
411.634	2172.59
416.41	2312.61
421.183	2748.85
425.954	2954.14
430.722	2483.74
435.488	1854.93
440.251	1026.77
445.012	387.973
449.77	225.641
454.526	73.7559
459.28	81.4766
464.03	113.061
468.779	109.635
473.525	75.7803
478.268	181.416
483.009	36.8438
487.747	28.6934
492.483	157.812
497.217	417.662
501.948	785.207
506.676	1504.37
511.402	2763.14
516.125	3196.53
520.846	3280.44
525.565	3067.85
530.281	2655.82
534.994	2254.2
539.705	1743.71
544.413	1248.85
549.119	575.624
553.822	287.826
558.523	190.301
563.222	134.981
567.917	132.959
572.611	71.7832
577.302	116.641
581.99	51.2158
586.676	155.512
591.359	213.653
596.04	226.519
600.718	151.037
605.394	308.078
610.067	704.482
614.737	781.434
619.406	1177.7
624.071	1801.92
628.734	2432.94
633.395	3334.63
638.053	4868.46
642.708	6719.35
647.361	9171.28
652.012	12333.5
656.66	16235
661.305	22095
665.948	31200.9
670.588	42456.9
675.226	47029.8
679.861	38961.8
684.494	25059.1
689.124	14829.6
693.752	8964.1
698.377	5684.33
702.999	3624.69
707.619	2464.57
712.237	1928.16
716.852	1565.84
721.464	1424.64
726.074	1160.88
730.681	1063.18
735.286	953.584
739.888	764.828
744.488	426.504
749.085	171.794
753.68	332.602
758.272	47.9697
762.861	224.797
767.448	85.9814
772.033	197.85
776.614	147.47
781.194	92.8818
785.77	25.7949
790.345	76.3193
794.916	84.2891
799.485	224.215
804.052	45.1143
808.616	28.1904
813.177	184.731
817.736	8.27734
822.292	24.5273
826.846	81.9473
831.397	35.3027
835.945	57.7754
840.491	125.736
845.035	0.755859
849.576	32.5996
854.114	29.1641
858.65	78.1074
863.183	206.441
867.713	77.0957
872.241	114
876.767	592.461
881.29	859.545
885.81	1273.14
890.328	1804.81
894.843	2233.44
899.356	2565.12
903.866	3075.41
908.373	3926.7
912.878	4761.31
917.38	5353.78
921.88	5658.55
926.377	5286.62
930.872	5069.61
935.364	4501.17
939.853	4043.25
944.34	4007.74
948.824	4021.23
953.306	3936.3
957.785	3461.81
962.261	3411.94
966.735	3060.44
971.207	3106.7
975.675	3202.64
980.141	3481.85
984.605	3666.59
989.066	4300.46
993.524	4821.38
997.98	5815.13
1002.43	6871.83
1006.88	8051.75
1011.33	8954.71
1015.78	9321.15
1020.22	9396.46
1024.66	9680.7
1029.1	9935.15
1033.53	10173.3
1037.97	10856.3
1042.4	11073.3
1046.82	11280
1051.25	11207.9
1055.67	11459.1
1060.09	12099.4
1064.51	12514.4
1068.92	11640.9
1073.33	9650.56
1077.74	7201.94
1082.15	4967.44
1086.55	3368.9
1090.95	2360.28
1095.35	1772.08
1099.75	1287.16
1104.14	1168.41
1108.53	972.477
1112.92	921.086
1117.31	814.744
1121.69	998.426
1126.07	865.215
1130.45	487.535
1134.82	430.435
1139.19	202.426
1143.57	60.0742
1147.93	113.789
1152.3	69.9414
1156.66	96.4434
1161.02	11.2871
1165.38	52.4824
1169.73	139.941
1174.08	104.769
1178.43	81.0488
1182.78	217.076
1187.12	68.6231
1191.46	181.185
1195.8	170.133
1200.14	140.736
1204.47	177.207
1208.8	129.158
1213.13	52.2246
1217.46	233.293
1221.78	131.225
1226.1	96.2461
1230.42	236.932
1234.73	318.197
1239.04	367.459
1243.35	219.228
1247.66	238.949
1251.97	351.652
1256.27	568.656
1260.57	351.853
1264.86	514.143
1269.16	727.439
1273.45	509.586
1277.74	360.008
1282.03	507.613
1286.31	673.857
1290.59	624.57
1294.87	512.533
1299.14	556.332
1303.42	435.963
1307.69	208.215
1311.95	354.83
1316.22	426.693
1320.48	573.424
1324.74	222.375
1329	438.986
1333.26	563.967
1337.51	402.232
1341.76	504.193
1346	415.984
1350.25	604.068
1354.49	323.012
1358.73	369.262
1362.96	327.379
1367.2	240.695
1371.43	453.606
1375.66	263.668
1379.88	46.6719
1384.11	286.164
1388.33	3.33203
1392.54	23.8047
1396.76	124.883
1400.97	165.535
1405.18	213.156
1409.39	6.35938
1413.59	126.496
1417.8	132.676
1421.99	117.43
1426.19	97.1602
1430.38	220.504
1434.58	17.4805
1438.77	23.5195
1442.95	79.2578
1447.13	218.406
1451.32	98.9414
1455.49	133.273
1459.67	377.07
1463.84	406.723
1468.01	260.047
1472.18	28.4453
1476.35	411.449
1480.51	183.746
1484.67	451.606
1488.83	551.266
1492.98	464.457
1497.13	356.394
1501.28	243.336
1505.43	562.699
1509.57	628.223
1513.71	175.758
1517.85	304.371
1521.99	431.109
1526.12	535.098
1530.25	183
1534.38	190.414
1538.5	299.59
1542.62	242.539
1546.74	214.762
1550.86	426.805
1554.98	191.559
1559.09	30.8711
1563.2	402.578
1567.31	133.269
1571.41	53.6719
