Measurement: Raman, 514 nm, depolarized, Raman Data Processed
Mineral: Edenite
Rruff sample: R050415
Ideal chemistry: NaCa_2_Mg_5_(Si_7_Al)O_22_(OH)_2_
Locality: Mogok, Burma
Source: Marcus Origlieri
Description: Transparent pale green water worn fragment
Measured chemistry: (Na_0.83_K_0.17_)(Ca_1.76_Na_0.24_)_=2_(Mg_4.54_Al_0.40_Fe^3+^_0.06_)_=5_(Si_6.74_Al_1.26_)O_22_((OH)_0.52_F_0.48_)_2_
Pin_id: L01094
Orientation: Laser parallel to b* (0 1 0). Fiducial mark perpendicular to laser is parallel to -c [0 0 -1]
Raman shift (cm-1)	intensity
93.48	0
98.416	345.966
103.349	1554.74
108.28	4300.56
113.208	5713.22
118.134	6379.04
123.058	4641.5
127.979	1950.3
132.898	541.044
137.814	94.0088
142.728	206.057
147.639	103.349
152.549	451.888
157.455	2135.38
162.359	5251.75
167.261	6704.01
172.161	4770.91
177.058	4087.33
181.952	4244.75
186.845	4058.11
191.734	2811.4
196.622	1923.17
201.507	2020.92
206.389	2447.06
211.269	4042.82
216.147	6421.44
221.022	9419.95
225.895	11239.5
230.765	10354.4
235.633	9016.72
240.498	8323.19
245.361	6679.31
250.222	5275.77
255.08	3706.68
259.936	2559.05
264.789	1010.24
269.64	572.279
274.488	468.579
279.334	364.456
284.178	568.22
289.019	1069.04
293.857	1604.95
298.693	1811.8
303.527	2042.82
308.358	2203.87
313.187	2795.45
318.013	3737.45
322.837	3672.86
327.659	2907.71
332.478	2438.7
337.294	1981.31
342.108	1960.29
346.92	1775.65
351.729	1762.09
356.535	2086.04
361.34	2626.57
366.141	3567.66
370.94	4103.96
375.737	4480.43
380.531	4962
385.323	5589.72
390.113	6373.11
394.9	5878.08
399.684	4389.49
404.466	2899.25
409.245	2213.3
414.022	1979.65
418.797	2238.18
423.569	1945.52
428.338	1886.98
433.105	1414.89
437.87	861.714
442.632	407.42
447.391	50.4893
452.149	121.695
456.903	128.013
461.655	91.3691
466.405	17.1562
471.152	163.833
475.897	155.505
480.639	100.917
485.378	62.876
490.116	28.7295
494.85	91.793
499.582	186.018
504.312	452.618
509.039	634.057
513.764	949.202
518.486	927.925
523.206	810.18
527.923	894.027
532.638	791.439
537.35	850.405
542.059	716.99
546.766	449.658
551.471	485.975
556.173	335.086
560.873	375.542
565.57	405.392
570.264	461.94
574.957	262.059
579.646	185.523
584.333	324.178
589.018	351.062
593.7	295.203
598.379	546.852
603.056	559.463
607.73	643.254
612.402	874.531
617.072	1283.92
621.739	1580.69
626.403	2145.18
631.065	2996.56
635.724	4051.16
640.381	5106.86
645.035	6999.28
649.687	9423.58
654.336	12447.1
658.983	17378.3
663.627	25213.4
668.268	35708.8
672.907	42600.7
677.544	39673
682.178	28287.9
686.809	17808.1
691.438	11291.8
696.065	7553.93
700.688	5193.4
705.31	3591.39
709.929	2676.25
714.545	2005.25
719.158	1878.01
723.77	1813.83
728.378	1484.89
732.984	1236.09
737.588	1035.57
742.189	554.736
746.787	464.578
751.383	199.238
755.976	169.043
760.567	159.41
765.155	147.269
769.741	9.42578
774.324	88.1133
778.904	199.312
783.482	156.082
788.058	220.049
792.631	132.342
797.201	52.8965
801.769	146.742
806.334	148.715
810.897	12.0859
815.457	95.6797
820.014	44.6172
824.569	72.9258
829.122	111.478
833.671	161.519
838.219	26.0059
842.763	148.016
847.306	62.1953
851.845	115.051
856.382	31.7285
860.917	178.934
865.448	315.592
869.978	212.713
874.505	365.514
879.029	653.111
883.55	994.535
888.069	1559.88
892.586	1916.59
897.1	2086.28
901.611	2498.27
906.12	3054.6
910.626	3689.1
915.129	4367.41
919.63	4739.67
924.129	4540.95
928.625	4191.21
933.118	3684.1
937.609	3080.17
942.097	3041.93
946.582	2504.69
951.065	2443.1
955.546	2312.95
960.023	2117.12
964.499	2034.14
968.971	1989.92
973.441	1953.5
977.909	1886.5
982.374	2003.98
986.836	2216.97
991.295	2455.04
995.753	3078.27
1000.21	3638.02
1004.66	4404.69
1009.11	4700.92
1013.55	5409.19
1018	5508.57
1022.44	5480.05
1026.88	5673.67
1031.32	5715.99
1035.75	6106.81
1040.18	6502.79
1044.61	6837.41
1049.04	6817.72
1053.46	7369.15
1057.88	7778.53
1062.3	8124.96
1066.71	8180.03
1071.13	6862.75
1075.54	5393.95
1079.94	4711.7
1084.35	2562.86
1088.75	1842.79
1093.15	1265.99
1097.55	869.568
1101.94	656.152
1106.34	610.684
1110.73	410.44
1115.11	556.754
1119.5	976.725
1123.88	1176.44
1128.26	449.867
1132.63	86.209
1137.01	378.213
1141.38	66.8086
1145.75	7.64258
1150.12	43.3066
1154.48	28.3125
1158.84	10.6582
1163.2	81.7891
1167.55	157.834
1171.91	55.8867
1176.26	76.7793
1180.61	140.484
1184.95	54.3008
1189.29	187.91
1193.63	108.369
1197.97	54.4141
1202.31	26.1484
1206.64	77.1094
1210.97	60.6816
1215.29	135.982
1219.62	251.912
1223.94	204.326
1228.26	153.019
1232.57	239.822
1236.89	30.8691
1241.2	275.66
1245.51	394.856
1249.81	581.316
1254.12	342.606
1258.42	351.211
1262.72	253.551
1267.01	9.11133
1271.3	375.5
1275.59	120.863
1279.88	205.17
1284.17	321.512
1288.45	378.492
1292.73	140.215
1297.01	284.926
1301.28	329.871
1305.55	263.703
1309.82	346.324
1314.09	344.07
1318.35	427.066
1322.61	334.027
1326.87	420.922
1331.13	366.344
1335.38	375.469
1339.63	219.312
1343.88	260.445
1348.12	63.5625
1352.37	413.504
1356.61	320.516
1360.85	252.871
1365.08	400.562
1369.31	238.117
1373.54	707.633
1377.77	218.84
1381.99	350.812
1386.22	136.047
1390.43	15.4883
1394.65	101.801
1398.87	283.703
1403.08	113.367
1407.29	2.74609
1411.49	130.453
1415.69	84.9258
1419.89	136.758
1424.09	15.4258
1428.29	10.3398
1432.48	42.9883
1436.67	168.328
1440.86	221.68
1445.04	149.148
1449.23	217.223
1453.4	198.457
1457.58	292.953
1461.76	299.852
1465.93	220.082
1470.1	190.652
1474.26	551.871
1478.43	51.9336
1482.59	343.906
1486.75	410.106
1490.9	408.797
1495.06	252.734
1499.21	87.168
1503.35	413.512
1507.5	741.629
1511.64	549.106
1515.78	181.625
1519.92	308.644
1524.05	126.16
1528.18	121.438
1532.31	225.859
1536.44	513.477
1540.56	249.594
1544.69	112.754
1548.8	35.2812
1552.92	556.988
1557.03	380.242
1561.14	421.59
1565.25	281.707
1569.36	121.668
