Measurement: Raman, 514 nm, depolarized, Raman Data Processed
Mineral: Edenite
Rruff sample: R060029
Ideal chemistry: NaCa_2_Mg_5_(Si_7_Al)O_22_(OH)_2_
Locality: Renfrew County, Ontario, Canada
Source: University of Arizona Mineral Museum
Description: Black prismatic
Measured chemistry: (Na_0.62_K_0.34_[box]_0.04_)(Ca_0.86_Na_0.14_)_2_(Mg_0.57_Fe^2+^_0.30_Fe^3+^_0.07_Al_0.05_Ti_0.01_Mn_0.01_)_5_(Si_6.61_Al_1.39_)O_22_((OH)_0.69_F_0.31_)_2_
Pin_id: M00412
Orientation: Laser parallel to c* (0 0 1). Fiducial mark perpendicular to laser is parallel to a [1 0 0]
Raman shift (cm-1)	intensity
132.898	0
137.814	106.061
142.728	606.813
147.639	5679.85
152.549	19751.9
157.455	15839.6
162.359	5568.33
167.261	2729.01
172.161	2450.98
177.058	3554.47
181.952	3629.84
186.845	3016.58
191.734	1677.09
196.622	2203.63
201.507	4471.22
206.389	5255.09
211.269	10366.7
216.147	19915.2
221.022	29781
225.895	28945.7
230.765	21594.4
235.633	15537.4
240.498	10947.7
245.361	7755.77
250.222	5775.36
255.08	4474.12
259.936	4664.31
264.789	2761.87
269.64	2842.45
274.488	3903.65
279.334	5116.64
284.178	6715.73
289.019	8367.66
293.857	9139.19
298.693	9238.75
303.527	8252.58
308.358	6751.37
313.187	5095.64
318.013	3815.17
322.837	3438.39
327.659	2055.14
332.478	1713.6
337.294	3522.36
342.108	2571.45
346.92	2748.78
351.729	3592.53
356.535	4059.46
361.34	4235.58
366.141	4371.84
370.94	3526.16
375.737	3276.41
380.531	2635.47
385.323	1787.2
390.113	763.48
394.9	205.197
399.684	386.854
404.466	519.638
409.245	730.212
414.022	574.231
418.797	73.2988
423.569	977.253
428.338	1841.12
433.105	2032.29
437.87	1883.34
442.632	1616.98
447.391	1514.82
452.149	1342.67
456.903	1122.89
461.655	786.979
466.405	741.654
471.152	544.627
475.897	517.047
480.639	675.521
485.378	642.03
490.116	741.451
494.85	1397.66
499.582	1983.59
504.312	2491.2
509.039	3167.21
513.764	3791.25
518.486	5147.58
523.206	6300.39
527.923	8221.65
532.638	9400.29
537.35	9030.94
542.059	8196.32
546.766	6915.91
551.471	5800.99
556.173	4430.97
560.873	3564.08
565.57	2769.36
570.264	2328.45
574.957	1973.1
579.646	1657.7
584.333	878.069
589.018	182.828
593.7	359.907
598.379	408.833
603.056	124.665
607.73	388.638
612.402	1097.1
617.072	2156.69
621.739	3391.45
626.403	4921.68
631.065	6834.68
635.724	8477.76
640.381	10694.2
645.035	13633
649.687	17272.2
654.336	22327.8
658.983	30864.8
663.627	41532.3
668.268	47068.3
672.907	41785.7
677.544	29337.7
682.178	19317.5
686.809	12757
691.438	8637.29
696.065	5586.18
700.688	3683.95
705.31	2926.47
709.929	2591.93
714.545	2696.05
719.158	2361.02
723.77	2216.86
728.378	2197.3
732.984	1906.08
737.588	1591.25
742.189	1062.35
746.787	751.832
751.383	345.995
755.976	181.898
760.567	112.444
765.155	297.116
769.741	455.133
774.324	606.636
778.904	853.674
783.482	862.303
788.058	858.571
792.631	922.53
797.201	783.226
801.769	663.707
806.334	692.019
810.897	904.208
815.457	438.319
820.014	454.393
824.569	241.454
829.122	20.5127
833.671	135.718
838.219	382.242
842.763	265.204
847.306	255.245
851.845	57.5264
856.382	110.179
860.917	108.848
865.448	289.177
869.978	735.202
874.505	1242.59
879.029	1511.31
883.55	2237.14
888.069	3042.5
892.586	3806.17
897.1	4709.56
901.611	5416.7
906.12	6207.68
910.626	6963.89
915.129	7769.26
919.63	8200.87
924.129	8174.53
928.625	7664.18
933.118	7585.8
937.609	7279.46
942.097	7161.03
946.582	7278.5
951.065	7257.88
955.546	7281.1
960.023	7366.09
964.499	7405.77
968.971	7179.4
973.441	6760.57
977.909	6643.69
982.374	6675.68
986.836	6837.58
991.295	7216.41
995.753	8275.57
1000.21	9173.44
1004.66	10112.3
1009.11	11251
1013.55	12182.6
1018	13017.5
1022.44	13413.7
1026.88	13830.3
1031.32	14029.7
1035.75	13907.9
1040.18	13957.7
1044.61	13856.5
1049.04	13812.7
1053.46	13587.4
1057.88	12917.4
1062.3	11377.1
1066.71	10079.4
1071.13	8505.86
1075.54	6825.76
1079.94	6105.15
1084.35	5249.49
1088.75	4552.68
1093.15	4059.2
1097.55	3598.66
1101.94	3064.45
1106.34	2638.54
1110.73	2137.8
1115.11	1686.15
1119.5	1759.56
1123.88	1255.9
1128.26	707.984
1132.63	461.719
1137.01	246.539
1141.38	133.136
1145.75	126.83
1150.12	77.415
1154.48	76.3364
1158.84	77.2773
1163.2	147.119
1167.55	156.734
1171.91	112.203
1176.26	40.147
1180.61	63.8897
1184.95	47.3931
1189.29	32.3608
1193.63	28.5737
1197.97	6.02148
1202.31	67.9316
1206.64	96.3062
1210.97	50.9385
1215.29	30.9102
1219.62	131.73
1223.94	170.032
1228.26	236.309
1232.57	171.55
1236.89	197.247
1241.2	226.001
1245.51	275.61
1249.81	253.533
1254.12	229.269
1258.42	338.44
1262.72	345.14
1267.01	324.372
1271.3	300.898
1275.59	319.627
1279.88	322.103
1284.17	418.736
1288.45	344.183
1292.73	373.309
1297.01	359.804
1301.28	335.424
1305.55	279.608
1309.82	248.696
1314.09	233.48
1318.35	193.289
1322.61	328.94
1326.87	238.025
1331.13	229.309
1335.38	100.486
1339.63	112.331
1343.88	201.51
1348.12	153.18
1352.37	94.8428
1356.61	129.451
1360.85	134.45
1365.08	123.122
1369.31	86.4263
1373.54	168.421
1377.77	46.2568
1381.99	52.0493
1386.22	68.6006
1390.43	79.0547
1394.65	41.0029
1398.87	19.6045
1403.08	186.731
1407.29	22.3418
1411.49	175.948
1415.69	21.9898
1419.89	51.207
1424.09	100.001
1428.29	105.946
1432.48	95.7617
1436.67	115.325
1440.86	106.01
1445.04	165.719
1449.23	20.2217
1453.4	180.871
1457.58	65.7305
1461.76	90.0044
1465.93	75.0049
1470.1	291.224
1474.26	144.233
1478.43	92.3027
1482.59	211.42
1486.75	147.619
1490.9	269.183
1495.06	119.207
1499.21	73.937
1503.35	193.408
1507.5	245.658
1511.64	143.413
1515.78	180.553
1519.92	139.956
1524.05	140.645
1528.18	104.073
1532.31	209.351
1536.44	161.505
1540.56	146.838
1544.69	119.347
1548.8	19.4273
1552.92	152.917
1557.03	195.055
1561.14	240.032
1565.25	6.2915
1569.36	680.698
