Measurement: Raman, 514 nm, ccw, Raman Data Processed
Mineral: Edenite
Rruff sample: R060029
Ideal chemistry: NaCa_2_Mg_5_(Si_7_Al)O_22_(OH)_2_
Locality: Renfrew County, Ontario, Canada
Source: University of Arizona Mineral Museum
Description: Black prismatic
Measured chemistry: (Na_0.62_K_0.34_[box]_0.04_)(Ca_0.86_Na_0.14_)_2_(Mg_0.57_Fe^2+^_0.30_Fe^3+^_0.07_Al_0.05_Ti_0.01_Mn_0.01_)_5_(Si_6.61_Al_1.39_)O_22_((OH)_0.69_F_0.31_)_2_
Pin_id: M00286
Orientation: Laser parallel to (-1 0 -1). Fiducial mark perpendicular to laser is parallel to b [0 1 0]
Raman shift (cm-1)	intensity
125.519	0
130.439	181.766
135.356	32.4844
140.271	378.152
145.184	764.764
150.094	3438.45
155.002	5663.67
159.908	2620.36
164.811	2347.26
169.711	2525.41
174.61	3689.03
179.505	5094.17
184.399	5074.66
189.29	4675.53
194.178	4732.38
199.064	5460.46
203.948	6155.02
208.829	5877.47
213.708	10832.1
218.585	17156.6
223.459	20996.2
228.33	17705.6
233.199	12704.2
238.066	8421.63
242.93	5067.08
247.792	2908.53
252.651	1918.58
257.508	1507.61
262.363	1054.77
267.215	1193.17
272.064	1401.63
276.912	2362.7
281.756	3325.07
286.598	4189.17
291.438	5038.86
296.276	4750.73
301.111	4208.32
305.943	3401.24
310.773	2759.82
315.601	1967.58
320.426	1610.67
325.248	1208.16
330.068	873.652
334.886	751.322
339.701	1036.03
344.514	1269.33
349.324	2061
354.132	3453.42
358.938	4630.62
363.741	4966.52
368.541	4819.06
373.339	4271.15
378.135	3455.07
382.928	2962.41
387.718	2134.3
392.506	1446.25
397.292	856.213
402.075	364.143
406.856	50.0156
411.634	14.6602
416.41	279.26
421.183	12.7559
425.954	404.068
430.722	569.275
435.488	761.701
440.251	428.237
445.012	389.787
449.77	477.396
454.526	341.91
459.28	141.266
464.03	137.576
468.779	5.07227
473.525	77.8428
478.268	257.902
483.009	195.079
487.747	107.406
492.483	284.256
497.217	628.982
501.948	1021.86
506.676	1551.87
511.402	2130.98
516.125	2675.16
520.846	3183.38
525.565	4089.63
530.281	4878.9
534.994	4815.16
539.705	4254.4
544.413	3541.61
549.119	3392.07
553.822	2810.22
558.523	2417.9
563.222	1992.77
567.917	1979.67
572.611	1547.37
577.302	1142.44
581.99	860.497
586.676	388.451
591.359	16.9229
596.04	67.2881
600.718	157.195
605.394	207.435
610.067	400.31
614.737	727.562
619.406	1273.09
624.071	1866.27
628.734	2590.5
633.395	3530.95
638.053	4623.38
642.708	5912.09
647.361	7772.25
652.012	10495.4
656.66	13822.1
661.305	19542.6
665.948	24892.4
670.588	24968.5
675.226	19762.9
679.861	13525.6
684.494	9306.79
689.124	6490.35
693.752	4310.38
698.377	2985.95
702.999	2165.59
707.619	2057.67
712.237	1768.22
716.852	1861.65
721.464	1817.38
726.074	2062.11
730.681	1730.78
735.286	1295.55
739.888	1047.59
744.488	470.863
749.085	232.541
753.68	167.876
758.272	190.247
762.861	6.29492
767.448	147.66
772.033	159.581
776.614	390.618
781.194	427.815
785.77	606.205
790.345	749.822
794.916	774.615
799.485	850.891
804.052	1062.41
808.616	1141.3
813.177	1030.6
817.736	864.326
822.292	695.517
826.846	357.196
831.397	133.389
835.945	106.953
840.491	272.396
845.035	103.849
849.576	196.178
854.114	100.352
858.65	239.494
863.183	444.324
867.713	759.184
872.241	1306.69
876.767	1438.27
881.29	1627.74
885.81	1948.42
890.328	2129.08
894.843	2647
899.356	2896.82
903.866	3504.25
908.373	3804.22
912.878	4167.45
917.38	4437.33
921.88	4469.24
926.377	4347.3
930.872	3997.66
935.364	3496.2
939.853	3266.91
944.34	2813.69
948.824	2867.46
953.306	2403.12
957.785	2246.67
962.261	2131.11
966.735	1979.44
971.207	2026.94
975.675	1987.88
980.141	2176.22
984.605	2273.54
989.066	2652.81
993.524	2846.43
997.98	3493.56
1002.43	3889.96
1006.88	4541.44
1011.33	4970.5
1015.78	5513.22
1020.22	5662.76
1024.66	5978.96
1029.1	6029.32
1033.53	6110.03
1037.97	5912.67
1042.4	6109.04
1046.82	6137.32
1051.25	5882.17
1055.67	5713.91
1060.09	5357.02
1064.51	5099.05
1068.92	4304.15
1073.33	3889.64
1077.74	3340.56
1082.15	2731.64
1086.55	2390.62
1090.95	2100.83
1095.35	1959.06
1099.75	1519.36
1104.14	1307.62
1108.53	1139.09
1112.92	1093.89
1117.31	719.952
1121.69	527.567
1126.07	305.303
1130.45	370.655
1134.82	28.9355
1139.19	48.9922
1143.57	188.852
1147.93	68.8467
1152.3	19.5479
1156.66	3.68848
1161.02	89.3731
1165.38	11.7754
1169.73	3.45606
1174.08	101.478
1178.43	26.377
1182.78	23.5088
1187.12	29.6143
1191.46	99.2637
1195.8	59.9668
1200.14	45.335
1204.47	35.5781
1208.8	136.069
1213.13	236.24
1217.46	164.74
1221.78	287.236
1226.1	143.874
1230.42	201.161
1234.73	225.446
1239.04	133.748
1243.35	241.088
1247.66	315.69
1251.97	287.836
1256.27	312.172
1260.57	413.571
1264.86	427.672
1269.16	464.477
1273.45	364.096
1277.74	308.986
1282.03	310.171
1286.31	325.818
1290.59	239.099
1294.87	377.672
1299.14	368.521
1303.42	430.031
1307.69	241.678
1311.95	260.106
1316.22	246.252
1320.48	349.44
1324.74	207.183
1329	356.098
1333.26	121.935
1337.51	241.528
1341.76	147.457
1346	256.554
1350.25	287.953
1354.49	134.062
1358.73	378.215
1362.96	231.345
1367.2	279.53
1371.43	148.7
1375.66	174.972
1379.88	408.425
1384.11	209.219
1388.33	59.6074
1392.54	36.1416
1396.76	222.148
1400.97	197.861
1405.18	117.899
1409.39	289.713
1413.59	114.177
1417.8	142.416
1421.99	202.341
1426.19	62.6309
1430.38	185.185
1434.58	148.444
1438.77	245.352
1442.95	58.7012
1447.13	150.236
1451.32	141.575
1455.49	176.383
1459.67	88.8945
1463.84	91.874
1468.01	87.3789
1472.18	127.041
1476.35	211.617
1480.51	99.7305
1484.67	128.099
1488.83	131.966
1492.98	185.195
1497.13	13.333
1501.28	1.9375
1505.43	5.11719
1509.57	203.672
1513.71	82.2383
1517.85	154.711
1521.99	78.9092
1526.12	4.20703
1530.25	21.6973
1534.38	115.519
1538.5	128.629
1542.62	154.238
1546.74	50.5645
1550.86	141.253
1554.98	14.8184
1559.09	48.7578
1563.2	46.2227
1567.31	12.7627
1571.41	0
