Measurement: Raman, 514 nm, depolarized, Raman Data Processed
Mineral: Edenite
Rruff sample: R060029
Ideal chemistry: NaCa_2_Mg_5_(Si_7_Al)O_22_(OH)_2_
Locality: Renfrew County, Ontario, Canada
Source: University of Arizona Mineral Museum
Description: Black prismatic
Measured chemistry: (Na_0.62_K_0.34_[box]_0.04_)(Ca_0.86_Na_0.14_)_2_(Mg_0.57_Fe^2+^_0.30_Fe^3+^_0.07_Al_0.05_Ti_0.01_Mn_0.01_)_5_(Si_6.61_Al_1.39_)O_22_((OH)_0.69_F_0.31_)_2_
Pin_id: L01054
Orientation: Laser parallel to -a* (-1 0 0). Fiducial mark perpendicular to laser is parallel to b [0 1 0]
Raman shift (cm-1)	intensity
192.956	0
197.843	44.8994
202.727	252.691
207.609	179.753
212.489	656.087
217.366	1599.15
222.24	2591.43
227.112	3340.35
231.982	3268.25
236.849	2435.53
241.714	1357.16
246.577	782.246
251.437	399.362
256.294	317.993
261.149	30.8018
266.002	13.3164
270.852	78.9814
275.7	283.231
280.545	433.549
285.388	757.758
290.229	817.373
295.067	1002.85
299.902	854.644
304.735	802.743
309.566	630.162
314.394	534.727
319.22	410.611
324.043	305.12
328.864	231.649
333.682	404.12
338.498	521.852
343.311	703.564
348.122	698.404
352.931	1122.86
357.737	1436.86
362.54	1640.89
367.341	1796.96
372.14	1965.59
376.936	1988.81
381.73	1650.55
386.521	1351.64
391.31	1026.86
396.096	835.227
400.88	631.24
405.661	686.53
410.44	656.433
415.216	790.921
419.99	1102.13
424.761	1500.57
429.53	1646.53
434.297	1524.52
439.061	1009.4
443.822	813.18
448.581	719.68
453.337	537.163
458.091	398.375
462.843	243.041
467.592	72.5644
472.338	172.173
477.082	162.707
481.824	325.373
486.563	498.764
491.3	931.918
496.034	1393.16
500.765	1852.76
505.494	2400.73
510.221	2625.69
514.945	3164.92
519.666	3511.48
524.385	3862.06
529.102	4199.45
533.816	4518.39
538.527	4370.87
543.236	4180.97
547.943	3918.81
552.647	3647.87
557.348	3428.22
562.047	3017.23
566.744	2642.53
571.438	2214.51
576.129	1622.21
580.818	1060.39
585.504	349.028
590.188	91.0703
594.87	4.01562
599.549	176.841
604.225	147.273
608.899	150.706
613.57	141.752
618.239	1.22363
622.905	391.266
627.569	619.413
632.23	919.916
636.889	1361.89
641.545	1724.34
646.198	2285.29
650.849	3164.73
655.498	4370.68
660.144	6089.15
664.787	8259.15
669.428	8622.68
674.067	7236.8
678.703	5425.37
683.336	4201.56
687.967	3251.31
692.595	2922.08
697.221	3015.49
701.844	3159.95
706.465	3375.69
711.083	4140.35
715.698	4509.52
720.311	4685.79
724.922	4886.22
729.53	4790.42
734.135	4662.81
738.738	4003.7
743.338	3494.4
747.936	2700.62
752.531	2313.35
757.124	1934.75
761.714	1594.62
766.302	1538.01
770.887	1605.64
775.469	1577.21
780.049	1354.71
784.626	1271.17
789.201	1286.62
793.773	1222.07
798.343	806.546
802.91	830.065
807.475	475.65
812.037	342.315
816.596	303.078
821.153	134.96
825.707	17.9746
830.259	29.0508
834.808	238.516
839.355	112.109
843.899	96.5088
848.441	22.5635
852.98	152.239
857.516	117.263
862.05	149.554
866.581	283.176
871.11	338.514
875.636	352.789
880.159	593.468
884.68	702.798
889.199	764.537
893.714	798.383
898.228	725.816
902.738	849.826
907.246	835.625
911.752	1016.96
916.255	881.79
920.755	1079.22
925.253	937.358
929.748	1150.29
934.241	1022
938.731	1018.22
943.218	1190.04
947.703	1370.93
952.186	1243.19
956.665	1380.82
961.142	1390.66
965.617	1526.08
970.089	1481.94
974.558	1501.04
979.025	1459.17
983.489	1721.94
987.951	1835.92
992.41	2157.82
996.866	2346.19
1001.32	2594.19
1005.77	2728.7
1010.22	2714.81
1014.67	2821.48
1019.11	2949.02
1023.55	2808.4
1027.99	2984.02
1032.42	2856.56
1036.86	2754.42
1041.29	2758.45
1045.72	2574.56
1050.14	2342.53
1054.56	2418.06
1058.98	2267.21
1063.4	2217.2
1067.82	2049.91
1072.23	1981.52
1076.64	1868.12
1081.05	1720.41
1085.45	1547.99
1089.85	1483.01
1094.25	1354.45
1098.65	1346.63
1103.04	1081.8
1107.43	733.607
1111.82	660.919
1116.21	763.656
1120.59	675.614
1124.97	634.721
1129.35	298.176
1133.73	396.024
1138.1	157.856
1142.47	154.814
1146.84	68.708
1151.21	160.175
1155.57	17.3369
1159.93	19.583
1164.29	7.44336
1168.64	84.1367
1172.99	17.3672
1177.34	44.458
1181.69	107.789
1186.04	123.402
1190.38	48.2275
1194.72	35.3838
1199.05	15.7246
1203.39	30.8086
1207.72	29.2373
1212.05	51.165
1216.37	92.9268
1220.7	50.2764
1225.02	129.345
1229.34	178.851
1233.65	92.0732
1237.97	110.742
1242.28	160.247
1246.59	227.864
1250.89	163.674
1255.19	136.133
1259.49	254.747
1263.79	114.247
1268.09	229.447
1272.38	113.377
1276.67	237.661
1280.95	186.136
1285.24	156.335
1289.52	249.743
1293.8	128.125
1298.08	143.663
1302.35	263.866
1306.62	241.872
1310.89	260.815
1315.15	133.289
1319.42	193.895
1323.68	134.632
1327.94	220.107
1332.19	147.876
1336.44	166.424
1340.69	165.935
1344.94	61.71
1349.19	138.343
1353.43	90.6787
1357.67	42.0772
1361.9	181.62
1366.14	213.947
1370.37	292.329
1374.6	75.5537
1378.83	291.288
1383.05	35.0254
1387.27	127.005
1391.49	141.73
1395.7	112.243
1399.92	182.728
1404.13	20.9629
1408.34	168.989
1412.54	173.083
1416.74	84.376
1420.94	129.013
1425.14	302.362
1429.34	178.375
1433.53	320.243
1437.72	201.315
1441.9	245.844
1446.09	255.133
1450.27	175.046
1454.45	264.424
1458.63	263.106
1462.8	236.12
1466.97	272.262
1471.14	288.913
1475.31	207.411
1479.47	263.107
1483.63	226.713
1487.79	216
1491.94	215.891
1496.09	246.336
1500.24	298.067
1504.39	105.831
1508.54	239.475
1512.68	248.498
1516.82	148.592
1520.95	179.323
1525.09	142.13
1529.22	247.53
1533.35	31.4443
1537.47	10.7148
1541.6	229.593
1545.72	258.422
1549.83	335.548
1553.95	104.371
1558.06	297.519
1562.17	31.3086
1566.28	78.4795
1570.38	87.4727
