Measurement: Raman, 514 nm, depolarized, Raman Data Processed
Mineral: Edenite
Rruff sample: R050415
Ideal chemistry: NaCa_2_Mg_5_(Si_7_Al)O_22_(OH)_2_
Locality: Mogok, Burma
Source: Marcus Origlieri
Description: Transparent pale green water worn fragment
Measured chemistry: (Na_0.83_K_0.17_)(Ca_1.76_Na_0.24_)_=2_(Mg_4.54_Al_0.40_Fe^3+^_0.06_)_=5_(Si_6.74_Al_1.26_)O_22_((OH)_0.52_F_0.48_)_2_
Pin_id: L01772
Orientation: Laser parallel to (-1 0 -1). Fiducial mark perpendicular to laser is parallel to b [0 1 0]
Raman shift (cm-1)	intensity
108.28	0
113.208	95.2539
118.134	1163.29
123.058	1583.94
127.979	154.342
132.898	41.6172
137.814	224.148
142.728	1201.66
147.639	219.791
152.549	120.324
157.455	531.146
162.359	1962.19
167.261	3024.15
172.161	2014.68
177.058	1672.05
181.952	1721.52
186.845	1715.16
191.734	1049.79
196.622	756.939
201.507	837.939
206.389	1297
211.269	2118.73
216.147	3800.89
221.022	5960.81
225.895	8431.27
230.765	8884.72
235.633	9375.46
240.498	8882.24
245.361	6799.99
250.222	5468.63
255.08	3445.82
259.936	2258.78
264.789	990.025
269.64	388.994
274.488	202.131
279.334	80.2519
284.178	350.027
289.019	359.373
293.857	406.584
298.693	897.334
303.527	633.398
308.358	776.039
313.187	1567.91
318.013	1946.88
322.837	2068.79
327.659	1849.96
332.478	1396.14
337.294	1552.22
342.108	1284.84
346.92	1624
351.729	1656.89
356.535	1940.64
361.34	2481.24
366.141	2969.14
370.94	3258.27
375.737	3068.56
380.531	3143.99
385.323	3176.54
390.113	3676.17
394.9	3617.87
399.684	2842.64
404.466	1932.88
409.245	1591.53
414.022	1428.65
418.797	1658.57
423.569	1764.2
428.338	1823.76
433.105	1431.27
437.87	968.389
442.632	457.435
447.391	199.387
452.149	148.746
456.903	23.3027
461.655	90.2051
466.405	285.363
471.152	154.289
475.897	51.748
480.639	35.6191
485.378	8.54492
490.116	110.061
494.85	99.4668
499.582	308.574
504.312	990.371
509.039	1332.84
513.764	1942.02
518.486	2377.91
523.206	1948.68
527.923	1580.04
532.638	1289.14
537.35	1010.98
542.059	628.422
546.766	599.498
551.471	180.121
556.173	81.3672
560.873	259.949
565.57	57.7324
570.264	207.93
574.957	197.213
579.646	156.477
584.333	199.928
589.018	335.705
593.7	358.44
598.379	38.1953
603.056	253.273
607.73	354.732
612.402	453.148
617.072	856.211
621.739	828.293
626.403	1400.55
631.065	1715.54
635.724	2783.78
640.381	3484.64
645.035	4504.4
649.687	5820.29
654.336	7574.71
658.983	9818.54
663.627	14020.5
668.268	19778.5
672.907	24759.4
677.544	23270.8
682.178	16304.1
686.809	10648.8
691.438	5730.91
696.065	3780.01
700.688	2540.86
705.31	1490.49
709.929	1377.74
714.545	1215.67
719.158	876.58
723.77	740.074
728.378	535.498
732.984	587.74
737.588	426.935
742.189	454.131
746.787	234.699
751.383	332.557
755.976	205.4
760.567	64.8242
765.155	11.3535
769.741	108.531
774.324	149.211
778.904	245.06
783.482	182.072
788.058	67.3086
792.631	93.7461
797.201	225.141
801.769	180.512
806.334	3.8457
810.897	160.754
815.457	14.5
820.014	72.5273
824.569	10.6348
829.122	104.07
833.671	160.361
838.219	140.353
842.763	134.5
847.306	257.953
851.845	116.152
856.382	112.074
860.917	173.613
865.448	6.9707
869.978	250.217
874.505	271.453
879.029	85.5098
883.55	693.777
888.069	606.01
892.586	883.678
897.1	1168.42
901.611	1169.41
906.12	1744.68
910.626	1957.87
915.129	2327.78
919.63	2642.83
924.129	2450.04
928.625	2419.17
933.118	2380.61
937.609	2161.42
942.097	2067.05
946.582	1766.02
951.065	1892.48
955.546	1785.35
960.023	1489.38
964.499	1427.81
968.971	1466.87
973.441	1511.85
977.909	1712.88
982.374	1738.04
986.836	2126.34
991.295	2371.05
995.753	3135.07
1000.21	3663.38
1004.66	4341.12
1009.11	4446.87
1013.55	4831.6
1018	5371.72
1022.44	5004.31
1026.88	5020.79
1031.32	5326.68
1035.75	5532.72
1040.18	5713.89
1044.61	5854.65
1049.04	5823.7
1053.46	5229
1057.88	5055.08
1062.3	5146.35
1066.71	4694.22
1071.13	4290
1075.54	3420.46
1079.94	2713.06
1084.35	1817
1088.75	1314.44
1093.15	1166.87
1097.55	578.762
1101.94	564.266
1106.34	541.406
1110.73	569.211
1115.11	621.062
1119.5	843.281
1123.88	855.074
1128.26	344.91
1132.63	212.426
1137.01	67.3047
1141.38	147.941
1145.75	282.938
1150.12	205.816
1154.48	86.7383
1158.84	75.6797
1163.2	348.609
1167.55	246.238
1171.91	108.711
1176.26	37.9961
1180.61	188.148
1184.95	55.7188
1189.29	157.574
1193.63	177.156
1197.97	100.891
1202.31	319.004
1206.64	42.168
1210.97	192.375
1215.29	117.844
1219.62	158.75
1223.94	167.586
1228.26	202.664
1232.57	235.09
1236.89	236.098
1241.2	596.316
1245.51	246.16
1249.81	421.004
1254.12	204.988
1258.42	331.906
1262.72	260.453
1267.01	234.883
1271.3	380.086
1275.59	422.398
1279.88	425.934
1284.17	490.519
1288.45	422.711
1292.73	157.516
1297.01	265.719
1301.28	370.684
1305.55	313.898
1309.82	223.547
1314.09	278.879
1318.35	218.004
1322.61	554.938
1326.87	377.484
1331.13	415.168
1335.38	239.613
1339.63	289.934
1343.88	388.734
1348.12	343.84
1352.37	171.648
1356.61	392.117
1360.85	211.844
1365.08	271.293
1369.31	209.754
1373.54	43.4531
1377.77	189.031
1381.99	224.332
1386.22	207.894
1390.43	211.586
1394.65	136.578
1398.87	156.5
1403.08	4.12109
1407.29	119.68
1411.49	384.16
1415.69	75.125
1419.89	22.4766
1424.09	61.832
1428.29	44.5508
1432.48	19.2695
1436.67	183.758
1440.86	268.769
1445.04	111.219
1449.23	249.711
1453.4	153.144
1457.58	455.84
1461.76	575.371
1465.93	538.949
1470.1	290.816
1474.26	9.23828
1478.43	453.988
1482.59	173.387
1486.75	298.191
1490.9	194.949
1495.06	272.816
1499.21	340.641
1503.35	221.402
1507.5	10.3125
1511.64	446.066
1515.78	366.938
1519.92	127.078
1524.05	112.269
1528.18	538.789
1532.31	308.004
1536.44	353.734
1540.56	165.863
1544.69	259.293
1548.8	29.4062
1552.92	419.695
1557.03	437.141
1561.14	370.602
1565.25	242.383
1569.36	344.84
