Measurement: Raman, 514 nm, depolarized, Raman Data Processed
Mineral: Edenite
Rruff sample: R050415
Ideal chemistry: NaCa_2_Mg_5_(Si_7_Al)O_22_(OH)_2_
Locality: Mogok, Burma
Source: Marcus Origlieri
Description: Transparent pale green water worn fragment
Measured chemistry: (Na_0.83_K_0.17_)(Ca_1.76_Na_0.24_)_=2_(Mg_4.54_Al_0.40_Fe^3+^_0.06_)_=5_(Si_6.74_Al_1.26_)O_22_((OH)_0.52_F_0.48_)_2_
Pin_id: L01355
Orientation: Laser parallel to -a* (-1 0 0). Fiducial mark perpendicular to laser is parallel to -b [0 -1 0]
Raman shift (cm-1)	intensity
99.649	0
104.582	1075.36
109.512	4094.05
114.44	3946.24
119.365	3415.05
124.288	2375.01
129.209	1181.19
134.127	366.283
139.043	365.062
143.956	39.1973
148.867	66.0859
153.775	111.814
158.681	633.295
163.585	1652.77
168.486	1899.44
173.385	1500.36
178.282	1200.08
183.176	1217.76
188.067	911.229
192.956	348.16
197.843	298.631
202.727	732.17
207.609	755.834
212.489	1457.89
217.366	2468.22
222.24	3619.52
227.112	5556.27
231.982	7713.86
236.849	9669.4
241.714	9561.55
246.577	7687.57
251.437	5738.13
256.294	3501.95
261.149	2072.4
266.002	969.459
270.852	467.504
275.7	91.3125
280.545	160.389
285.388	79.3223
290.229	53.9062
295.067	266.238
299.902	228.553
304.735	490.072
309.566	645.512
314.394	940.484
319.22	1311.63
324.043	1219.68
328.864	863.223
333.682	415.787
338.498	434.273
343.311	343.592
348.122	458.713
352.931	654.539
357.737	1064.46
362.54	1394.21
367.341	1963.76
372.14	2212.64
376.936	2806.78
381.73	3616.15
386.521	4669.68
391.31	4988.41
396.096	4638.91
400.88	3531.09
405.661	2190
410.44	2004.39
415.216	2217.34
419.99	2512.4
424.761	2636.11
429.53	2319.88
434.297	1599.85
439.061	934.152
443.822	418.152
448.581	44.8242
453.337	74.4727
458.091	100.527
462.843	157.6
467.592	218.9
472.338	22.4668
477.082	145.504
481.824	73.2246
486.563	155.432
491.3	43.6328
496.034	31.5312
500.765	147.131
505.494	347.049
510.221	566.445
514.945	1149.38
519.666	1452.73
524.385	1587.39
529.102	1294.42
533.816	909.705
538.527	480.268
543.236	231.971
547.943	263.9
552.647	299.902
557.348	239.566
562.047	124.51
566.744	9.16211
571.438	263.375
576.129	262.381
580.818	173.037
585.504	372.363
590.188	312.867
594.87	240.668
599.549	586.945
604.225	42.9648
608.899	612.375
613.57	567.258
618.239	904.225
622.905	1788.44
627.569	1944.07
632.23	1790.29
636.889	2231.76
641.545	3175.54
646.198	4240.1
650.849	5400.97
655.498	7083.89
660.144	9354.52
664.787	13554.8
669.428	18606.1
674.067	20810.7
678.703	18115.2
683.336	12553.4
687.967	7878.12
692.595	4739.86
697.221	2992.34
701.844	2357.79
706.465	1845.1
711.083	1069.24
715.698	1096.38
720.311	929.543
724.922	742.336
729.53	773.231
734.135	524.562
738.738	724.109
743.338	286.996
747.936	597.402
752.531	217.062
757.124	261.723
761.714	89.4453
766.302	81.9766
770.887	102.809
775.469	111.172
780.049	83.2383
784.626	77.8242
789.201	32.3828
793.773	83.5117
798.343	122.731
802.91	174.801
807.475	407.691
812.037	87.5117
816.596	4.62109
821.153	124.094
825.707	119.141
830.259	151.004
834.808	310.934
839.355	58.8789
843.899	517.773
848.441	592.699
852.98	676.629
857.516	907.394
862.05	971.039
866.581	862.504
871.11	491.953
875.636	491.445
880.159	656.793
884.68	1102.15
889.199	892.879
893.714	812.691
898.228	804.918
902.738	959.883
907.246	1145.23
911.752	1246.51
916.255	1792.11
920.755	1555.48
925.253	1601.86
929.748	1288.32
934.241	1311.61
938.731	1039.89
943.218	863.953
947.703	947.258
952.186	942.301
956.665	1098.71
961.142	847.754
965.617	678.879
970.089	619.953
974.558	760.523
979.025	850.742
983.489	1276.15
987.951	1440.73
992.41	1899.48
996.866	2615.4
1001.32	3286.59
1005.77	3535.52
1010.22	3516.52
1014.67	3444.05
1019.11	3634.28
1023.55	3695.48
1027.99	3773.17
1032.42	3843.4
1036.86	3999.4
1041.29	4114.14
1045.72	3784.37
1050.14	3429.06
1054.56	3043.46
1058.98	2424.67
1063.4	2451.39
1067.82	2194.27
1072.23	2063.47
1076.64	1497.18
1081.05	1471.51
1085.45	1424.56
1089.85	708.598
1094.25	599.926
1098.65	416.113
1103.04	384.312
1107.43	531.234
1111.82	348.828
1116.21	534.027
1120.59	1112.81
1124.97	939.141
1129.35	314.445
1133.73	240.812
1138.1	99.332
1142.47	227.004
1146.84	39.2109
1151.21	4.92969
1155.57	57.0078
1159.93	147.164
1164.29	46.5703
1168.64	81.043
1172.99	16.5391
1177.34	260.695
1181.69	316.461
1186.04	265.043
1190.38	84.6602
1194.72	150.715
1199.05	86.7148
1203.39	355.262
1207.72	120.859
1212.05	242.035
1216.37	384.629
1220.7	198.363
1225.02	161.594
1229.34	456.148
1233.65	622.676
1237.97	547.418
1242.28	535.938
1246.59	667.945
1250.89	706.91
1255.19	806.797
1259.49	550.344
1263.79	910.457
1268.09	918.551
1272.38	756.16
1276.67	971.613
1280.95	990.484
1285.24	963.484
1289.52	752.051
1293.8	694.078
1298.08	803.824
1302.35	573.828
1306.62	791.516
1310.89	960.43
1315.15	1188.51
1319.42	894.629
1323.68	729.426
1327.94	409.742
1332.19	1034.19
1336.44	310.297
1340.69	430.074
1344.94	342.004
1349.19	402.477
1353.43	310.293
1357.67	182.582
1361.9	60.5898
1366.14	438.348
1370.37	251.602
1374.6	279.273
1378.83	350.539
1383.05	224.691
1387.27	256.144
1391.49	160.391
1395.7	16.3672
1399.92	5.65625
1404.13	133.84
1408.34	314.469
1412.54	433.219
1416.74	147.129
1420.94	468.188
1425.14	231.066
1429.34	555.5
1433.53	481.871
1437.72	869.41
1441.9	1212.14
1446.09	1284.17
1450.27	1835.11
1454.45	1940.6
1458.63	1703.19
1462.8	1359.15
1466.97	700.637
1471.14	580.102
1475.31	533.578
1479.47	776.832
1483.63	518.633
1487.79	251.828
1491.94	241.578
1496.09	52.6016
1500.24	110.906
1504.39	120.566
1508.54	127.695
1512.68	0
