Measurement: Raman, 514 nm, ccw, Raman Data Processed
Mineral: Edenite
Rruff sample: R060029
Ideal chemistry: NaCa_2_Mg_5_(Si_7_Al)O_22_(OH)_2_
Locality: Renfrew County, Ontario, Canada
Source: University of Arizona Mineral Museum
Description: Black prismatic
Measured chemistry: (Na_0.62_K_0.34_[box]_0.04_)(Ca_0.86_Na_0.14_)_2_(Mg_0.57_Fe^2+^_0.30_Fe^3+^_0.07_Al_0.05_Ti_0.01_Mn_0.01_)_5_(Si_6.61_Al_1.39_)O_22_((OH)_0.69_F_0.31_)_2_
Pin_id: M00286
Orientation: Laser parallel to (-1 0 -1). Fiducial mark perpendicular to laser is parallel to b [0 1 0]
Raman shift (cm-1)	intensity
131.668	0
136.585	120.51
141.5	575.416
146.412	2060.93
151.321	7430.35
156.229	7565.92
161.134	2547.41
166.036	2113.22
170.936	2695.26
175.834	2409.45
180.729	2453.6
185.622	2443.77
190.512	2798.85
195.4	3698.53
200.286	5454.69
205.169	2206.43
210.049	1476.76
214.928	2891.05
219.803	5347.79
224.677	7018.97
229.548	7812.68
234.416	6568.17
239.282	4552.37
244.146	2596.77
249.007	1278.47
253.866	485.387
258.722	118.527
263.576	504.133
268.427	497.625
273.276	127.762
278.123	324.955
282.967	876.746
287.809	1453.96
292.648	1555.74
297.485	1851.88
302.319	1568.21
307.151	1005.62
311.98	723.061
316.807	601.021
321.631	73.3164
326.454	17.8125
331.273	39.2129
336.09	22.9824
340.905	211.67
345.717	341.688
350.527	694.525
355.334	1195.85
360.139	1483.48
364.941	1917.26
369.741	2244.84
374.538	2785.51
379.333	3117.95
384.126	2767.06
388.916	2057.95
393.703	1650.8
398.488	1165.02
403.271	1159.74
408.051	1109.84
412.828	1654.25
417.603	2273.91
422.376	3174.2
427.146	4561.39
431.914	4945.21
436.679	4472.55
441.442	3380.27
446.202	2639.18
450.96	2263.26
455.715	1648.83
460.467	1000.62
465.218	822.348
469.965	687.467
474.711	679.334
479.454	889.451
484.194	1191.75
488.932	1738.7
493.667	2311.87
498.4	3006.6
503.13	3826.08
507.858	4992.67
512.583	5589.23
517.306	6128.81
522.026	6821.9
526.744	7115.27
531.459	7601.43
536.172	7534.11
540.882	7058.25
545.59	6742.34
550.295	6129.06
554.998	5573.98
559.698	4888.04
564.396	4450.6
569.091	3813.43
573.784	3134.44
578.474	2394.86
583.162	1342.51
587.847	435.309
592.529	5.90625
597.209	260.631
601.887	288.394
606.562	345.01
611.235	92.0781
615.905	60.4004
620.572	302.713
625.237	727.754
629.9	1420.8
634.56	1885.85
639.217	2652.91
643.872	3622.98
648.524	4774.06
653.174	6281.86
657.821	8939.22
662.466	12457.3
667.108	15370.4
671.748	14474.5
676.385	10801.7
681.02	7144.89
685.652	4986.1
690.281	3371.49
694.908	2771.58
699.533	2272.03
704.155	2609.03
708.774	3471.49
713.391	3699.41
718.005	4221.24
722.617	4430.89
727.226	4625.19
731.833	4611.55
736.437	4127.94
741.039	3735.27
745.638	3168.29
750.234	2622.62
754.828	2050.65
759.419	1644.45
764.008	1334.13
768.595	1286.11
773.178	1490.69
777.759	1231.9
782.338	1462.79
786.914	1082.37
791.488	973.695
796.059	796.527
800.627	910.894
805.193	479.56
809.756	410.188
814.317	212.654
818.875	155.731
823.431	125.58
827.984	62.4082
832.534	307.402
837.082	190.043
841.627	260.545
846.17	208.965
850.71	13.6348
855.248	195.672
859.783	309.477
864.316	532.604
868.846	790.947
873.373	1017.89
877.898	1158.82
882.42	1204.92
886.94	1198.58
891.457	1382.16
895.971	1725.43
900.483	1897.09
904.993	2111.59
909.5	2060.14
914.004	2228.54
918.505	2471.67
923.004	2582.83
927.501	2720.94
931.995	2675.87
936.486	2943.98
940.975	2876.16
945.461	3310.32
949.945	3564.68
954.426	3668.07
958.904	3959.4
963.38	3811.08
967.853	3629.01
972.324	3979.96
976.792	3931.76
981.258	4261.82
985.72	4553.77
990.181	5148.46
994.639	5578.39
999.094	6411.38
1003.55	6722.44
1008	7030.55
1012.44	7287.72
1016.89	7362.52
1021.33	7612.49
1025.77	7706.87
1030.21	7313.99
1034.64	6999.48
1039.07	6580.98
1043.5	6461.99
1047.93	5962
1052.35	5747.85
1056.78	5437.82
1061.19	5073.67
1065.61	4417.54
1070.02	4108.65
1074.43	3947.15
1078.84	3715.28
1083.25	3719.81
1087.65	3316.01
1092.05	2863.58
1096.45	2911.09
1100.85	2509.22
1105.24	2132.47
1109.63	1907.71
1114.02	1254.84
1118.4	1185.71
1122.78	919.211
1127.16	817.715
1131.54	265.748
1135.92	511.982
1140.29	455.74
1144.66	188.69
1149.02	142.647
1153.39	60.873
1157.75	126.147
1162.11	147.289
1166.46	117.596
1170.82	40.0645
1175.17	36.1406
1179.52	97.4922
1183.86	109.016
1188.21	1.23828
1192.55	32.8223
1196.89	250.398
1201.22	68.4609
1205.55	21.3652
1209.88	87.4219
1214.21	118.184
1218.54	220.973
1222.86	36.207
1227.18	134.098
1231.5	122.682
1235.81	107.754
1240.12	273.617
1244.43	123.258
1248.74	214.244
1253.04	220.555
1257.34	403.576
1261.64	317.527
1265.94	410.111
1270.23	82.2969
1274.52	159.193
1278.81	137.615
1283.1	291.414
1287.38	367.603
1291.66	428.496
1295.94	278.602
1300.21	448.232
1304.48	283.881
1308.75	301.969
1313.02	272.356
1317.29	118.137
1321.55	315.316
1325.81	167.617
1330.06	197.326
1334.32	202.856
1338.57	346.185
1342.82	334.541
1347.06	10.3457
1351.31	97.043
1355.55	263.16
1359.79	228.842
1364.02	63.4922
1368.26	237.674
1372.49	284.703
1376.71	92.8144
1380.94	68.2734
1385.16	41.4316
1389.38	407.33
1393.6	244.223
1397.81	309.5
1402.02	300.9
1406.23	470.754
1410.44	355.812
1414.64	308.644
1418.85	287.178
1423.04	146.051
1427.24	332.213
1431.43	388.943
1435.62	460.361
1439.81	201.648
1444	169.486
1448.18	198.238
1452.36	165.977
1456.54	233.906
1460.71	250.719
1464.89	114.686
1469.06	197.568
1473.22	81.6894
1477.39	247.662
1481.55	342.232
1485.71	121.289
1489.86	264.535
1494.02	59.9785
1498.17	166.941
1502.32	157.463
1506.46	265.092
1510.61	261.725
1514.75	5.34961
1518.88	205.953
1523.02	201.537
1527.15	357.549
1531.28	342.744
1535.41	369.389
1539.53	375.701
1543.66	84.168
1547.78	157.334
1551.89	225.01
1556.01	11.4688
1560.12	177.397
1564.23	197.658
1568.33	212.945
