Measurement: Raman, 514 nm, depolarized, Raman Data Processed
Mineral: Edenite
Rruff sample: R060029
Ideal chemistry: NaCa_2_Mg_5_(Si_7_Al)O_22_(OH)_2_
Locality: Renfrew County, Ontario, Canada
Source: University of Arizona Mineral Museum
Description: Black prismatic
Measured chemistry: (Na_0.62_K_0.34_[box]_0.04_)(Ca_0.86_Na_0.14_)_2_(Mg_0.57_Fe^2+^_0.30_Fe^3+^_0.07_Al_0.05_Ti_0.01_Mn_0.01_)_5_(Si_6.61_Al_1.39_)O_22_((OH)_0.69_F_0.31_)_2_
Pin_id: M00136
Orientation: Laser parallel to b* (0 1 0). Fiducial mark perpendicular to laser is parallel to c [0 0 1]
Raman shift (cm-1)	intensity
263.576	0
267.215	141.977
270.852	33.457
274.488	217.247
278.123	564.746
281.756	935.06
285.388	1273.62
289.019	1563.73
292.648	1830.25
296.276	1658.22
299.902	1859.49
303.527	1491.17
307.151	1434.24
310.773	1252.48
314.394	1180.42
318.013	1047.81
321.631	932.155
325.248	865.66
328.864	706.417
332.478	688.167
336.09	579.807
339.701	872.648
343.311	1058.74
346.92	1482.38
350.527	1929.66
354.132	2222
357.737	2128.95
361.34	2293.67
364.941	2308.97
368.541	2354.82
372.14	2315.08
375.737	2278.76
379.333	1952
382.928	1595.75
386.521	1164.99
390.113	737.66
393.703	350.299
397.292	262.077
400.88	43.1572
404.466	22.0234
408.051	59.1631
411.634	87.96
415.216	323.238
418.797	471.397
422.376	813.067
425.954	1021.06
429.53	996.222
433.105	894.462
436.679	599.7
440.251	503.856
443.822	375.522
447.391	293.91
450.96	243.446
454.526	218.034
458.091	52.1992
461.655	29.7715
465.218	220.074
468.779	193.53
472.338	62.1621
475.897	30.9902
479.454	35.7988
483.009	268.009
486.563	581.36
490.116	705.072
493.667	935.758
497.217	1096.77
500.765	1273.39
504.312	1520.15
507.858	1928.25
511.402	2546.44
514.945	2627.65
518.486	2900.3
522.026	3744.55
525.565	4339.39
529.102	4666.83
532.638	4813.98
536.172	4610.59
539.705	4468.67
543.236	4185.91
546.766	3791.9
550.295	3460.65
553.822	3309.37
557.348	2825.41
560.873	2568.2
564.396	2491.93
567.917	1909.31
571.438	1702.27
574.957	1117.82
578.474	846.959
581.99	508.523
585.504	152.421
589.018	9.22656
592.529	86.6826
596.04	158.791
599.549	68.5772
603.056	37.3096
606.562	108.342
610.067	99.7842
613.57	274.956
617.072	470.776
620.572	720.169
624.071	1111.37
627.569	1387.72
631.065	1845.26
634.56	2182.39
638.053	2670.11
641.545	3401.45
645.035	4031.39
648.524	4858.95
652.012	6117.14
655.498	7983.98
658.983	10392.5
662.466	12368.6
665.948	13128.5
669.428	12273
672.907	10498.4
676.385	7968.32
679.861	6122.08
683.336	4946.57
686.809	3866.64
690.281	3166.05
693.752	2633.57
697.221	2504.79
700.688	2405.07
704.155	2489.84
707.619	2741.35
711.083	2905.41
714.545	3089.33
718.005	3425.26
721.464	3373.79
724.922	3322.9
728.378	3173.23
731.833	2945.01
735.286	2915.57
738.738	2373.26
742.189	1833.64
745.638	1740.52
749.085	1481.67
752.531	1187.46
755.976	959.078
759.419	842.711
762.861	781.264
766.302	801.702
769.741	819.019
773.178	847.223
776.614	789.323
780.049	826.33
783.482	728.251
786.914	753.101
790.345	586.889
793.773	559.625
797.201	426.318
800.627	405.981
804.052	258.621
807.475	129.249
810.897	41.1416
814.317	11.6543
817.736	66.2559
821.153	81.2647
824.569	133.974
827.984	201.389
831.397	227.688
834.808	239.809
838.219	2.9668
841.627	35.4922
845.035	4.9082
848.441	17.6553
851.845	192.817
855.248	367.417
858.65	423.151
862.05	657.057
865.448	753.296
868.846	812.922
872.241	1159.2
875.636	1209.58
879.029	1460.96
882.42	1584.12
885.81	2148.56
889.199	2425.28
892.586	2301.21
895.971	2358.36
899.356	2680.78
902.738	2740.48
906.12	3068.27
909.5	3433.68
912.878	3731.25
916.255	4099.18
919.63	4320.51
923.004	4213.25
926.377	4216.44
929.748	4032.97
933.118	4154.97
936.486	3849.33
939.853	3803
943.218	3753.05
946.582	3527.26
949.945	3588.91
953.306	3566.14
956.665	3529.91
960.023	3492.8
963.38	3466.46
966.735	3258.69
970.089	3178.18
973.441	2877.8
976.792	2911.11
980.141	2867.49
983.489	2771.26
986.836	3015.46
990.181	3186.06
993.524	3130.06
996.866	3575.35
1000.21	3724.26
1003.55	3702.45
1006.88	3809.02
1010.22	3975.98
1013.55	4058.3
1016.89	4136.37
1020.22	4116.19
1023.55	3983.72
1026.88	4029.48
1030.21	4120.83
1033.53	3985.89
1036.86	3868.32
1040.18	3778.42
1043.5	3857.5
1046.82	3828.67
1050.14	3745.48
1053.46	3755.76
1056.78	3729.42
1060.09	3492.24
1063.4	3188.41
1066.71	2930.09
1070.02	2762.88
1073.33	2479.66
1076.64	2260.29
1079.94	2132.31
1083.25	1969.4
1086.55	1987.08
1089.85	1755.46
1093.15	1643.87
1096.45	1596.74
1099.75	1384.8
1103.04	1269.7
1106.34	1079.14
1109.63	1139.54
1112.92	942.238
1116.21	791.979
1119.5	823.175
1122.78	738.552
1126.07	658.368
1129.35	550.201
1132.63	465.546
1135.92	359.86
1139.19	177.394
1142.47	211.242
1145.75	143.962
1149.02	11.3203
1152.3	43.667
1155.57	63.3291
1158.84	17.1553
1162.11	13.7471
1165.38	76.1006
1168.64	45.8633
1171.91	19.502
1175.17	131.765
1178.43	66.7861
1181.69	42.29
1184.95	70.3262
1188.21	36.624
1191.46	35.0147
1194.72	37.0742
1197.97	24.3027
1201.22	9.77832
1204.47	45.3975
1207.72	129.018
1210.97	25.7275
1214.21	28.8711
1217.46	93.04
1220.7	148.19
1223.94	14.7041
1227.18	208.159
1230.42	78.0234
1233.65	40.8535
1236.89	174.881
1240.12	116.414
1243.35	165.787
1246.59	143.019
1249.81	141.255
1253.04	184.938
1256.27	136.903
1259.49	226.198
1262.72	222.827
1265.94	240.558
1269.16	169.372
1272.38	203.5
1275.59	100.621
1278.81	193.11
1282.03	225.227
1285.24	129.475
1288.45	123.463
1291.66	221.424
1294.87	157.613
1298.08	186.672
1301.28	143.143
1304.48	220.321
1307.69	129.731
1310.89	170.046
1314.09	316.777
1317.29	274.366
1320.48	299.519
1323.68	110.691
1326.87	197.277
1330.06	202.158
1333.26	210.349
1336.44	217.727
1339.63	205.606
1342.82	19.6963
1346	110.574
1349.19	82.7148
1352.37	166.762
1355.55	114.547
1358.73	214.237
1361.9	67.7607
1365.08	13.9443
1368.26	66.9365
1371.43	59.8701
1374.6	24.8564
1377.77	67.0244
1380.94	53.2383
1384.11	184.609
1387.27	103.412
1390.43	309.328
1393.6	63.4336
1396.76	91.9941
1399.92	162.905
1403.08	65.7178
1406.23	39.1963
1409.39	96.8311
1412.54	204.944
1415.69	65.0918
1418.85	105.343
1421.99	135.902
1425.14	186.268
1428.29	239.406
1431.43	80.9922
1434.58	4.70996
1437.72	99.9375
1440.86	155.227
1444	191.44
1447.13	194.373
1450.27	174.684
1453.4	16.7236
1456.54	80.04
1459.67	104.491
1462.8	76.1592
1465.93	169.837
1469.06	116.641
1472.18	104.97
1475.31	144.094
1478.43	92.5098
1481.55	179.415
1484.67	71.8984
1487.79	98.5254
1490.9	235.44
1494.02	128.102
1497.13	221.142
1500.24	233.156
1503.35	218.833
1506.46	162.971
1509.57	142.758
1512.68	148.507
1515.78	88.9238
1518.88	145.553
1521.99	82.3838
1525.09	59.75
1528.18	150.51
1531.28	204.554
1534.38	113.482
1537.47	108.817
1540.56	144.317
1543.66	132.977
1546.74	188.168
1549.83	48.4404
1552.92	96.5303
1556.01	4.43945
1559.09	5.375
1562.17	3.76074
1565.25	69.7393
1568.33	0.544922
1571.41	0
