Measurement: Raman, 514 nm, ccw, Raman Data Processed
Mineral: Edenite
Rruff sample: R060029
Ideal chemistry: NaCa_2_Mg_5_(Si_7_Al)O_22_(OH)_2_
Locality: Renfrew County, Ontario, Canada
Source: University of Arizona Mineral Museum
Description: Black prismatic
Measured chemistry: (Na_0.62_K_0.34_[box]_0.04_)(Ca_0.86_Na_0.14_)_2_(Mg_0.57_Fe^2+^_0.30_Fe^3+^_0.07_Al_0.05_Ti_0.01_Mn_0.01_)_5_(Si_6.61_Al_1.39_)O_22_((OH)_0.69_F_0.31_)_2_
Pin_id: M00286
Orientation: Laser parallel to (-1 0 -1). Fiducial mark perpendicular to laser is parallel to b [0 1 0]
Raman shift (cm-1)	intensity
131.668	0
136.585	494.34
141.5	1667.12
146.412	2446.07
151.321	7188.48
156.229	7524.3
161.134	2397.76
166.036	1933.51
170.936	1990.94
175.834	2281.88
180.729	2875.96
185.622	2756.8
190.512	2915.76
195.4	3685.11
200.286	5772.19
205.169	2214.33
210.049	2200.53
214.928	5371.05
219.803	9068.57
224.677	11327.1
229.548	9342.08
234.416	7161.82
239.282	4742.05
244.146	2686.03
249.007	1596.21
253.866	797.193
258.722	214.473
263.576	306.279
268.427	640.512
273.276	40.8574
278.123	522.305
282.967	986.363
287.809	1588.47
292.648	1948.85
297.485	1961.49
302.319	1664.44
307.151	1073.63
311.98	629.041
316.807	260.856
321.631	48.1562
326.454	153.764
331.273	153.75
336.09	289.572
340.905	544.91
345.717	1319.4
350.527	2341.97
355.334	3342.74
360.139	3731.83
364.941	3500.19
369.741	3054.73
374.538	2589.16
379.333	2346.9
384.126	1570.65
388.916	1081.36
393.703	425.981
398.488	444.418
403.271	158.754
408.051	55.127
412.828	29.8516
417.603	124.178
422.376	879.32
427.146	1442.4
431.914	1848.48
436.679	1736.38
441.442	1346.93
446.202	1032.99
450.96	690.139
455.715	634.025
460.467	620.725
465.218	392.08
469.965	246.713
474.711	296.123
479.454	504.072
484.194	713.822
488.932	961.607
493.667	1423.03
498.4	2398.18
503.13	3075.6
507.858	3758.75
512.583	4378.95
517.306	4538.16
522.026	4992.39
526.744	5812.61
531.459	6023.03
536.172	5943.99
540.882	5439.11
545.59	5083.77
550.295	4760.38
554.998	4248.01
559.698	3825.09
564.396	3327.99
569.091	2999.32
573.784	2666.46
578.474	1855.15
583.162	975.248
587.847	296.043
592.529	293.16
597.209	254.178
601.887	248.008
606.562	94.6231
611.235	254.26
615.905	580.461
620.572	990.994
625.237	1697.38
629.9	2382.76
634.56	3237
639.217	4188.12
643.872	5264.11
648.524	7070
653.174	8752.8
657.821	11860.5
662.466	16387.2
667.108	19677.8
671.748	18633.4
676.385	13674.9
681.02	9270.51
685.652	6308.16
690.281	4493.97
694.908	3160.47
699.533	2442.97
704.155	2432.71
708.774	2649.87
713.391	2994.73
718.005	3112.17
722.617	3420.69
727.226	3378.67
731.833	3145.92
736.437	2570.61
741.039	2077.42
745.638	1620.39
750.234	1310.31
754.828	828.318
759.419	713.793
764.008	537.582
768.595	463.967
773.178	720.82
777.759	587.367
782.338	718.656
786.914	597.715
791.488	474.588
796.059	814.307
800.627	531.918
805.193	577.463
809.756	449.982
814.317	575.518
818.875	297.102
823.431	151.768
827.984	56.5625
832.534	51.6914
837.082	132.16
841.627	414.894
846.17	212.559
850.71	198.453
855.248	200.344
859.783	348.467
864.316	593.117
868.846	994.852
873.373	1229.24
877.898	1532.36
882.42	1936.06
886.94	2361.48
891.457	2923.13
895.971	3600.5
900.483	4222.99
904.993	4536.34
909.5	4950.56
914.004	5319.82
918.505	5505.65
923.004	5766.26
927.501	5755.77
931.995	5772.91
936.486	5664.37
940.975	5736.01
945.461	5559.29
949.945	5566.09
954.426	5518.49
958.904	5485.44
963.38	5348.35
967.853	5286.42
972.324	5225.78
976.792	5032.62
981.258	5124.48
985.72	5275.11
990.181	5382.64
994.639	6097
999.094	6392.63
1003.55	6794.36
1008	7302
1012.44	7609.1
1016.89	7697.18
1021.33	7832.19
1025.77	7826.54
1030.21	7728.76
1034.64	7464.24
1039.07	7186.32
1043.5	6721.9
1047.93	6679.65
1052.35	6340.45
1056.78	6108.56
1061.19	5891.17
1065.61	5048.1
1070.02	4657.27
1074.43	4257.3
1078.84	3510.96
1083.25	3245.12
1087.65	3372.66
1092.05	2627.5
1096.45	2542.29
1100.85	2440.28
1105.24	2093.65
1109.63	1882.44
1114.02	1291.34
1118.4	1216.59
1122.78	972.027
1127.16	767.301
1131.54	511.027
1135.92	342.613
1140.29	157.742
1144.66	215.469
1149.02	265.627
1153.39	78.1309
1157.75	125.561
1162.11	73.9473
1166.46	2.91797
1170.82	55.6777
1175.17	78.6309
1179.52	40.0801
1183.86	94.834
1188.21	40.6211
1192.55	92.2012
1196.89	229.731
1201.22	120.918
1205.55	131.818
1209.88	64.209
1214.21	93.6719
1218.54	181.533
1222.86	168.963
1227.18	6.81445
1231.5	89.8281
1235.81	214.631
1240.12	380.984
1244.43	242.672
1248.74	270.361
1253.04	293.662
1257.34	311.705
1261.64	220.475
1265.94	222.82
1270.23	96.791
1274.52	192.275
1278.81	254.725
1283.1	344.857
1287.38	124.682
1291.66	453.445
1295.94	375.725
1300.21	286.916
1304.48	220.193
1308.75	356.234
1313.02	351.607
1317.29	217.959
1321.55	230.625
1325.81	328.893
1330.06	192.012
1334.32	218.631
1338.57	288.547
1342.82	301.639
1347.06	240.16
1351.31	74.8613
1355.55	212.059
1359.79	206.227
1364.02	52.457
1368.26	86.1992
1372.49	107.766
1376.71	150.574
1380.94	254.43
1385.16	246.08
1389.38	297.537
1393.6	171.82
1397.81	152.836
1402.02	141.299
1406.23	83.0215
1410.44	222.787
1414.64	208.938
1418.85	139.086
1423.04	223.887
1427.24	247.557
1431.43	236.65
1435.62	166.57
1439.81	203.617
1444	206.523
1448.18	291.56
1452.36	252.045
1456.54	298.268
1460.71	237.08
1464.89	303.092
1469.06	261.293
1473.22	333.652
1477.39	135.815
1481.55	155.809
1485.71	91.0625
1489.86	221.924
1494.02	296.777
1498.17	12.9766
1502.32	247.205
1506.46	165.508
1510.61	85.8672
1514.75	50.1934
1518.88	170.662
1523.02	256.375
1527.15	133.691
1531.28	204.803
1535.41	82.5391
1539.53	128.793
1543.66	171.049
1547.78	46.1953
1551.89	137.488
1556.01	130.209
1560.12	25.707
1564.23	88.4004
1568.33	86.7305
