Measurement: Raman, 514 nm, depolarized, Raman Data Processed
Mineral: Edingtonite
Rruff sample: R040110
Ideal chemistry: Ba(Si_3_Al_2_)O_10_4H_2_O
Locality: 2350 level, Brunswick 12 mine, Bathhurst, New Brunswick, Canada
Source: National Museums of Canada
Description: Colorless rectangular prism
Measured chemistry: Ba_1.00_(Si_3.00_Al_2.00_)O_10_Â·4H_2_O
Pin_id: M00390
Orientation: Laser parallel to -c* (0 0 -1). Fiducial mark perpendicular to laser is parallel to a [1 0 0]
Raman shift (cm-1)	intensity
53.91	0
58.864	188.296
63.817	2.92639
68.767	61.9049
73.714	357.684
78.659	1321.93
83.602	2633.61
88.542	3971.77
93.48	5591.79
98.416	7059.81
103.349	8556.18
108.28	10229
113.208	10355.2
118.134	12284.9
123.058	15237.4
127.979	19430.1
132.898	23087.1
137.814	21419.2
142.728	18877.4
147.639	19600
152.549	20856.8
157.455	17212.9
162.359	11492.3
167.261	8108.2
172.161	6310.1
177.058	5465.04
181.952	4709.23
186.845	4259.67
191.734	3758.13
196.622	3460.45
201.507	3253.19
206.389	2668.78
211.269	2414.92
216.147	2302.5
221.022	2842.45
225.895	4916.26
230.765	8568.24
235.633	10593.8
240.498	4650.64
245.361	1687.4
250.222	1019.81
255.08	622.696
259.936	793.882
264.789	434.397
269.64	746.525
274.488	719.682
279.334	602.577
284.178	226.227
289.019	127.391
293.857	70.4356
298.693	60.0742
303.527	323.168
308.358	525.809
313.187	590.942
318.013	488.848
322.837	150.122
327.659	181.065
332.478	237.994
337.294	34.8438
342.108	284.312
346.92	487.023
351.729	792.35
356.535	1324.05
361.34	1161.89
366.141	516.444
370.94	1.4082
375.737	20.9268
380.531	98.7285
385.323	41.7451
390.113	35.0654
394.9	546.658
399.684	957.562
404.466	1280.68
409.245	1198.91
414.022	988.191
418.797	1701.48
423.569	2715.73
428.338	3579.89
433.105	3974.34
437.87	2827.55
442.632	1823.66
447.391	865.066
452.149	392.176
456.903	41.9443
461.655	55.7695
466.405	8.7334
471.152	58.9492
475.897	379.752
480.639	872.519
485.378	1532.67
490.116	2194.08
494.85	2765.79
499.582	3024.85
504.312	3217.04
509.039	4681.92
513.764	8371.59
518.486	19113.1
523.206	39161.2
527.923	53432.3
532.638	35708.4
537.35	15667.4
542.059	7360.38
546.766	3873.74
551.471	2137.09
556.173	1453.55
560.873	800.202
565.57	487.283
570.264	363.734
574.957	257.543
579.646	208.754
584.333	337.256
589.018	664.937
593.7	952.75
598.379	1166.31
603.056	1141.83
607.73	413.657
612.402	188.714
617.072	64.9932
621.739	104.168
626.403	50.4736
631.065	69.2148
635.724	62.7168
640.381	187.972
645.035	567.912
649.687	998.005
654.336	1542.67
658.983	1351.31
663.627	839.018
668.268	466.488
672.907	270.162
677.544	194.922
682.178	310.195
686.809	373.94
691.438	696.573
696.065	1203.2
700.688	2012.02
705.31	2555.79
709.929	2658.28
714.545	2527.87
719.158	1804.39
723.77	1151.04
728.378	723.114
732.984	486.215
737.588	398.528
742.189	302.448
746.787	307.31
751.383	174.102
755.976	222.949
760.567	225.251
765.155	141.893
769.741	140.312
774.324	29.1387
778.904	61.4736
783.482	33.9404
788.058	34.3066
792.631	31.1777
797.201	18.0098
801.769	70.8662
806.334	24.9385
810.897	206.516
815.457	96.376
820.014	98.2637
824.569	5.24023
829.122	207.726
833.671	22.6348
838.219	75.918
842.763	247.642
847.306	97.8359
851.845	194.507
856.382	180.691
860.917	220.416
865.448	257.694
869.978	229.537
874.505	119.969
879.029	130.787
883.55	141.705
888.069	174.827
892.586	12.9414
897.1	212.688
901.611	92.1484
906.12	118.134
910.626	2.03223
915.129	26.8389
919.63	68.3945
924.129	54.831
928.625	39.8965
933.118	60.4424
937.609	237.711
942.097	565.938
946.582	1071.89
951.065	1820.76
955.546	2146.18
960.023	1570.19
964.499	1147.59
968.971	1044.45
973.441	1337.4
977.909	1792.55
982.374	2500.59
986.836	3158.2
991.295	4165.22
995.753	4429.41
1000.21	3058.55
1004.66	1593.99
1009.11	948.543
1013.55	697.468
1018	554.361
1022.44	712.355
1026.88	712.519
1031.32	992.231
1035.75	1381.32
1040.18	1943.12
1044.61	3404.93
1049.04	5915.54
1053.46	8052.09
1057.88	6614.47
1062.3	4310.84
1066.71	2696
1071.13	1778.85
1075.54	1400.71
1079.94	939.348
1084.35	995.843
1088.75	676.682
1093.15	961.131
1097.55	1249.49
1101.94	1439.79
1106.34	1093.86
1110.73	599.042
1115.11	579.909
1119.5	459.903
1123.88	428.947
1128.26	267.778
1132.63	199.972
1137.01	123.232
1141.38	192.56
1145.75	56.8574
1150.12	181.477
1154.48	63.2891
1158.84	42.8408
1163.2	5.99805
1167.55	2.18066
1171.91	110.389
1176.26	24.5508
1180.61	26.5576
1184.95	95.5518
1189.29	61.5449
1193.63	55.4971
1197.97	83.2803
1202.31	48.0547
1206.64	100.439
1210.97	28.9023
1215.29	14.2305
1219.62	84.6777
1223.94	75.3643
1228.26	156.127
1232.57	60.8555
1236.89	195.468
1241.2	219.078
1245.51	37.581
1249.81	137.059
1254.12	56.4932
1258.42	291.697
1262.72	104.815
1267.01	73.8633
1271.3	150.839
1275.59	116.177
1279.88	196.009
1284.17	47.6953
1288.45	120.967
1292.73	150.216
1297.01	108.122
1301.28	35.6846
1305.55	282.839
1309.82	130.103
1314.09	177.366
1318.35	301.499
1322.61	346.897
1326.87	242.728
1331.13	67.6738
1335.38	155.571
1339.63	125.339
1343.88	117.186
1348.12	218.96
1352.37	184.245
1356.61	199.656
1360.85	53.2412
1365.08	95.9219
1369.31	119.649
1373.54	169.844
1377.77	100.733
1381.99	193.967
1386.22	253.629
1390.43	67.5664
1394.65	71.7773
1398.87	41.1133
1403.08	82.4268
1407.29	129.31
1411.49	112.634
1415.69	250.839
1419.89	109.943
1424.09	176.043
1428.29	270.292
1432.48	219.432
1436.67	258.151
1440.86	371.993
1445.04	359.063
1449.23	421.649
1453.4	331.401
1457.58	383.279
1461.76	326.426
1465.93	315.705
1470.1	288.135
1474.26	124.158
1478.43	302.09
1482.59	137.233
1486.75	132.408
1490.9	142.65
1495.06	83.0078
1499.21	130.451
1503.35	139.884
1507.5	116.91
1511.64	5.68945
1515.78	144.784
1519.92	235.58
1524.05	167.602
1528.18	201.953
1532.31	57.417
1536.44	223.337
1540.56	66.7627
1544.69	163.664
1548.8	10.9922
1552.92	87.9551
1557.03	52.5869
1561.14	159.875
1565.25	139.163
1569.36	109.311
