Measurement: Raman, 514 nm, depolarized, Raman Data Processed
Mineral: Edingtonite
Rruff sample: R040110
Ideal chemistry: Ba(Si_3_Al_2_)O_10_4H_2_O
Locality: 2350 level, Brunswick 12 mine, Bathhurst, New Brunswick, Canada
Source: National Museums of Canada
Description: Colorless rectangular prism
Measured chemistry: Ba_1.00_(Si_3.00_Al_2.00_)O_10_Â·4H_2_O
Pin_id: M00273
Orientation: Laser parallel to -a* (-1 0 0). Fiducial mark perpendicular to laser is parallel to b [0 1 0]
Raman shift (cm-1)	intensity
53.91	0
58.864	58.4948
63.817	72.9382
68.767	190.966
73.714	559.063
78.659	1653.37
83.602	3295.54
88.542	5169.65
93.48	7276.68
98.416	8945.81
103.349	9350.47
108.28	9225.24
113.208	8915.56
118.134	9911.31
123.058	10815.1
127.979	11760.8
132.898	12947.6
137.814	13706.1
142.728	15648.2
147.639	19719.7
152.549	23266.8
157.455	19816.8
162.359	13552.7
167.261	9414.49
172.161	6771
177.058	5459.18
181.952	4460.95
186.845	3806.13
191.734	3226.71
196.622	3036.22
201.507	2768.35
206.389	2048.93
211.269	1762.07
216.147	1395.53
221.022	1118.02
225.895	1157.29
230.765	1691.51
235.633	1951.06
240.498	1679.45
245.361	1108.3
250.222	573.333
255.08	378.32
259.936	511.077
264.789	247.438
269.64	420.248
274.488	598.229
279.334	581.391
284.178	435.623
289.019	403.052
293.857	413.334
298.693	201.641
303.527	166.082
308.358	141.4
313.187	82.144
318.013	51.2451
322.837	159.898
327.659	171.219
332.478	300.284
337.294	158.803
342.108	25.0596
346.92	215.924
351.729	644.303
356.535	1197.31
361.34	1214.51
366.141	777.675
370.94	334.7
375.737	293.493
380.531	217.976
385.323	142.245
390.113	253.742
394.9	620.911
399.684	945.532
404.466	842.558
409.245	823.163
414.022	856.64
418.797	1385.61
423.569	2100.82
428.338	2532.23
433.105	2583.79
437.87	1849.48
442.632	960.253
447.391	440.294
452.149	229.259
456.903	17.7295
461.655	25.7759
466.405	190.983
471.152	348.822
475.897	642.981
480.639	996.609
485.378	1617.32
490.116	2322.87
494.85	3059.33
499.582	3201.86
504.312	3768.87
509.039	5075.52
513.764	9360.76
518.486	21025.5
523.206	43556.8
527.923	57189.6
532.638	37350.7
537.35	16440.2
542.059	7862.05
546.766	4195.14
551.471	2480.46
556.173	1571.99
560.873	1035.68
565.57	768.483
570.264	474.367
574.957	410.304
579.646	270.263
584.333	163.207
589.018	119.056
593.7	130.655
598.379	30.2588
603.056	118.498
607.73	49.4155
612.402	23.3296
617.072	25.4854
621.739	70.1675
626.403	20.7041
631.065	29.1699
635.724	108.076
640.381	207.216
645.035	502.651
649.687	925.241
654.336	1160.58
658.983	1061.36
663.627	712.335
668.268	549.268
672.907	443.234
677.544	392.872
682.178	544.363
686.809	742.947
691.438	855.682
696.065	1292.46
700.688	1823.74
705.31	2212.03
709.929	2059.52
714.545	1843.47
719.158	1356.57
723.77	941.9
728.378	606.41
732.984	356.873
737.588	171.932
742.189	351.139
746.787	456.214
751.383	315.335
755.976	307.591
760.567	156.037
765.155	124.021
769.741	80.8291
774.324	24.4253
778.904	7.27881
783.482	37.3296
788.058	81.9575
792.631	11.5464
797.201	81.0874
801.769	166.009
806.334	33.313
810.897	78.0078
815.457	54.1934
820.014	166.856
824.569	79.0552
829.122	134.767
833.671	157.002
838.219	48.8193
842.763	127.223
847.306	221.239
851.845	89.874
856.382	142.701
860.917	58.0654
865.448	166.69
869.978	65.6216
874.505	138.317
879.029	118.574
883.55	79.9028
888.069	26.29
892.586	0.653809
897.1	86.3369
901.611	10.9688
906.12	18.689
910.626	75.353
915.129	48.1748
919.63	37.6357
924.129	43.248
928.625	111.561
933.118	80.9351
937.609	128.994
942.097	457.659
946.582	848.769
951.065	1611.73
955.546	1960.46
960.023	1513.18
964.499	1070.14
968.971	1026.16
973.441	1150.41
977.909	1698.49
982.374	2571.21
986.836	3351.32
991.295	4464.01
995.753	4640.02
1000.21	2971.39
1004.66	1617.44
1009.11	768.092
1013.55	507.684
1018	324.92
1022.44	326.945
1026.88	486.461
1031.32	686.654
1035.75	959.791
1040.18	1542.31
1044.61	3072.19
1049.04	5496.17
1053.46	7151.66
1057.88	5723.23
1062.3	3651.11
1066.71	2212.24
1071.13	1517.32
1075.54	1085.35
1079.94	811.094
1084.35	699.012
1088.75	496.119
1093.15	554.389
1097.55	677.828
1101.94	501.433
1106.34	503.182
1110.73	228.731
1115.11	269.977
1119.5	45.1621
1123.88	44.8193
1128.26	112.982
1132.63	46.0635
1137.01	52.8799
1141.38	70.8818
1145.75	7.71484
1150.12	34.3916
1154.48	2.94141
1158.84	111.5
1163.2	15.8457
1167.55	93.7656
1171.91	20.3164
1176.26	87.6397
1180.61	78.6592
1184.95	138.134
1189.29	170.332
1193.63	83.5381
1197.97	78.832
1202.31	106.127
1206.64	111.478
1210.97	85.5918
1215.29	104.295
1219.62	148.128
1223.94	42.5723
1228.26	114.089
1232.57	17.7617
1236.89	167.173
1241.2	106.305
1245.51	199.627
1249.81	2.15918
1254.12	6.78223
1258.42	128.421
1262.72	37.6465
1267.01	95.5732
1271.3	127.695
1275.59	92.2754
1279.88	102.985
1284.17	161.449
1288.45	183.061
1292.73	84.9912
1297.01	168.654
1301.28	23.8613
1305.55	68.9307
1309.82	12.8965
1314.09	79.7227
1318.35	123.294
1322.61	213.767
1326.87	142.266
1331.13	50.1611
1335.38	17.6543
1339.63	40.9053
1343.88	14.8867
1348.12	54.8525
1352.37	71.584
1356.61	83.2637
1360.85	99.7988
1365.08	15.9482
1369.31	134.532
1373.54	35.1143
1377.77	15.3135
1381.99	93.0098
1386.22	116.511
1390.43	82.1006
1394.65	48.9853
1398.87	110.644
1403.08	111.872
1407.29	15.3516
1411.49	6.44824
1415.69	119.465
1419.89	56.5547
1424.09	150.338
1428.29	158.11
1432.48	106.232
1436.67	46.2881
1440.86	137.435
1445.04	154.221
1449.23	185.08
1453.4	328.363
1457.58	54.6103
1461.76	83.6309
1465.93	179.231
1470.1	168.6
1474.26	152.565
1478.43	121.121
1482.59	195.328
1486.75	159.16
1490.9	193.175
1495.06	262.146
1499.21	156.951
1503.35	139.755
1507.5	170.435
1511.64	85.5381
1515.78	218.746
1519.92	195.733
1524.05	208.322
1528.18	153.17
1532.31	265.197
1536.44	110.213
1540.56	6.03711
1544.69	62.8545
1548.8	33.8565
1552.92	286.141
1557.03	174.423
1561.14	158.001
1565.25	49.9736
1569.36	79.1973
