Measurement: Raman, 514 nm, depolarized, Raman Data Processed
Mineral: Edingtonite
Rruff sample: R040003
Ideal chemistry: Ba(Si_3_Al_2_)O_10_4H_2_O
Locality: Bohl, Sweden
Source: University of Arizona Mineral Museum
Description: Colorless tetragonal prism
Measured chemistry: Ba_1.00_(Si_3.00_Al_2.00_)O_10_Â·4H_2_O; trace amounts of Na; H_2_O estimated by difference
Pin_id: m00029
Orientation: Laser parallel to c* (0 0 1). Fiducial mark perpendicular to laser is parallel to a [1 0 0]
Raman shift (cm-1)	intensity
89.89	0
94.071	20.014
98.251	238.779
102.428	838.738
106.604	1703.26
110.777	1783.24
114.949	2519.82
119.119	3994.22
123.286	4982.52
127.452	7033.08
131.615	11085.5
135.777	13583.9
139.937	11364.4
144.094	8816.61
148.25	9007.61
152.403	11656.6
156.555	12531
160.705	9196.5
164.853	5364.46
168.998	3075.45
173.142	2045.31
177.284	1623.34
181.424	1494.1
185.562	1231.09
189.698	876.036
193.831	855.171
197.963	717.121
202.093	438.291
206.221	320.003
210.347	341.704
214.472	322.467
218.594	262.323
222.714	355.47
226.832	1171.75
230.948	3616.04
235.063	8248.2
239.175	6224.26
243.286	1853.43
247.394	420.828
251.501	73.512
255.605	281.513
259.708	309.227
263.808	315.528
267.907	198.462
272.004	57.63
276.099	283.451
280.192	258.763
284.283	35.176
288.372	30.78
292.459	79.47
296.544	36.989
300.627	152.49
304.709	386.023
308.788	689.764
312.865	915.797
316.941	950.132
321.015	877.901
325.086	646.404
329.156	459.79
333.224	512.119
337.29	615.193
341.354	842.682
345.416	1064.48
349.476	1298
353.534	1590.34
357.591	1931.3
361.645	2130.8
365.698	1848.96
369.748	1452.74
373.797	1113.2
377.844	1021.57
381.889	1196.46
385.932	1329.59
389.973	1247.46
394.012	1218.04
398.049	1493.34
402.084	2100.38
406.118	2251.17
410.15	2080.96
414.179	2024.9
418.207	2168.11
422.233	2509.32
426.257	3076.16
430.279	3931.36
434.299	4397.94
438.318	4047.68
442.334	3190.26
446.349	2255.34
450.361	1663.18
454.372	1245.62
458.381	950.742
462.388	700.721
466.394	749.505
470.397	914.964
474.398	970.476
478.398	1079.88
482.396	1358.58
486.391	1714.78
490.385	2156.05
494.377	2554.65
498.368	2899.18
502.356	3083.45
506.342	3136.41
510.327	3487.39
514.31	4853.39
518.291	8127.43
522.27	16120.5
526.247	34243.6
530.222	48916.9
534.196	34050.2
538.167	16733.6
542.137	8867.07
546.105	5039.68
550.071	3102.36
554.035	2155.08
557.998	1557.86
561.958	1087.69
565.917	759.58
569.874	658.537
573.829	553.737
577.782	560.698
581.733	388.727
585.683	457.043
589.63	571.074
593.576	781.003
597.52	1023.85
601.462	1127.97
605.402	927.032
609.341	604.398
613.277	330.399
617.212	110.134
621.145	57.342
625.076	59.203
629.006	67.295
632.933	28.758
636.859	48.323
640.783	51.594
644.705	209.938
648.625	534.933
652.543	975.842
656.46	1258.77
660.375	1085.86
664.288	693.881
668.199	376.896
672.108	205.139
676.016	139.552
679.921	43.757
683.825	40.197
687.727	199.851
691.628	220.292
695.526	474.653
699.423	814.343
703.318	1477.3
707.211	2206.15
711.102	2316.99
714.992	2047.73
718.879	1669.92
722.765	1172.84
726.649	766.417
730.532	534.019
734.412	250.766
738.291	55.342
742.168	36.87
746.043	44.347
749.916	32.489
753.788	40.881
757.658	79.869
761.526	27.187
765.392	118.33
769.257	121.531
773.119	62.558
776.98	12.415
780.839	40.535
784.697	76.556
788.552	27.195
792.406	7.269
796.258	42.075
800.108	48.967
803.957	16.303
807.804	18.011
811.649	74.984
815.492	85.696
819.333	30.893
823.173	24.834
827.011	6.896
830.847	77.324
834.681	124.474
838.514	52.377
842.345	11.042
846.174	107.447
850.001	77.626
853.827	137.584
857.651	123.352
861.473	95.907
865.293	85.261
869.112	48.407
872.928	106.331
876.744	177.05
880.557	144.554
884.369	94.866
888.178	84.973
891.987	92.734
895.793	145.191
899.598	182.846
903.401	166.757
907.202	108.48
911.001	82.947
914.799	79.29
918.595	188.177
922.389	233.322
926.182	180.013
929.972	191.518
933.761	183.668
937.549	283.589
941.334	418.138
945.118	650.868
948.9	954.342
952.681	1572.21
956.459	2007.82
960.236	1662.4
964.012	1299.61
967.785	1123.16
971.557	1094.13
975.327	1141.97
979.095	1506.13
982.862	2065.38
986.627	2542.75
990.39	3088.33
994.152	3848.97
997.912	3928.02
1001.67	2681.72
1005.43	1627.29
1009.18	1030.28
1012.93	774.339
1016.68	645.477
1020.43	601.585
1024.18	628.74
1027.93	686.898
1031.67	798.345
1035.42	1025.65
1039.16	1332.92
1042.9	1944.83
1046.63	2991.32
1050.37	4709.34
1054.11	6657.77
1057.84	6486.6
1061.57	4797.64
1065.3	3373.23
1069.03	2280.78
1072.75	1675.96
1076.47	1092.26
1080.2	871.21
1083.92	813.9
1087.64	742.341
1091.36	817.038
1095.07	887.876
1098.79	1084.82
1102.5	1249.94
1106.21	1147.15
1109.92	833.831
1113.62	574.407
1117.33	483.192
1121.04	355.942
1124.74	391.653
1128.44	168.696
1132.14	58.444
1135.83	100.219
1139.53	124.913
1143.22	70.709
1146.92	88.739
1150.61	86.744
1154.3	52.519
1157.98	20.33
1161.67	54.875
1165.35	15.823
1169.04	43.576
1172.72	84.405
1176.4	124.642
1180.07	86.021
1183.75	106.629
1187.42	11.371
1191.1	24.601
1194.77	14.176
1198.44	68.664
1202.1	125.199
1205.77	118.903
1209.43	66.695
1213.1	72
1216.76	54.054
1220.42	34.092
1224.07	36.817
1227.73	39.254
1231.38	118.178
1235.04	133.204
1238.69	117.938
1242.34	149.78
1245.99	107.472
1249.63	63.07
1253.28	36.628
1256.92	21.966
1260.56	60.347
1264.2	105.548
1267.84	131.692
1271.48	128.878
1275.11	123.026
1278.74	93.053
1282.38	82.189
1286.01	64.066
1289.63	29.394
1293.26	75.17
1296.89	168.344
1300.51	173.418
1304.13	130.319
1307.75	102.936
1311.37	104.464
1314.99	5.208
1318.6	109.164
1322.22	28.183
1325.83	44.604
1329.44	141.184
1333.05	120.069
1336.66	102.373
1340.26	77.508
1343.87	63.908
1347.47	21.818
1351.07	20.598
1354.67	13.72
1358.27	24.615
1361.86	68.497
1365.46	128.845
1369.05	172.806
1372.64	216.005
1376.23	103.263
1379.82	99.44
1383.41	29.636
1386.99	48.645
1390.57	56.678
1394.16	93.065
1397.74	140.398
1401.32	183.799
1404.89	162.199
1408.47	213.326
1412.04	195.804
1415.61	171.808
1419.18	80.724
1422.75	38.378
1426.32	55.202
1429.89	58.98
1433.45	113.729
1437.01	192.99
1440.58	251.823
1444.13	224.004
1447.69	292.736
1451.25	257.943
1454.81	243.791
1458.36	172.339
1461.91	162.895
1465.46	122.262
1469.01	159.59
1472.56	182.609
1476.1	136.158
1479.64	234.89
1483.19	198.681
1486.73	222.301
1490.27	228.362
1493.81	173.938
1497.34	111.904
1500.88	36.909
1504.41	45.982
1507.94	5.704
1511.47	19.292
1515	2.157
1518.53	70.353
1522.05	129.421
1525.57	133.077
1529.1	183.964
1532.62	119.368
1536.14	0
