Measurement: Raman, 514 nm, depolarized, Raman Data Processed
Mineral: Edingtonite
Rruff sample: R040003
Ideal chemistry: Ba(Si_3_Al_2_)O_10_4H_2_O
Locality: Bohl, Sweden
Source: University of Arizona Mineral Museum
Description: Colorless tetragonal prism
Measured chemistry: Ba_1.00_(Si_3.00_Al_2.00_)O_10_Â·4H_2_O; trace amounts of Na; H_2_O estimated by difference
Pin_id: m00026
Orientation: Laser parallel to a* (1 0 0). Fiducial mark perpendicular to laser is parallel to c [0 0 1]
Raman shift (cm-1)	intensity
123.286	0
127.452	48.889
131.615	691.594
135.777	1740.83
139.937	1877.18
144.094	1855.46
148.25	3519.37
152.403	6940.08
156.555	9013.4
160.705	6840.11
164.853	4559.2
168.998	2931.96
173.142	1618.46
177.284	997.271
181.424	757.023
185.562	353.982
189.698	261.527
193.831	48.428
197.963	110.441
202.093	529.621
206.221	397.469
210.347	329.637
214.472	420.447
218.594	15.404
222.714	103.496
226.832	237.25
230.948	159.936
235.063	473.426
239.175	613.684
243.286	681.236
247.394	476.316
251.501	64.107
255.605	15.65
259.708	169.971
263.808	20.584
267.907	233.584
272.004	78.258
276.099	176.74
280.192	208.693
284.283	224.885
288.372	41.424
292.459	97.803
296.544	185.004
300.627	116.355
304.709	344.754
308.788	566.594
312.865	541.227
316.941	389.576
321.015	641.77
325.086	567.252
329.156	466.02
333.224	688.791
337.29	765.564
341.354	876.381
345.416	861.6
349.476	1008.62
353.534	1299.16
357.591	1538.73
361.645	1637.48
365.698	1519.7
369.748	1315.72
373.797	1029.47
377.844	857.246
381.889	948.201
385.932	1188.25
389.973	1100.51
394.012	1077.12
398.049	1054.64
402.084	1497.95
406.118	1359.66
410.15	1087.74
414.179	1058.45
418.207	1339.29
422.233	1390.02
426.257	1601.42
430.279	2114
434.299	2298.42
438.318	1935.64
442.334	1379.09
446.349	774.445
450.361	677.947
454.372	591.486
458.381	1207.01
462.388	242.742
466.394	448.996
470.397	697.08
474.398	594.773
478.398	661.162
482.396	618.088
486.391	1159.64
490.385	1446.41
494.377	1550.16
498.368	1734.81
502.356	2019.63
506.342	2104.72
510.327	2362.13
514.31	3043.31
518.291	5174.78
522.27	10321.9
526.247	22250.4
530.222	34427.1
534.196	24018.7
538.167	11557.4
542.137	6065.4
546.105	3283.65
550.071	1892.3
554.035	1421.93
557.998	1221.77
561.958	691.666
565.917	491.439
569.874	471.182
573.829	442.096
577.782	581.568
581.733	511.906
585.683	284.762
589.63	367.012
593.576	404.26
597.52	466.605
601.462	309.439
605.402	273.041
609.341	345.924
613.277	269.045
617.212	517.045
621.145	699.906
625.076	1307.11
629.006	1635.85
632.933	840.695
636.859	556.189
640.783	339.182
644.705	922.262
648.625	1375.99
652.543	1745.38
656.46	1423.09
660.375	939.893
664.288	286.146
668.199	708.869
672.108	335.693
676.016	117.883
679.921	110.588
683.825	99.633
687.727	160.889
691.628	131.053
695.526	361.025
699.423	250.867
703.318	650.609
707.211	860.236
711.102	1049.74
714.992	819.119
718.879	258.373
722.765	307.494
726.649	376.492
730.532	435.26
734.412	383.697
738.291	8.936
742.168	38.725
746.043	116.367
749.916	273.252
753.788	260.23
757.658	86.883
761.526	126.627
765.392	18.908
769.257	223.381
773.119	288.398
776.98	66.459
780.839	72.072
784.697	438.188
788.552	34.732
792.406	277.299
796.258	269.479
800.108	11.482
803.957	86.723
807.804	74.738
811.649	365.979
815.492	336.932
819.333	147.51
823.173	62.682
827.011	274.547
830.847	332.369
834.681	699.715
838.514	581.695
842.345	579.057
846.174	574.529
850.001	782.473
853.827	1321.46
857.651	1721.42
861.473	1731.37
865.293	1351.38
869.112	791.389
872.928	951.34
876.744	861.252
880.557	971.012
884.369	709.422
888.178	378.902
891.987	376.148
895.793	784.369
899.598	822.623
903.401	976.443
907.202	675.189
911.001	113.516
914.799	183.721
918.595	561.213
922.389	360.732
926.182	324.342
929.972	227.105
933.761	140.914
937.549	171.348
941.334	496.818
945.118	904.842
948.9	964.684
952.681	1093.27
956.459	1417.19
960.236	927.127
964.012	983.238
967.785	1049.53
971.557	1116.36
975.327	882.094
979.095	813.219
982.862	1064.2
986.627	1755.7
990.39	2430.49
994.152	2936.87
997.912	3119.27
1001.67	3657.82
1005.43	2248.99
1009.18	778.588
1012.93	708.865
1016.68	990.707
1020.43	1257.76
1024.18	1344.38
1027.93	1078.48
1031.67	583.166
1035.42	646.109
1039.16	1497.7
1042.9	1692.27
1046.63	2086.52
1050.37	3039.88
1054.11	3985.74
1057.84	3827.33
1061.57	2713.22
1065.3	2351.12
1069.03	1987.98
1072.75	1705.05
1076.47	1042.52
1080.2	910.441
1083.92	1038.04
1087.64	1105.25
1091.36	1112.75
1095.07	830.355
1098.79	817.986
1102.5	435.592
1106.21	33.203
1109.92	30.824
1113.62	438.445
1117.33	696.092
1121.04	763.752
1124.74	959.705
1128.44	368.945
1132.14	246.449
1135.83	56.135
1139.53	151.104
1143.22	238.115
1146.92	345.961
1150.61	292.115
1154.3	357.775
1157.98	212.926
1161.67	131.867
1165.35	47.6
1169.04	33.65
1172.72	299.99
1176.4	804.521
1180.07	597.662
1183.75	481.336
1187.42	189.152
1191.1	186.922
1194.77	94.213
1198.44	245.705
1202.1	783.963
1205.77	971.236
1209.43	780.854
1213.1	842.992
1216.76	601.332
1220.42	268.43
1224.07	219.129
1227.73	428.236
1231.38	736.887
1235.04	1235.81
1238.69	1594.04
1242.34	1301.17
1245.99	1287.38
1249.63	803.764
1253.28	660.076
1256.92	706.812
1260.56	773.645
1264.2	1178.78
1267.84	1793.16
1271.48	1637.46
1275.11	1681.94
1278.74	1285.3
1282.38	936.141
1286.01	699.688
1289.63	288.646
1293.26	1030.49
1296.89	1724.88
1300.51	1525.72
1304.13	1356.67
1307.75	1267.24
1311.37	1119.88
1314.99	732.475
1318.6	287.727
1322.22	621.777
1325.83	704.797
1329.44	749.176
1333.05	483.969
1336.66	705.848
1340.26	639.344
1343.87	319.363
1347.47	99.004
1351.07	208.02
1354.67	249.566
1358.27	393.219
1361.86	243.77
1365.46	289.254
1369.05	724.953
1372.64	1021.73
1376.23	929.309
1379.82	746.344
1383.41	775.09
1386.99	503.566
1390.57	359.773
1394.16	244.828
1397.74	379.246
1401.32	703.016
1404.89	936.156
1408.47	1118.67
1412.04	889.25
1415.61	1211.46
1419.18	683.355
1422.75	316.121
1426.32	267.387
1429.89	330.078
1433.45	459.984
1437.01	1323.88
1440.58	2245.36
1444.13	3026.28
1447.69	4032.67
1451.25	3748.47
1454.81	3932.9
1458.36	3669.49
1461.91	2847.49
1465.46	2331.79
1469.01	1819.87
1472.56	1760.81
1476.1	1478.85
1479.64	1741.04
1483.19	1871.69
1486.73	2278.23
1490.27	2042.8
1493.81	1510.42
1497.34	1228.07
1500.88	776.43
1504.41	356.773
1507.94	281.859
1511.47	42.871
1515	23.008
1518.53	179.109
1522.05	387.594
1525.57	886.75
1529.1	818.027
