Measurement: Raman, 514 nm, depolarized, Raman Data Processed
Mineral: Edingtonite
Rruff sample: R040110
Ideal chemistry: Ba(Si_3_Al_2_)O_10_4H_2_O
Locality: 2350 level, Brunswick 12 mine, Bathhurst, New Brunswick, Canada
Source: National Museums of Canada
Description: Colorless rectangular prism
Measured chemistry: Ba_1.00_(Si_3.00_Al_2.00_)O_10_Â·4H_2_O
Pin_id: L01449
Orientation: Laser parallel to b* (0 1 0). Fiducial mark perpendicular to laser is parallel to c [0 0 1]
Raman shift (cm-1)	intensity
91.012	0
95.948	500.015
100.883	1976.15
105.815	3893.09
110.744	4140.38
115.671	5511.49
120.596	6583.4
125.519	7860.54
130.439	10558.9
135.356	13047.6
140.271	10802.5
145.184	8202.1
150.094	8162.81
155.002	8918.41
159.908	7741.87
164.811	4679.15
169.711	2386.19
174.61	1243.7
179.505	635.688
184.399	480.81
189.29	660.283
194.178	807.702
199.064	732.433
203.948	630.237
208.829	705.426
213.708	667.301
218.585	370.365
223.459	559.921
228.33	1396.87
233.199	5527.17
238.066	9500.91
242.93	2994.05
247.792	352.069
252.651	135.05
257.508	63.3935
262.363	284.55
267.215	234.575
272.064	282.719
276.912	76.4941
281.756	265.328
286.598	164.44
291.438	21.3555
296.276	26.4092
301.111	332.363
305.943	609.004
310.773	936.443
315.601	1207.77
320.426	1048.06
325.248	872.567
330.068	836.476
334.886	1288.67
339.701	1364.02
344.514	1467.77
349.324	1653.11
354.132	2121.89
358.938	2966.09
363.741	3235.68
368.541	2156.66
373.339	1131.03
378.135	903.819
382.928	711.078
387.718	540.234
392.506	782.841
397.292	857.324
402.075	1397.58
406.856	1626.72
411.634	1553.61
416.41	1669.65
421.183	2146.92
425.954	2954.95
430.722	4110.4
435.488	4364.44
440.251	3411.76
445.012	2297.8
449.77	1370.31
454.526	690.196
459.28	406.483
464.03	123.199
468.779	53.3789
473.525	87.1807
478.268	35.0664
483.009	111.552
487.747	314.815
492.483	528.794
497.217	820.82
501.948	1200.79
506.676	1951.86
511.402	3372.13
516.125	6295.14
520.846	13836.3
525.565	32006.5
530.281	49387
534.994	31014.5
539.705	13651.5
544.413	6567.27
549.119	3720.7
553.822	2238.34
558.523	1561.08
563.222	991.848
567.917	785.276
572.611	638.016
577.302	481.523
581.99	386.769
586.676	393.335
591.359	558.947
596.04	850.605
600.718	857.316
605.394	949.925
610.067	655.316
614.737	370.255
619.406	33.2832
624.071	88.7402
628.734	162.575
633.395	49.3057
638.053	212.303
642.708	547.572
647.361	968.349
652.012	1813.43
656.66	2428.89
661.305	2190.34
665.948	1352.02
670.588	679.55
675.226	455.004
679.861	414.329
684.494	425.618
689.124	440.157
693.752	528.553
698.377	719.276
702.999	1099.96
707.619	1569.78
712.237	2178.35
716.852	2190.59
721.464	1929.45
726.074	1076.05
730.681	597.402
735.286	392.491
739.888	305.268
744.488	79.8906
749.085	45.7627
753.68	67.6328
758.272	80.4609
762.861	79.3926
767.448	132.34
772.033	22.3545
776.614	17.3086
781.194	18.7275
785.77	23.8135
790.345	32.8203
794.916	42.5176
799.485	23.8926
804.052	140.435
808.616	76.6719
813.177	2.48144
817.736	25.8877
822.292	60.7725
826.846	109.049
831.397	61.8701
835.945	24.7012
840.491	204.212
845.035	68.7598
849.576	242.95
854.114	242.782
858.65	272.263
863.183	328.418
867.713	149.251
872.241	220.773
876.767	233.966
881.29	135.773
885.81	244.666
890.328	124.491
894.843	160.32
899.356	216.185
903.866	170.102
908.373	133.593
912.878	24.0674
917.38	128.06
921.88	3.86231
926.377	20.874
930.872	145.56
935.364	131.2
939.853	201.28
944.34	227.179
948.824	429.836
953.306	1078.35
957.785	1277.05
962.261	983.025
966.735	565.259
971.207	453.056
975.675	302.759
980.141	379.89
984.605	624.539
989.066	624.075
993.524	628.783
997.98	662.515
1002.43	579.379
1006.88	401.31
1011.33	314.33
1015.78	230.963
1020.22	347.118
1024.66	379.309
1029.1	353.772
1033.53	614.379
1037.97	853.638
1042.4	1513.85
1046.82	2395.27
1051.25	4130.45
1055.67	5321.67
1060.09	4364.01
1064.51	2923.59
1068.92	1954.75
1073.33	1482.39
1077.74	999.019
1082.15	930.949
1086.55	758.518
1090.95	677.887
1095.35	659.203
1099.75	781.731
1104.14	663.418
1108.53	497.952
1112.92	593.944
1117.31	367.058
1121.69	334.297
1126.07	260.363
1130.45	164.9
1134.82	192.759
1139.19	134.244
1143.57	117.04
1147.93	5.29492
1152.3	123.685
1156.66	63.7578
1161.02	78.9375
1165.38	104.221
1169.73	66.2539
1174.08	98.1846
1178.43	52.3105
1182.78	70.6709
1187.12	154.365
1191.46	52.1045
1195.8	143.893
1200.14	83.7178
1204.47	110.435
1208.8	61.9688
1213.13	53.9199
1217.46	52.543
1221.78	26.375
1226.1	174.946
1230.42	129.599
1234.73	3.33008
1239.04	72.6894
1243.35	25.585
1247.66	68.4746
1251.97	86.3555
1256.27	227.223
1260.57	103.936
1264.86	201.634
1269.16	218.224
1273.45	17.2402
1277.74	110.47
1282.03	83.7168
1286.31	205.343
1290.59	92.5234
1294.87	28.0117
1299.14	62.958
1303.42	79.2314
1307.69	290.194
1311.95	211.389
1316.22	167.539
1320.48	257.459
1324.74	169.543
1329	211.578
1333.26	54.3145
1337.51	16.4971
1341.76	280.536
1346	171.731
1350.25	16.126
1354.49	6.56641
1358.73	119.238
1362.96	36.4463
1367.2	112.652
1371.43	221.462
1375.66	151.263
1379.88	117.012
1384.11	292.748
1388.33	32.706
1392.54	199.496
1396.76	33.3272
1400.97	184.444
1405.18	42.3945
1409.39	58.3965
1413.59	35.5772
1417.8	191.599
1421.99	137.672
1426.19	209.914
1430.38	39.127
1434.58	255.436
1438.77	288.688
1442.95	304.21
1447.13	261.852
1451.32	334.927
1455.49	275.858
1459.67	267.397
1463.84	295.495
1468.01	109.458
1472.18	354.22
1476.35	306.135
1480.51	259.137
1484.67	106.756
1488.83	167.137
1492.98	261.804
1497.13	192.617
1501.28	190.352
1505.43	214.601
1509.57	248.519
1513.71	120.7
1517.85	142.302
1521.99	239.408
1526.12	233.872
1530.25	249.711
1534.38	204.373
1538.5	246.06
1542.62	87.3008
1546.74	223.589
1550.86	372.629
1554.98	343.062
1559.09	224.959
1563.2	358.375
1567.31	83.3574
1571.41	48.6152
