Measurement: Raman, 514 nm, depolarized, Raman Data Processed
Mineral: Edingtonite
Rruff sample: R040003
Ideal chemistry: Ba(Si_3_Al_2_)O_10_4H_2_O
Locality: Bohl, Sweden
Source: University of Arizona Mineral Museum
Description: Colorless tetragonal prism
Measured chemistry: Ba_1.00_(Si_3.00_Al_2.00_)O_10_Â·4H_2_O; trace amounts of Na; H_2_O estimated by difference
Pin_id: m00038
Orientation: Laser parallel to b* (0 1 0). Fiducial mark perpendicular to laser is parallel to c [0 0 1]
Raman shift (cm-1)	intensity
87.101	0
91.284	118.907
95.465	525.84
99.644	1304.36
103.82	2361.25
107.995	2820.24
112.168	3338.41
116.339	4879.22
120.508	6407.28
124.675	6672.72
128.84	8881.87
133.003	12413.3
137.164	12433.8
141.323	9360.41
145.48	7435.72
149.635	7419.27
153.788	8233.29
157.939	8139.32
162.088	6008.55
166.235	3432.24
170.38	1931.07
174.523	1322.43
178.664	1092.12
182.803	767.507
186.94	662.407
191.076	823.523
195.209	894.199
199.34	873.428
203.47	872.421
207.597	873.979
211.722	697.713
215.846	572.292
219.967	565.291
224.087	619.47
228.204	1457.75
232.32	5369.15
236.434	10823.4
240.545	5820.53
244.655	1362.56
248.763	204.428
252.869	101.468
256.973	255.836
261.075	363.863
265.175	317.314
269.273	58.823
273.369	3.028
277.463	59.357
281.556	130.37
285.646	81.578
289.734	97.229
293.821	29.68
297.905	201.124
301.988	422.346
306.069	629.442
310.147	941.902
314.224	1268.85
318.299	1336.58
322.372	1156.11
326.443	996.182
330.512	998.574
334.579	1323.68
338.645	1520.15
342.708	1415.41
346.769	1508.25
350.829	1767.92
354.887	2302.1
358.942	3202.07
362.996	3518.53
367.048	2716.59
371.098	1521.25
375.146	872.496
379.192	796.33
383.236	596.741
387.279	540.722
391.319	513.275
395.358	798.415
399.394	1107.16
403.429	1501.47
407.462	1732.38
411.493	1659.84
415.522	1638.17
419.549	1965.97
423.575	2558.09
427.598	3463.76
431.619	4425.8
435.639	4530.28
439.657	3738.65
443.673	2620.1
447.687	1825.02
451.699	1112
455.709	626.592
459.717	298.814
463.724	332.945
467.728	64.291
471.731	7.322
475.732	52.904
479.731	25.515
483.728	124.499
487.723	140.208
491.716	222.632
495.708	552.762
499.697	880.638
503.685	1213.3
507.671	1723.8
511.655	2671.18
515.637	4642.48
519.617	8745.73
523.596	18488.9
527.572	38882
531.547	45535
535.52	26758
539.491	12950.4
543.46	6721.2
547.427	3923.19
551.393	2613.66
555.356	1757.04
559.318	1204.65
563.278	815.24
567.236	635.791
571.192	556.321
575.147	486.073
579.099	274.496
583.05	370.906
586.999	456.721
590.946	591.233
594.891	741.999
598.834	957.866
602.776	1195.48
606.715	1019.03
610.653	635.997
614.589	244.232
618.523	129.912
622.456	99.584
626.386	284.838
630.315	254.503
634.242	91.729
638.167	210.824
642.09	514.638
646.012	1011.28
649.931	1589.41
653.849	2349.8
657.765	2896.52
661.679	2379.25
665.592	1606.72
669.502	955.662
673.411	539.238
677.318	346.525
681.223	402.796
685.126	396.435
689.028	367.684
692.927	507.936
696.825	598.446
700.721	1041.67
704.616	1456.96
708.508	1924.19
712.399	2142.11
716.288	2344.42
720.175	2295.49
724.06	1589.68
727.944	923.001
731.825	451.389
735.705	149.331
739.584	218.098
743.46	216.923
747.334	156.841
751.207	65.18
755.078	99.218
758.947	108.93
762.815	49.699
766.68	43.947
770.544	17.883
774.406	102.755
778.267	57.94
782.125	36.169
785.982	27.836
789.837	31.009
793.69	79.063
797.542	66.461
801.391	31.808
805.239	168.848
809.085	168.654
812.93	81.243
816.772	5.625
820.613	125.764
824.452	193.65
828.29	200.263
832.125	126.626
835.959	29.775
839.791	12.72
843.621	147.445
847.45	273.974
851.277	235.305
855.102	113.479
858.925	64.481
862.746	165.289
866.566	191.943
870.384	292.408
874.2	116.696
878.015	68.804
881.828	13.275
885.639	107.445
889.448	241.019
893.256	252.426
897.061	75.259
900.865	47.053
904.668	5.277
908.468	86.331
912.267	143.042
916.064	297.994
919.86	188.082
923.653	91.741
927.445	26.225
931.236	115.44
935.024	215.422
938.811	341.942
942.596	357.124
946.379	328.134
950.161	641.163
953.94	1176.07
957.719	1211.38
961.495	1041.89
965.27	650.723
969.043	399.797
972.814	297.126
976.583	218.876
980.351	442.845
984.117	720.972
987.882	728.243
991.644	639.472
995.405	691.511
999.165	579.521
1002.92	585.316
1006.68	522.807
1010.43	521.909
1014.18	363.582
1017.93	352.937
1021.68	241.624
1025.43	323.976
1029.18	597.047
1032.92	705.25
1036.66	966.764
1040.4	1062.99
1044.14	1374.79
1047.88	2407.26
1051.62	3961.3
1055.35	5715.88
1059.08	5112.6
1062.81	3509.16
1066.54	2342.16
1070.27	1515.46
1073.99	1103.25
1077.72	905.341
1081.44	823.158
1085.16	867.938
1088.88	714.18
1092.59	444.334
1096.31	319.517
1100.02	196.744
1103.73	201.291
1107.44	330.829
1111.15	487.287
1114.86	428.589
1118.57	384.453
1122.27	314.94
1125.97	190.323
1129.67	81.314
1133.37	225.089
1137.07	279.651
1140.76	230.363
1144.45	232.118
1148.15	42.577
1151.84	99.771
1155.53	17.223
1159.21	39.25
1162.9	190.577
1166.58	133.946
1170.26	204.738
1173.94	175.985
1177.62	79.49
1181.3	67.973
1184.97	36.793
1188.65	93.866
1192.32	276.005
1195.99	259.851
1199.66	372.813
1203.33	219.395
1206.99	90.338
1210.65	42.394
1214.32	21.056
1217.98	93.273
1221.64	260.74
1225.29	321.391
1228.95	394.052
1232.6	264.783
1236.26	172.481
1239.91	121.832
1243.56	131.075
1247.2	160.414
1250.85	266.44
1254.49	372.35
1258.13	377.18
1261.78	322.961
1265.41	249.622
1269.05	144.193
1272.69	37.646
1276.32	65.329
1279.95	119.924
1283.59	272.635
1287.21	367.341
1290.84	383.588
1294.47	321.54
1298.09	182.548
1301.72	124.712
1305.34	20.081
1308.96	79.755
1312.58	97.543
1316.19	7.602
1319.81	47.462
1323.42	103.369
1327.03	343.659
1330.64	160.865
1334.25	96.018
1337.86	64.961
1341.46	11.358
1345.07	94.454
1348.67	80.122
1352.27	264.287
1355.87	460.329
1359.46	525.118
1363.06	288.018
1366.65	278.95
1370.25	204.199
1373.84	104.781
1377.43	86.481
1381.02	171.847
1384.6	227.289
1388.18	345.675
1391.77	568.887
1395.35	498.942
1398.93	371.838
1402.51	408.782
1406.08	334.911
1409.66	180.965
1413.23	146.066
1416.8	69.18
1420.37	189.944
1423.94	264.536
1427.51	369.162
1431.08	480.873
1434.64	527.464
1438.2	484.194
1441.76	438.428
1445.32	284.646
1448.88	109.352
1452.43	113.426
1455.99	146.13
1459.54	297.284
1463.09	413.861
1466.64	440.715
1470.19	512.525
1473.74	557.571
1477.28	522.979
1480.83	424.952
1484.37	304.558
1487.91	243.165
1491.45	129.193
1494.98	119.015
1498.52	84.219
1502.05	41.512
1505.59	235.018
1509.12	276.104
1512.65	338.683
1516.17	412.616
1519.7	514.847
1523.23	473.985
1526.75	334.277
1530.27	235.658
1533.79	1.402
1537.31	0
