Measurement: Raman, 514 nm, depolarized, Raman Data Processed
Mineral: Elbaite
Rruff sample: R050487
Ideal chemistry: Na(Al_1.5_Li_1.5_)Al_6_(Si_6_O_18_)(BO_3_)_3_(OH)_3_OH
Locality: White Queen mine, Pala, San Diego County, California, USA
Source: California Institute of Technology
Description: Mass of blue acicular crystals
Measured chemistry: (Na_0.86_[box]_0.13_Ca_0.01_)(Al_0.42_Li_0.38_Fe^2+^_0.18_Mn_0.02_)_3_Al_6_(BO_3_)_3_Si_6_O_18_((OH)_0.85_F_0.15_)_4_
Pin_id: M01385
Orientation: Laser parallel to c* (0 0 1). Fiducial mark perpendicular to laser is parallel to b [0 1 0]
Raman shift (cm-1)	intensity
187.725	0
192.623	12.0566
197.52	194
202.413	578.604
207.305	1234.47
212.193	3348.46
217.079	5352.84
221.963	5972.79
226.844	5076.35
231.723	3333.58
236.599	2557.58
241.472	2342.28
246.343	1777.02
251.211	973.328
256.077	376.723
260.94	185.701
265.801	199.168
270.66	148.547
275.515	271.109
280.368	146.152
285.219	36.0645
290.067	199.631
294.913	174.352
299.756	163.469
304.596	4.07422
309.434	325.469
314.27	593.664
319.102	1572.12
323.933	2191.92
328.76	2829.62
333.586	3009.39
338.408	3113.72
343.229	2790.25
348.046	3005.18
352.861	3694.75
357.674	3953.69
362.484	5482.9
367.291	8121.23
372.096	10334.4
376.898	10092.5
381.698	6853.73
386.495	3983.17
391.29	2770.98
396.082	2337
400.872	2219.36
405.659	2426.2
410.443	2016.52
415.225	1604.45
420.005	995.623
424.782	584.894
429.556	578.381
434.328	284.172
439.097	153.643
443.864	432.734
448.628	354.285
453.389	216.172
458.148	225.019
462.905	599.227
467.659	825.795
472.41	1009.02
477.159	938.881
481.905	1098.53
486.649	1317.65
491.39	1415.14
496.129	1801.94
500.865	1703.54
505.598	1813.69
510.329	1358.28
515.057	967.492
519.783	475.797
524.506	545.299
529.227	660.396
533.945	567.148
538.661	854.115
543.374	974.188
548.084	1173.31
552.792	1217.94
557.498	850.426
562.2	672.555
566.901	436.945
571.598	506.312
576.293	558.834
580.986	405.125
585.676	244.106
590.363	113.293
595.048	446.312
599.731	533.092
604.41	419.621
609.088	380.963
613.762	56.3086
618.434	120.779
623.104	49.0996
627.771	234.17
632.435	359.799
637.097	224.293
641.756	456.772
646.413	280.078
651.067	346.346
655.719	565.086
660.368	353.106
665.014	548.637
669.658	2.35938
674.299	37.8164
678.938	352.393
683.574	148.445
688.208	9.62695
692.839	197.397
697.468	265.482
702.094	738.875
706.717	1744.65
711.338	3521.79
715.956	6371.29
720.572	10048.1
725.185	11975.1
729.795	10116.1
734.403	6047.83
739.009	3456.05
743.611	2481.36
748.212	2289.25
752.809	2564.85
757.405	2452.09
761.997	1939.51
766.587	1244.43
771.174	985.961
775.759	608.4
780.342	780.312
784.921	341.51
789.498	427.447
794.073	925.898
798.645	1280.28
803.215	1094.83
807.781	1789.76
812.346	1580.12
816.907	1140.3
821.467	1133.16
826.023	984.406
830.577	1570.59
835.129	1796.04
839.678	1968.11
844.224	1904.63
848.768	1857.6
853.309	2442.05
857.847	2935.97
862.383	1952.4
866.917	1091.32
871.448	646.758
875.976	161.723
880.502	146.195
885.025	54.9336
889.545	39.5977
894.063	53.3477
898.579	120.129
903.092	37.2031
907.602	18.0185
912.11	40.0926
916.615	58.1289
921.118	196.566
925.618	190.027
930.115	195.207
934.61	585.449
939.102	529.731
943.592	612.914
948.079	555.184
952.564	1239.05
957.046	1115.09
961.525	851.328
966.002	1513.96
970.476	1656.62
974.948	1364.22
979.417	1411.74
983.883	1331.18
988.347	1452.58
992.809	1486.93
997.268	1693.77
1001.72	1662.54
1006.18	1550.86
1010.63	1912.58
1015.08	2083.9
1019.52	2163.36
1023.97	2491.59
1028.41	2722.91
1032.85	2865.75
1037.28	3385.15
1041.71	4488.11
1046.14	5817.76
1050.57	7825.49
1055	9703.04
1059.42	10680.8
1063.84	9151.94
1068.26	6614.99
1072.67	3973.67
1077.09	2720.89
1081.5	1698.72
1085.9	1250.97
1090.31	1244.71
1094.71	1266.79
1099.11	1080.62
1103.51	1289.19
1107.9	1583.98
1112.29	1820.98
1116.68	1573.21
1121.07	1066.68
1125.45	801.383
1129.84	728.34
1134.21	715.559
1138.59	355.035
1142.96	393.797
1147.34	319.863
1151.7	640.406
1156.07	453.801
1160.43	659.777
1164.79	425.488
1169.15	332.734
1173.51	223.484
1177.86	141.941
1182.21	158.086
1186.56	53.2767
1190.91	274.531
1195.25	92.4727
1199.59	126.676
1203.93	242.066
1208.26	78.8789
1212.6	36.7812
1216.92	196.25
1221.25	149.613
1225.58	127.625
1229.9	226.629
1234.22	330.644
1238.54	470.824
1242.85	78.5156
1247.16	186.582
1251.47	364.133
1255.78	284.113
1260.08	717.488
1264.38	260.266
1268.68	289.445
1272.98	306.055
1277.28	432.129
1281.57	371.621
1285.86	254.547
1290.14	459.902
1294.42	510.656
1298.71	366.82
1302.98	649.375
1307.26	451.602
1311.53	381.801
1315.8	358.769
1320.07	494.785
1324.34	337.156
1328.6	79.4258
1332.86	567.754
1337.12	460.137
1341.38	334.875
1345.63	461.734
1349.88	231.848
1354.13	453.875
1358.37	311.781
1362.61	504.207
1366.85	425.184
1371.09	366.656
1375.33	627.688
1379.56	869.996
1383.79	887.621
1388.01	908.438
1392.24	752.883
1396.46	852.004
1400.68	665.371
1404.9	478.543
1409.11	555.859
1413.32	262.711
1417.53	490.008
1421.74	429.375
1425.94	548.258
1430.14	1019.19
1434.34	1146.88
1438.54	1423.53
1442.73	1873.34
1446.92	1821.11
1451.11	2230.05
1455.3	2237.38
1459.48	2052
1463.66	1042.43
1467.84	731.523
1472.01	509.129
1476.19	265.539
1480.36	441.633
1484.53	599.398
1488.69	177.809
1492.85	340.035
1497.01	136.438
1501.17	169.375
1505.33	85.4727
1509.48	99.9062
1513.63	325.371
1517.78	277.816
1521.92	321.789
1526.06	253.031
1530.2	350.816
1534.34	126.047
1538.47	265.426
1542.6	175.668
1546.73	85.3828
1550.86	209.066
1554.98	140.391
