Measurement: Raman, 514 nm, depolarized, Raman Data Processed
Mineral: Elbaite
Rruff sample: R050487
Ideal chemistry: Na(Al_1.5_Li_1.5_)Al_6_(Si_6_O_18_)(BO_3_)_3_(OH)_3_OH
Locality: White Queen mine, Pala, San Diego County, California, USA
Source: California Institute of Technology
Description: Mass of blue acicular crystals
Measured chemistry: (Na_0.86_[box]_0.13_Ca_0.01_)(Al_0.42_Li_0.38_Fe^2+^_0.18_Mn_0.02_)_3_Al_6_(BO_3_)_3_Si_6_O_18_((OH)_0.85_F_0.15_)_4_
Pin_id: M00967
Orientation: Laser parallel to -a* (-1 0 0). Fiducial mark perpendicular to laser is parallel to c [0 0 1]
Raman shift (cm-1)	intensity
179.384	0
184.3	41.1206
189.213	82.7505
194.123	299.961
199.03	784.228
203.934	1649.77
208.836	3219.75
213.735	6118.55
218.631	9203.51
223.524	10049.8
228.414	8046.28
233.302	6240.69
238.186	5734.81
243.068	5677.06
247.947	5258.23
252.823	4518.83
257.697	4066.94
262.567	3548.76
267.435	3093.99
272.3	2576.47
277.162	1914.93
282.021	1002.21
286.878	361.911
291.732	54.7959
296.583	235.143
301.431	69.4351
306.276	42.4336
311.119	440.58
315.958	847.84
320.795	818.356
325.629	841.971
330.461	1017.5
335.289	1352.58
340.115	1568.18
344.938	2090.6
349.759	2354.37
354.576	3205.27
359.391	5305.79
364.203	10015.9
369.012	15260.6
373.818	15141.2
378.622	9538.61
383.423	5546.87
388.221	4117.87
393.016	3751.18
397.809	3966.16
402.598	4662.52
407.386	5177.06
412.17	4284.19
416.951	2676.44
421.73	1418.26
426.506	569.629
431.279	341.866
436.05	176.275
440.818	91.8223
445.583	117.334
450.345	88.0566
455.105	22.2725
459.861	58.5122
464.615	24.7915
469.367	58.1177
474.115	64.5576
478.861	37.4502
483.604	295.418
488.345	485.317
493.082	730.133
497.817	884.856
502.55	1171.49
507.279	1234.08
512.006	1088.88
516.73	866.103
521.451	541.469
526.17	294.096
530.886	98.0249
535.599	2.6792
540.31	24.5571
545.017	62.2891
549.723	7.13965
554.425	92.814
559.125	5.37695
563.822	66.8564
568.516	150.004
573.207	156.056
577.896	274.062
582.583	361.6
587.266	326.948
591.947	369.565
596.625	375.797
601.3	517.189
605.973	406.366
610.643	533.203
615.311	713.79
619.975	1446.02
624.637	2695.35
629.297	4095.95
633.953	4671.4
638.607	4470.7
643.259	3787.5
647.907	3413.37
652.553	3070.32
657.197	2407.69
661.837	1998.63
666.475	1231.73
671.111	936.618
675.743	813.627
680.373	824.961
685.001	1183.5
689.625	2048.5
694.247	4017.58
698.867	6510.96
703.483	7556.91
708.097	6161.31
712.709	3496.64
717.318	1797.83
721.924	924.75
726.527	667.381
731.128	559.711
735.726	731.763
740.322	880.536
744.915	1732.01
749.505	2649.2
754.093	2340.18
758.678	1474.98
763.26	875.513
767.84	425.762
772.417	400.732
776.992	269.426
781.564	56.8355
786.133	100.204
790.7	53.6284
795.264	11.9273
799.825	59.8579
804.384	35.8232
808.94	21.7422
813.494	45.4062
818.045	67.1103
822.593	159.661
827.139	302.269
831.682	452.844
836.223	666.457
840.761	729.905
845.296	781.169
849.829	816.563
854.359	863.668
858.887	1151.91
863.412	1099.5
867.934	484.392
872.454	383.208
876.971	280.413
881.486	225.666
885.998	134.824
890.507	144.266
895.014	153.889
899.518	183.422
904.02	180.852
908.519	246.186
913.016	150.463
917.51	78.3955
922.001	74.9502
926.49	62.8506
930.976	206.886
935.46	222.656
939.941	278.741
944.42	365.296
948.896	531.122
953.369	733.027
957.84	976.614
962.309	1060.7
966.774	1186.88
971.238	1184.14
975.698	1143.5
980.156	1036.96
984.612	1142.51
989.065	1062.16
993.516	1215.92
997.964	1344.53
1002.41	1391.06
1006.85	1606.25
1011.29	1755.17
1015.73	1892.71
1020.16	2167.93
1024.6	2086.78
1029.03	1932.69
1033.46	1829.32
1037.88	1907.01
1042.3	2200.41
1046.72	2911.24
1051.14	3529.14
1055.56	4017.28
1059.97	3742.24
1064.38	3417.71
1068.79	2801.68
1073.19	2764.07
1077.59	2893.97
1081.99	3412.9
1086.39	3385.61
1090.79	2528.38
1095.18	1787.16
1099.57	1274.96
1103.95	1102.76
1108.34	880.567
1112.72	817.378
1117.1	605.188
1121.48	357.995
1125.85	257.796
1130.23	139.589
1134.6	131.372
1138.96	4.14062
1143.33	65.1782
1147.69	9.91943
1152.05	94.7647
1156.41	64.9233
1160.76	21.7642
1165.11	25.4273
1169.46	110.065
1173.81	71.6611
1178.16	56.1816
1182.5	84.6768
1186.84	74.144
1191.18	122.587
1195.51	5.83057
1199.84	5.75195
1204.17	32.3481
1208.5	63.2891
1212.83	119.638
1217.15	79.3872
1221.47	114.07
1225.79	181.688
1230.1	162.243
1234.41	406.738
1238.73	318.174
1243.03	280.556
1247.34	493.895
1251.64	431.205
1255.94	429.533
1260.24	436.824
1264.54	442.093
1268.83	746.329
1273.12	737.251
1277.41	762.554
1281.69	507.559
1285.98	398.229
1290.26	413.48
1294.54	531.775
1298.81	632.118
1303.09	549.875
1307.36	677.337
1311.63	831.882
1315.89	739.486
1320.16	751.115
1324.42	640.094
1328.68	363.252
1332.93	178.919
1337.19	137.447
1341.44	221.652
1345.69	126.766
1349.94	157.002
1354.18	204.37
1358.42	232.874
1362.66	137.526
1366.9	198.333
1371.13	376.429
1375.37	501.225
1379.6	569.844
1383.82	552.351
1388.05	472.183
1392.27	507.108
1396.49	274.264
1400.71	203.75
1404.92	218.682
1409.14	234.086
1413.35	254.805
1417.56	255.81
1421.76	270.057
1425.97	315.535
1430.17	476.331
1434.37	651.157
1438.56	990.951
1442.76	1359.86
1446.95	1465.03
1451.14	1716.98
1455.33	1718.8
1459.51	1681.02
1463.69	1206.61
1467.87	744.585
1472.05	587.917
1476.22	551.96
1480.4	486.364
1484.57	435.606
1488.73	167.413
1492.9	66.5015
1497.06	0.043457
1501.22	4.27832
1505.38	16.9629
1509.54	12.9697
1513.69	12.6777
1517.84	75.5879
1521.99	83.3408
1526.14	99.4629
1530.28	132.124
1534.42	192.606
1538.56	97.4155
1542.7	68.9502
1546.83	111.64
1550.97	153.675
1555.1	140.054
1559.22	78.0732
1563.35	0
