Measurement: Raman, 514 nm, depolarized, Raman Data Processed
Mineral: Elbaite
Rruff sample: R060003
Ideal chemistry: Na(Al_1.5_Li_1.5_)Al_6_(Si_6_O_18_)(BO_3_)_3_(OH)_3_OH
Locality: Mount Begbie, Revelstoke, British Columbia, Canada
Source: Bob Downs
Description: Pink crystal associated with trilithionite, R060004
Measured chemistry: (Na_0.58_[box]_0.42_)(Al_1.69_Li_1.27_Mn_0.04_)Al_6_(BO_3_)_3_[Si_6_O_18_](OH)_4_
Pin_id: M00450
Orientation: Laser parallel to -c* (0 0 -1). Fiducial mark perpendicular to laser is parallel to -a [-1 0 0]
Raman shift (cm-1)	intensity
167.261	0
172.161	50.1074
177.058	41.3438
181.952	112.199
186.845	485.906
191.734	1029.63
196.622	1380.48
201.507	1952.57
206.389	1947.09
211.269	3445.13
216.147	6216.12
221.022	9576.05
225.895	8646.84
230.765	5597.35
235.633	4496.31
240.498	4602.1
245.361	4179.79
250.222	2942.5
255.08	2078.4
259.936	1968.05
264.789	1741.67
269.64	2331.25
274.488	2321.7
279.334	2121.85
284.178	1698.6
289.019	990.893
293.857	152.316
298.693	282.102
303.527	252.416
308.358	1238.83
313.187	1336.35
318.013	1623.57
322.837	2803.44
327.659	3948.41
332.478	4496.9
337.294	3391.24
342.108	2590.21
346.92	2632.64
351.729	2820.5
356.535	4334.17
361.34	6414.4
366.141	9246.1
370.94	12821.2
375.737	15952.5
380.531	14032.6
385.323	9362.63
390.113	6602.77
394.9	5501.05
399.684	5816.42
404.466	6418.88
409.245	5837.95
414.022	4480.02
418.797	2261.54
423.569	784.922
428.338	251.1
433.105	69.0215
437.87	447.373
442.632	937.193
447.391	1267.59
452.149	1623.95
456.903	1135.84
461.655	614.666
466.405	586.443
471.152	586.24
475.897	471.967
480.639	687.604
485.378	808.678
490.116	752.529
494.85	1040.62
499.582	1361.2
504.312	2561.37
509.039	3284.2
513.764	4454.11
518.486	4690.95
523.206	4400.93
527.923	4052.73
532.638	5448.39
537.35	6525.17
542.059	7029.79
546.766	6791.47
551.471	6329.99
556.173	5842.78
560.873	4518.24
565.57	3402.35
570.264	2223.98
574.957	1584.06
579.646	1042.56
584.333	824.805
589.018	367.631
593.7	532.629
598.379	247.748
603.056	138.93
607.73	62.0586
612.402	59.8125
617.072	356.438
621.739	120.705
626.403	298.359
631.065	5.5957
635.724	37.9883
640.381	355.231
645.035	388.438
649.687	505.066
654.336	19.6348
658.983	157.133
663.627	474.982
668.268	632.377
672.907	498.135
677.544	712.035
682.178	467.969
686.809	228.139
691.438	177.272
696.065	726.035
700.688	1077.36
705.31	1925.66
709.929	3800.78
714.545	4968.52
719.158	8942.22
723.77	16506
728.378	25152.7
732.984	23781.1
737.588	15306.4
742.189	9259.4
746.787	6439.25
751.383	4972.75
755.976	4029.39
760.567	3545.33
765.155	2228.64
769.741	1328.79
774.324	702.658
778.904	467.234
783.482	370.824
788.058	142.34
792.631	485.053
797.201	541.512
801.769	852.709
806.334	702.85
810.897	7.92188
815.457	222.106
820.014	89.4219
824.569	37.668
829.122	25.8906
833.671	14.8926
838.219	215.5
842.763	295.664
847.306	189.727
851.845	299.703
856.382	552.701
860.917	619.809
865.448	935.057
869.978	1051.47
874.505	1205.06
879.029	1226.86
883.55	818.938
888.069	812.479
892.586	500.945
897.1	226.725
901.611	229.168
906.12	19.7598
910.626	6.80859
915.129	139.457
919.63	71.1934
924.129	211.853
928.625	484.199
933.118	703.914
937.609	1146.23
942.097	1243.24
946.582	1368.81
951.065	1403.88
955.546	1471.78
960.023	1541.5
964.499	1536.3
968.971	1751.43
973.441	1939.28
977.909	2051.98
982.374	2254.37
986.836	2303.37
991.295	1994
995.753	1812.7
1000.21	1869.56
1004.66	1892.3
1009.11	1900.93
1013.55	2501.46
1018	2542.9
1022.44	3203.93
1026.88	4057.69
1031.32	4295.34
1035.75	4705.98
1040.18	5112.99
1044.61	6017.91
1049.04	6947.43
1053.46	8838.72
1057.88	11444.5
1062.3	14786.8
1066.71	17505.9
1071.13	16789
1075.54	13429.1
1079.94	9107.24
1084.35	6117.26
1088.75	3805.94
1093.15	2870.62
1097.55	2146.72
1101.94	1553.31
1106.34	1316.32
1110.73	1243.2
1115.11	1203.87
1119.5	757.473
1123.88	970.734
1128.26	647.82
1132.63	813.547
1137.01	398.023
1141.38	668.188
1145.75	307.535
1150.12	77.6328
1154.48	74.9414
1158.84	193.867
1163.2	83.9375
1167.55	2.36328
1171.91	98.8242
1176.26	85.8516
1180.61	0.613281
1184.95	101.301
1189.29	117.035
1193.63	21.4297
1197.97	262.281
1202.31	49.2305
1206.64	266.762
1210.97	122.125
1215.29	66.2305
1219.62	216.43
1223.94	75.0352
1228.26	20.1523
1232.57	174.894
1236.89	271.555
1241.2	331.738
1245.51	267.422
1249.81	176.676
1254.12	10.5664
1258.42	45.4219
1262.72	348.535
1267.01	318.949
1271.3	259.18
1275.59	259.922
1279.88	263.762
1284.17	255.934
1288.45	392.371
1292.73	294.723
1297.01	128.723
1301.28	284.707
1305.55	219.066
1309.82	118.637
1314.09	297.789
1318.35	228.859
1322.61	93.0938
1326.87	445.281
1331.13	418.465
1335.38	245.613
1339.63	65.0508
1343.88	256.191
1348.12	200.133
1352.37	317.191
1356.61	431.453
1360.85	247.644
1365.08	87.2734
1369.31	176.828
1373.54	117.043
1377.77	363.809
1381.99	220.891
1386.22	596.215
1390.43	200.894
1394.65	339.762
1398.87	468.668
1403.08	334.121
1407.29	460.602
1411.49	525.625
1415.69	614.488
1419.89	378.883
1424.09	436.676
1428.29	512.496
1432.48	263.269
1436.67	325.195
1440.86	109.023
1445.04	458.375
1449.23	556.281
1453.4	563.551
1457.58	654.828
1461.76	895.473
1465.93	1323.41
1470.1	658.633
1474.26	568.039
1478.43	338.656
1482.59	317.246
1486.75	198.281
1490.9	19.2734
1495.06	30.6406
1499.21	442.035
1503.35	325.809
1507.5	496.871
1511.64	439.152
1515.78	441.16
1519.92	156.508
1524.05	444.941
1528.18	394.488
1532.31	323.422
1536.44	368.273
1540.56	320.711
1544.69	80.5938
1548.8	22.0117
1552.92	453.898
1557.03	294.051
1561.14	18.0469
1565.25	179.18
1569.36	0.164063
