Measurement: Raman, 514 nm, depolarized, Raman Data Processed
Mineral: Elbaite
Rruff sample: R060562
Ideal chemistry: Na(Al_1.5_Li_1.5_)Al_6_(Si_6_O_18_)(BO_3_)_3_(OH)_3_OH
Locality: unknown
Source: Gemological Institute of America
Description: Blue colored polished fragment
Measured chemistry: (Na_0.68_Ca_0.20_[box]_0.12_)(Li_1.20_Al_1.12_Fe^2+^_0.50_Mn_0.18_)Al_6_(BO_3_)_3_[Si_6_O_18_]((OH)_0.80_F_0.20_)_4_
Pin_id: M00501
Orientation: Laser parallel to c* (0 0 1). Fiducial mark perpendicular to laser is parallel to -a [-1 0 0]
Raman shift (cm-1)	intensity
118.134	0
123.058	1113.83
127.979	2115.12
132.898	2757.96
137.814	1673.41
142.728	568.21
147.639	601.239
152.549	1233.24
157.455	960.226
162.359	784.126
167.261	579.638
172.161	308.764
177.058	34.4287
181.952	51.3565
186.845	936.415
191.734	2414.09
196.622	3951.08
201.507	4968.41
206.389	4329.23
211.269	5807.97
216.147	9630.68
221.022	14840.8
225.895	17391
230.765	16098.1
235.633	14233.4
240.498	12952.8
245.361	8659.25
250.222	4422.94
255.08	1818.92
259.936	1822.21
264.789	534.299
269.64	451.109
274.488	304.584
279.334	110.329
284.178	48.8594
289.019	56.5059
293.857	296.308
298.693	469.387
303.527	1028.56
308.358	2164.84
313.187	3114.37
318.013	3925.53
322.837	5600.99
327.659	6939.15
332.478	6901.12
337.294	6498.09
342.108	6363.58
346.92	6352.77
351.729	6640.79
356.535	7694.06
361.34	10133.6
366.141	14874.2
370.94	24024.1
375.737	33914.1
380.531	28149.3
385.323	16960.7
390.113	11154.2
394.9	8239.8
399.684	8004.57
404.466	9063.86
409.245	9239.77
414.022	6928.69
418.797	3895.57
423.569	2392.14
428.338	1695.65
433.105	1262.17
437.87	1260.04
442.632	1399.95
447.391	1573.9
452.149	1532.91
456.903	1802.01
461.655	2449.21
466.405	3343.54
471.152	3501.05
475.897	3284.02
480.639	3088.82
485.378	2821.45
490.116	2716.9
494.85	2996.11
499.582	3189.52
504.312	3235.09
509.039	2962.82
513.764	2568.68
518.486	1918.64
523.206	1522.69
527.923	1495.8
532.638	2174.94
537.35	2608.09
542.059	2960.23
546.766	3160.79
551.471	3341.74
556.173	3134.02
560.873	2328.8
565.57	1799.76
570.264	1400.9
574.957	1430.02
579.646	1471.07
584.333	1316.38
589.018	1170.03
593.7	904.24
598.379	886.036
603.056	541.622
607.73	169.362
612.402	202.899
617.072	527.587
621.739	308.518
626.403	24.6816
631.065	555.62
635.724	1123.52
640.381	1404.98
645.035	929.53
649.687	774.206
654.336	1022.8
658.983	1240.37
663.627	1040.89
668.268	715.316
672.907	457.608
677.544	288.728
682.178	40.3623
686.809	304.084
691.438	73.7666
696.065	710.124
700.688	1871.56
705.31	3188.51
709.929	5309.93
714.545	8746.76
719.158	14910
723.77	25441.6
728.378	35404
732.984	32875.5
737.588	22686.3
742.189	15698.4
746.787	10893
751.383	7216.06
755.976	5140.9
760.567	3643.65
765.155	2511.23
769.741	1314.9
774.324	681.798
778.904	542.211
783.482	535.39
788.058	575.201
792.631	1129.42
797.201	1697.57
801.769	2527.64
806.334	3143.62
810.897	2776.5
815.457	2030.29
820.014	1141.79
824.569	919.619
829.122	1329.18
833.671	2062.39
838.219	2058.96
842.763	1438.54
847.306	910.128
851.845	743.724
856.382	777.24
860.917	561.946
865.448	371.568
869.978	176.108
874.505	102.569
879.029	124.12
883.55	20.0498
888.069	160.344
892.586	100.339
897.1	195.495
901.611	57.4473
906.12	42.4053
910.626	64.0781
915.129	180.411
919.63	400.522
924.129	813.154
928.625	1098.3
933.118	1489.88
937.609	1962.16
942.097	2364.09
946.582	2755.32
951.065	2982.97
955.546	3377.23
960.023	3618.46
964.499	3955.38
968.971	4133.96
973.441	4495.89
977.909	4228.18
982.374	4306.31
986.836	3958.86
991.295	3944.29
995.753	4000.14
1000.21	3974.17
1004.66	4377.53
1009.11	4674.16
1013.55	5497.33
1018	6141.92
1022.44	6843.52
1026.88	7060.97
1031.32	7664.19
1035.75	8636.8
1040.18	10466.1
1044.61	13177.9
1049.04	17208.3
1053.46	22782
1057.88	28674.7
1062.3	32021.6
1066.71	29048.2
1071.13	20985.6
1075.54	13676.1
1079.94	8912
1084.35	6124.85
1088.75	4733.47
1093.15	3887.7
1097.55	3197.24
1101.94	2698.13
1106.34	2438.57
1110.73	2062.98
1115.11	2077.14
1119.5	2501.18
1123.88	2389.11
1128.26	1409.94
1132.63	1088.69
1137.01	1271.42
1141.38	1249.26
1145.75	1073.56
1150.12	626.592
1154.48	398.349
1158.84	351.983
1163.2	167.411
1167.55	39.208
1171.91	234.508
1176.26	34.6338
1180.61	12.8594
1184.95	35.9609
1189.29	160.177
1193.63	13.3516
1197.97	36.7812
1202.31	98.8262
1206.64	34.1348
1210.97	51.248
1215.29	5.35156
1219.62	144.047
1223.94	18.6367
1228.26	46.251
1232.57	17.8096
1236.89	234.364
1241.2	198.919
1245.51	185.589
1249.81	136.252
1254.12	351.931
1258.42	325.606
1262.72	351.269
1267.01	554.925
1271.3	743.572
1275.59	585.198
1279.88	764.779
1284.17	754.303
1288.45	798.744
1292.73	833.812
1297.01	877.877
1301.28	805.177
1305.55	810.921
1309.82	788.85
1314.09	882.017
1318.35	990.166
1322.61	878.276
1326.87	926.589
1331.13	927.209
1335.38	1100.26
1339.63	934.453
1343.88	917.717
1348.12	860.233
1352.37	882.451
1356.61	835.117
1360.85	915.863
1365.08	939.035
1369.31	1229.08
1373.54	1522.53
1377.77	2152.65
1381.99	2489.32
1386.22	2731.04
1390.43	2585.85
1394.65	2157.73
1398.87	1700.59
1403.08	1345.65
1407.29	1222.54
1411.49	1043.03
1415.69	1119.13
1419.89	820.564
1424.09	769.34
1428.29	802.81
1432.48	761.118
1436.67	576.311
1440.86	527.51
1445.04	250.679
1449.23	122.115
1453.4	218.558
1457.58	188.523
1461.76	95.3125
1465.93	76.6318
1470.1	15.0312
1474.26	157.745
1478.43	40.4033
1482.59	14.6123
1486.75	38.9404
1490.9	65.4522
1495.06	15.2598
1499.21	163.469
1503.35	2.80078
1507.5	280.606
1511.64	306.782
1515.78	322.619
1519.92	413.595
1524.05	268.959
1528.18	391.152
1532.31	276.907
1536.44	77.9072
1540.56	96.4629
1544.69	246.334
1548.8	155.475
1552.92	488.07
1557.03	86.8672
1561.14	23.1602
1565.25	182.613
1569.36	38.8711
