Measurement: Raman, 514 nm, depolarized, Raman Data Processed
Mineral: Elbaite
Rruff sample: R050119
Ideal chemistry: Na(Al_1.5_Li_1.5_)Al_6_(Si_6_O_18_)(BO_3_)_3_(OH)_3_OH
Locality: Cruziero mine, San Jose, Minas Gerais, Brazil
Source: Carlos and Paulo Vasconcelos
Description: Red fragment
Measured chemistry: (Na_0.90_Ca_0.10_)(Al_0.56_Li_0.38_Mn_0.06_)_3_Al_6_(BO_3_)_3_(Si_0.89_B_0.11_)_6_O_18_(OH)_4_
Pin_id: L00157
Orientation: Laser parallel to -b* (0 -1 0). Fiducial mark perpendicular to laser is parallel to c [0 0 1]
Raman shift (cm-1)	intensity
124.675	0
128.84	58.631
133.003	24.481
137.164	59.017
141.323	130.064
145.48	205.902
149.635	210.284
153.788	198.993
157.939	243.021
162.088	79.826
166.235	70.019
170.38	39.89
174.523	103.032
178.664	92.753
182.803	27.993
186.94	39.509
191.076	217.134
195.209	391.744
199.34	613.243
203.47	1046.56
207.597	1559.62
211.722	2642.98
215.846	4727.99
219.967	8260.29
224.087	11094.2
228.204	9819.16
232.32	7164.09
236.434	5469.17
240.545	4854.45
244.655	5289.95
248.763	5673.64
252.869	5261.67
256.973	4377.93
261.075	3885.45
265.175	4013.24
269.273	4158.31
273.369	4105.65
277.463	3515.27
281.556	2589.16
285.646	1650.33
289.734	945.832
293.821	625.108
297.905	316.882
301.988	289.509
306.069	258.508
310.147	639.205
314.224	1260.14
318.299	1345.94
322.372	1139.95
326.443	1068.38
330.512	1252.9
334.579	1274.9
338.645	1134.93
342.708	1255.29
346.769	1329.95
350.829	1506.91
354.887	1983.16
358.942	2713.68
362.996	4071.47
367.048	6511.52
371.098	11281.8
375.146	16132.4
379.192	14273.2
383.236	9204.23
387.279	6335.49
391.319	5006.95
395.358	4518.6
399.394	4310.46
403.429	4582.52
407.462	4754.77
411.493	4557.22
415.522	3529.87
419.549	2572.7
423.575	2379.73
427.598	914.937
431.619	566.332
435.639	349.909
439.657	417.666
443.673	385.598
447.687	287.705
451.699	139.99
455.709	6.515
459.717	92.262
463.724	43.827
467.728	65.023
471.731	129.282
475.732	46.667
479.731	16.3
483.728	158.177
487.723	65.142
491.716	232.067
495.708	367.678
499.697	540.714
503.685	910.145
507.671	1350.97
511.655	1810.3
515.637	2174.03
519.617	2207.11
523.596	1926.54
527.572	1582.23
531.547	1201.17
535.52	1139.46
539.491	1072.96
543.46	1085.63
547.427	976.447
551.393	594.413
555.356	415.514
559.318	287.742
563.278	244.092
567.236	302.56
571.192	199.14
575.147	43.828
579.099	71.619
583.05	342.508
586.999	397.497
590.946	320.583
594.891	369.76
598.834	352.024
602.776	431.377
606.715	422.819
610.653	402.34
614.589	386.906
618.523	593.62
622.456	723.086
626.386	941.856
630.315	1336.07
634.242	1855.87
638.167	2883.21
642.09	3706.95
646.012	3826.91
649.931	3248.69
653.849	2840.89
657.765	2382.04
661.679	1821.85
665.592	1157.08
669.502	765
673.411	641.462
677.318	726.628
681.223	802.634
685.126	721.889
689.028	841.517
692.927	1226.55
696.825	2130.96
700.721	3272.9
704.616	5005.16
708.508	7196.36
712.399	7456.73
716.288	5867.31
720.175	3957.5
724.06	2347.81
727.944	1477.93
731.825	1154.68
735.705	1273.3
739.584	1509.1
743.46	2019.05
747.334	2706.84
751.207	3416.6
755.078	2926.48
758.947	1998.53
762.815	1377.95
766.68	933.312
770.544	576.908
774.406	536.541
778.267	649.679
782.125	517.767
785.982	247.726
789.837	31.688
793.69	103.694
797.542	195.723
801.391	102.596
805.239	39.107
809.085	160.899
812.93	101.631
816.772	22.997
820.613	27.021
824.452	37.11
828.29	53.375
832.125	134.446
835.959	17.893
839.791	169.865
843.621	104.371
847.45	101.325
851.277	93.969
855.102	36.359
858.925	216.529
862.746	345.471
866.566	304.227
870.384	246.79
874.2	151.183
878.015	190.439
881.828	296.557
885.639	343.778
889.448	308.513
893.256	153.296
897.061	113.995
900.865	139.559
904.668	176.961
908.468	246.175
912.267	282.19
916.064	153.979
919.86	39.532
923.653	112.839
927.445	273.911
931.236	394.756
935.024	401.39
938.811	443.814
942.596	300.294
946.379	510.06
950.161	743.329
953.94	965.537
957.719	1046.77
961.495	1204.56
965.27	1185.31
969.043	1292.48
972.814	1573.88
976.583	1773.63
980.351	1850.16
984.117	1857.32
987.882	1777.79
991.644	1613.87
995.405	1554.79
999.165	1761.69
1002.92	1844.15
1006.68	1758.94
1010.43	1532.42
1014.18	1358.21
1017.93	1421.95
1021.68	1420.19
1025.43	1613.85
1029.18	1646.44
1032.92	1710.83
1036.66	1344.1
1040.4	1462.06
1044.14	1562.52
1047.88	1873.04
1051.62	2298.51
1055.35	2784.85
1059.08	2978.39
1062.81	3022.71
1066.54	3003.58
1070.27	3153.73
1073.99	3224.44
1077.72	3275.22
1081.44	3206.47
1085.16	3128.22
1088.88	2949.44
1092.59	3001.14
1096.31	2726.06
1100.02	2257.2
1103.73	2138.32
1107.44	1669.56
1111.15	1250.99
1114.86	922.594
1118.57	664.325
1122.27	726.214
1125.97	688.181
1129.67	770.154
1133.37	661.919
1137.07	623.267
1140.76	284.404
1144.45	85.495
1148.15	46.585
1151.84	167.599
1155.53	248.66
1159.21	249.448
1162.9	330.2
1166.58	80.958
1170.26	41.267
1173.94	138.522
1177.62	58.747
1181.3	10.861
1184.97	90.102
1188.65	199.28
1192.32	109.502
1195.99	42.76
1199.66	38.625
1203.33	10.331
1206.99	32.16
1210.65	156.026
1214.32	293.138
1217.98	459.686
1221.64	305.754
1225.29	275.905
1228.95	78.285
1232.6	250.687
1236.26	73.014
1239.91	295.376
1243.56	397.752
1247.2	510.123
1250.85	422.478
1254.49	454.832
1258.13	376.777
1261.78	204.245
1265.41	231.073
1269.05	304.308
1272.69	419.527
1276.32	555.368
1279.95	601.974
1283.59	428.841
1287.21	313.712
1290.84	293.058
1294.47	259.12
1298.09	84.232
1301.72	248.363
1305.34	142.77
1308.96	205.347
1312.58	466.473
1316.19	396.161
1319.81	325.001
1323.42	214.533
1327.03	147.742
1330.64	52.034
1334.25	4.56
1337.86	88.741
1341.46	241.133
1345.07	415.406
1348.67	411.761
1352.27	275.683
1355.87	91.231
1359.46	60.215
1363.06	0.897
1366.65	0
