Measurement: Raman, 514 nm, depolarized, Raman Data Processed
Mineral: Elbaite
Rruff sample: R060560
Ideal chemistry: Na(Al_1.5_Li_1.5_)Al_6_(Si_6_O_18_)(BO_3_)_3_(OH)_3_OH
Locality: California, USA
Source: Gemological Institute of America
Description: Pink fragment
Measured chemistry: (Na_0.56_Ca_0.12_[box]_0.32_)(Al_1.60_Li_1.40_)Al_6_(BO_3_)_3_[Si_6_O_18_](OH)_4_
Pin_id: L01306
Orientation: Laser parallel to c* (0 0 1). Fiducial mark perpendicular to laser is parallel to a [1 0 0]
Raman shift (cm-1)	intensity
118.134	0
123.058	592.345
127.979	1019.85
132.898	1806.1
137.814	1654.07
142.728	1337.35
147.639	1583.29
152.549	1657.01
157.455	765.581
162.359	10.1797
167.261	83.2793
172.161	31.6182
177.058	126.585
181.952	87.1533
186.845	192.617
191.734	967.013
196.622	1697.1
201.507	2525.08
206.389	3037.22
211.269	5123.17
216.147	9060.57
221.022	14675.5
225.895	16042.3
230.765	11710.9
235.633	8922.68
240.498	8470.7
245.361	7825.58
250.222	6091.41
255.08	3817.09
259.936	2771.57
264.789	2061.3
269.64	2527.26
274.488	2849.88
279.334	2896.48
284.178	2585.8
289.019	1781.23
293.857	561.063
298.693	248.216
303.527	207.648
308.358	1248.07
313.187	2120.52
318.013	2588.84
322.837	3878.79
327.659	5464.42
332.478	6187.6
337.294	5326.66
342.108	4734.66
346.92	4320.28
351.729	4751.25
356.535	6059.86
361.34	9047.16
366.141	13491.3
370.94	19781.4
375.737	26268.2
380.531	24649.9
385.323	16207.4
390.113	10314.5
394.9	8448.35
399.684	8629.76
404.466	9513.75
409.245	9679.66
414.022	7892.18
418.797	4582.74
423.569	1572.01
428.338	383
433.105	174.738
437.87	592.291
442.632	1199.76
447.391	1674.3
452.149	1852.41
456.903	1555.39
461.655	1290.69
466.405	1076.11
471.152	1109.57
475.897	811.043
480.639	653.545
485.378	692.828
490.116	700.734
494.85	1120.27
499.582	1589.69
504.312	2608.96
509.039	3790.15
513.764	4771.28
518.486	5452.32
523.206	5110.13
527.923	4821.54
532.638	5906.56
537.35	7635.38
542.059	8002.64
546.766	8057.15
551.471	7655.61
556.173	7144.29
560.873	6261.18
565.57	4814.39
570.264	3478.83
574.957	2335.43
579.646	1803.99
584.333	1212.41
589.018	986.72
593.7	729.619
598.379	335.018
603.056	131.828
607.73	2.03613
612.402	256.818
617.072	295.557
621.739	280.911
626.403	409.671
631.065	125.686
635.724	189.477
640.381	322.435
645.035	564.535
649.687	611.837
654.336	134.717
658.983	73.2041
663.627	147.342
668.268	406.906
672.907	690.434
677.544	707.906
682.178	494.04
686.809	59.96
691.438	19.4062
696.065	384.098
700.688	804.707
705.31	1976.37
709.929	3747.94
714.545	6581.26
719.158	11962.8
723.77	22739.8
728.378	37945
732.984	42612.7
737.588	29938
742.189	17476.8
746.787	10957.4
751.383	7139.58
755.976	5509.29
760.567	4254.91
765.155	3041.37
769.741	1857.83
774.324	1138.36
778.904	557.816
783.482	378.277
788.058	204.216
792.631	332.85
797.201	751.812
801.769	944.759
806.334	783.352
810.897	49.4688
815.457	87.7578
820.014	237.548
824.569	168.353
829.122	36.5664
833.671	25.3779
838.219	86.8662
842.763	43.5264
847.306	186.174
851.845	165.306
856.382	404.032
860.917	599.559
865.448	660.989
869.978	926.356
874.505	1178.04
879.029	1202.02
883.55	1341.38
888.069	889.963
892.586	752.332
897.1	386.766
901.611	301.438
906.12	208.935
910.626	62.9805
915.129	115.803
919.63	244.28
924.129	602.222
928.625	656.94
933.118	1209.53
937.609	1783.7
942.097	2060.65
946.582	2042.42
951.065	2199.36
955.546	2189.14
960.023	2086.28
964.499	2388.99
968.971	2600.56
973.441	3067.88
977.909	3296.36
982.374	3588.87
986.836	3514.36
991.295	3123.86
995.753	3076.19
1000.21	2937.83
1004.66	3005.51
1009.11	3161.25
1013.55	3663.05
1018	4470.93
1022.44	5525.91
1026.88	6189.98
1031.32	7021.15
1035.75	7539.57
1040.18	8565.72
1044.61	9663.28
1049.04	11301.4
1053.46	13742.5
1057.88	17514.4
1062.3	22748.9
1066.71	26589.7
1071.13	26467.3
1075.54	21804.4
1079.94	15904.3
1084.35	10591.7
1088.75	6957.35
1093.15	4642.03
1097.55	3522.28
1101.94	2569.28
1106.34	2366.51
1110.73	2050.47
1115.11	1617.79
1119.5	1479.46
1123.88	1129.59
1128.26	1241.68
1132.63	1095.68
1137.01	1032.37
1141.38	1043.87
1145.75	930.193
1150.12	540.324
1154.48	491.25
1158.84	209.963
1163.2	278.447
1167.55	23.6895
1171.91	87.3398
1176.26	70.4551
1180.61	46.7734
1184.95	70.6484
1189.29	155.238
1193.63	126.783
1197.97	101.615
1202.31	72.7148
1206.64	28.2793
1210.97	115.867
1215.29	49.75
1219.62	63.5039
1223.94	44.3457
1228.26	25.5781
1232.57	79.1934
1236.89	81.3106
1241.2	184.055
1245.51	30.3887
1249.81	183.111
1254.12	197.272
1258.42	243.973
1262.72	255.219
1267.01	484.039
1271.3	559.432
1275.59	376.412
1279.88	554.977
1284.17	492.131
1288.45	484.877
1292.73	537.223
1297.01	282.357
1301.28	361.289
1305.55	377.059
1309.82	416.012
1314.09	469.625
1318.35	459.201
1322.61	448.131
1326.87	666.715
1331.13	314.859
1335.38	428.56
1339.63	388.143
1343.88	473.295
1348.12	379.863
1352.37	350.785
1356.61	341.721
1360.85	403.164
1365.08	415.465
1369.31	185.182
1373.54	395.022
1377.77	616.561
1381.99	326.592
1386.22	723.553
1390.43	841.465
1394.65	1273.59
1398.87	1451.81
1403.08	1230.13
1407.29	1243.59
1411.49	1386.88
1415.69	1010.27
1419.89	910.865
1424.09	403.68
1428.29	305.631
1432.48	412.394
1436.67	460.672
1440.86	749.688
1445.04	703.856
1449.23	846.549
1453.4	1201.3
1457.58	1630.58
1461.76	1975.46
1465.93	1819.86
1470.1	1232.8
1474.26	567.848
1478.43	206.518
1482.59	12.3457
1486.75	83.2207
1490.9	121.252
1495.06	108.807
1499.21	206.957
1503.35	528.637
1507.5	359.853
1511.64	585.584
1515.78	404.203
1519.92	322.857
1524.05	193.508
1528.18	175.906
1532.31	265.062
1536.44	137.018
1540.56	76.1211
1544.69	170.381
1548.8	77.7578
1552.92	109.334
1557.03	146.348
1561.14	11.9062
1565.25	26.1523
1569.36	145.65
