Measurement: Raman, 514 nm, depolarized, Raman Data Processed
Mineral: Elbaite
Rruff sample: R060003
Ideal chemistry: Na(Al_1.5_Li_1.5_)Al_6_(Si_6_O_18_)(BO_3_)_3_(OH)_3_OH
Locality: Mount Begbie, Revelstoke, British Columbia, Canada
Source: Bob Downs
Description: Pink crystal associated with trilithionite, R060004
Measured chemistry: (Na_0.58_[box]_0.42_)(Al_1.69_Li_1.27_Mn_0.04_)Al_6_(BO_3_)_3_[Si_6_O_18_](OH)_4_
Pin_id: L00688
Orientation: Laser parallel to -a* (-1 0 0). Fiducial mark perpendicular to laser is parallel to -c [0 0 -1]
Raman shift (cm-1)	intensity
118.134	0
123.058	115.852
127.979	197.549
132.898	464.318
137.814	946.49
142.728	1490.94
147.639	1728.16
152.549	2067.23
157.455	1603.46
162.359	1345.44
167.261	1378.17
172.161	1109.2
177.058	1078.09
181.952	1130.05
186.845	961.516
191.734	989.539
196.622	1642.66
201.507	2554.1
206.389	3757.65
211.269	6411.61
216.147	10456.2
221.022	12424.7
225.895	11170.2
230.765	8262.52
235.633	6619.75
240.498	6734.8
245.361	6853.58
250.222	5885.01
255.08	5068
259.936	5576.46
264.789	5229.73
269.64	5257.71
274.488	4774.44
279.334	3584.79
284.178	2974.31
289.019	2162.55
293.857	1351.19
298.693	341.869
303.527	367.068
308.358	808.842
313.187	1122.3
318.013	1083.19
322.837	1082.6
327.659	1125.46
332.478	1289.22
337.294	1138.75
342.108	1527.96
346.92	1865.87
351.729	2586.41
356.535	4287.47
361.34	7377.96
366.141	12594.8
370.94	17128
375.737	15942.6
380.531	10801.3
385.323	6810.33
390.113	5218.5
394.9	5166.81
399.684	5533.22
404.466	5589.69
409.245	4627.22
414.022	3191.36
418.797	1550.23
423.569	344.502
428.338	152.607
433.105	107.025
437.87	333.727
442.632	142.582
447.391	229.008
452.149	140.375
456.903	322.418
461.655	275.578
466.405	896.289
471.152	1738.58
475.897	2494.52
480.639	2216.92
485.378	1197.08
490.116	856.961
494.85	2036.54
499.582	4495.78
504.312	7467.66
509.039	8278.15
513.764	6615.29
518.486	4745.4
523.206	2965.45
527.923	2257.92
532.638	1872.05
537.35	1876.75
542.059	1533.86
546.766	890.508
551.471	662.062
556.173	493.465
560.873	337.863
565.57	51.1094
570.264	67.0117
574.957	124.098
579.646	343.734
584.333	154.125
589.018	33.3086
593.7	82.8945
598.379	1.13281
603.056	149.402
607.73	175.324
612.402	209.484
617.072	331.609
621.739	441.734
626.403	990.031
631.065	2108.47
635.724	3172.85
640.381	4066.11
645.035	3909.23
649.687	3456.69
654.336	2416.99
658.983	1419.64
663.627	794.691
668.268	372.309
672.907	154.047
677.544	312.789
682.178	238.984
686.809	689.352
691.438	1401.54
696.065	2891.36
700.688	5412.03
705.31	7954.49
709.929	8819.41
714.545	7471
719.158	5325.85
723.77	3532.72
728.378	2786.82
732.984	2703.57
737.588	2906.55
742.189	3551.07
746.787	4466.06
751.383	3647.92
755.976	2717.89
760.567	2412.88
765.155	1609.86
769.741	1071.56
774.324	1010.32
778.904	535.703
783.482	361.867
788.058	127.992
792.631	36.3047
797.201	93.043
801.769	245.394
806.334	32.2539
810.897	258.262
815.457	172.086
820.014	35.5117
824.569	63.0977
829.122	32.9453
833.671	131.707
838.219	383.191
842.763	53.3438
847.306	142.856
851.845	460.223
856.382	222.781
860.917	520.508
865.448	314.648
869.978	532.117
874.505	237.703
879.029	445.227
883.55	524.281
888.069	288.746
892.586	253.426
897.1	45.8164
901.611	0.882813
906.12	217.113
910.626	225.68
915.129	160.555
919.63	478.703
924.129	330.473
928.625	350.879
933.118	439.188
937.609	610.441
942.097	692.555
946.582	1146.03
951.065	990.68
955.546	1061.59
960.023	1287.48
964.499	1726.15
968.971	1885.65
973.441	1942.38
977.909	2357.54
982.374	2175.48
986.836	2421.52
991.295	2084.87
995.753	2218.77
1000.21	2160.19
1004.66	1931.66
1009.11	1800.41
1013.55	1898.65
1018	1730.45
1022.44	1956.94
1026.88	1787.97
1031.32	1821.1
1035.75	1653.2
1040.18	2035.25
1044.61	2512.52
1049.04	2714.67
1053.46	3321.22
1057.88	3352.59
1062.3	3832.55
1066.71	3710.01
1071.13	4046.27
1075.54	3848.14
1079.94	3845.77
1084.35	3852.12
1088.75	3969.37
1093.15	3684.27
1097.55	3166.62
1101.94	2843.49
1106.34	2349.05
1110.73	1835.21
1115.11	1869.5
1119.5	1564.91
1123.88	1285.12
1128.26	1106.21
1132.63	503.027
1137.01	560.891
1141.38	736.227
1145.75	429.996
1150.12	353.289
1154.48	469.59
1158.84	249.199
1163.2	133.613
1167.55	126.32
1171.91	150.125
1176.26	264.379
1180.61	116.766
1184.95	152.715
1189.29	7.38672
1193.63	35.3438
1197.97	251.805
1202.31	97.9414
1206.64	37.0273
1210.97	425.019
1215.29	365.894
1219.62	42.2852
1223.94	327.367
1228.26	132.863
1232.57	379.625
1236.89	250.215
1241.2	77.7734
1245.51	30.2891
1249.81	3.21875
1254.12	133.18
1258.42	25.0977
1262.72	154.473
1267.01	296.641
1271.3	67.2188
1275.59	118.773
1279.88	37.7891
1284.17	325.805
1288.45	152.047
1292.73	298.231
1297.01	581.031
1301.28	267.562
1305.55	593.965
1309.82	401.242
1314.09	451.594
1318.35	441.473
1322.61	427.836
1326.87	231.856
1331.13	568.363
1335.38	115.742
1339.63	343.953
1343.88	360.922
1348.12	140.039
1352.37	191.383
1356.61	408.949
1360.85	574.766
1365.08	399.859
1369.31	428.258
1373.54	297.981
1377.77	228.731
1381.99	451.293
1386.22	469.441
1390.43	217.242
1394.65	422.402
1398.87	577.656
1403.08	320.738
1407.29	323.957
1411.49	475.785
1415.69	641.934
1419.89	402.262
1424.09	653.684
1428.29	573.336
1432.48	929.234
1436.67	1351.39
1440.86	1495.08
1445.04	1351.02
1449.23	1350.14
1453.4	1225.96
1457.58	1465.5
1461.76	1108.79
1465.93	1038.89
1470.1	896.594
1474.26	683.019
1478.43	623.219
1482.59	399.363
1486.75	571.957
1490.9	269.75
1495.06	331.777
1499.21	128.012
1503.35	385.203
1507.5	440.184
1511.64	353.582
1515.78	540.019
1519.92	257.41
1524.05	410.992
1528.18	150.047
1532.31	280.676
1536.44	57.1133
1540.56	232.504
1544.69	55.0352
1548.8	184.871
1552.92	229.258
1557.03	142.543
1561.14	68.7734
1565.25	14.8789
1569.36	2.29688
