Measurement: Raman, 514 nm, depolarized, Raman Data Processed
Mineral: Elbaite
Rruff sample: R060631
Ideal chemistry: Na(Al_1.5_Li_1.5_)Al_6_(Si_6_O_18_)(BO_3_)_3_(OH)_3_OH
Locality: unknown
Source: Gemological Institute of America
Description: Pink polished fragment
Measured chemistry: (Na_0.55_Ca_0.34_[box]_0.11_)(Li_1.53_Al_1.30_Mn_0.14_Fe^2+^_0.03_)Al_6.00_(BO_3_)_3_[Si_6.00_O_18_]((OH)_0.82_F_0.18_)_4_
Pin_id: L01326
Orientation: Laser parallel to -c* (0 0 -1). Fiducial mark perpendicular to laser is parallel to b [0 1 0]
Raman shift (cm-1)	intensity
113.208	0
118.134	397.956
123.058	1457.26
127.979	2261.58
132.898	2366.96
137.814	1464.13
142.728	1039.41
147.639	1475.48
152.549	1721.62
157.455	1071.1
162.359	192.551
167.261	7.20019
172.161	209.2
177.058	165.981
181.952	23.3574
186.845	800.171
191.734	1930.56
196.622	3088.08
201.507	4415.67
206.389	5033.74
211.269	8443.54
216.147	14215.7
221.022	21389.6
225.895	19700
230.765	13940.2
235.633	11862.1
240.498	11358.6
245.361	9373.91
250.222	5908.87
255.08	3369.53
259.936	2277.33
264.789	1239.62
269.64	1574.95
274.488	1514.03
279.334	1629.43
284.178	1661.38
289.019	967.909
293.857	103.434
298.693	505.361
303.527	578.856
308.358	1892
313.187	2921.45
318.013	3881.81
322.837	6062.17
327.659	7940.61
332.478	7755.18
337.294	6593.4
342.108	5736.56
346.92	5630.98
351.729	6212.17
356.535	8327.65
361.34	11894.4
366.141	17566.3
370.94	26198.6
375.737	34741.2
380.531	30030.9
385.323	18553.9
390.113	12174.9
394.9	10411.1
399.684	10668.2
404.466	11577.5
409.245	11205.7
414.022	8309.69
418.797	4267.9
423.569	1580.15
428.338	568.444
433.105	674.837
437.87	1024.35
442.632	1448.11
447.391	1573.62
452.149	1641.83
456.903	1505.4
461.655	1870.72
466.405	2061.25
471.152	2001.34
475.897	1695.53
480.639	1297.95
485.378	975.381
490.116	918.998
494.85	1313.05
499.582	2010.51
504.312	3347.48
509.039	4444.3
513.764	5051.92
518.486	4851.06
523.206	4275.33
527.923	4818.61
532.638	6526.81
537.35	8093.07
542.059	8700.1
546.766	8758.52
551.471	8732.8
556.173	7542.75
560.873	5715.7
565.57	3687.87
570.264	2143.2
574.957	1306.62
579.646	1005.05
584.333	1043.79
589.018	866.77
593.7	435.504
598.379	284.888
603.056	65.8301
607.73	93.1914
612.402	451.972
617.072	389.122
621.739	0.738281
626.403	808.743
631.065	182.863
635.724	581.229
640.381	1031.09
645.035	976.908
649.687	746.166
654.336	400.239
658.983	525.064
663.627	587.726
668.268	531.776
672.907	674.834
677.544	522.875
682.178	251.155
686.809	157.86
691.438	192.678
696.065	192.168
700.688	1330.21
705.31	2750.97
709.929	5070.66
714.545	9239.02
719.158	17451.7
723.77	32637
728.378	50053.8
732.984	47395.1
737.588	30826.8
742.189	18682
746.787	11949.4
751.383	7931.9
755.976	5735.64
760.567	4441.97
765.155	2864.05
769.741	1694.59
774.324	576.64
778.904	204.422
783.482	64.6318
788.058	12.6865
792.631	146.155
797.201	614.53
801.769	939.352
806.334	1117.66
810.897	206.461
815.457	27.9766
820.014	185.24
824.569	87.2832
829.122	156.701
833.671	440.766
838.219	610.317
842.763	435.655
847.306	344.798
851.845	462.755
856.382	880.564
860.917	1032.26
865.448	1037.86
869.978	1271.4
874.505	1253.9
879.029	1240.41
883.55	874.283
888.069	650.144
892.586	393.583
897.1	221.362
901.611	43.1914
906.12	80.9844
910.626	4.41894
915.129	99.1279
919.63	172.628
924.129	456.641
928.625	959.705
933.118	1546.88
937.609	2218.72
942.097	2478.22
946.582	2821.54
951.065	2726.07
955.546	2903.1
960.023	2916.56
964.499	3147.49
968.971	3418.96
973.441	3716.63
977.909	3900.2
982.374	3849.27
986.836	3724.62
991.295	3482.98
995.753	3277.32
1000.21	3468.63
1004.66	3634.95
1009.11	3788.26
1013.55	4522.63
1018	5473.03
1022.44	6815.47
1026.88	7512.85
1031.32	8234.35
1035.75	9080.8
1040.18	10682.1
1044.61	12809.9
1049.04	16203.6
1053.46	20802.2
1057.88	27095.6
1062.3	34642.2
1066.71	37646.5
1071.13	31985.2
1075.54	22787.4
1079.94	15081.2
1084.35	9942.08
1088.75	6628.15
1093.15	4703.29
1097.55	3872.19
1101.94	2916.37
1106.34	2376.85
1110.73	2094.17
1115.11	1895.31
1119.5	1491.27
1123.88	1273.05
1128.26	952.64
1132.63	639.025
1137.01	516.207
1141.38	675.174
1145.75	441.92
1150.12	245.438
1154.48	92.7207
1158.84	31.7334
1163.2	90.8643
1167.55	77.1357
1171.91	23.752
1176.26	52.7109
1180.61	14.1582
1184.95	71.249
1189.29	4.49512
1193.63	5.08789
1197.97	113.361
1202.31	31.1855
1206.64	78.9404
1210.97	136.251
1215.29	266.405
1219.62	95.5772
1223.94	114.269
1228.26	88.5098
1232.57	223.294
1236.89	244.692
1241.2	273.724
1245.51	240.507
1249.81	374.957
1254.12	284.415
1258.42	433.772
1262.72	544.148
1267.01	692.177
1271.3	772.866
1275.59	940.226
1279.88	1000.27
1284.17	806.939
1288.45	776.156
1292.73	1001.91
1297.01	955.513
1301.28	847.798
1305.55	764.588
1309.82	1002.79
1314.09	934.829
1318.35	950.439
1322.61	851.571
1326.87	944.546
1331.13	778.85
1335.38	607.806
1339.63	573.747
1343.88	495.367
1348.12	574.064
1352.37	691.268
1356.61	637.119
1360.85	500.04
1365.08	837.327
1369.31	653.123
1373.54	854.951
1377.77	1087.49
1381.99	1204.15
1386.22	1548.97
1390.43	1991.96
1394.65	2347.14
1398.87	2459.56
1403.08	2483.24
1407.29	1952.2
1411.49	1732.04
1415.69	1431.06
1419.89	1038.5
1424.09	960.871
1428.29	1059.7
1432.48	1162.92
1436.67	1229.52
1440.86	1750.39
1445.04	1729.84
1449.23	1815.5
1453.4	2035.68
1457.58	2237.5
1461.76	1955.42
1465.93	1265.93
1470.1	722.974
1474.26	552.185
1478.43	291.825
1482.59	133.037
1486.75	123.857
1490.9	163.324
1495.06	144.488
1499.21	54.3545
1503.35	277.81
1507.5	274.938
1511.64	215.852
1515.78	287.963
1519.92	130.19
1524.05	243.6
1528.18	352.37
1532.31	134.472
1536.44	127.331
1540.56	47.4902
1544.69	121.494
1548.8	0.304688
1552.92	135.018
1557.03	111.064
1561.14	43.6787
1565.25	35.6426
1569.36	40.165
