Measurement: Raman, 514 nm, depolarized, Raman Data Processed
Mineral: Elbaite
Rruff sample: R050119
Ideal chemistry: Na(Al_1.5_Li_1.5_)Al_6_(Si_6_O_18_)(BO_3_)_3_(OH)_3_OH
Locality: Cruziero mine, San Jose, Minas Gerais, Brazil
Source: Carlos and Paulo Vasconcelos
Description: Red fragment
Measured chemistry: (Na_0.90_Ca_0.10_)(Al_0.56_Li_0.38_Mn_0.06_)_3_Al_6_(BO_3_)_3_(Si_0.89_B_0.11_)_6_O_18_(OH)_4_
Pin_id: L00105
Orientation: Laser parallel to c* (0 0 1). Fiducial mark perpendicular to laser is parallel to b [0 1 0]
Raman shift (cm-1)	intensity
91.284	0
95.465	61.409
99.644	282.584
103.82	554.657
107.995	1003.57
112.168	2110.21
116.339	2236.52
120.508	2223.02
124.675	2261.74
128.84	2519.44
133.003	2704.42
137.164	2405.21
141.323	1961.78
145.48	1510.55
149.635	1336
153.788	1209.56
157.939	811.549
162.088	542.095
166.235	221.478
170.38	149.936
174.523	137.686
178.664	84.484
182.803	166.101
186.94	77.218
191.076	62.019
195.209	484.892
199.34	616.21
203.47	799.405
207.597	972.145
211.722	1505.15
215.846	2608.3
219.967	4510.94
224.087	5692.06
228.204	4733.24
232.32	3434.65
236.434	2756.27
240.545	2637.1
244.655	2710.14
248.763	2342.39
252.869	1474.87
256.973	910.59
261.075	503.635
265.175	438.604
269.273	544.04
273.369	589.406
277.463	474.486
281.556	519.021
285.646	542.766
289.734	355.903
293.821	118.592
297.905	219.219
301.988	258.785
306.069	81.218
310.147	436.152
314.224	603.605
318.299	741.087
322.372	998.546
326.443	1745.98
330.512	2153.42
334.579	2340.14
338.645	2020.99
342.708	1739.23
346.769	1700.43
350.829	1670.01
354.887	1920.33
358.942	2467.65
362.996	3183.31
367.048	4158.59
371.098	5464
375.146	7689.55
379.192	9395.26
383.236	7731.14
387.279	5327.17
391.319	3533.34
395.358	2979.63
399.394	2856.05
403.429	3092.59
407.462	3509.23
411.493	3325.99
415.522	2652.85
419.549	1709.79
423.575	956.732
427.598	453.619
431.619	330.438
435.639	507.185
439.657	623.859
443.673	713.716
447.687	817.845
451.699	925.688
455.709	803.626
459.717	727.1
463.724	658.181
467.728	623.815
471.731	673.386
475.732	711.236
479.731	619.864
483.728	579.157
487.723	513.542
491.716	520.39
495.708	627.809
499.697	655.355
503.685	952.319
507.671	1480.3
511.655	1858.48
515.637	2057.75
519.617	1887.35
523.596	1586.62
527.572	1626.38
531.547	1877.63
535.52	2480.17
539.491	2854.79
543.46	3085.56
547.427	3085.67
551.393	2604.61
555.356	2493.49
559.318	2202.26
563.278	1960.93
567.236	1589.48
571.192	1167.9
575.147	786.197
579.099	484.355
583.05	462.372
586.999	400.246
590.946	297.977
594.891	285.56
598.834	242.993
602.776	160.308
606.715	107.462
610.653	5.571
614.589	168.84
618.523	32.598
622.456	116.072
626.386	157.694
630.315	89.181
634.242	33.295
638.167	180.934
642.09	277.624
646.012	203.781
649.931	178.801
653.849	214.211
657.765	206.688
661.679	245.955
665.592	292.62
669.502	250.838
673.411	272.505
677.318	401.156
681.223	429.33
685.126	216.278
689.028	122.196
692.927	55.292
696.825	302.377
700.721	166.441
704.616	647.414
708.508	967.516
712.399	1425.42
716.288	2372.61
720.175	4259.39
724.06	7205.75
727.944	12131.7
731.825	15157.2
735.705	12582.6
739.584	8217.27
743.46	5362.6
747.334	3557.31
751.207	2941.86
755.078	2368.48
758.947	2183.12
762.815	1755.61
766.68	1396.78
770.544	826.381
774.406	445.693
778.267	341.847
782.125	236.123
785.982	43.951
789.837	18.541
793.69	95.311
797.542	123.065
801.391	229.921
805.239	206.385
809.085	142.077
812.93	66.974
816.772	67.973
820.613	74.343
824.452	48.263
828.29	49.529
832.125	29.807
835.959	110.358
839.791	88.971
843.621	115.737
847.45	100.484
851.277	134.643
855.102	100.185
858.925	187.409
862.746	404.444
866.566	401.192
870.384	567.73
874.2	424.081
878.015	430.235
881.828	636.152
885.639	571.804
889.448	427.322
893.256	212.551
897.061	157.566
900.865	212.266
904.668	206.663
908.468	190.776
912.267	304.533
916.064	187.979
919.86	241.139
923.653	344.062
927.445	397.008
931.236	729.403
935.024	709.536
938.811	1004
942.596	922.948
946.379	1053.06
950.161	1122.95
953.94	1373.22
957.719	1303.59
961.495	1402.89
965.27	1114.53
969.043	1163.39
972.814	1189.8
976.583	1490.56
980.351	1501.3
984.117	1661.63
987.882	1588.2
991.644	1361.9
995.405	1246.27
999.165	1262.71
1002.92	1515.31
1006.68	1461.03
1010.43	1349.64
1014.18	1481.8
1017.93	1830.91
1021.68	2194.31
1025.43	2553.19
1029.18	2671.64
1032.92	2897.23
1036.66	2794.19
1040.4	3055.92
1044.14	3254.23
1047.88	3813.11
1051.62	4742.44
1055.35	5635.02
1059.08	6713.07
1062.81	8543.01
1066.54	9802.33
1070.27	10348.7
1073.99	8816.03
1077.72	6893.28
1081.44	4850.86
1085.16	3429.01
1088.88	2405.94
1092.59	1803.53
1096.31	1590.43
1100.02	1147.84
1103.73	1134.39
1107.44	1050.98
1111.15	897.537
1114.86	593.674
1118.57	509.602
1122.27	655.441
1125.97	651.223
1129.67	496.98
1133.37	572.314
1137.07	587.148
1140.76	441.75
1144.45	307.07
1148.15	121.322
1151.84	186.109
1155.53	152.832
1159.21	139.137
1162.9	262.615
1166.58	75.75
1170.26	38.307
1173.94	99.717
1177.62	68.148
1181.3	36.986
1184.97	113.461
1188.65	113.695
1192.32	253.219
1195.99	54.57
1199.66	93.418
1203.33	38.604
1206.99	21.766
1210.65	44.908
1214.32	191.492
1217.98	308.002
1221.64	304.41
1225.29	150.729
1228.95	56.969
1232.6	433.133
1236.26	89.242
1239.91	365.311
1243.56	301.057
1247.2	427.1
1250.85	362.355
1254.49	375.434
1258.13	383.105
1261.78	287.295
1265.41	189.803
1269.05	146.52
1272.69	291.58
1276.32	580.648
1279.95	512.078
1283.59	447.334
1287.21	220.047
1290.84	227.637
1294.47	25.377
1298.09	26.115
1301.72	78.117
1305.34	111
1308.96	244.59
1312.58	350.521
1316.19	397.15
1319.81	387.08
1323.42	299.062
1327.03	400.059
1330.64	19.061
1334.25	89.246
1337.86	100.18
1341.46	199.402
1345.07	237.475
1348.67	235.844
