Measurement: Raman, 514 nm, depolarized, Raman Data Processed
Mineral: Elbaite
Rruff sample: R050260
Ideal chemistry: Na(Al_1.5_Li_1.5_)Al_6_(Si_6_O_18_)(BO_3_)_3_(OH)_3_OH
Locality: Minas Gerais, Brazil
Source: Marcus Origlieri
Description: Greenish-gray prismatic single crystal
Measured chemistry: (Na_0.76_[box]_0.17_Ca_0.07_)_Σ=1_(Al_1.67_Li_0.97_Mn_0.36_)_Σ=3_Al_6.00_(B_1.00_O_3_)_3_Si_6.00_O_18_((OH)_3.40_F_0.60_)_Σ=4_; B assumed by stoichiometry; OH estimated by charge balance
Pin_id: L01964
Orientation: Laser parallel to a* (1 0 0). Fiducial mark perpendicular to laser is parallel to -c [0 0 -1]
Raman shift (cm-1)	intensity
118.134	0
123.058	144.416
127.979	78.8975
132.898	214.48
137.814	365.644
142.728	25.3213
147.639	89.7725
152.549	974.285
157.455	1151.78
162.359	821.325
167.261	375.486
172.161	132.759
177.058	75.708
181.952	46.7822
186.845	639.826
191.734	1273.29
196.622	2685
201.507	4457.53
206.389	6766.32
211.269	12296.5
216.147	19666.9
221.022	30241.6
225.895	34161.7
230.765	25600.8
235.633	19414.1
240.498	17866.5
245.361	18403.9
250.222	17739.3
255.08	15365.9
259.936	14255.5
264.789	11598.3
269.64	10035.2
274.488	8586.88
279.334	6171.58
284.178	3946.19
289.019	2046.81
293.857	728.953
298.693	131.188
303.527	278.656
308.358	950.247
313.187	2267.28
318.013	3165.9
322.837	3036.65
327.659	2871.86
332.478	3719.65
337.294	4631.28
342.108	5483.38
346.92	6520.16
351.729	8026.52
356.535	10186.5
361.34	16262
366.141	26814
370.94	40534.5
375.737	50604.5
380.531	34036.9
385.323	20315.7
390.113	14032.9
394.9	12250.5
399.684	12851.5
404.466	13943
409.245	14530.8
414.022	12182
418.797	7416.33
423.569	3832.49
428.338	1848.82
433.105	911.838
437.87	600.852
442.632	384.55
447.391	165.944
452.149	53.6514
456.903	21.043
461.655	8.68164
466.405	186.512
471.152	43.2246
475.897	13.7012
480.639	17.3262
485.378	489.688
490.116	1107.11
494.85	1989.91
499.582	2468.09
504.312	3366.61
509.039	3550.47
513.764	3510.82
518.486	3085.04
523.206	2200.2
527.923	1273.66
532.638	1048.02
537.35	843.51
542.059	540.486
546.766	301.066
551.471	115.946
556.173	26.8408
560.873	66.3516
565.57	66.0703
570.264	99.1172
574.957	101.931
579.646	326.623
584.333	619.167
589.018	550.525
593.7	599.661
598.379	526.301
603.056	599.289
607.73	630.816
612.402	823.968
617.072	1158.29
621.739	2122.52
626.403	4561.4
631.065	8151.53
635.724	11306.1
640.381	10927.2
645.035	8514.84
649.687	7015.38
654.336	6096.55
658.983	5169.28
663.627	4126.33
668.268	2993.51
672.907	2121.1
677.544	2027.85
682.178	2396
686.809	3414.24
691.438	6259.87
696.065	11089.5
700.688	17455.5
705.31	23286.6
709.929	22115.2
714.545	14794
719.158	8206.46
723.77	4794.44
728.378	3419.94
732.984	2915.93
737.588	3280.19
742.189	4470.49
746.787	6651.58
751.383	8619.89
755.976	7454.23
760.567	4608.84
765.155	2901.78
769.741	1738.08
774.324	1308.95
778.904	974.74
783.482	346.017
788.058	170.054
792.631	56.5098
797.201	122.139
801.769	164.322
806.334	151.688
810.897	67.334
815.457	65.3887
820.014	35.9824
824.569	314.137
829.122	503.382
833.671	747.026
838.219	803.056
842.763	748.311
847.306	830.715
851.845	686.203
856.382	627.725
860.917	604.291
865.448	456.912
869.978	312.596
874.505	270.323
879.029	146.981
883.55	16.501
888.069	84.6621
892.586	23.4326
897.1	129.094
901.611	85.6221
906.12	115.188
910.626	120.616
915.129	342.259
919.63	325.979
924.129	549.567
928.625	779.295
933.118	1007.31
937.609	1394.74
942.097	1399.34
946.582	1784.04
951.065	2367.05
955.546	2881.24
960.023	3531.11
964.499	4211.1
968.971	4605.98
973.441	4475.8
977.909	4456.83
982.374	4350.96
986.836	4276.29
991.295	4182.84
995.753	4236.6
1000.21	4479.31
1004.66	4382.8
1009.11	4396.9
1013.55	4589.96
1018	4770.69
1022.44	5098.54
1026.88	4953.8
1031.32	4862.02
1035.75	5131.78
1040.18	5883.31
1044.61	6887.36
1049.04	8443.57
1053.46	9940.7
1057.88	10868.4
1062.3	10987.7
1066.71	10554.9
1071.13	9720.15
1075.54	9704.8
1079.94	9884.36
1084.35	10701.9
1088.75	10614.7
1093.15	8527.13
1097.55	6266.79
1101.94	4629.94
1106.34	3477.16
1110.73	2645.45
1115.11	2014.86
1119.5	1618.44
1123.88	1415.39
1128.26	976.291
1132.63	722.552
1137.01	329.465
1141.38	361.465
1145.75	154.69
1150.12	1.79492
1154.48	83.0147
1158.84	142.18
1163.2	159.788
1167.55	53.8125
1171.91	124.075
1176.26	128.518
1180.61	109.084
1184.95	110.736
1189.29	210.455
1193.63	43.2266
1197.97	236.029
1202.31	13.8398
1206.64	227.629
1210.97	3.63867
1215.29	128.8
1219.62	49.7353
1223.94	3.0791
1228.26	13.8496
1232.57	48.0664
1236.89	34.8652
1241.2	68.4316
1245.51	44.7568
1249.81	9.96777
1254.12	92.0928
1258.42	42.0332
1262.72	141.945
1267.01	150.655
1271.3	306.166
1275.59	309.476
1279.88	506.536
1284.17	496.139
1288.45	475.57
1292.73	581.762
1297.01	480.883
1301.28	439.695
1305.55	558.315
1309.82	550.618
1314.09	575.644
1318.35	664.394
1322.61	548.887
1326.87	498.103
1331.13	668.024
1335.38	525.644
1339.63	461.249
1343.88	491.362
1348.12	484.41
1352.37	484.682
1356.61	291.438
1360.85	295.824
1365.08	357.111
1369.31	424.09
1373.54	659.716
1377.77	672.685
1381.99	867.181
1386.22	1072.75
1390.43	1214.76
1394.65	1382.91
1398.87	1423.11
1403.08	1261.16
1407.29	1219.76
1411.49	1095.69
1415.69	984.521
1419.89	868.254
1424.09	806.855
1428.29	938.289
1432.48	823.662
1436.67	737.068
1440.86	642.611
1445.04	779.544
1449.23	711.128
1453.4	687.073
1457.58	310.6
1461.76	396.28
1465.93	346.293
1470.1	254.356
1474.26	87.3232
1478.43	240.91
1482.59	49.4775
1486.75	44.1103
1490.9	91.1807
1495.06	144.703
1499.21	211.847
1503.35	186.325
1507.5	73.2109
1511.64	302.502
1515.78	328.371
1519.92	753.108
1524.05	497.843
1528.18	441.274
1532.31	455.545
1536.44	376.785
1540.56	386.271
1544.69	365.329
1548.8	432.751
1552.92	596.641
1557.03	212.875
1561.14	230.147
1565.25	158.185
1569.36	3.5791
