Measurement: Raman, 514 nm, depolarized, Raman Data Processed
Mineral: Elbaite
Rruff sample: R060560
Ideal chemistry: Na(Al_1.5_Li_1.5_)Al_6_(Si_6_O_18_)(BO_3_)_3_(OH)_3_OH
Locality: California, USA
Source: Gemological Institute of America
Description: Pink fragment
Measured chemistry: (Na_0.56_Ca_0.12_[box]_0.32_)(Al_1.60_Li_1.40_)Al_6_(BO_3_)_3_[Si_6_O_18_](OH)_4_
Pin_id: L01799
Orientation: Laser parallel to -a* (-1 0 0). Fiducial mark perpendicular to laser is parallel to -c [0 0 -1]
Raman shift (cm-1)	intensity
118.134	0
123.058	371.116
127.979	33.5449
132.898	197.75
137.814	363.239
142.728	494.269
147.639	893.648
152.549	906.116
157.455	362.526
162.359	28.8799
167.261	109.917
172.161	180.259
177.058	35.917
181.952	63.2539
186.845	248.762
191.734	1235.17
196.622	2455.77
201.507	4488.48
206.389	6569.21
211.269	11016.3
216.147	18595
221.022	27609.4
225.895	27613
230.765	20034.1
235.633	15832.5
240.498	16063.1
245.361	17145.4
250.222	15413.4
255.08	11969
259.936	10287.3
264.789	9300.33
269.64	9323.15
274.488	8716.75
279.334	6891.15
284.178	4112.2
289.019	2055.35
293.857	905.259
298.693	927.821
303.527	942.889
308.358	2162.27
313.187	3298.82
318.013	3565.66
322.837	2987.78
327.659	3413.78
332.478	3340.01
337.294	3187.8
342.108	3514.48
346.92	4120.63
351.729	5395.81
356.535	7922.41
361.34	12969.4
366.141	22821.8
370.94	37019.4
375.737	41381.2
380.531	29126
385.323	17873.9
390.113	12949.8
394.9	12365.8
399.684	13039.9
404.466	14599
409.245	13684.7
414.022	10428
418.797	6134.36
423.569	3080.36
428.338	1624.87
433.105	737.868
437.87	273.312
442.632	368.176
447.391	450.429
452.149	9.95801
456.903	79.8848
461.655	92.2441
466.405	262.008
471.152	132.903
475.897	467.372
480.639	269.754
485.378	28.5879
490.116	642.121
494.85	1206.11
499.582	2004.91
504.312	3242.84
509.039	4439.9
513.764	5624.08
518.486	5697.37
523.206	4782.8
527.923	3689.61
532.638	3627.36
537.35	3256.25
542.059	2729.34
546.766	2063.64
551.471	1539.92
556.173	1062.82
560.873	962.057
565.57	576.536
570.264	602.496
574.957	556.776
579.646	703.301
584.333	846.775
589.018	918.045
593.7	934.341
598.379	728.551
603.056	681.057
607.73	663.929
612.402	801.428
617.072	991.708
621.739	1383.69
626.403	2576.38
631.065	4559.76
635.724	6923.82
640.381	8177.54
645.035	7467.88
649.687	5991.8
654.336	4793.26
658.983	3799.24
663.627	2568.69
668.268	1900.08
672.907	1232.13
677.544	1185.06
682.178	1279.31
686.809	1891.82
691.438	3018.46
696.065	5120.35
700.688	9677.6
705.31	15843.3
709.929	20337.8
714.545	19064.3
719.158	13305.8
723.77	8290.91
728.378	5716.73
732.984	4814.38
737.588	5369.55
742.189	6717.36
746.787	8219.09
751.383	7824.85
755.976	5507.11
760.567	3904.17
765.155	2423.34
769.741	2035.86
774.324	1633.95
778.904	1383.13
783.482	1017.45
788.058	483.688
792.631	538.051
797.201	140.519
801.769	15.1396
806.334	195.565
810.897	260.828
815.457	242.415
820.014	319.15
824.569	215.367
829.122	118.257
833.671	11.666
838.219	15.8965
842.763	139.658
847.306	71.585
851.845	15.0547
856.382	134.552
860.917	323.929
865.448	464.267
869.978	838.638
874.505	766.057
879.029	918.533
883.55	803.067
888.069	728.661
892.586	513.313
897.1	455.009
901.611	382.742
906.12	386.562
910.626	369.494
915.129	359.742
919.63	453.256
924.129	649.996
928.625	561.387
933.118	776.438
937.609	1210.89
942.097	1454
946.582	1572.41
951.065	1735.03
955.546	2442.18
960.023	2976.15
964.499	3490.21
968.971	4002.72
973.441	4463.57
977.909	4462.71
982.374	4545.16
986.836	4405.44
991.295	4318.06
995.753	4335.06
1000.21	4042.81
1004.66	3863.97
1009.11	3831.11
1013.55	3434.25
1018	3462.4
1022.44	3482.57
1026.88	3355.89
1031.32	3287.27
1035.75	3385.79
1040.18	3522.98
1044.61	4035.32
1049.04	4745.92
1053.46	5562.53
1057.88	6734
1062.3	7233.38
1066.71	7391.03
1071.13	7389.05
1075.54	7684.36
1079.94	7758.48
1084.35	7862.64
1088.75	8301.5
1093.15	7652.09
1097.55	6860.15
1101.94	6053.56
1106.34	4987.03
1110.73	3887.49
1115.11	3213.29
1119.5	2697.41
1123.88	2451.76
1128.26	2095.69
1132.63	1473.31
1137.01	1377.99
1141.38	1052.57
1145.75	884.098
1150.12	453.664
1154.48	352.31
1158.84	215.494
1163.2	136.227
1167.55	26.6387
1171.91	49.2969
1176.26	85.707
1180.61	76.1836
1184.95	55.4238
1189.29	57.0586
1193.63	69.3301
1197.97	106.467
1202.31	90.4297
1206.64	104.231
1210.97	81.1191
1215.29	138.006
1219.62	84.1894
1223.94	157.197
1228.26	10.7441
1232.57	120.137
1236.89	122.314
1241.2	258.65
1245.51	12.6777
1249.81	33.4199
1254.12	52.043
1258.42	81.3106
1262.72	17.0996
1267.01	222.522
1271.3	169.666
1275.59	481.525
1279.88	151.106
1284.17	27.373
1288.45	152.19
1292.73	75.7207
1297.01	84.4141
1301.28	260.254
1305.55	288.838
1309.82	312.815
1314.09	248.92
1318.35	298.082
1322.61	60.2598
1326.87	189.391
1331.13	275.141
1335.38	261.228
1339.63	130.945
1343.88	154.584
1348.12	299.098
1352.37	170.143
1356.61	103.213
1360.85	239.471
1365.08	192.234
1369.31	311.676
1373.54	274.062
1377.77	483.42
1381.99	244.67
1386.22	249.815
1390.43	504.32
1394.65	613.424
1398.87	516.369
1403.08	760.475
1407.29	482.477
1411.49	590.262
1415.69	485.141
1419.89	250.184
1424.09	228.414
1428.29	148.797
1432.48	82.9394
1436.67	113.506
1440.86	407.213
1445.04	251.449
1449.23	320.166
1453.4	457.129
1457.58	833.135
1461.76	924.621
1465.93	599.328
1470.1	640.17
1474.26	379.49
1478.43	306.453
1482.59	314.941
1486.75	62.8164
1490.9	419.918
1495.06	25.5078
1499.21	262.523
1503.35	111.09
1507.5	343.256
1511.64	301.471
1515.78	324.285
1519.92	236.889
1524.05	305.449
1528.18	304.978
1532.31	397.797
1536.44	102.193
1540.56	289.633
1544.69	233.283
1548.8	177.35
1552.92	175.322
1557.03	173.199
1561.14	7.20117
1565.25	12.0039
1569.36	264.908
