Measurement: Raman, 514 nm, depolarized, Raman Data Processed
Mineral: Elbaite
Rruff sample: R060562
Ideal chemistry: Na(Al_1.5_Li_1.5_)Al_6_(Si_6_O_18_)(BO_3_)_3_(OH)_3_OH
Locality: unknown
Source: Gemological Institute of America
Description: Blue colored polished fragment
Measured chemistry: (Na_0.68_Ca_0.20_[box]_0.12_)(Li_1.20_Al_1.12_Fe^2+^_0.50_Mn_0.18_)Al_6_(BO_3_)_3_[Si_6_O_18_]((OH)_0.80_F_0.20_)_4_
Pin_id: L01792
Orientation: Laser parallel to -a* (-1 0 0). Fiducial mark perpendicular to laser is parallel to c [0 0 1]
Raman shift (cm-1)	intensity
127.979	0
132.898	431.159
137.814	842.607
142.728	1668.19
147.639	1017.93
152.549	1298
157.455	1210.05
162.359	762.436
167.261	244.312
172.161	180.911
177.058	32.1397
181.952	348.438
186.845	804.211
191.734	2164.53
196.622	3607.17
201.507	5539.73
206.389	7167.27
211.269	10392.2
216.147	16284
221.022	22377.1
225.895	24056.4
230.765	21640.2
235.633	19706.4
240.498	17884.1
245.361	14248.3
250.222	10571.9
255.08	7870.83
259.936	6257.34
264.789	5039.22
269.64	4402.57
274.488	3846.95
279.334	2843.77
284.178	1688.25
289.019	847.826
293.857	180.703
298.693	310.201
303.527	751.039
308.358	1485.27
313.187	2328.51
318.013	3024.68
322.837	2647.8
327.659	2846.47
332.478	3343.21
337.294	3432.62
342.108	4438.49
346.92	5038.88
351.729	5739.71
356.535	7924.98
361.34	13682.6
366.141	26309.7
370.94	42030.1
375.737	39935.8
380.531	25334.7
385.323	15345.9
390.113	11540.3
394.9	10665.5
399.684	12858.9
404.466	16273.6
409.245	16239.7
414.022	10911.6
418.797	5602.4
423.569	2824.3
428.338	1212.43
433.105	684.926
437.87	362.541
442.632	183.252
447.391	119.094
452.149	109.978
456.903	84.2109
461.655	69.4805
466.405	89.4219
471.152	94.7988
475.897	49.0703
480.639	123.16
485.378	898.748
490.116	1619.19
494.85	2171.45
499.582	2530.62
504.312	2922.37
509.039	3048.97
513.764	2664.3
518.486	1616.43
523.206	748.336
527.923	396.522
532.638	24.9883
537.35	172.781
542.059	1.69922
546.766	102.553
551.471	82.7559
556.173	89.1914
560.873	176.315
565.57	206.863
570.264	76.4941
574.957	287.285
579.646	433.457
584.333	831.986
589.018	777.842
593.7	714.184
598.379	907.205
603.056	966.672
607.73	1166.22
612.402	1338.37
617.072	1675.2
621.739	3440.52
626.403	6505.23
631.065	10181.2
635.724	9975.3
640.381	7494.56
645.035	5842.94
649.687	5230.36
654.336	5090.76
658.983	4926.45
663.627	4107.23
668.268	3203.42
672.907	2123.02
677.544	2287.32
682.178	2060.85
686.809	3226.26
691.438	5667.45
696.065	10249
700.688	16481.1
705.31	20090.6
709.929	17526
714.545	10998.7
719.158	6064.4
723.77	3932.44
728.378	3286.12
732.984	3514.86
737.588	3872.35
742.189	4861.86
746.787	5221.25
751.383	5445.71
755.976	4657.02
760.567	3278.95
765.155	2277.35
769.741	1881.57
774.324	1392.76
778.904	920.584
783.482	373.176
788.058	268.736
792.631	40.4121
797.201	127.211
801.769	108.008
806.334	48.3125
810.897	63.5371
815.457	106.205
820.014	31.8203
824.569	66.9688
829.122	256.143
833.671	369.773
838.219	632.707
842.763	244.986
847.306	469.789
851.845	228.969
856.382	429.453
860.917	383.254
865.448	274.375
869.978	231.807
874.505	79.5137
879.029	80.8125
883.55	5.49609
888.069	132.566
892.586	64.668
897.1	69.8379
901.611	53.8242
906.12	14.6719
910.626	35.7578
915.129	391.119
919.63	494.975
924.129	378.543
928.625	698.461
933.118	853.311
937.609	1063.12
942.097	984.15
946.582	1785.06
951.065	2217.3
955.546	2629.99
960.023	3106.46
964.499	3584.2
968.971	3631.85
973.441	3821.54
977.909	3473.37
982.374	3658.92
986.836	3457.04
991.295	3632
995.753	3839.76
1000.21	4097.19
1004.66	4231.84
1009.11	4732.25
1013.55	5255.82
1018	5373.07
1022.44	5329.06
1026.88	5120.28
1031.32	4834.51
1035.75	5346.22
1040.18	6020.57
1044.61	6918.47
1049.04	8557.62
1053.46	9826.22
1057.88	11037.8
1062.3	10869.8
1066.71	9965.7
1071.13	8786.58
1075.54	8820.98
1079.94	9848.27
1084.35	10965
1088.75	10882.4
1093.15	9060.32
1097.55	7536.96
1101.94	5917.6
1106.34	4367.22
1110.73	3402.02
1115.11	2563.39
1119.5	2214.86
1123.88	1751.57
1128.26	1382.02
1132.63	1093.45
1137.01	819.381
1141.38	706.623
1145.75	449.096
1150.12	478.893
1154.48	439.06
1158.84	6.34961
1163.2	36.6035
1167.55	130.85
1171.91	0.603516
1176.26	49.4785
1180.61	30.4746
1184.95	130.961
1189.29	190.894
1193.63	14.5371
1197.97	139.992
1202.31	129.242
1206.64	143.815
1210.97	8.37695
1215.29	63.4199
1219.62	91.0762
1223.94	69.3086
1228.26	71.9668
1232.57	95.0137
1236.89	120.34
1241.2	137.519
1245.51	176.684
1249.81	21.748
1254.12	171.697
1258.42	77.5527
1262.72	12.3027
1267.01	327.93
1271.3	295.463
1275.59	445.9
1279.88	264.232
1284.17	218.449
1288.45	244.717
1292.73	420.816
1297.01	405.658
1301.28	321.025
1305.55	421.406
1309.82	284.277
1314.09	421.963
1318.35	494.404
1322.61	513.104
1326.87	104.314
1331.13	358.076
1335.38	412.185
1339.63	514.322
1343.88	435.09
1348.12	504.793
1352.37	631.762
1356.61	619.438
1360.85	459.346
1365.08	651.682
1369.31	664.834
1373.54	789.621
1377.77	1083.99
1381.99	1358.97
1386.22	1316.67
1390.43	1307.88
1394.65	1075.98
1398.87	849.902
1403.08	749.893
1407.29	661.606
1411.49	589.896
1415.69	642.088
1419.89	459.103
1424.09	513.279
1428.29	581.383
1432.48	561.496
1436.67	750.947
1440.86	392.912
1445.04	405.512
1449.23	366.562
1453.4	346.822
1457.58	325.701
1461.76	225.205
1465.93	267.975
1470.1	264.416
1474.26	87.0527
1478.43	68.8106
1482.59	151.772
1486.75	136.975
1490.9	70.416
1495.06	179.188
1499.21	178.709
1503.35	195.965
1507.5	251.078
1511.64	311.666
1515.78	430.473
1519.92	270.453
1524.05	524.713
1528.18	237.391
1532.31	415.576
1536.44	450.394
1540.56	240.762
1544.69	241.652
1548.8	314.852
1552.92	382.818
1557.03	183.293
1561.14	39.9199
1565.25	405.398
1569.36	64.5879
