Measurement: Raman, 514 nm, depolarized, Raman Data Processed
Mineral: Elbaite
Rruff sample: R050260
Ideal chemistry: Na(Al_1.5_Li_1.5_)Al_6_(Si_6_O_18_)(BO_3_)_3_(OH)_3_OH
Locality: Minas Gerais, Brazil
Source: Marcus Origlieri
Description: Greenish-gray prismatic single crystal
Measured chemistry: (Na_0.76_[box]_0.17_Ca_0.07_)_Σ=1_(Al_1.67_Li_0.97_Mn_0.36_)_Σ=3_Al_6.00_(B_1.00_O_3_)_3_Si_6.00_O_18_((OH)_3.40_F_0.60_)_Σ=4_; B assumed by stoichiometry; OH estimated by charge balance
Pin_id: L01093
Orientation: Laser parallel to c* (0 0 1). Fiducial mark perpendicular to laser is parallel to -a [-1 0 0]
Raman shift (cm-1)	intensity
118.134	0
123.058	493.26
127.979	1053.28
132.898	1748.71
137.814	1013.68
142.728	210.111
147.639	518.476
152.549	1711.94
157.455	1353.95
162.359	1104.73
167.261	568.158
172.161	235.818
177.058	296.506
181.952	71.5732
186.845	414.825
191.734	1454.78
196.622	2235.44
201.507	3183.84
206.389	3648.75
211.269	6740.49
216.147	12788.2
221.022	19406.3
225.895	18410.1
230.765	12449.5
235.633	9683.93
240.498	8662.28
245.361	7521.5
250.222	4942.59
255.08	2849.5
259.936	3300.16
264.789	1135.55
269.64	1598.37
274.488	1917.03
279.334	1515.81
284.178	1105.75
289.019	523.352
293.857	17.4883
298.693	526.207
303.527	318.848
308.358	1199.72
313.187	1812.29
318.013	2796.43
322.837	4502.46
327.659	6443.97
332.478	7780.35
337.294	7678.4
342.108	7371.23
346.92	6920.86
351.729	6697.68
356.535	7739.59
361.34	10197.2
366.141	14687.6
370.94	22866.1
375.737	32009.7
380.531	27920.4
385.323	17363.1
390.113	11050.7
394.9	8478.22
399.684	7916.56
404.466	8301.11
409.245	8288.83
414.022	6821.74
418.797	4065.77
423.569	1776.73
428.338	1161.61
433.105	956.379
437.87	1240.03
442.632	1469.61
447.391	1571.51
452.149	1397.85
456.903	1184.92
461.655	1413.67
466.405	2063.22
471.152	2654.42
475.897	2710.74
480.639	2663.17
485.378	2271.32
490.116	2318.26
494.85	2439.17
499.582	2972.02
504.312	3611.78
509.039	4029.57
513.764	4106.23
518.486	3730.59
523.206	3319.57
527.923	3661.12
532.638	4195.17
537.35	5177.66
542.059	5673.77
546.766	5778.2
551.471	6168.95
556.173	5322.5
560.873	4051.9
565.57	2830.14
570.264	2107.13
574.957	1775.81
579.646	1449.1
584.333	1293.14
589.018	980.012
593.7	440.285
598.379	121.883
603.056	74.2734
607.73	253.801
612.402	310.82
617.072	410.897
621.739	324.668
626.403	135.275
631.065	470.209
635.724	1001.63
640.381	1008.59
645.035	928.512
649.687	606.131
654.336	709.865
658.983	872.568
663.627	711.711
668.268	580.246
672.907	322.121
677.544	213.68
682.178	66.0996
686.809	187.375
691.438	185.406
696.065	509.662
700.688	1626.73
705.31	3255.84
709.929	5858.98
714.545	10767.1
719.158	19730.2
723.77	33307.2
728.378	43339.2
732.984	36793
737.588	21856.7
742.189	12368.4
746.787	8408.27
751.383	7026.95
755.976	6416.07
760.567	5267.67
765.155	3713.36
769.741	2298.3
774.324	975.248
778.904	629.18
783.482	161.076
788.058	393.565
792.631	664.383
797.201	882.066
801.769	1228.62
806.334	1282.07
810.897	656.391
815.457	282.959
820.014	284.074
824.569	455.647
829.122	1443.62
833.671	2246.07
838.219	3014.03
842.763	2388.15
847.306	1400.44
851.845	1180.93
856.382	1236.61
860.917	1190.51
865.448	865.295
869.978	747.049
874.505	634.719
879.029	210.697
883.55	171.371
888.069	147.127
892.586	81.9766
897.1	111.893
901.611	177.51
906.12	93.0234
910.626	232.477
915.129	1.09766
919.63	314.445
924.129	362.793
928.625	894.223
933.118	1264.32
937.609	1619.16
942.097	2012.74
946.582	2210.14
951.065	2501.94
955.546	2706.11
960.023	2858.28
964.499	3168.62
968.971	3328.31
973.441	3669.73
977.909	3695.88
982.374	3789.77
986.836	3482.52
991.295	3233.04
995.753	3626.34
1000.21	3554.43
1004.66	3533.33
1009.11	3805.05
1013.55	4647.98
1018	5495.53
1022.44	6560.78
1026.88	6967.62
1031.32	7730.73
1035.75	8725.58
1040.18	10544.3
1044.61	13694.1
1049.04	17986.1
1053.46	23734.5
1057.88	30386.5
1062.3	35026.1
1066.71	32202.9
1071.13	23728.7
1075.54	16232.6
1079.94	10459.3
1084.35	7089.31
1088.75	4811.18
1093.15	3743.99
1097.55	3136.73
1101.94	2606.4
1106.34	2161.64
1110.73	1949.81
1115.11	1765.71
1119.5	1975.58
1123.88	2064.33
1128.26	1433.96
1132.63	1054.48
1137.01	978.891
1141.38	810.377
1145.75	596.527
1150.12	471.139
1154.48	195.592
1158.84	48.8594
1163.2	75.3828
1167.55	3.27539
1171.91	58.5898
1176.26	79.5039
1180.61	6.53906
1184.95	37.0059
1189.29	30.0508
1193.63	19.6113
1197.97	78.8769
1202.31	91.2383
1206.64	78.9356
1210.97	268.162
1215.29	28.8945
1219.62	32.5039
1223.94	70.1523
1228.26	144.889
1232.57	79.5371
1236.89	306.098
1241.2	285.664
1245.51	151.152
1249.81	222.523
1254.12	182.822
1258.42	264.029
1262.72	453.148
1267.01	375.18
1271.3	337.135
1275.59	295.016
1279.88	565.826
1284.17	457.566
1288.45	571.088
1292.73	478.367
1297.01	543.461
1301.28	425.408
1305.55	796.207
1309.82	410.397
1314.09	530.404
1318.35	493.68
1322.61	514.338
1326.87	469.381
1331.13	621.678
1335.38	682.592
1339.63	657.002
1343.88	474.275
1348.12	578.873
1352.37	413.398
1356.61	797.861
1360.85	655.758
1365.08	967.09
1369.31	863.338
1373.54	872.184
1377.77	1440.71
1381.99	1646.41
1386.22	2006.24
1390.43	2456.23
1394.65	2604.39
1398.87	2516.74
1403.08	1947.85
1407.29	1625.82
1411.49	1460.05
1415.69	1165.75
1419.89	1098.36
1424.09	962.646
1428.29	856.744
1432.48	1049.88
1436.67	1129.57
1440.86	1000.96
1445.04	1034.88
1449.23	683.357
1453.4	694.894
1457.58	954.375
1461.76	565.816
1465.93	457.943
1470.1	264.287
1474.26	239.592
1478.43	257.957
1482.59	45.6562
1486.75	27.2949
1490.9	43.668
1495.06	156.971
1499.21	97.6641
1503.35	352.309
1507.5	389.953
1511.64	291.227
1515.78	420.365
1519.92	357.254
1524.05	424.703
1528.18	284.25
1532.31	291.836
1536.44	134.457
1540.56	233.656
1544.69	25.1875
1548.8	175.648
1552.92	233.748
1557.03	95.0684
1561.14	199.924
1565.25	32.5352
1569.36	147.856
