Measurement: Raman, 514 nm, depolarized, Raman Data Processed
Mineral: Elbaite
Rruff sample: R060631
Ideal chemistry: Na(Al_1.5_Li_1.5_)Al_6_(Si_6_O_18_)(BO_3_)_3_(OH)_3_OH
Locality: unknown
Source: Gemological Institute of America
Description: Pink polished fragment
Measured chemistry: (Na_0.55_Ca_0.34_[box]_0.11_)(Li_1.53_Al_1.30_Mn_0.14_Fe^2+^_0.03_)Al_6.00_(BO_3_)_3_[Si_6.00_O_18_]((OH)_0.82_F_0.18_)_4_
Pin_id: L01625
Orientation: Laser parallel to a* (1 0 0). Fiducial mark perpendicular to laser is parallel to c [0 0 1]
Raman shift (cm-1)	intensity
113.208	0
118.134	253.085
123.058	237.291
127.979	206.322
132.898	315.699
137.814	435.931
142.728	385.269
147.639	1193.92
152.549	1264.23
157.455	627.207
162.359	145.227
167.261	120.749
172.161	23.6543
177.058	142.912
181.952	259.89
186.845	1194.38
191.734	2842.35
196.622	4864.08
201.507	7901.45
206.389	11344.8
211.269	18590.7
216.147	28792.1
221.022	34961.4
225.895	29745.8
230.765	23471.3
235.633	21847
240.498	21954
245.361	20457.4
250.222	16664
255.08	12971.9
259.936	10798
264.789	9592.56
269.64	8453.63
274.488	6953.25
279.334	5125.31
284.178	3396.28
289.019	1726.34
293.857	962.231
298.693	861.251
303.527	1607.52
308.358	3071.84
313.187	4377.81
318.013	4278.87
322.837	4386.71
327.659	4717.03
332.478	4916.99
337.294	5167.74
342.108	5829.27
346.92	6958.6
351.729	8695.71
356.535	12607.6
361.34	21529.1
366.141	37766.3
370.94	53461.9
375.737	48368
380.531	31513.4
385.323	20297.2
390.113	16324.3
394.9	15941.9
399.684	18443.8
404.466	19549.2
409.245	16707.6
414.022	11286
418.797	6156.43
423.569	3155.75
428.338	1531.9
433.105	671.854
437.87	347.572
442.632	149.008
447.391	10.0117
452.149	63.5557
456.903	276.443
461.655	24.0576
466.405	118.964
471.152	465.671
475.897	188.389
480.639	47.0293
485.378	689.594
490.116	1424.8
494.85	2580
499.582	3676.32
504.312	4963.03
509.039	5673.11
513.764	5636.54
518.486	4656.32
523.206	3327.66
527.923	2866.98
532.638	2704.7
537.35	2497.06
542.059	1936.98
546.766	1385.78
551.471	976.941
556.173	789.682
560.873	408.704
565.57	87.9482
570.264	281.349
574.957	387.859
579.646	537.409
584.333	795.871
589.018	762.976
593.7	784.984
598.379	608.288
603.056	615.14
607.73	698.261
612.402	758.97
617.072	1273.36
621.739	2461.54
626.403	4922.33
631.065	8676.72
635.724	10557.9
640.381	9543.75
645.035	7597.25
649.687	6019.36
654.336	4829.97
658.983	3667.94
663.627	2851.11
668.268	2092.01
672.907	1869.21
677.544	1818.15
682.178	2166.37
686.809	3454.74
691.438	6040.94
696.065	10990.2
700.688	18519.2
705.31	24551.8
709.929	23551.2
714.545	16053
719.158	9709.57
723.77	6475.53
728.378	5360.42
732.984	5755.79
737.588	6946.05
742.189	8729.19
746.787	9554.04
751.383	9060.24
755.976	6605.52
760.567	4698.74
765.155	3564.9
769.741	2652.92
774.324	2452.86
778.904	1747.86
783.482	997.624
788.058	639.858
792.631	399.009
797.201	73.9756
801.769	145.656
806.334	276.213
810.897	304.146
815.457	188.181
820.014	219.29
824.569	130.787
829.122	66.5068
833.671	138.97
838.219	279.874
842.763	138.293
847.306	180.221
851.845	167.706
856.382	492.834
860.917	562.761
865.448	801.548
869.978	707.206
874.505	818.739
879.029	769.144
883.55	641.426
888.069	477.579
892.586	455.591
897.1	345.466
901.611	232.175
906.12	125.738
910.626	309.309
915.129	375.83
919.63	475.433
924.129	724.266
928.625	1066.36
933.118	1156.25
937.609	1473.71
942.097	1911.09
946.582	2059.42
951.065	2687.82
955.546	3400.37
960.023	4026.88
964.499	4742.89
968.971	5107.02
973.441	5375.56
977.909	5260.44
982.374	5133.07
986.836	4900.94
991.295	4997.64
995.753	4866.94
1000.21	4988.58
1004.66	4877.76
1009.11	4768.48
1013.55	4902.77
1018	5082.98
1022.44	5260.75
1026.88	4963.8
1031.32	4990.63
1035.75	5135.87
1040.18	5997.12
1044.61	7074.14
1049.04	8720.1
1053.46	10078.9
1057.88	11305.1
1062.3	11361.6
1066.71	11228.2
1071.13	10776.5
1075.54	11190
1079.94	11699
1084.35	12552.1
1088.75	11976.2
1093.15	10589.9
1097.55	8557.5
1101.94	6763.04
1106.34	5168.59
1110.73	4204.83
1115.11	3232.12
1119.5	2568.58
1123.88	2219.04
1128.26	1654.29
1132.63	1297.3
1137.01	946.237
1141.38	757.355
1145.75	486.139
1150.12	275.835
1154.48	163.44
1158.84	38.9424
1163.2	67.3184
1167.55	35.4297
1171.91	59.4824
1176.26	4.07031
1180.61	69.0029
1184.95	98.4336
1189.29	25.583
1193.63	49.582
1197.97	34.6074
1202.31	132.321
1206.64	25.8564
1210.97	2.89258
1215.29	57.791
1219.62	44.9209
1223.94	49.2412
1228.26	16.8428
1232.57	42.5947
1236.89	118.686
1241.2	118.31
1245.51	66.6768
1249.81	124.613
1254.12	139.144
1258.42	260.268
1262.72	201.99
1267.01	94.3154
1271.3	250.234
1275.59	312.759
1279.88	282.891
1284.17	359.625
1288.45	522.679
1292.73	353.593
1297.01	314.312
1301.28	452.017
1305.55	302.185
1309.82	428.839
1314.09	485.264
1318.35	423.221
1322.61	411.084
1326.87	381.456
1331.13	281.603
1335.38	342.42
1339.63	394.391
1343.88	248.196
1348.12	453.258
1352.37	259.371
1356.61	442.615
1360.85	390.06
1365.08	284.144
1369.31	481.315
1373.54	441.183
1377.77	516.078
1381.99	580.758
1386.22	842.567
1390.43	1032.47
1394.65	1210.12
1398.87	1280.05
1403.08	975.021
1407.29	1071.85
1411.49	838.613
1415.69	657.436
1419.89	492.39
1424.09	465.507
1428.29	404.984
1432.48	736.926
1436.67	557.371
1440.86	563.579
1445.04	503.856
1449.23	407.633
1453.4	469.935
1457.58	536.184
1461.76	513.214
1465.93	346.723
1470.1	161.849
1474.26	55.8486
1478.43	81.0986
1482.59	1.62988
1486.75	41.5156
1490.9	30.3027
1495.06	16.6592
1499.21	117.467
1503.35	148.086
1507.5	224.141
1511.64	232.545
1515.78	234.84
1519.92	244.054
1524.05	197.195
1528.18	271.213
1532.31	185.675
1536.44	276.467
1540.56	175.324
1544.69	56.1533
1548.8	2.19727
1552.92	315.219
1557.03	148.895
1561.14	125.019
1565.25	167.356
1569.36	166.597
