Measurement: Raman, 514 nm, depolarized, Raman Data Processed
Mineral: Enstatite
Rruff sample: R060630
Ideal chemistry: MgSiO_3_
Locality: unknown
Source: Gemological Institute of America
Description: Tan colored fragment
Measured chemistry: (Mg_0.89_Fe_0.07_Al_0.04_)_Σ=1_(Si_0.96_Al_0.04_)_Σ=1_O_3_
Pin_id: L00984
Orientation: Laser parallel to a* (1 0 0). Fiducial mark perpendicular to laser is parallel to -b [0 -1 0]
Raman shift (cm-1)	intensity
118.134	0
123.058	167.954
127.979	570.861
132.898	2428.44
137.814	4545.74
142.728	4830.41
147.639	2981.69
152.549	2305.45
157.455	1292.54
162.359	986.039
167.261	581.731
172.161	365.426
177.058	50.2695
181.952	29.8633
186.845	605.502
191.734	1440.71
196.622	2270.09
201.507	2394.94
206.389	1582.7
211.269	1033.6
216.147	881.5
221.022	1219.28
225.895	3074.7
230.765	5757.9
235.633	9219.1
240.498	6877.58
245.361	2805.39
250.222	717.436
255.08	119.711
259.936	60.1816
264.789	74.5176
269.64	273.029
274.488	187.484
279.334	251.719
284.178	485.232
289.019	889.412
293.857	1591.92
298.693	1703.21
303.527	1517.45
308.358	1520.29
313.187	2071.74
318.013	3040.1
322.837	3989.55
327.659	5520.64
332.478	8481.63
337.294	11999.8
342.108	17821.4
346.92	20775
351.729	19604.9
356.535	15229.1
361.34	10932.1
366.141	8065.82
370.94	6222.42
375.737	5678.82
380.531	5932.01
385.323	6285.96
390.113	6330.67
394.9	7372.14
399.684	8111.34
404.466	7994.45
409.245	7574.61
414.022	8294.88
418.797	7907.56
423.569	5651.27
428.338	2795.42
433.105	1520.35
437.87	1713.05
442.632	2558.48
447.391	2404.65
452.149	1831.83
456.903	870.754
461.655	596.094
466.405	298.375
471.152	137.43
475.897	22.5469
480.639	52.3535
485.378	201.715
490.116	236.438
494.85	33.6055
499.582	77.6231
504.312	269.285
509.039	444.666
513.764	2192
518.486	2000.23
523.206	1753.56
527.923	1955.14
532.638	2310.77
537.35	2287.12
542.059	1638.04
546.766	1555.5
551.471	1204.56
556.173	713.643
560.873	548.969
565.57	570.012
570.264	1167.38
574.957	1688.03
579.646	1425.94
584.333	761.109
589.018	209.5
593.7	137.1
598.379	37.2051
603.056	152.857
607.73	202.326
612.402	195.82
617.072	183.856
621.739	357.787
626.403	878.654
631.065	1323.1
635.724	2583.55
640.381	3300.3
645.035	4388.2
649.687	7635.15
654.336	11511.8
658.983	15257.2
663.627	14605.3
668.268	12363.1
672.907	13496.1
677.544	20472.8
682.178	30668.6
686.809	32927.7
691.438	22702.5
696.065	12443.1
700.688	7634.41
705.31	4508.38
709.929	3440.05
714.545	2400.39
719.158	2055.4
723.77	1670.09
728.378	1430.44
732.984	1185.46
737.588	1346.47
742.189	1230.04
746.787	1194.09
751.383	1307.36
755.976	885.684
760.567	479.027
765.155	442.156
769.741	219.223
774.324	154.125
778.904	69.8555
783.482	11.8887
788.058	121.102
792.631	43.459
797.201	91.8613
801.769	236.633
806.334	25.2441
810.897	89.8203
815.457	147.887
820.014	351.277
824.569	360.498
829.122	433.631
833.671	911.695
838.219	1447.7
842.763	2040.68
847.306	2038.65
851.845	1908.62
856.382	1476.58
860.917	1396.55
865.448	1111.61
869.978	1044.79
874.505	1120.16
879.029	732.926
883.55	648.348
888.069	602.609
892.586	734.662
897.1	885.967
901.611	1785.56
906.12	1269.56
910.626	1200.1
915.129	1605.49
919.63	2401.18
924.129	3029.07
928.625	4124.53
933.118	4799.3
937.609	4473.96
942.097	3914.47
946.582	3709.71
951.065	3444.02
955.546	2758.88
960.023	2035.72
964.499	1222.06
968.971	1094.38
973.441	1028.59
977.909	1013.09
982.374	1946.78
986.836	3141.2
991.295	5650.07
995.753	9613.32
1000.21	15357.3
1004.66	21717.8
1009.11	25775.8
1013.55	23907.1
1018	20914
1022.44	18875.2
1026.88	18363.4
1031.32	17823.9
1035.75	15742
1040.18	12183.3
1044.61	8585.94
1049.04	6156.86
1053.46	4453.57
1057.88	3357.03
1062.3	2074.82
1066.71	1239.64
1071.13	975.035
1075.54	552.289
1079.94	290.859
1084.35	445.699
1088.75	252.152
1093.15	227.863
1097.55	305.531
1101.94	20.7031
1106.34	167.484
1110.73	4.04297
1115.11	169.512
1119.5	279.477
1123.88	488.422
1128.26	77.5
1132.63	258.305
1137.01	72.293
1141.38	163.754
1145.75	13.875
1150.12	112.715
1154.48	188.379
1158.84	6.89453
1163.2	102.969
1167.55	19.9648
1171.91	223.406
1176.26	22
1180.61	111.324
1184.95	214.461
1189.29	94.7461
1193.63	259.809
1197.97	63.5469
1202.31	252.086
1206.64	251.031
1210.97	25.2422
1215.29	14.1797
1219.62	95.3477
1223.94	216.312
1228.26	79.8203
1232.57	133.215
1236.89	124.633
1241.2	295.402
1245.51	30.3281
1249.81	74.7188
1254.12	403.852
1258.42	216.734
1262.72	230.766
1267.01	514.715
1271.3	261.902
1275.59	300.988
1279.88	198.852
1284.17	359.117
1288.45	241.777
1292.73	311.227
1297.01	226.578
1301.28	338.793
1305.55	325.516
1309.82	282.699
1314.09	608.715
1318.35	221.887
1322.61	429.68
1326.87	310
1331.13	335.609
1335.38	448.836
1339.63	456.723
1343.88	124.34
1348.12	615.305
1352.37	274.293
1356.61	381.57
1360.85	562.477
1365.08	175.82
1369.31	262.109
1373.54	459.856
1377.77	166.727
1381.99	463.93
1386.22	169.59
1390.43	671.414
1394.65	232.449
1398.87	248.969
1403.08	160.387
1407.29	72.75
1411.49	336.031
1415.69	56.4219
1419.89	281.949
1424.09	162.207
1428.29	76.0195
1432.48	294.434
1436.67	370.305
1440.86	331.262
1445.04	816.957
1449.23	444.859
1453.4	355.359
1457.58	430.762
1461.76	193.578
1465.93	248.781
1470.1	243.398
1474.26	241.781
1478.43	506.852
1482.59	68.6719
1486.75	356.652
1490.9	556.93
1495.06	240.875
1499.21	353.836
1503.35	375.535
1507.5	63.8594
1511.64	140.207
1515.78	267.039
1519.92	287.18
1524.05	426.016
1528.18	297.688
1532.31	346.656
1536.44	335.492
1540.56	196.953
1544.69	417.742
1548.8	249.953
1552.92	366.695
1557.03	279.324
1561.14	163.621
1565.25	254.32
1569.36	291.594
