Measurement: Raman, 514 nm, depolarized, Raman Data Processed
Mineral: Enstatite
Rruff sample: R070550
Ideal chemistry: MgSiO_3_
Locality: Tanzania
Source: www.multicolour.com
Description: Brown, translucent, vitreous crystal fragment
Measured chemistry: (Mg_0.90_Fe_0.10_)_Î£=1_Si_1.00_O_3_
Pin_id: L01679
Orientation: Laser parallel to c* (0 0 1). Fiducial mark perpendicular to laser is parallel to a [1 0 0]
Raman shift (cm-1)	intensity
112.889	0
117.854	70.4456
122.816	51.3257
127.775	85.1453
132.73	195.723
137.683	293.411
142.633	398.973
147.579	611.653
152.522	566.281
157.462	371.419
162.4	275.124
167.334	67.8774
172.265	0.667725
177.193	17.5494
182.117	393.364
187.039	1260.72
191.958	2133.94
196.874	1719.73
201.787	1090.46
206.696	615.254
211.603	304.167
216.506	271.214
221.407	594.349
226.304	1496.59
231.199	3518.98
236.091	6280.12
240.979	3948.49
245.864	856.847
250.747	179.83
255.626	285.425
260.503	353.918
265.376	188.619
270.247	578.849
275.114	846.569
279.979	366.308
284.84	53.4399
289.699	309.789
294.554	988.153
299.407	1584.5
304.257	1149.73
309.103	1076.8
313.947	2182.64
318.788	4122.19
323.626	4748.64
328.461	5658.51
333.292	10144
338.121	17426
342.947	18533.6
347.771	10206
352.591	4543.27
357.408	2413.47
362.222	1650.68
367.034	1452.6
371.842	1753.99
376.648	2793.75
381.45	3735.87
386.25	3539.28
391.047	4005.95
395.841	5914.88
400.632	6301.06
405.42	5302.49
410.205	4468.36
414.988	4257.71
419.767	3138.48
424.544	1604.63
429.318	505.139
434.089	181.974
438.857	47.3066
443.622	56.5471
448.384	90.2463
453.143	275.197
457.9	311.381
462.654	102.784
467.405	93.4016
472.153	197.212
476.898	64.6168
481.64	60.3425
486.38	14.6421
491.116	62.0038
495.85	121.163
500.581	117.259
505.309	36.2978
510.035	255.376
514.757	846.269
519.477	1601.53
524.194	2182.1
528.908	2016.91
533.62	1839.95
538.328	2425.14
543.034	1894.42
547.737	1584.77
552.437	1400.15
557.134	844.514
561.829	617.855
566.521	748.16
571.21	1303.42
575.896	1899.62
580.58	1584.74
585.261	837.795
589.939	637.757
594.614	468.62
599.286	269.376
603.956	162.017
608.623	163.533
613.287	175.917
617.949	297.162
622.608	303.478
627.264	478.099
631.917	593.261
636.568	845.679
641.215	1254.08
645.861	2051.5
650.503	3942.91
655.143	8272.02
659.78	15315.3
664.414	16735.3
669.046	11616.6
673.674	10997.6
678.301	17014.3
682.924	24158.6
687.545	20098.9
692.163	9655.58
696.778	4402.9
701.391	2254.99
706.001	1367.85
710.609	967.484
715.213	669.885
719.815	499.058
724.415	414.002
729.011	337.72
733.606	228.214
738.197	204.484
742.786	142.535
747.372	183.369
751.955	149.99
756.536	100.4
761.114	35.6028
765.69	10.577
770.262	3.65576
774.833	27.8828
779.4	12.922
783.965	26.1797
788.528	12.3835
793.087	45.567
797.645	29.3285
802.199	63.6645
806.751	40.5801
811.3	3.95068
815.847	0.669312
820.391	9.37122
824.933	3.77698
829.471	44.9446
834.008	39.587
838.541	42.1619
843.073	102.68
847.601	225.153
852.127	605.594
856.65	815.014
861.171	652.424
865.69	343.834
870.205	225.256
874.718	161.7
879.229	129.604
883.737	138.696
888.242	240.267
892.745	239.05
897.246	260.729
901.743	290.162
906.239	273.561
910.731	358.044
915.221	621.779
919.709	1233.72
924.194	2137.86
928.677	3032.13
933.157	3498.83
937.634	3857.83
942.109	2902.28
946.582	1851.12
951.052	1131.12
955.519	928.57
959.984	740.93
964.447	693.276
968.906	790.99
973.364	942.06
977.819	1176.5
982.271	1637.32
986.721	2292.53
991.169	3686.11
995.614	6754.01
1000.06	13355.2
1004.5	29339.8
1008.93	49914.7
1013.37	41662.8
1017.8	24409.3
1022.23	20056.1
1026.66	20248.2
1031.09	18982.7
1035.51	14445.9
1039.93	9832
1044.35	6169.53
1048.76	3729.02
1053.17	2382.96
1057.58	1693.59
1061.99	1152.38
1066.4	790.218
1070.8	556.046
1075.2	411.856
1079.6	341.643
1084	257.402
1088.39	162.409
1092.78	193.263
1097.17	124.672
1101.56	150.156
1105.94	151.205
1110.32	164.985
1114.7	145.603
1119.08	107.277
1123.45	131.777
1127.82	111.721
1132.19	164.823
1136.56	98.0779
1140.92	71.1853
1145.29	74.3048
1149.65	87.5409
1154	14.7383
1158.36	34.7899
1162.71	25.1244
1167.06	38.6526
1171.41	43.7357
1175.76	32.7009
1180.1	42.2797
1184.44	34.4497
1188.78	31.4976
1193.11	24.5981
1197.45	23.8867
1201.78	29.8625
1206.11	9.80896
1210.43	20.0708
1214.76	24.256
1219.08	36.486
1223.4	37.4526
1227.72	11.8511
1232.03	4.14465
1236.35	11.4399
1240.66	12.618
1244.96	8.65552
1249.27	4.62036
1253.57	71.5094
1257.88	55.0786
1262.17	39.4237
1266.47	85.3511
1270.76	101.951
1275.06	81.2616
1279.35	71.2723
1283.63	83.9827
1287.92	97.4348
1292.2	79.9574
1296.48	95.7835
1300.76	135.318
1305.04	93.6802
1309.31	190.305
1313.58	141.016
1317.85	185.559
1322.12	86.3673
1326.38	143.03
1330.64	104.793
1334.9	105.519
1339.16	93.1785
1343.41	88.1239
1347.67	138.329
1351.92	137.596
1356.17	121.894
1360.41	131.42
1364.66	127.185
1368.9	166.606
1373.14	85.0944
1377.38	107.144
1381.61	106.318
1385.84	73.7175
1390.08	126.306
1394.3	125.659
1398.53	66.8723
1402.75	102.71
1406.97	117.394
1411.19	98.1313
1415.41	44.8774
1419.63	101.828
1423.84	86.5625
1428.05	78.3251
1432.26	14.7797
1436.46	47.2517
1440.67	97.4299
1444.87	60.7661
1449.07	92.4752
1453.27	62.3452
1457.46	124.847
1461.66	113.109
1465.85	57.646
1470.04	77.4685
1474.22	60.5503
1478.41	94.5515
1482.59	93.7202
1486.77	0.094727
1490.95	128.015
1495.12	61.2466
1499.3	111.975
1503.47	15.3018
1507.63	23.852
1511.8	11.4087
1515.97	78.6875
1520.13	44.9844
1524.29	74.5061
1528.45	89.8745
1532.61	23.8169
1536.76	80.9416
1540.91	43.4165
1545.06	13.189
1549.21	73.0322
1553.35	79.2031
1557.5	22.2935
1561.64	26.5984
