Measurement: Raman, 514 nm, depolarized, Raman Data Processed
Mineral: Enstatite
Rruff sample: R060744
Ideal chemistry: MgSiO_3_
Locality: Orissa, India
Source: Herb Obodda
Description: Brown transparent fragment
Measured chemistry: (Mg_0.85_Fe^2+^_0.13_Fe^3+^_0.01_Mn_0.01_)_Σ=1_(Si_0.99_Al_0.01_)_Σ=1_O_3_; trace amounts of Ca; Fe^2+^ and Fe^3+^ splitted by charge balance
Pin_id: L01523
Orientation: Laser parallel to c* (0 0 1). Fiducial mark perpendicular to laser is parallel to -a [-1 0 0]
Raman shift (cm-1)	intensity
113.208	0
118.134	134.3
123.058	323.261
127.979	610.636
132.898	1279.61
137.814	3651.45
142.728	5174.84
147.639	2438.89
152.549	989.135
157.455	399.908
162.359	333.984
167.261	85.2852
172.161	42.0269
177.058	39.9121
181.952	417.656
186.845	1184.33
191.734	1185.88
196.622	713.051
201.507	613.1
206.389	159.058
211.269	137.117
216.147	283.127
221.022	958.804
225.895	2603.53
230.765	5780.05
235.633	6190.85
240.498	2131.85
245.361	464.356
250.222	255.347
255.08	111.805
259.936	315.174
264.789	210.407
269.64	666.643
274.488	488.086
279.334	94.6787
284.178	204.241
289.019	615.659
293.857	1310.28
298.693	1172.41
303.527	1084.77
308.358	1844.63
313.187	3543.15
318.013	4567.74
322.837	5378.56
327.659	7930.42
332.478	14165.5
337.294	21174.1
342.108	15767.2
346.92	7867.87
351.729	4183.58
356.535	2810.57
361.34	2160.05
366.141	2219.44
370.94	2903.12
375.737	3841.1
380.531	4161.33
385.323	4378.75
390.113	6027.37
394.9	7464.16
399.684	7112.13
404.466	5599.27
409.245	4400.72
414.022	3236.53
418.797	1677.64
423.569	827.014
428.338	374.636
433.105	201.486
437.87	96.5537
442.632	19.8179
447.391	87.1841
452.149	42.6514
456.903	118.274
461.655	91.0518
466.405	237.127
471.152	47.3008
475.897	45.4399
480.639	90.729
485.378	26.9546
490.116	134.949
494.85	121.711
499.582	109.36
504.312	159.638
509.039	754.905
513.764	1601.36
518.486	2342.96
523.206	2491.81
527.923	1911.86
532.638	2521.99
537.35	2910.14
542.059	2055.38
546.766	1912.68
551.471	1273.02
556.173	760.349
560.873	781.161
565.57	1006.84
570.264	1608.22
574.957	1627.95
579.646	853.848
584.333	578.898
589.018	356.348
593.7	316.856
598.379	282.222
603.056	152.438
607.73	180.493
612.402	240.377
617.072	365.712
621.739	552.936
626.403	850.388
631.065	1061.03
635.724	1428.4
640.381	2145.66
645.035	3390.52
649.687	6441.06
654.336	12615.9
658.983	19489.1
663.627	16082.9
668.268	12158.6
672.907	15844.5
677.544	25022.7
682.178	27514
686.809	16007.8
691.438	7286.85
696.065	3695.55
700.688	2134.39
705.31	1469.88
709.929	1124.07
714.545	841.015
719.158	573.659
723.77	675.035
728.378	509.189
732.984	418.087
737.588	329.714
742.189	273.072
746.787	320.107
751.383	266.939
755.976	252.546
760.567	129.968
765.155	31.9214
769.741	36.0356
774.324	69.1304
778.904	77.543
783.482	54.582
788.058	22.3481
792.631	33.4014
797.201	7.41504
801.769	1.87353
806.334	28.9048
810.897	43.7402
815.457	9.14404
820.014	16.8628
824.569	13.1953
829.122	36.2227
833.671	80.4268
838.219	87.5132
842.763	124.524
847.306	164.471
851.845	527.368
856.382	708.225
860.917	682.058
865.448	517.876
869.978	230.691
874.505	301.515
879.029	272.358
883.55	239.236
888.069	186.162
892.586	279.142
897.1	313.998
901.611	382.391
906.12	208.273
910.626	479.608
915.129	580.625
919.63	1143
924.129	2098.03
928.625	2990.23
933.118	3649.11
937.609	4037.47
942.097	3305.1
946.582	2255.66
951.065	1510.48
955.546	1262.58
960.023	1092.95
964.499	960.275
968.971	978.506
973.441	1104.69
977.909	1565.28
982.374	2358.18
986.836	3519.54
991.295	6303.26
995.753	12390.4
1000.21	24924.8
1004.66	46956.6
1009.11	54021.7
1013.55	34811.1
1018	23841.1
1022.44	19409.3
1026.88	17052
1031.32	13857.8
1035.75	10164.5
1040.18	7014.02
1044.61	4555.83
1049.04	3058.21
1053.46	2073.71
1057.88	1441.6
1062.3	1077.14
1066.71	720.239
1071.13	569.606
1075.54	452.925
1079.94	374.421
1084.35	638.119
1088.75	412.308
1093.15	202.319
1097.55	184.031
1101.94	249.15
1106.34	150.247
1110.73	142.394
1115.11	150.915
1119.5	216.417
1123.88	290.901
1128.26	79.5537
1132.63	30.9902
1137.01	183.702
1141.38	105.035
1145.75	26.7793
1150.12	65.0498
1154.48	15.5381
1158.84	40.5625
1163.2	19.9922
1167.55	43.9238
1171.91	173.663
1176.26	50.2891
1180.61	7.34668
1184.95	3.48828
1189.29	0.978516
1193.63	112.957
1197.97	135.949
1202.31	13.7725
1206.64	88.0273
1210.97	35.6885
1215.29	33.5391
1219.62	7.21777
1223.94	14.2305
1228.26	62.7891
1232.57	70.6367
1236.89	86.5107
1241.2	76.1611
1245.51	37.1807
1249.81	26.8184
1254.12	28.9863
1258.42	176.465
1262.72	101.52
1267.01	117.176
1271.3	99.6064
1275.59	136.465
1279.88	223.495
1284.17	150.269
1288.45	94.3301
1292.73	248.776
1297.01	251.29
1301.28	305.404
1305.55	169.339
1309.82	253.565
1314.09	281.268
1318.35	300.647
1322.61	220.683
1326.87	260.869
1331.13	247.293
1335.38	95.7178
1339.63	250.333
1343.88	197.767
1348.12	139.219
1352.37	331.356
1356.61	93.7441
1360.85	192.872
1365.08	261.4
1369.31	186.623
1373.54	195.059
1377.77	127.258
1381.99	156.681
1386.22	141.69
1390.43	78.5371
1394.65	181.632
1398.87	60.2158
1403.08	129.48
1407.29	111.106
1411.49	181.71
1415.69	86.3281
1419.89	159.799
1424.09	267.158
1428.29	100.191
1432.48	226.622
1436.67	358.021
1440.86	354.891
1445.04	296.44
1449.23	348.253
1453.4	164.865
1457.58	273.75
1461.76	180.083
1465.93	256.713
1470.1	297.348
1474.26	103.954
1478.43	241.606
1482.59	81.4531
1486.75	9.15234
1490.9	187.987
1495.06	47.1445
1499.21	204.414
1503.35	162.808
1507.5	126.397
1511.64	119.265
1515.78	16.4727
1519.92	216.072
1524.05	52.8838
1528.18	184.03
1532.31	34.7978
1536.44	36.6699
1540.56	135.228
1544.69	107.783
1548.8	197.827
1552.92	167.26
1557.03	135.672
1561.14	54.749
1565.25	1.73926
1569.36	40.0566
