Measurement: Raman, 514 nm, ccw, Raman Data Processed
Mineral: Enstatite
Rruff sample: R040093
Ideal chemistry: MgSiO_3_
Locality: Castle Rock, Pennsylvania, USA
Source: University of Arizona Mineral Museum
Description: Dark green massive
Measured chemistry: (Mg_0.84_Fe_0.15_Al_0.01_)Si_1.00_O_3_
Pin_id: L00172
Orientation: Laser parallel to -c* (0 0 -1). Fiducial mark perpendicular to laser is parallel to a [1 0 0]
Raman shift (cm-1)	intensity
109.268	0
114.212	296.023
119.152	797.214
124.09	175.739
129.026	427.783
133.958	835.35
138.888	1256.9
143.815	1574.83
148.739	1627.51
153.661	822.88
158.58	292.615
163.496	299.031
168.409	32.8218
173.32	81.9624
178.228	56.0098
183.133	220.919
188.035	856.184
192.935	1719.37
197.832	2794.24
202.727	1498.9
207.618	1701.92
212.507	1882.91
217.393	2087.97
222.277	3319.31
227.157	6296.52
232.035	11800.2
236.911	13961.1
241.783	6204.7
246.653	2402.53
251.52	2106.62
256.385	2516.65
261.246	1986.27
266.105	2714.83
270.962	4027.28
275.815	3504.12
280.666	1503.88
285.514	968.361
290.36	1897.17
295.203	3071.24
300.043	3095.53
304.88	2374.44
309.715	3455.45
314.547	6756.51
319.376	10147.8
324.203	12042.4
329.027	15520.4
333.848	23008.9
338.667	32789.1
343.482	29058.4
348.296	14949.3
353.106	7461.66
357.914	4676.14
362.719	3526.43
367.521	3174.71
372.321	3654.35
377.118	4623.19
381.912	4402.18
386.704	2730.28
391.493	1774.49
396.279	1538.8
401.063	1162.2
405.844	924.47
410.622	978.642
415.398	779.798
420.171	305.14
424.941	7.53955
429.709	53.2114
434.473	41.334
439.236	188.531
443.995	172.537
448.752	273.694
453.506	513.034
458.258	574.621
463.007	737.778
467.753	1032.69
472.497	969.869
477.238	357.137
481.976	62.4536
486.712	77.3711
491.445	182.908
496.175	151.454
500.902	100.1
505.627	72.6675
510.35	182.461
515.069	576.001
519.786	965.085
524.501	1212.76
529.213	1959.8
533.922	3369.02
538.628	4613.46
543.332	3015.1
548.033	2117.95
552.731	1719.93
557.427	1222.98
562.121	1051.01
566.811	1245.63
571.499	1479.9
576.184	1607.46
580.867	1272.65
585.547	898.098
590.224	822.523
594.899	844.812
599.571	671.709
604.241	779.934
608.908	861.731
613.572	1061.33
618.233	1298.71
622.892	1625.48
627.549	2174.11
632.202	2591.96
636.853	3461.95
641.502	5222.6
646.148	8714.8
650.791	16204.3
655.432	31211.3
660.069	49641.6
664.705	46669.9
669.338	35457.3
673.968	43317.2
678.595	67781.8
683.22	81952.2
687.842	54289.9
692.462	24969.4
697.079	12208.5
701.694	6957.48
706.305	4444.96
710.915	3160.86
715.521	2242.56
720.125	1771.92
724.727	1413.88
729.325	1241.45
733.922	1051.62
738.515	1012.4
743.106	730.301
747.695	733.82
752.28	513.465
756.864	374.746
761.444	243.672
766.022	54.4126
770.598	24.1523
775.17	1.91406
779.741	54.5659
784.308	29.8745
788.873	182.998
793.436	15.5503
797.996	190.395
802.553	66.7656
807.108	12.9746
811.66	76.9228
816.209	107.536
820.756	71.0332
825.301	107.967
829.842	41.5312
834.382	19.4375
838.918	93.4497
843.452	45.2446
847.984	151.992
852.513	289.728
857.039	486.476
861.563	549.26
866.084	386.103
870.603	253.028
875.119	173.059
879.632	47.2178
884.143	259.527
888.651	317.009
893.157	415.685
897.66	420.577
902.161	366.16
906.659	539.327
911.154	731.212
915.647	1035.41
920.138	1515.2
924.626	2571.33
929.111	4175.25
933.594	6771.84
938.074	8277.64
942.551	7054.96
947.026	4921.61
951.499	3309.84
955.969	2633.03
960.436	2422.24
964.901	2339.89
969.363	2429.46
973.823	3145.99
978.28	3871.97
982.735	5436.23
987.187	8372.42
991.637	14757.5
996.084	28612.3
1000.53	59560
1004.97	120040
1009.41	161958
1013.85	101867
1018.28	52409.7
1022.71	34016.2
1027.14	26117.5
1031.57	20314.5
1035.99	14552.3
1040.41	10221.9
1044.83	6972.26
1049.25	4717.54
1053.66	3637.68
1058.08	2544.38
1062.48	1975.52
1066.89	1594.97
1071.3	1403.16
1075.7	1407.9
1080.1	1541
1084.49	2630.77
1088.89	4111.58
1093.28	5604.17
1097.67	4999.9
1102.05	2848.58
1106.44	1872.79
1110.82	1167.38
1115.2	679.465
1119.57	490.162
1123.95	420.972
1128.32	392.123
1132.69	293.905
1137.05	273.447
1141.42	320.815
1145.78	219.423
1150.14	129.154
1154.49	125.306
1158.85	105.977
1163.2	1.12305
1167.55	30.7573
1171.89	97.2915
1176.24	91.8769
1180.58	425.127
1184.92	24.1914
1189.25	118.195
1193.59	87.769
1197.92	85.7119
1202.25	1.43408
1206.57	2.31348
1210.9	90.7827
1215.22	23.5972
1219.54	30.1016
1223.85	89.7261
1228.17	31.4033
1232.48	45.4829
1236.79	48.4297
1241.09	22.1787
1245.4	15.7866
1249.7	16.9761
1254	79.3364
1258.29	124.936
1262.59	3.13672
1266.88	240.965
1271.17	120.402
1275.45	105.157
1279.74	451.255
1284.02	213.732
1288.3	210.967
1292.58	389.75
1296.85	294.312
1301.12	362.241
1305.39	333.531
1309.66	332.181
1313.92	336.195
1318.18	283.121
1322.44	288.551
1326.7	280.481
1330.95	302.102
1335.2	349.668
1339.45	270.361
1343.7	305.685
1347.95	331.895
1352.19	245.531
1356.43	443.052
1360.66	389.189
1364.9	450.951
1369.13	457.702
1373.36	305.288
1377.59	292.512
1381.81	242.589
1386.04	300.558
1390.26	258.146
1394.47	180.611
1398.69	203.845
1402.9	228.817
1407.11	231.951
1411.32	138.493
1415.53	201.452
1419.73	222.623
1423.93	118.853
1428.13	149.802
1432.32	280.366
1436.52	225.128
1440.71	291.791
1444.89	313.181
1449.08	176.089
1453.26	231.375
1457.44	246.809
1461.62	211.834
1465.8	156.792
1469.97	162.77
1474.14	167.499
1478.31	140.849
1482.48	165.646
1486.64	141.606
1490.81	159.754
1494.96	175.947
1499.12	91.106
1503.28	137.321
1507.43	119.634
1511.58	87.0942
1515.72	99.7817
1519.87	89.7827
1524.01	81.3188
1528.15	69.3545
1532.29	146.772
1536.42	20.5156
1540.55	77.7212
1544.68	51.7207
1548.81	187.296
1552.94	203.869
1557.06	64.5352
1561.18	3.85547
1565.3	132.594
1569.41	215.692
1573.53	63.9004
1577.64	0.299316
