Measurement: Raman, 514 nm, depolarized, Raman Data Processed
Mineral: Enstatite
Rruff sample: R060744
Ideal chemistry: MgSiO_3_
Locality: Orissa, India
Source: Herb Obodda
Description: Brown transparent fragment
Measured chemistry: (Mg_0.85_Fe^2+^_0.13_Fe^3+^_0.01_Mn_0.01_)_Σ=1_(Si_0.99_Al_0.01_)_Σ=1_O_3_; trace amounts of Ca; Fe^2+^ and Fe^3+^ splitted by charge balance
Pin_id: L01935
Orientation: Laser parallel to -a* (-1 0 0). Fiducial mark perpendicular to laser is parallel to -b [0 -1 0]
Raman shift (cm-1)	intensity
113.208	0
118.134	1903.35
123.058	9177.57
127.979	21673.9
132.898	10527
137.814	3484.5
142.728	1714.85
147.639	641.259
152.549	137.954
157.455	123.578
162.359	390.565
167.261	274.434
172.161	63.8794
177.058	64.7456
181.952	742.07
186.845	2250.2
191.734	2107.5
196.622	1502.86
201.507	993.691
206.389	107.494
211.269	45.6543
216.147	370.571
221.022	1590.65
225.895	4449.99
230.765	10059.9
235.633	9687.37
240.498	3480.62
245.361	798.277
250.222	104.398
255.08	100.02
259.936	158.454
264.789	132.463
269.64	47.0852
274.488	12.3423
279.334	205.312
284.178	569.483
289.019	1549.56
293.857	2847.37
298.693	2669.6
303.527	2483.86
308.358	3023.65
313.187	4620.08
318.013	6546.64
322.837	10110.4
327.659	18947.8
332.478	37920.9
337.294	55884.6
342.108	41927.6
346.92	21530.6
351.729	11989.7
356.535	8115.5
361.34	5967.54
366.141	5432.49
370.94	6034.21
375.737	6957.7
380.531	7273.98
385.323	9124.08
390.113	13774
394.9	18405.5
399.684	18445.7
404.466	15193.5
409.245	11946.1
414.022	9201.96
418.797	6357.25
423.569	4130.76
428.338	3616.25
433.105	5055.01
437.87	5925.36
442.632	3052.35
447.391	1427.09
452.149	948.703
456.903	830.109
461.655	677.575
466.405	413.456
471.152	162.561
475.897	82.6025
480.639	63.5518
485.378	4.54004
490.116	81.4302
494.85	54.6533
499.582	133.665
504.312	186.628
509.039	1173.69
513.764	3088.4
518.486	4444.66
523.206	4245.41
527.923	3321.52
532.638	4403.84
537.35	4662.4
542.059	4010.76
546.766	3753.5
551.471	2209.75
556.173	1170.4
560.873	863.096
565.57	1050.74
570.264	1392.7
574.957	1370.79
579.646	850.994
584.333	477.323
589.018	417.772
593.7	255.336
598.379	83.0112
603.056	66.2617
607.73	10.7476
612.402	0.675293
617.072	157.142
621.739	336.698
626.403	609.242
631.065	981.142
635.724	1597.14
640.381	2832.51
645.035	5203.86
649.687	10986.6
654.336	22645.5
658.983	35030.1
663.627	27260.1
668.268	20120.9
672.907	25363.6
677.544	39410.3
682.178	41637.6
686.809	23471
691.438	10967
696.065	5609.74
700.688	3384.04
705.31	2238.04
709.929	1622.73
714.545	1151.11
719.158	844.169
723.77	892.907
728.378	905.321
732.984	929.408
737.588	861.168
742.189	1104.04
746.787	1324.64
751.383	1309.64
755.976	572.121
760.567	214.296
765.155	75.167
769.741	4.27637
774.324	7.03125
778.904	89.1006
783.482	102.247
788.058	108.972
792.631	153.986
797.201	123.17
801.769	13.335
806.334	17.1528
810.897	43.3745
815.457	4.06641
820.014	39.7383
824.569	9.09912
829.122	27.8423
833.671	35.9429
838.219	89.5879
842.763	267.114
847.306	743.54
851.845	1825.88
856.382	2893.16
860.917	2772.4
865.448	1952.6
869.978	1259.8
874.505	793.996
879.029	530.276
883.55	477.758
888.069	561.366
892.586	592.058
897.1	687.837
901.611	629.622
906.12	476.857
910.626	620.873
915.129	872.56
919.63	1684.47
924.129	2960.11
928.625	3743.62
933.118	4335.61
937.609	4436.75
942.097	3636.42
946.582	2586.17
951.065	1818.62
955.546	1298.63
960.023	925.697
964.499	857.688
968.971	793.667
973.441	885.356
977.909	1242.68
982.374	1708.65
986.836	2918.19
991.295	5471.34
995.753	10384.1
1000.21	19002.4
1004.66	30808.3
1009.11	35887.7
1013.55	31704.6
1018	30495
1022.44	29150
1026.88	27108.4
1031.32	21925.3
1035.75	15361.7
1040.18	10136.7
1044.61	6531.35
1049.04	4494.65
1053.46	3172.88
1057.88	2144.28
1062.3	1398.06
1066.71	947.912
1071.13	663.929
1075.54	535.372
1079.94	396.961
1084.35	275.248
1088.75	278.583
1093.15	322.065
1097.55	171.999
1101.94	330.08
1106.34	361.157
1110.73	301.893
1115.11	250.045
1119.5	299.617
1123.88	331.214
1128.26	298.229
1132.63	379.401
1137.01	198.704
1141.38	117.324
1145.75	176.668
1150.12	145.028
1154.48	140.898
1158.84	125.165
1163.2	115.674
1167.55	210.51
1171.91	101.186
1176.26	151.38
1180.61	30.0269
1184.95	42.9951
1189.29	47.2749
1193.63	110.87
1197.97	29.2808
1202.31	86.8076
1206.64	56.4106
1210.97	25.1035
1215.29	23.7847
1219.62	138.021
1223.94	42.3696
1228.26	45.1665
1232.57	29.9526
1236.89	58.3242
1241.2	83.9102
1245.51	55.7681
1249.81	66.9829
1254.12	93.4795
1258.42	118.301
1262.72	162.653
1267.01	168.317
1271.3	223.65
1275.59	204.39
1279.88	156.43
1284.17	227.926
1288.45	188.881
1292.73	259.461
1297.01	258.34
1301.28	240.692
1305.55	263.075
1309.82	288.967
1314.09	249.726
1318.35	274.838
1322.61	202.821
1326.87	249.159
1331.13	138.786
1335.38	227.586
1339.63	126.24
1343.88	212.339
1348.12	172.186
1352.37	163.088
1356.61	272.309
1360.85	220.722
1365.08	196.312
1369.31	140.825
1373.54	168.358
1377.77	117.605
1381.99	182.74
1386.22	163.244
1390.43	145.334
1394.65	85.0723
1398.87	40.3247
1403.08	119.439
1407.29	166.376
1411.49	108.56
1415.69	58.0537
1419.89	125.278
1424.09	183.901
1428.29	67.3721
1432.48	159.84
1436.67	103.431
1440.86	205.056
1445.04	156.607
1449.23	349.486
1453.4	360.742
1457.58	313.996
1461.76	268.325
1465.93	323.208
1470.1	239.96
1474.26	221.111
1478.43	124.602
1482.59	211.095
1486.75	200.257
1490.9	123.022
1495.06	97.6162
1499.21	145.569
1503.35	73.6567
1507.5	44.8179
1511.64	7.81104
1515.78	55.2588
1519.92	37.9976
1524.05	100.194
1528.18	101.833
1532.31	83.7769
1536.44	59.7051
1540.56	61.085
1544.69	55.7241
1548.8	122.647
1552.92	132.922
1557.03	64.3735
1561.14	89.6436
1565.25	130.297
1569.36	27.1421
