Measurement: Raman, 514 nm, ccw, Raman Data Processed
Mineral: Enstatite
Rruff sample: R040093
Ideal chemistry: MgSiO_3_
Locality: Castle Rock, Pennsylvania, USA
Source: University of Arizona Mineral Museum
Description: Dark green massive
Measured chemistry: (Mg_0.84_Fe_0.15_Al_0.01_)Si_1.00_O_3_
Pin_id: L00094
Orientation: Laser parallel to -b* (0 -1 0). Fiducial mark perpendicular to laser is parallel to c [0 0 1]
Raman shift (cm-1)	intensity
103.085	0
108.032	667.406
112.976	587.688
117.917	3491.24
122.856	11995.5
127.792	28658.3
132.725	38595.4
137.656	17436.3
142.583	5875.04
147.508	2333.53
152.431	663.348
157.35	143.666
162.267	211.068
167.181	24.1875
172.092	255.641
177.001	833.938
181.907	1451.31
186.81	1776.8
191.711	1973.86
196.608	1640.36
201.503	1398.23
206.395	635.527
211.285	254.672
216.172	527.203
221.056	1429.42
225.937	2564.18
230.816	4561.01
235.692	6364.61
240.565	4042.97
245.436	618.053
250.304	178.736
255.169	195.299
260.031	279.975
264.891	304.877
269.748	0.634766
274.602	33.6484
279.454	399.652
284.303	74.6113
289.149	512.106
293.992	1309.74
298.833	1691.89
303.671	1711.7
308.507	1748.48
313.339	2132.29
318.169	3984.33
322.996	7462.83
327.821	14849
332.643	30858.7
337.462	54434.8
342.279	62331.8
347.092	39355.3
351.904	19473.2
356.712	11657.3
361.518	8039.69
366.321	6413.17
371.121	5722.93
375.919	5319.09
380.714	5201.65
385.506	5759.62
390.296	7939.04
395.083	11410.8
399.867	13929.5
404.649	13480
409.428	11940.6
414.204	10131.8
418.978	8266.01
423.749	6243.81
428.517	5474.5
433.282	7225.85
438.045	10457.7
442.806	9757.98
447.563	4339.68
452.318	2240.83
457.07	1556.49
461.82	1255.7
466.567	864.481
471.311	625.894
476.053	285.029
480.792	123.947
485.528	102.379
490.262	14.5566
494.992	116.897
499.721	6.9707
504.446	4.25977
509.169	111.748
513.89	604.078
518.607	1255.77
523.322	1466.98
528.035	1802.54
532.745	2089.58
537.452	3139.38
542.156	2431.72
546.858	1618.72
551.557	1503.43
556.254	946.697
560.947	548.973
565.639	516.453
570.327	645.684
575.013	678.93
579.697	502.397
584.377	504.049
589.055	397.904
593.731	349.957
598.403	173.217
603.074	145.69
607.741	174.375
612.406	62.2793
617.068	249.4
621.728	648.231
626.385	768.756
631.039	1369.62
635.691	2177.01
640.34	3446.98
644.987	6068.97
649.63	11318.4
654.272	22833.7
658.91	40563.9
663.546	47789.6
668.18	36711.8
672.81	36346.5
677.439	48715.8
682.064	63198.6
686.687	53200.7
691.307	26870
695.925	12827.9
700.54	7146.68
705.153	4562.85
709.763	3176.19
714.37	2357.19
718.974	1565
723.577	1200.62
728.176	1030.19
732.773	827.275
737.367	940.297
741.959	656.106
746.548	659.699
751.134	510.074
755.718	398.228
760.299	330.144
764.878	100.018
769.454	102.984
774.028	126.232
778.598	63.8887
783.167	27.2031
787.732	209.432
792.295	199.666
796.856	70.8828
801.414	120.176
805.969	136.289
810.522	121.566
815.072	86.7695
819.62	0.3125
824.165	65.8516
828.707	11.9629
833.247	47.1113
837.784	150.441
842.319	397.83
846.851	1043.94
851.381	1862.22
855.908	3766.26
860.432	4344.2
864.954	3352.07
869.473	2159.87
873.99	1241.62
878.504	611.318
883.015	561.984
887.524	380.631
892.031	527.266
896.535	344.898
901.036	314.551
905.535	236.225
910.031	365.525
914.524	501.857
919.015	786.291
923.504	1146.3
927.99	1556.91
932.473	2002.85
936.954	2225.67
941.432	2175.77
945.908	1711.98
950.381	1266.63
954.852	1138.47
959.32	957.654
963.785	886.529
968.248	749.176
972.708	757
977.166	912.088
981.622	1110.8
986.074	1767.14
990.525	2753.03
994.972	5435.29
999.417	9780.93
1003.86	16452
1008.3	23013.5
1012.74	22789.2
1017.17	20483.4
1021.61	19229.9
1026.04	17419.6
1030.46	14634.6
1034.89	10691.1
1039.31	6776.94
1043.73	4432.41
1048.15	3140.65
1052.56	2296.22
1056.97	1917.89
1061.38	1608.36
1065.79	1411.64
1070.19	1070.7
1074.6	751.857
1079	640.285
1083.39	655.617
1087.79	748.523
1092.18	897.424
1096.57	819.266
1100.96	719.875
1105.34	506.09
1109.72	467.051
1114.1	570.578
1118.48	367.121
1122.85	323.316
1127.22	301.25
1131.6	636.621
1135.96	554.658
1140.33	310.648
1144.69	335.984
1149.05	153.519
1153.4	246.797
1157.76	268.986
1162.11	17.8965
1166.46	333.246
1170.81	199.397
1175.15	266.717
1179.49	49.2656
1183.83	44.2441
1188.17	121.273
1192.5	24.9434
1196.84	61.8398
1201.16	41.1367
1205.49	141.441
1209.82	124.762
1214.14	33.0449
1218.46	31.1758
1222.77	37.207
1227.09	86.4453
1231.4	103.356
1235.71	196.701
1240.02	138.252
1244.32	97.3086
1248.62	183.67
1252.92	153.932
1257.22	253.353
1261.51	201.902
1265.81	204.731
1270.1	379.473
1274.38	278.467
1278.67	264.588
1282.95	375.006
1287.23	462.648
1291.51	513.686
1295.78	473.551
1300.05	560.781
1304.32	466.035
1308.59	477.877
1312.86	328.082
1317.12	275.631
1321.38	319.24
1325.63	266.633
1329.89	78.8633
1334.14	323.211
1338.39	130.25
1342.64	299.121
1346.88	286.287
1351.13	453.004
1355.37	369.461
1359.61	308.613
1363.84	442.963
1368.07	218.644
1372.3	344.732
1376.53	372.047
1380.76	294.643
1384.98	234.272
1389.2	437.57
1393.42	227.565
1397.64	252.904
1401.85	148.74
1406.06	315.004
1410.27	273.272
1414.47	259.123
1418.68	301.879
1422.88	212.391
1427.08	270.379
1431.27	190.711
1435.47	288.359
1439.66	403.596
1443.85	363.557
1448.03	202.318
1452.22	279.812
1456.4	62.082
1460.58	383.641
1464.76	191.334
1468.93	172.473
1473.1	178.031
1477.27	319.803
1481.44	7.51562
1485.6	72.4805
1489.77	224.633
1493.92	232.34
1498.08	43.4258
1502.24	204.863
1506.39	407.719
1510.54	253.969
1514.69	194.633
1518.83	78.6953
1522.97	96.6758
1527.12	270.672
1531.25	47.4434
1535.39	111.562
1539.52	185.644
1543.65	153.385
1547.78	203.373
1551.91	407.338
1556.03	367.119
1560.15	37.7031
1564.27	171.666
1568.39	178.6
1572.5	202.492
1576.61	186.121
