Measurement: Raman, 514 nm, depolarized, Raman Data Processed
Mineral: Enstatite
Rruff sample: R060630
Ideal chemistry: MgSiO_3_
Locality: unknown
Source: Gemological Institute of America
Description: Tan colored fragment
Measured chemistry: (Mg_0.89_Fe_0.07_Al_0.04_)_Σ=1_(Si_0.96_Al_0.04_)_Σ=1_O_3_
Pin_id: L01844
Orientation: Laser parallel to -b* (0 -1 0). Fiducial mark perpendicular to laser is parallel to c [0 0 1]
Raman shift (cm-1)	intensity
118.134	0
123.058	216.976
127.979	803.762
132.898	2844.93
137.814	6070.52
142.728	7067.27
147.639	4270.48
152.549	2733.24
157.455	1785.09
162.359	920.12
167.261	409
172.161	194.939
177.058	19.1396
181.952	91.1948
186.845	93.0478
191.734	200.707
196.622	728.341
201.507	1224.99
206.389	1831.2
211.269	1778.35
216.147	1120.16
221.022	1303.53
225.895	2287.21
230.765	4343.44
235.633	8203.02
240.498	7931.6
245.361	3065.75
250.222	886.589
255.08	350.989
259.936	336.943
264.789	21.9932
269.64	180.899
274.488	382.079
279.334	722.995
284.178	871.833
289.019	805.778
293.857	1071.05
298.693	1267.16
303.527	1119.97
308.358	988.671
313.187	1741.17
318.013	2670.42
322.837	4159.06
327.659	6006.02
332.478	8104.49
337.294	11280.6
342.108	16341.4
346.92	20296.9
351.729	19486.2
356.535	14855.1
361.34	10361.6
366.141	7134.55
370.94	5156.67
375.737	4358.11
380.531	3937.94
385.323	3786.11
390.113	3613.59
394.9	3845.35
399.684	4498.41
404.466	4604.76
409.245	4187.31
414.022	4531.19
418.797	4724.3
423.569	3851.62
428.338	2197.16
433.105	1361.95
437.87	1916
442.632	3398.35
447.391	3385.04
452.149	2224.05
456.903	1102.38
461.655	854.003
466.405	618.043
471.152	174.94
475.897	53.6094
480.639	22.4688
485.378	66.7773
490.116	50.3398
494.85	157.376
499.582	65.1143
504.312	163.461
509.039	14.2959
513.764	106.116
518.486	344.094
523.206	468.679
527.923	659.836
532.638	1160.68
537.35	1735.34
542.059	1305.35
546.766	811.612
551.471	509.018
556.173	373.519
560.873	313.107
565.57	276.772
570.264	268.508
574.957	546.304
579.646	602.149
584.333	333.039
589.018	423.96
593.7	230.901
598.379	116.857
603.056	218.815
607.73	296.764
612.402	375.688
617.072	647.74
621.739	972.945
626.403	1422.88
631.065	2127.8
635.724	3565.05
640.381	4393.41
645.035	5398.61
649.687	8542.54
654.336	14000.8
658.983	19788.1
663.627	20744.5
668.268	17302.9
672.907	17915.2
677.544	26180
682.178	41388.4
686.809	49173.4
691.438	36231
696.065	19770.4
700.688	10753.6
705.31	6577.5
709.929	4638.24
714.545	3463.76
719.158	2441.06
723.77	2003.16
728.378	1769.04
732.984	1439.71
737.588	1190.64
742.189	1149.43
746.787	1055.48
751.383	794.339
755.976	630.013
760.567	403.542
765.155	171.195
769.741	260.874
774.324	40.793
778.904	50.0723
783.482	101.048
788.058	71.4268
792.631	123.55
797.201	164.594
801.769	45.6924
806.334	108.755
810.897	143.118
815.457	49.166
820.014	40.8701
824.569	193.739
829.122	462.295
833.671	610.831
838.219	1016.36
842.763	1669.9
847.306	1964.47
851.845	2044.08
856.382	1942.73
860.917	1514.63
865.448	1447.22
869.978	1185.09
874.505	1118.08
879.029	901.184
883.55	872.452
888.069	722.926
892.586	643.582
897.1	804.759
901.611	974.293
906.12	1099.01
910.626	1207.88
915.129	1404.89
919.63	1715.57
924.129	2112.38
928.625	2650.78
933.118	3465.23
937.609	3694.04
942.097	3698.8
946.582	3682.97
951.065	3269.69
955.546	2977.55
960.023	2368.11
964.499	1628.7
968.971	1508.88
973.441	1643.56
977.909	1999.48
982.374	3200.07
986.836	5345.12
991.295	9636.61
995.753	17023.6
1000.21	27437
1004.66	38940
1009.11	45753.6
1013.55	40580.2
1018	27824.1
1022.44	19378.5
1026.88	15394.9
1031.32	13382
1035.75	11292.3
1040.18	8145.59
1044.61	5636.28
1049.04	3764.18
1053.46	2762.66
1057.88	1855.38
1062.3	1339.85
1066.71	906.788
1071.13	545.146
1075.54	318.451
1079.94	271.371
1084.35	322.852
1088.75	175.043
1093.15	70.3545
1097.55	171.319
1101.94	87.4492
1106.34	92.335
1110.73	9.81348
1115.11	212.783
1119.5	379.494
1123.88	468.951
1128.26	174.941
1132.63	149.899
1137.01	83.8594
1141.38	35.2529
1145.75	39.919
1150.12	49.7695
1154.48	16.0859
1158.84	68.3594
1163.2	12.2129
1167.55	76.332
1171.91	69.6484
1176.26	24.3555
1180.61	1.26856
1184.95	101.136
1189.29	67.8984
1193.63	74.9443
1197.97	103.254
1202.31	22.8613
1206.64	59.1758
1210.97	25.0273
1215.29	116.212
1219.62	113.576
1223.94	213.422
1228.26	71.2891
1232.57	62.5078
1236.89	129.915
1241.2	37.9209
1245.51	285.067
1249.81	147.622
1254.12	283.539
1258.42	210.895
1262.72	210.608
1267.01	158.451
1271.3	307.607
1275.59	201.482
1279.88	116.459
1284.17	275.696
1288.45	220.432
1292.73	192.343
1297.01	221.988
1301.28	196.76
1305.55	216.387
1309.82	440.885
1314.09	162.593
1318.35	221.606
1322.61	224.73
1326.87	217.856
1331.13	278.496
1335.38	206.087
1339.63	235.384
1343.88	207.623
1348.12	264.07
1352.37	171.292
1356.61	105.751
1360.85	117.196
1365.08	166.362
1369.31	168.546
1373.54	237.328
1377.77	234.714
1381.99	91.1455
1386.22	152.362
1390.43	221.655
1394.65	130.775
1398.87	172.078
1403.08	78.9482
1407.29	221.35
1411.49	72.7471
1415.69	116.642
1419.89	45.6572
1424.09	79.1338
1428.29	179.877
1432.48	175.805
1436.67	268.53
1440.86	206.622
1445.04	121.715
1449.23	305.626
1453.4	226.011
1457.58	167.144
1461.76	158.889
1465.93	182.024
1470.1	112.517
1474.26	159.186
1478.43	107.899
1482.59	173.775
1486.75	143.433
1490.9	143.953
1495.06	205.716
1499.21	184.781
1503.35	184.899
1507.5	16.8828
1511.64	113.676
1515.78	46.6572
1519.92	92.0752
1524.05	212.76
1528.18	268.466
1532.31	193.69
1536.44	106.126
1540.56	3.13672
1544.69	194.262
1548.8	95.9707
1552.92	137.216
1557.03	78.125
1561.14	75.5889
1565.25	72.9316
1569.36	93.4981
