Measurement: Raman, 514 nm, depolarized, Raman Data Processed
Mineral: Enstatite
Rruff sample: R040094
Ideal chemistry: MgSiO_3_
Locality: unknown
Source: University of Arizona Mineral Museum
Description: Dark green massive, associated with anthophyllite
Measured chemistry: (Mg_0.84_Fe_0.15_)(Si_0.99_Al_0.01_)O_3_; = Enstatite :  [box](Mg_0.83_Fe_0.14_Na_0.01_Ca_0.01_)_7_(Si_0.99_Al_0.01_)_8_O_22_(OH)_2_ = Anthophyllite
Pin_id: M00323
Orientation: Laser parallel to a* (1 0 0). Fiducial mark perpendicular to laser is parallel to -b [0 -1 0]
Raman shift (cm-1)	intensity
110.82	0
114.992	18.323
119.162	100.088
123.329	144.645
127.495	1921.74
131.658	6691.71
135.819	8288.55
139.978	3421.71
144.135	1448.66
148.29	810.373
152.443	337.995
156.593	178.231
160.742	10.64
164.888	135.421
169.033	372.443
173.175	135.995
177.315	40.838
181.453	40.042
185.588	236.957
189.722	827.196
193.854	1467.01
197.983	1383.12
202.111	897.195
206.236	621.671
210.359	461.842
214.48	228.357
218.599	268.188
222.716	405.766
226.831	867.908
230.944	2022.07
235.055	4699.3
239.163	6583.45
243.27	4131.24
247.374	1541.27
251.476	568.576
255.577	128.841
259.675	56.236
263.771	43.229
267.865	154.043
271.957	192.71
276.047	114.18
280.134	52.938
284.22	48.225
288.304	268.785
292.385	684.591
296.465	1257.63
300.542	1795.82
304.618	1644.82
308.691	1625
312.762	1825.95
316.831	2562.52
320.899	3512.43
324.964	4041.5
329.027	4839.48
333.088	7391.18
337.147	13945.1
341.204	24113.1
345.259	25266.7
349.311	16021.7
353.362	9306.74
357.411	6315.85
361.458	4800.14
365.502	3848.97
369.545	3339.36
373.585	3348.67
377.624	4098.41
381.66	4434.89
385.695	4050.8
389.727	4839.24
393.758	6522.08
397.786	9004.49
401.812	10669.5
405.837	10284.1
409.859	8628.33
413.879	7228.74
417.898	6174.67
421.914	5107.39
425.928	3629.84
429.94	2431.78
433.951	2016.74
437.959	2572.8
441.965	3325.91
445.969	2351.3
449.971	1165.1
453.971	722.876
457.97	597.438
461.966	602.433
465.96	576.183
469.952	465.852
473.942	357.355
477.93	168.475
481.916	102.207
485.901	75.581
489.883	76.867
493.863	25.77
497.841	13.286
501.817	48.442
505.791	77.344
509.764	324.024
513.734	677.458
517.702	1539.69
521.668	2427.73
525.633	2976.61
529.595	2431.38
533.555	1821.06
537.514	2376.72
541.47	2769.43
545.425	2380.14
549.377	2402.8
553.327	2088.32
557.276	1186.71
561.222	681.952
565.167	505.062
569.11	342.041
573.05	348.915
576.989	362.787
580.926	255.792
584.86	240.12
588.793	750.971
592.724	164.521
596.653	130.754
600.58	100.503
604.505	35.569
608.428	83.262
612.349	33.139
616.268	72.734
620.185	1.074
624.1	37.866
628.014	201.071
631.925	314.887
635.835	420.898
639.742	623.493
643.648	1018.98
647.551	1766.66
651.453	2864.48
655.353	5292.17
659.25	10308.1
663.146	15255.2
667.04	12737.5
670.932	9333.91
674.822	9638.97
678.71	13033.3
682.597	18497.7
686.481	18791.3
690.363	11534.8
694.244	6226.18
698.122	3477.56
701.999	2187.88
705.874	1510.14
709.747	1131.34
713.618	814.492
717.487	624.59
721.354	544.635
725.219	491.63
729.082	450.575
732.943	490.471
736.803	563.316
740.66	644.106
744.516	647.837
748.37	762.457
752.222	1092.57
756.072	792.263
759.92	342.084
763.766	138.183
767.61	102.803
771.452	38.279
775.293	1.255
779.132	45.023
782.968	48.903
786.803	28.79
790.636	50.999
794.467	64.511
798.296	66.574
802.124	25.98
805.949	27.422
809.773	39.771
813.594	20.887
817.414	15.324
821.232	13.435
825.048	11.551
828.862	17.348
832.674	13.194
836.485	32.973
840.293	82.698
844.1	94.386
847.905	246.042
851.708	486.666
855.509	1017.26
859.308	1466.83
863.105	1443.38
866.901	1173.13
870.695	772.399
874.486	531.883
878.276	365.35
882.064	289.803
885.851	230.245
889.635	263.679
893.418	361.125
897.198	487.585
900.977	494.067
904.754	439.606
908.529	434.38
912.303	479.929
916.074	608.809
919.844	833.786
923.612	1456.2
927.378	2167.58
931.142	2497.11
934.904	2581.53
938.664	2554.68
942.423	2461.95
946.18	1959.44
949.935	1497.41
953.688	1129.94
957.439	875.612
961.189	716.413
964.936	650.377
968.682	567.139
972.426	645.14
976.168	650.907
979.909	773.373
983.647	1141.71
987.384	1558.54
991.119	2023.41
994.852	3325.41
998.583	5317.5
1002.31	8338.69
1006.04	12480
1009.77	15691.3
1013.49	15152.8
1017.21	14884.3
1020.93	15285.9
1024.65	15287.7
1028.37	14599.5
1032.08	12991.4
1035.8	9913.42
1039.51	7395.8
1043.22	5200.16
1046.93	3628.77
1050.63	2740.21
1054.34	2165.47
1058.04	1689.66
1061.74	1311.27
1065.44	975.814
1069.13	824.188
1072.83	756.31
1076.52	649.121
1080.22	601.861
1083.91	671.432
1087.59	883.892
1091.28	1257.01
1094.96	1739.01
1098.65	2066.58
1102.33	1146.24
1106.01	602.685
1109.69	441.161
1113.36	345.701
1117.04	301.614
1120.71	273.043
1124.38	287.682
1128.05	242.434
1131.71	171.392
1135.38	206.625
1139.04	193.195
1142.7	136.706
1146.36	132.594
1150.02	135.22
1153.68	165.526
1157.33	110.471
1160.98	20.092
1164.64	44.573
1168.29	29.75
1171.93	55.846
1175.58	21.394
1179.22	39.3
1182.87	37.146
1186.51	20.314
1190.14	1.592
1193.78	32.416
1197.42	8.581
1201.05	14.038
1204.68	22.11
1208.31	50.653
1211.94	45.711
1215.57	6.991
1219.19	21.489
1222.82	37.2
1226.44	17.834
1230.06	12.668
1233.67	19.231
1237.29	63.957
1240.9	30.139
1244.52	18.467
1248.13	38.243
1251.74	16.241
1255.35	17.079
1258.95	43.233
1262.55	21.209
1266.16	54.959
1269.76	90.528
1273.36	38.965
1276.95	34.154
1280.55	50.115
1284.14	86.869
1287.73	32.395
1291.33	36.698
1294.91	114.801
1298.5	60.724
1302.09	84.463
1305.67	89.019
1309.25	46.396
1312.83	81.599
1316.41	30.631
1319.99	13.485
1323.56	111.987
1327.13	82.595
1330.71	12.615
1334.28	114.362
1337.84	34.22
1341.41	47.328
1344.97	74.737
1348.54	52.977
1352.1	93.46
1355.66	93.327
1359.22	107.637
1362.77	68.009
1366.33	98.992
1369.88	70.971
1373.43	66.348
1376.98	69.275
1380.53	96
1384.08	87.998
1387.62	34.742
1391.16	54.928
1394.7	53.91
1398.24	47.912
1401.78	50.155
1405.32	99.656
1408.85	72.711
1412.38	14.216
1415.92	38.988
1419.45	34.625
1422.97	49.996
1426.5	17.211
1430.02	6.622
1433.55	71.456
1437.07	76.152
1440.59	66.008
1444.11	55.957
1447.62	57.022
1451.13	34.247
1454.65	62.482
1458.16	42.694
1461.67	169.663
1465.18	73.623
1468.68	87.562
1472.19	99.896
1475.69	75.812
1479.19	32.067
1482.69	70.557
1486.19	33.668
1489.68	61.605
1493.18	53.046
1496.67	43.445
1500.16	86.672
1503.65	30.057
1507.14	34.18
1510.63	16.674
1514.11	17.079
