Measurement: Raman, 514 nm, depolarized, Raman Data Processed
Mineral: Enstatite
Rruff sample: R060630
Ideal chemistry: MgSiO_3_
Locality: unknown
Source: Gemological Institute of America
Description: Tan colored fragment
Measured chemistry: (Mg_0.89_Fe_0.07_Al_0.04_)_Σ=1_(Si_0.96_Al_0.04_)_Σ=1_O_3_
Pin_id: L01005
Orientation: Laser parallel to c* (0 0 1). Fiducial mark perpendicular to laser is parallel to a [1 0 0]
Raman shift (cm-1)	intensity
118.134	0
123.058	77.9609
127.979	48.0957
132.898	7.20898
137.814	392.758
142.728	169.918
147.639	753.439
152.549	825.322
157.455	534.693
162.359	381.574
167.261	726.617
172.161	500.125
177.058	426.752
181.952	521.408
186.845	842.818
191.734	1132.59
196.622	1390.58
201.507	1487.06
206.389	1008.56
211.269	742.357
216.147	872.875
221.022	848.174
225.895	1662.42
230.765	2891.09
235.633	3748.46
240.498	3570.4
245.361	1830.04
250.222	676.121
255.08	397.603
259.936	599.453
264.789	249.369
269.64	90.0898
274.488	312.69
279.334	601.996
284.178	588.922
289.019	724.049
293.857	871.106
298.693	902.891
303.527	815.252
308.358	559.061
313.187	1104.24
318.013	2128.88
322.837	2771.04
327.659	3308.47
332.478	3657.8
337.294	4659.17
342.108	6074.88
346.92	6793.34
351.729	6571.2
356.535	5071.24
361.34	3706.59
366.141	2939.98
370.94	2226.22
375.737	2233.26
380.531	2602.08
385.323	2573.63
390.113	3042.89
394.9	3078.85
399.684	3053.48
404.466	2987.76
409.245	3087.71
414.022	3206.59
418.797	2666.45
423.569	2129.22
428.338	1063.82
433.105	278.227
437.87	52.3926
442.632	135.285
447.391	228.143
452.149	215.129
456.903	129.935
461.655	64.6973
466.405	223.164
471.152	44.6602
475.897	85.9668
480.639	189.469
485.378	146.084
490.116	214.537
494.85	70.9414
499.582	64.4609
504.312	98.4609
509.039	349.768
513.764	807.562
518.486	926.975
523.206	898.33
527.923	1108.41
532.638	719.908
537.35	1029.14
542.059	787.711
546.766	598.664
551.471	588.84
556.173	460.129
560.873	580.508
565.57	615.945
570.264	728.404
574.957	973.863
579.646	911.293
584.333	582.67
589.018	335.971
593.7	340.162
598.379	108.822
603.056	113.529
607.73	13.207
612.402	42.5371
617.072	130.303
621.739	189.662
626.403	743.693
631.065	722.947
635.724	1488.73
640.381	1604.89
645.035	2275.41
649.687	3145.16
654.336	4578.05
658.983	6032.18
663.627	5891.04
668.268	5479.06
672.907	6389.35
677.544	9078.97
682.178	13177.2
686.809	14497
691.438	10583.7
696.065	6077.8
700.688	3167.78
705.31	2180.29
709.929	1597.15
714.545	1234.36
719.158	1080.91
723.77	960.801
728.378	692.021
732.984	693.742
737.588	670.445
742.189	338.352
746.787	541.869
751.383	103.428
755.976	427.551
760.567	414.603
765.155	41.2891
769.741	231.051
774.324	54.8828
778.904	75.0156
783.482	198.176
788.058	76.2383
792.631	106.578
797.201	161.769
801.769	19.9453
806.334	58.3594
810.897	167.316
815.457	82.3984
820.014	91.6836
824.569	326.184
829.122	275.422
833.671	138.113
838.219	579.242
842.763	656.863
847.306	905.996
851.845	601.754
856.382	628.039
860.917	258.871
865.448	245.262
869.978	400.246
874.505	286.914
879.029	215.481
883.55	281.969
888.069	139.109
892.586	168.07
897.1	547.566
901.611	324.262
906.12	474.269
910.626	738.981
915.129	411.316
919.63	833.438
924.129	1436.75
928.625	2199.14
933.118	2477.45
937.609	1952.11
942.097	1926.82
946.582	1843.7
951.065	1384.38
955.546	1115.12
960.023	809.289
964.499	629.754
968.971	766.832
973.441	668.352
977.909	1123.96
982.374	1718.47
986.836	2834.57
991.295	4825.74
995.753	8672.37
1000.21	13284
1004.66	17954.1
1009.11	20463.1
1013.55	18026
1018	13543.5
1022.44	11315
1026.88	9832.16
1031.32	9426.07
1035.75	8106.33
1040.18	6085.9
1044.61	4539.94
1049.04	3143.7
1053.46	2189.5
1057.88	1621.56
1062.3	1252.44
1066.71	565.644
1071.13	669.59
1075.54	341.789
1079.94	83.8867
1084.35	345.519
1088.75	270.18
1093.15	164.039
1097.55	83.707
1101.94	175.535
1106.34	17.582
1110.73	41.2422
1115.11	29.9766
1119.5	562.504
1123.88	662.012
1128.26	497.203
1132.63	253.543
1137.01	302.734
1141.38	256.75
1145.75	117.91
1150.12	152.844
1154.48	168.121
1158.84	76.2578
1163.2	7.39844
1167.55	84.9648
1171.91	81.9102
1176.26	127.762
1180.61	172.203
1184.95	31.5898
1189.29	28.2031
1193.63	124.703
1197.97	162.945
1202.31	1.10547
1206.64	324.391
1210.97	102.391
1215.29	364.219
1219.62	292.516
1223.94	422.504
1228.26	42.0742
1232.57	622.262
1236.89	521.856
1241.2	608.035
1245.51	454.875
1249.81	403.062
1254.12	188.055
1258.42	42.7227
1262.72	320.816
1267.01	381.68
1271.3	136.023
1275.59	332.965
1279.88	100.949
1284.17	740.867
1288.45	398.691
1292.73	845.539
1297.01	676.434
1301.28	641.539
1305.55	477.434
1309.82	741.66
1314.09	612.078
1318.35	626.707
1322.61	842.133
1326.87	792.469
1331.13	760.797
1335.38	859.539
1339.63	708.586
1343.88	495.098
1348.12	578.644
1352.37	929.023
1356.61	1118.52
1360.85	481.664
1365.08	665.734
1369.31	1028.75
1373.54	839.051
1377.77	909.289
1381.99	960.445
1386.22	658.121
1390.43	921.309
1394.65	775.574
1398.87	357.504
1403.08	534.953
1407.29	782.598
1411.49	640.484
1415.69	611.836
1419.89	630.723
1424.09	601.894
1428.29	254.84
1432.48	418.551
1436.67	484.988
1440.86	452.148
1445.04	269.519
1449.23	236.738
1453.4	541.008
1457.58	294.391
1461.76	557.023
1465.93	432.711
1470.1	523.519
1474.26	346.152
1478.43	272.363
1482.59	568.562
1486.75	267.016
1490.9	83.3086
1495.06	90.8867
1499.21	314.793
1503.35	319.094
1507.5	72.9609
1511.64	45.5078
1515.78	328.984
1519.92	115.144
1524.05	66.5273
1528.18	222.137
1532.31	77.9023
1536.44	403.457
1540.56	252.383
1544.69	269.801
1548.8	266.129
1552.92	285.981
1557.03	271.43
1561.14	327.129
1565.25	299.434
1569.36	399.273
