Measurement: Raman, 514 nm, ccw, Raman Data Processed
Mineral: Enstatite
Rruff sample: R040093
Ideal chemistry: MgSiO_3_
Locality: Castle Rock, Pennsylvania, USA
Source: University of Arizona Mineral Museum
Description: Dark green massive
Measured chemistry: (Mg_0.84_Fe_0.15_Al_0.01_)Si_1.00_O_3_
Pin_id: L00094
Orientation: Laser parallel to -b* (0 -1 0). Fiducial mark perpendicular to laser is parallel to c [0 0 1]
Raman shift (cm-1)	intensity
103.085	0
108.032	1717.18
112.976	679.576
117.917	787.903
122.856	2599.04
127.792	5475.34
132.725	9500.09
137.656	4427.85
142.583	2736.58
147.508	2411.43
152.431	1466.46
157.35	309.935
162.267	6.20312
167.181	120.053
172.092	210.218
177.001	191.193
181.907	244.054
186.81	1001.58
191.711	1222.54
196.608	1121.88
201.503	376.593
206.395	4.24121
211.285	91.9756
216.172	390.546
221.056	1195.24
225.937	2385.85
230.816	4100.82
235.692	5628.81
240.565	3513.85
245.436	575.706
250.304	172.306
255.169	836.846
260.031	184.012
264.891	112.743
269.748	203.082
274.602	346.231
279.454	59.7637
284.303	19.5273
289.149	741.065
293.992	1303.95
298.833	1707.43
303.671	1443.68
308.507	1505.44
313.339	2019.12
318.169	3072.49
322.996	4245.18
327.821	6797.52
332.643	12386.2
337.462	20750.6
342.279	23615.1
347.092	14866.3
351.904	7763.36
356.712	5043.45
361.518	3685.55
366.321	2962.08
371.121	3042.26
375.919	3639.31
380.714	3943.19
385.506	3264.91
390.296	3368.46
395.083	4372.99
399.867	4852.75
404.649	4725.88
409.428	4358.06
414.204	4463.81
418.978	3304.74
423.749	2000.85
428.517	1479.49
433.282	1920.23
438.045	2549.61
442.806	2313.76
447.563	961.704
452.318	770.543
457.07	548.623
461.82	759.954
466.567	550.623
471.311	332.321
476.053	176.443
480.792	194.348
485.528	61.1484
490.262	200.333
494.992	103.866
499.721	11.2695
504.446	38.7402
509.169	175.694
513.89	557.314
518.607	977.933
523.322	1383.75
528.035	1211.66
532.745	1396.58
537.452	2291.57
542.156	1926.9
546.858	1415.49
551.557	1169.42
556.254	763.713
560.947	661.948
565.639	574.134
570.327	902.083
575.013	862.977
579.697	802.349
584.377	500.603
589.055	268.74
593.731	404.758
598.403	345.644
603.074	113.382
607.741	96.9258
612.406	240.267
617.068	247.351
621.728	525.973
626.385	871.045
631.039	1079.49
635.691	1473.1
640.34	2232.31
644.987	3909.15
649.63	7080.44
654.272	13531.9
658.91	22814.5
663.546	27194.2
668.18	21919.3
672.81	22421.3
677.439	29639.6
682.064	37954.5
686.687	31668.3
691.307	16156.3
695.925	7557.66
700.54	4337.91
705.153	2618.85
709.763	1791.48
714.37	1292.52
718.974	939.652
723.577	774.495
728.176	637.877
732.773	458.953
737.367	443.736
741.959	442.768
746.548	560.52
751.134	487.1
755.718	472.71
760.299	233.098
764.878	91.3945
769.454	246.721
774.028	81.7188
778.598	219.572
783.167	13.7441
787.732	13.6699
792.295	3.47461
796.856	78.6406
801.414	100.189
805.969	40.4102
810.522	82.7324
815.072	34.2227
819.62	82.3789
824.165	72.7109
828.707	27.1797
833.247	32.8223
837.784	50.5156
842.319	272.141
846.851	413.769
851.381	1292.38
855.908	2326.99
860.432	2515.62
864.954	1867.28
869.473	1301.98
873.99	673.74
878.504	402.58
883.015	351.518
887.524	496.562
892.031	451.725
896.535	464.049
901.036	543.436
905.535	371.81
910.031	515.938
914.524	516.453
919.015	1089.63
923.504	1596
927.99	2705.79
932.473	3573.83
936.954	4170.13
941.432	3678.41
945.908	2791.53
950.381	2086.45
954.852	1499.09
959.32	1315.93
963.785	1191.58
968.248	1040.32
972.708	1200.31
977.166	1252.04
981.622	1946.32
986.074	2965.11
990.525	4672.37
994.972	8954.82
999.417	17642.3
1003.86	34269.9
1008.3	53896
1012.74	45401.5
1017.17	26497.5
1021.61	18698.8
1026.04	15030.3
1030.46	12280.7
1034.89	9403.12
1039.31	6491.27
1043.73	4613.26
1048.15	3440.77
1052.56	2691.41
1056.97	2440.42
1061.38	1864.2
1065.79	1554.05
1070.19	1014.52
1074.6	749.328
1079	634.949
1083.39	537.918
1087.79	674.939
1092.18	719.652
1096.57	606.596
1100.96	459.09
1105.34	422.805
1109.72	355.824
1114.1	341.459
1118.48	235.168
1122.85	437.725
1127.22	259.455
1131.6	154.674
1135.96	287.482
1140.33	70.2871
1144.69	243.639
1149.05	78.7012
1153.4	229.252
1157.76	74.2402
1162.11	148.424
1166.46	64.0293
1170.81	56.1328
1175.15	37.3672
1179.49	97.6738
1183.83	83.1856
1188.17	10.3906
1192.5	172.234
1196.84	19.8145
1201.16	3.29688
1205.49	6.61523
1209.82	72.3984
1214.14	61.8496
1218.46	53.8008
1222.77	154.43
1227.09	53.375
1231.4	1.53516
1235.71	32.4316
1240.02	88.3594
1244.32	80.2656
1248.62	89.332
1252.92	133.644
1257.22	57.1484
1261.51	102.943
1265.81	140.012
1270.1	275.365
1274.38	92.9356
1278.67	338.734
1282.95	348.897
1287.23	250.625
1291.51	413.269
1295.78	241.393
1300.05	419.613
1304.32	323.853
1308.59	427.856
1312.86	257.027
1317.12	423.443
1321.38	238.102
1325.63	277.699
1329.89	56.498
1334.14	57.332
1338.39	245.606
1342.64	265.566
1346.88	299.957
1351.13	327.693
1355.37	317.818
1359.61	191.059
1363.84	259.717
1368.07	145.428
1372.3	440.592
1376.53	313.516
1380.76	274.283
1384.98	264.49
1389.2	211.713
1393.42	254.963
1397.64	304.078
1401.85	215.994
1406.06	295.377
1410.27	397.322
1414.47	278.203
1418.68	112.5
1422.88	397.881
1427.08	38.5059
1431.27	192.273
1435.47	94.8027
1439.66	229.002
1443.85	317.445
1448.03	387.922
1452.22	243.156
1456.4	253.824
1460.58	210.51
1464.76	321.092
1468.93	271.912
1473.1	332.285
1477.27	222.465
1481.44	248.998
1485.6	130.777
1489.77	260.799
1493.92	352.303
1498.08	8.13281
1502.24	152.742
1506.39	202.947
1510.54	95.459
1514.69	336.574
1518.83	245.035
1522.97	76.2012
1527.12	379.135
1531.25	193.83
1535.39	380.342
1539.52	131.514
1543.65	49.8496
1547.78	81.6641
1551.91	283.529
1556.03	292.414
1560.15	364.764
1564.27	97.5957
1568.39	118.029
1572.5	192.043
1576.61	242.016
