Measurement: Raman, 514 nm, depolarized, Raman Data Processed
Mineral: Enstatite
Rruff sample: R070550
Ideal chemistry: MgSiO_3_
Locality: Tanzania
Source: www.multicolour.com
Description: Brown, translucent, vitreous crystal fragment
Measured chemistry: (Mg_0.90_Fe_0.10_)_Î£=1_Si_1.00_O_3_
Pin_id: L01656
Orientation: Laser parallel to a* (1 0 0). Fiducial mark perpendicular to laser is parallel to -b [0 -1 0]
Raman shift (cm-1)	intensity
112.889	0
117.854	429.769
122.816	3899.87
127.775	11815.9
132.73	13077.1
137.683	4343.68
142.633	2507.3
147.579	1969.63
152.522	1556.4
157.462	712.324
162.4	798.812
167.334	561.206
172.265	72.79
177.193	87.8018
182.117	586.421
187.039	2156.02
191.958	4337.26
196.874	3565.73
201.787	2239.39
206.696	702.457
211.603	209.336
216.506	261.651
221.407	989.591
226.304	3279.35
231.199	8498.49
236.091	15258.5
240.979	8841.01
245.864	2170.24
250.747	266.888
255.626	113.069
260.503	438.421
265.376	376.364
270.247	241.4
275.114	46.6728
279.979	15.0415
284.84	104.051
289.699	840.451
294.554	2283.04
299.407	3645.41
304.257	2807.96
309.103	2651.55
313.947	3437.27
318.788	5994.78
323.626	7732.67
328.461	12696.9
333.292	27097
338.121	51887.1
342.947	54058.9
347.771	28866.1
352.591	13576.5
357.408	8391.47
362.222	5817.11
367.034	4568.02
371.842	5204.97
376.648	7030.8
381.45	8260.88
386.25	8146.12
391.047	10314.5
395.841	16145
400.632	18657
405.42	15818.8
410.205	13762.5
414.988	13329.1
419.767	10499.1
424.544	6180.24
429.318	3081.14
434.089	2815.52
438.857	4133.01
443.622	4452.59
448.384	1987.26
453.143	1279.01
457.9	1138.85
462.654	755.826
467.405	611.027
472.153	448.835
476.898	271.083
481.64	203.48
486.38	191.013
491.116	86.3325
495.85	266.468
500.581	267.815
505.309	65.7793
510.035	782.241
514.757	2574.38
519.477	4587.28
524.194	5297.25
528.908	4313.27
533.62	3882.11
538.328	5221.52
543.034	4221.28
547.737	3936.45
552.437	3195.38
557.134	1664.79
561.829	999.945
566.521	1217.32
571.21	2015.06
575.896	3069.78
580.58	2468.44
585.261	1257.01
589.939	854.483
594.614	743.853
599.286	381.105
603.956	157.226
608.623	177.173
613.287	176.916
617.949	187.458
622.608	372.815
627.264	660.912
631.917	1014.77
636.568	1507.14
641.215	2369.41
645.861	4106.47
650.503	8235.48
655.143	17623.3
659.78	32890.5
664.414	35861.3
669.046	23553.2
673.674	21903.9
678.301	33109.6
682.924	46643
687.545	37789.3
692.163	17869.9
696.778	8131.95
701.391	4222.5
706.001	2660.54
710.609	1901.08
715.213	1308.1
719.815	1086.6
724.415	881.571
729.011	910.026
733.606	896.96
738.197	874.37
742.786	977.198
747.372	1344.51
751.955	1570.5
756.536	763.242
761.114	202.086
765.69	115.416
770.262	190.224
774.833	87.9907
779.4	30.0776
783.965	16.9102
788.528	73.9912
793.087	123.759
797.645	137.36
802.199	130.727
806.751	44.7192
811.3	54.0342
815.847	36.3682
820.391	21.9131
824.933	74.1987
829.471	25.9551
834.008	90.4126
838.541	282.599
843.073	345.535
847.601	1094.24
852.127	2566.75
856.65	3776.08
861.171	2942.25
865.69	1803.76
870.205	1045.21
874.718	666.056
879.229	572.837
883.737	454.598
888.242	636.362
892.745	726.142
897.246	756.946
901.743	712.127
906.239	647.755
910.731	830.131
915.221	994.774
919.709	1993.85
924.194	3910.9
928.677	5352.94
933.157	5728.22
937.634	5656.49
942.109	4335.14
946.582	2617.35
951.052	1585.34
955.519	1195.58
959.984	961.962
964.447	915.951
968.906	967.738
973.364	1143.21
977.819	1330.36
982.271	1755.17
986.721	2813.66
991.169	4634.93
995.614	8437.93
1000.06	15594.6
1004.5	30776
1008.93	50090
1013.37	45391.6
1017.8	35597.9
1022.23	35437.8
1026.66	38144.3
1031.09	36821.4
1035.51	28036.1
1039.93	18765.6
1044.35	11401.8
1048.76	7037.49
1053.17	4798.53
1057.58	3437.09
1061.99	2370.51
1066.4	1575.04
1070.8	1140.42
1075.2	910.821
1079.6	681.625
1084	657.178
1088.39	515.272
1092.78	399.799
1097.17	368.537
1101.56	384.385
1105.94	302.254
1110.32	332.594
1114.7	315.913
1119.08	636.607
1123.45	722.459
1127.82	479.546
1132.19	294.464
1136.56	317.526
1140.92	226.535
1145.29	176.365
1149.65	220.192
1154	86.144
1158.36	67.0591
1162.71	108.362
1167.06	41.0088
1171.41	109.561
1175.76	138.992
1180.1	44.27
1184.44	22.3481
1188.78	4.17139
1193.11	60.3223
1197.45	113.301
1201.78	104.256
1206.11	9.62793
1210.43	70.2353
1214.76	94.2061
1219.08	32.647
1223.4	48.147
1227.72	60.0137
1232.03	40.3115
1236.35	46.0527
1240.66	43.8721
1244.96	122.059
1249.27	1.47949
1253.57	11.0732
1257.88	83.9502
1262.17	118.121
1266.47	163.792
1270.76	198.955
1275.06	182.26
1279.35	206.904
1283.63	207.035
1287.92	226.734
1292.2	282.715
1296.48	473.011
1300.76	387.612
1305.04	340.71
1309.31	462.549
1313.58	442.918
1317.85	334.062
1322.12	296.562
1326.38	307.748
1330.64	255.587
1334.9	227.116
1339.16	283.416
1343.41	213.379
1347.67	175.573
1351.92	227.944
1356.17	365.578
1360.41	268.388
1364.66	323.787
1368.9	230.233
1373.14	328.627
1377.38	205.657
1381.61	244.31
1385.84	186.194
1390.08	176.401
1394.3	98.3208
1398.53	125.87
1402.75	152.134
1406.97	228.092
1411.19	248.65
1415.41	263.632
1419.63	259.003
1423.84	208.194
1428.05	336.894
1432.26	339.987
1436.46	443.661
1440.67	434.317
1444.87	400.822
1449.07	409.06
1453.27	487.012
1457.46	423.915
1461.66	324.459
1465.85	285.215
1470.04	221.218
1474.22	290.508
1478.41	173.082
1482.59	292.875
1486.77	185.369
1490.95	130.549
1495.12	151.048
1499.3	113.846
1503.47	15.9824
1507.63	23.3857
1511.8	80.2295
1515.97	46.3408
1520.13	132.306
1524.29	18.7236
1528.45	188.435
1532.61	63.2188
1536.76	110.445
1540.91	79.792
1545.06	61.0459
1549.21	150.829
1553.35	275.852
1557.5	90.8506
1561.64	43.7783
