Measurement: Raman, 514 nm, depolarized, Raman Data Processed
Mineral: Enstatite
Rruff sample: R070418
Ideal chemistry: MgSiO_3_
Locality: India
Source: Michael Scott
Description: Brown translucent fragments
Measured chemistry: (Mg_0.86_Fe_0.14_)_Î£=1_Si_1.00_O_3_; trace amounts of Al, Ca, Mn
Pin_id: L01848
Orientation: Laser parallel to a* (1 0 0). Fiducial mark perpendicular to laser is parallel to b [0 1 0]
Raman shift (cm-1)	intensity
112.889	0
117.854	764.825
122.816	4031.34
127.775	13368.1
132.73	11569.7
137.683	3642.93
142.633	1754.35
147.579	1064.54
152.522	507.144
157.462	124.26
162.4	284.747
167.334	481.594
172.265	234.232
177.193	232.159
182.117	409.133
187.039	1386.35
191.958	2237.57
196.874	1705.98
201.787	1416.3
206.696	167.965
211.603	171.025
216.506	19.2988
221.407	622.721
226.304	2180.81
231.199	5703.71
236.091	9266.28
240.979	4201.91
245.864	951.238
250.747	111.295
255.626	98.9321
260.503	95.7939
265.376	243.821
270.247	163.912
275.114	146.347
279.979	125.817
284.84	52.352
289.699	514.677
294.554	1761.97
299.407	2125
304.257	1878.25
309.103	2232.26
313.947	3519.93
318.788	5413.98
323.626	6910.54
328.461	11403.7
333.292	22799.7
338.121	40607
342.947	39861.4
347.771	21036.1
352.591	11140.4
357.408	7135.95
362.222	4941.3
367.034	4135.07
371.842	4483.5
376.648	5453.72
381.45	5885.67
386.25	6294.35
391.047	9652.74
395.841	14490.9
400.632	16397.1
405.42	13889.6
410.205	11046.6
414.988	8568.36
419.767	6539.39
424.544	4252.36
429.318	2959.47
434.089	3472.98
438.857	4670.81
443.622	3363.11
448.384	1367.54
453.143	910.559
457.9	865.212
462.654	744.515
467.405	516.75
472.153	351.235
476.898	95.522
481.64	123.379
486.38	30.5308
491.116	78.4326
495.85	134.525
500.581	13.3608
505.309	121.205
510.035	766.527
514.757	1731.22
519.477	3132.14
524.194	4083.11
528.908	3123.05
533.62	3050.02
538.328	4160.81
543.034	3202.61
547.737	3352.52
552.437	2414.58
557.134	1183.47
561.829	671.068
566.521	491.369
571.21	676.155
575.896	618.87
580.58	473.401
585.261	427.751
589.939	425.921
594.614	340.914
599.286	141.732
603.956	235.374
608.623	83.835
613.287	222.103
617.949	433.437
622.608	828.086
627.264	1159.18
631.917	1069.52
636.568	1271.61
641.215	2121.74
645.861	3795.74
650.503	6873.38
655.143	13866
659.78	24335.8
664.414	23678.7
669.046	15745.5
673.674	16204.1
678.301	25166.9
682.924	32456
687.545	22365.4
692.163	10145.4
696.778	4937.2
701.391	2794.7
706.001	1553.91
710.609	1007.82
715.213	781.408
719.815	480.694
724.415	371.68
729.011	494.367
733.606	460.76
738.197	477.864
742.786	504.684
747.372	830.8
751.955	971.344
756.536	374.348
761.114	4.80859
765.69	12.9844
770.262	18.6182
774.833	18.8467
779.4	82.5879
783.965	243.265
788.528	96.5703
793.087	200.043
797.645	48.5615
802.199	57.6035
806.751	13.7744
811.3	50.7266
815.847	27.5352
820.391	100.198
824.933	42.7275
829.471	162.191
834.008	277.567
838.541	312.918
843.073	576.243
847.601	951.559
852.127	1654.88
856.65	2970.22
861.171	3045.59
865.69	2371.02
870.205	1445.51
874.718	782.074
879.229	667.737
883.737	600.516
888.242	457.428
892.745	643.507
897.246	774.606
901.743	645.063
906.239	532.527
910.731	552.988
915.221	843.847
919.709	1036.32
924.194	2172.81
928.677	3021.91
933.157	3324.43
937.634	3610.3
942.109	2975.8
946.582	2170.24
951.052	1435.93
955.519	991.66
959.984	739.582
964.447	677.206
968.906	374.606
973.364	384.555
977.819	529.019
982.271	1014.97
986.721	1749.41
991.169	3091.33
995.614	5797.74
1000.06	11407.6
1004.5	18577
1008.93	25363.9
1013.37	24109.3
1017.8	23802.2
1022.23	24334.5
1026.66	23385.9
1031.09	20325.2
1035.51	14701
1039.93	9649.4
1044.35	6241.94
1048.76	3936.22
1053.17	2827.33
1057.58	1756.05
1061.99	1279.11
1066.4	925.213
1070.8	605.097
1075.2	515.466
1079.6	603.237
1084	627.378
1088.39	572.952
1092.78	219.278
1097.17	280.903
1101.56	297.397
1105.94	307.533
1110.32	285.409
1114.7	212.033
1119.08	244.147
1123.45	242.357
1127.82	254.649
1132.19	180.36
1136.56	229.426
1140.92	112.878
1145.29	35.3506
1149.65	130.83
1154	56.6943
1158.36	63.6924
1162.71	28.043
1167.06	203.34
1171.41	97.5664
1175.76	143.7
1180.1	21.2959
1184.44	69.4609
1188.78	62.8897
1193.11	157.099
1197.45	25.7012
1201.78	34.1289
1206.11	27.8037
1210.43	48.4746
1214.76	23.1143
1219.08	39.8418
1223.4	2.24121
1227.72	47.9268
1232.03	33.8496
1236.35	213.189
1240.66	87.1943
1244.96	271.871
1249.27	225.264
1253.57	218.389
1257.88	214.204
1262.17	409.731
1266.47	501.937
1270.76	571.831
1275.06	630.443
1279.35	475.742
1283.63	455.203
1287.92	374.744
1292.2	590.061
1296.48	565.045
1300.76	562.695
1305.04	753.01
1309.31	843.827
1313.58	757.496
1317.85	809.32
1322.12	685.869
1326.38	378.015
1330.64	289.34
1334.9	121.227
1339.16	219.231
1343.41	224.506
1347.67	367.569
1351.92	115.024
1356.17	375.327
1360.41	132.774
1364.66	303.357
1368.9	278.118
1373.14	216.669
1377.38	210.718
1381.61	256.757
1385.84	218.412
1390.08	237.009
1394.3	202.038
1398.53	36.9277
1402.75	205.53
1406.97	93.1699
1411.19	248.586
1415.41	138.881
1419.63	242.98
1423.84	209.789
1428.05	256.481
1432.26	521.091
1436.46	660.154
1440.67	993.278
1444.87	1345.34
1449.07	1419.41
1453.27	1521.62
1457.46	1422.58
1461.66	1135.53
1465.85	960.23
1470.04	640.102
1474.22	506.935
1478.41	680.793
1482.59	449.651
1486.77	309.607
1490.95	257.712
1495.12	129.22
1499.3	35.9522
1503.47	164.307
1507.63	31.3477
1511.8	114.09
1515.97	136.382
1520.13	90.1631
1524.29	232.573
1528.45	123.799
1532.61	121.767
1536.76	247.309
1540.91	149.602
1545.06	183.721
1549.21	147.088
1553.35	154.279
1557.5	5.82812
1561.64	67.5996
