Measurement: Raman, 514 nm, depolarized, Raman Data Processed
Mineral: Enstatite
Rruff sample: R070418
Ideal chemistry: MgSiO_3_
Locality: India
Source: Michael Scott
Description: Brown translucent fragments
Measured chemistry: (Mg_0.86_Fe_0.14_)_Î£=1_Si_1.00_O_3_; trace amounts of Al, Ca, Mn
Pin_id: L01297
Orientation: Laser parallel to c* (0 0 1). Fiducial mark perpendicular to laser is parallel to a [1 0 0]
Raman shift (cm-1)	intensity
41.8	0
46.809	22.549
51.816	38.444
56.819	84.1174
61.819	94.5235
66.816	168.701
71.81	217.321
76.8	160.809
81.788	101.427
86.772	10.032
91.754	43.7257
96.732	39.3087
101.707	9.10242
106.679	303.534
111.648	294.007
116.613	398.526
121.576	496.992
126.535	594.995
131.492	756.203
136.445	948.375
141.395	1184.21
146.343	1350
151.287	1290.89
156.228	1033.18
161.166	966.865
166.1	858.944
171.032	769.404
175.961	647.254
180.887	978.508
185.809	1511.08
190.729	2163.23
195.645	1621.35
200.559	1238.74
205.469	1008.53
210.376	844.03
215.281	1013.21
220.182	1238.32
225.08	2077
229.976	3975.6
234.868	6706.12
239.757	3977.37
244.643	1358.35
249.527	711.844
254.407	641.39
259.284	653.905
264.158	570.362
269.029	941.733
273.898	1103
278.763	557.142
283.625	343.157
288.485	647.035
293.341	1317.78
298.194	1596.39
303.045	1268.61
307.892	1426.9
312.736	2670
317.578	4494.89
322.417	4745.56
327.252	5779.99
332.085	9729.18
336.914	16672.1
341.741	17613.7
346.565	9974.9
351.386	4994.32
356.204	2903
361.019	2059.29
365.831	1895.37
370.64	2221.29
375.447	3031.92
380.25	3757.28
385.05	3759.48
389.848	4413.61
394.643	5828.55
399.434	6394.13
404.223	5365.31
409.009	4266.1
413.792	3518.45
418.573	2116.37
423.35	1121.83
428.124	468.822
432.896	150.323
437.665	110.318
442.431	35.2107
447.194	61.6853
451.954	176.023
456.711	211.786
461.465	89.9587
466.217	113.604
470.966	256.102
475.712	10.7278
480.455	13.3237
485.195	25.2256
489.932	75.6223
494.667	142.767
499.399	183.608
504.128	128.287
508.854	208.692
513.577	741.134
518.297	1533.06
523.015	2053.44
527.73	1706.19
532.442	1694.26
537.151	2478.54
541.858	1905.98
546.561	1595.55
551.262	1381.22
555.96	820.962
560.656	576.748
565.348	771.567
570.038	1205.4
574.725	1681.24
579.409	1193.06
584.091	568.111
588.769	466.859
593.445	311.561
598.119	149.196
602.789	98.7522
607.457	112.21
612.122	144.542
616.784	241.703
621.443	282.71
626.1	423.101
630.754	568.362
635.405	825.923
640.054	1190.36
644.7	2166.76
649.343	3982.6
653.983	8066.74
658.621	15158.3
663.256	17185
667.888	11934.1
672.518	11790
677.144	18315.3
681.769	25906.8
686.39	20117.4
691.009	9513.72
695.625	4354.77
700.238	2357.55
704.849	1510.08
709.457	1028.34
714.062	780.329
718.665	576.053
723.265	475.515
727.863	427.724
732.457	316.666
737.049	277.344
741.639	138.725
746.225	231.831
750.81	228.169
755.391	142.483
759.97	79.8982
764.546	29.0356
769.12	27.0894
773.69	38.3379
778.259	0.709961
782.824	6.87061
787.387	31.9814
791.948	42.6287
796.506	4.03809
801.061	39.1624
805.613	19.1711
810.163	54.0125
814.711	8.4331
819.255	43.8897
823.797	60.999
828.337	39.9463
832.874	41.7769
837.408	125.504
841.94	51.1392
846.469	243.696
850.996	262.19
855.52	528.63
860.041	670.03
864.56	474.402
869.077	313.755
873.59	240.102
878.101	194.455
882.61	171.827
887.116	163.256
891.62	146.75
896.121	234.319
900.619	267.816
905.115	319.091
909.608	351.06
914.099	510.924
918.587	949.625
923.073	1544.56
927.556	2430.28
932.037	3180.83
936.515	3613.79
940.991	3358.6
945.464	2282.89
949.934	1525.08
954.403	1088.66
958.868	980.389
963.331	859.582
967.792	930.113
972.25	1039.01
976.705	1259.33
981.158	1720.08
985.609	2672.23
990.057	4337.73
994.503	8256.56
998.946	16617.7
1003.39	33531.2
1007.83	52387
1012.26	40782.1
1016.69	24577.5
1021.12	19087
1025.55	16307.1
1029.98	14272.5
1034.4	11061.3
1038.82	7526.43
1043.24	5098.14
1047.66	3319.36
1052.07	2192.44
1056.48	1547.02
1060.89	1011.44
1065.3	822.994
1069.7	637.046
1074.1	445.958
1078.5	336.173
1082.9	268.438
1087.29	257.653
1091.68	181.709
1096.07	114.561
1100.46	89.2839
1104.84	157.222
1109.23	117.089
1113.61	147.758
1117.98	206.468
1122.36	247.996
1126.73	132.558
1131.1	154.19
1135.47	75.8831
1139.83	78.3123
1144.19	29.948
1148.56	39.3704
1152.91	66.3931
1157.27	75.2847
1161.62	37.51
1165.97	1.76587
1170.32	64.9009
1174.67	5.07666
1179.01	22.8511
1183.35	32.1746
1187.69	28.4722
1192.03	49.8826
1196.36	64.7505
1200.7	19.9358
1205.03	82.7151
1209.35	5.73999
1213.68	29.2664
1218	1.35205
1222.32	0.241211
1226.64	11.6711
1230.95	72.2031
1235.27	19.6682
1239.58	18.084
1243.89	42.9502
1248.19	15.3838
1252.5	45.9028
1256.8	99.8962
1261.1	55.5908
1265.4	74.9792
1269.69	132.711
1273.98	71.9795
1278.27	126.691
1282.56	66.9373
1286.85	128.883
1291.13	101.615
1295.41	161.413
1299.69	168.514
1303.97	174.138
1308.24	95.793
1312.51	178.225
1316.78	155.235
1321.05	138.267
1325.31	105.251
1329.58	101.227
1333.84	154.758
1338.1	173.087
1342.35	169.693
1346.61	83.4631
1350.86	124.381
1355.11	194.241
1359.35	98.3931
1363.6	141.319
1367.84	173.947
1372.08	127.857
1376.32	147.443
1380.55	97.353
1384.79	172.825
1389.02	120.635
1393.25	110.746
1397.47	34.0369
1401.7	107.722
1405.92	78.3674
1410.14	114.637
1414.36	82.2373
1418.57	104.013
1422.79	65.8113
1427	64.9297
1431.21	25.1865
1435.41	66.6975
1439.62	79.9512
1443.82	107.139
1448.02	154.267
1452.22	133.002
1456.41	52.4228
1460.61	211.341
1464.8	96.7678
1468.99	95.7202
1473.17	58.9263
1477.36	115.197
1481.54	83.3743
1485.72	71.6863
1489.9	51.0173
1494.08	89.1714
1498.25	59.2661
1502.42	55.5979
1506.59	41.1917
1510.76	104.076
1514.93	120.205
1519.09	18.5349
1523.25	92.0205
1527.41	3.49316
1531.57	79.5547
1535.72	130.911
1539.87	28.8013
1544.02	140.35
1548.17	93.5261
1552.32	3.02002
1556.46	127.972
1560.6	48.2085
