Measurement: Raman, 514 nm, ccw, Raman Data Processed
Mineral: Enstatite
Rruff sample: R040093
Ideal chemistry: MgSiO_3_
Locality: Castle Rock, Pennsylvania, USA
Source: University of Arizona Mineral Museum
Description: Dark green massive
Measured chemistry: (Mg_0.84_Fe_0.15_Al_0.01_)Si_1.00_O_3_
Pin_id: L00172
Orientation: Laser parallel to -c* (0 0 -1). Fiducial mark perpendicular to laser is parallel to a [1 0 0]
Raman shift (cm-1)	intensity
109.268	0
114.212	634.508
119.152	1179.2
124.09	256.332
129.026	45.4751
133.958	81.1616
138.888	466.641
143.815	1003.94
148.739	1345.16
153.661	1024.08
158.58	985.137
163.496	996.369
168.409	459
173.32	199.906
178.228	845.476
183.133	2273.16
188.035	5558.38
192.935	8527.73
197.832	5754.12
202.727	2393.16
207.618	1776.11
212.507	1786.91
217.393	1527.35
222.277	2789.44
227.157	4820.13
232.035	9681.63
236.911	12918.9
241.783	5960.24
246.653	1282.79
251.52	261.519
256.385	708.889
261.246	299.317
266.105	33.9541
270.962	820.494
275.815	861.199
280.666	309.274
285.514	344.664
290.36	925.275
295.203	2145.24
300.043	2471.53
304.88	1820.15
309.715	2557.94
314.547	5663.84
319.376	9171.81
324.203	11714.9
329.027	15009.2
333.848	22001.2
338.667	32589.9
343.482	29888.6
348.296	15387.2
353.106	7545.85
357.914	5139.47
362.719	4475.59
367.521	4236.56
372.321	5260.3
377.118	8112.78
381.912	10240
386.704	10105.8
391.493	10957.2
396.279	12894.3
401.063	12410.9
405.844	10383.5
410.622	9784.93
415.398	8486.64
420.171	4638.47
424.941	1933.26
429.709	706.801
434.473	152.028
439.236	184.153
443.995	17.6655
448.752	474.808
453.506	1154.52
458.258	606.767
463.007	206.387
467.753	389.761
472.497	473.66
477.238	415.278
481.976	1016.25
486.712	768.153
491.445	45.5991
496.175	286.528
500.902	213.685
505.627	353.584
510.35	1620.78
515.069	3950.71
519.786	5414.25
524.501	5416.61
529.213	4302.68
533.922	4027.21
538.628	4807.86
543.332	3499.65
548.033	3350.59
552.731	2800.85
557.427	2024.17
562.121	2403.49
566.811	3974.75
571.499	6990.9
576.184	8670.92
580.867	5403.38
585.547	2609.65
590.224	1933.1
594.899	1221.34
599.571	443.325
604.241	72.0391
608.908	19.7725
613.572	45.8726
618.233	50.5654
622.892	477.781
627.549	753.104
632.202	1034.24
636.853	1586.91
641.502	2691.15
646.148	4987.55
650.791	9358.15
655.432	18610.7
660.069	30820.1
664.705	29214.5
669.338	22005.7
673.968	26793.9
678.595	40285.9
683.22	48170.5
687.842	32059.7
692.462	14648.6
697.079	7138.97
701.694	4008.14
706.305	2537.91
710.915	1838.87
715.521	1420.02
720.125	1325.45
724.727	1383.38
729.325	1492.57
733.922	1173.95
738.515	1152.53
743.106	908.831
747.695	880.344
752.28	704.833
756.864	353.828
761.444	175.545
766.022	35.5161
770.598	35.9058
775.17	25.7388
779.741	65.5278
784.308	133.368
788.873	9.51318
793.436	77.2554
797.996	129.522
802.553	83.7134
807.108	76.4258
811.66	3.38232
816.209	105.227
820.756	56.2134
825.301	28.7549
829.842	4.74121
834.382	82.3765
838.918	60.5581
843.452	135.409
847.984	388.989
852.513	660.332
857.039	1188.47
861.563	1169.43
866.084	790.233
870.603	530.92
875.119	246.52
879.632	312.066
884.143	295.782
888.651	475.826
893.157	756.019
897.66	734.293
902.161	689.244
906.659	674.181
911.154	778.617
915.647	1330.43
920.138	2269.54
924.626	3781.15
929.111	5497.76
933.594	6928.55
938.074	7660.74
942.551	6397.7
947.026	4291.28
951.499	2909.14
955.969	2136.47
960.436	1793.44
964.901	1619.87
969.363	1796.16
973.823	1858.64
978.28	2561.75
982.735	3599.76
987.187	5685.6
991.637	10028.3
996.084	19086.8
1000.53	38928.2
1004.97	76295.4
1009.41	107033
1013.85	73874.5
1018.28	46862.2
1022.71	38133.5
1027.14	34390.1
1031.57	30522.7
1035.99	23906.7
1040.41	17605.8
1044.83	11881.3
1049.25	7935.06
1053.66	5535.2
1058.08	3746.62
1062.48	2851.91
1066.89	2123.47
1071.3	1614.71
1075.7	1577.67
1080.1	1794.55
1084.49	2828.02
1088.89	4959.52
1093.28	6634.79
1097.67	5646.41
1102.05	3280.37
1106.44	1760.22
1110.82	1133.31
1115.2	754.526
1119.57	453.697
1123.95	405.575
1128.32	259.006
1132.69	330.396
1137.05	199.439
1141.42	199.398
1145.78	118.521
1150.14	100.189
1154.49	101.706
1158.85	26.4727
1163.2	2.51562
1167.55	145.123
1171.89	108.957
1176.24	20.7344
1180.58	33.6709
1184.92	3.95166
1189.25	17.0254
1193.59	115.134
1197.92	11.9888
1202.25	49.1494
1206.57	49.1323
1210.9	69.1533
1215.22	37.6377
1219.54	40.0688
1223.85	22.5542
1228.17	25.8774
1232.48	48.6318
1236.79	18.1807
1241.09	18.6064
1245.4	176.119
1249.7	54.9497
1254	232.161
1258.29	97.4424
1262.59	79.8843
1266.88	176.638
1271.17	140.516
1275.45	203.691
1279.74	202.136
1284.02	287.14
1288.3	291.96
1292.58	354.868
1296.85	248.572
1301.12	405.543
1305.39	387.451
1309.66	353.576
1313.92	340.266
1318.18	370.724
1322.44	279.19
1326.7	310.829
1330.95	355.084
1335.2	318.095
1339.45	206.454
1343.7	267.464
1347.95	299.385
1352.19	260.427
1356.43	363.452
1360.66	365.904
1364.9	305.218
1369.13	357.49
1373.36	246.729
1377.59	377.183
1381.81	206.401
1386.04	225.093
1390.26	166.843
1394.47	224.708
1398.69	147.142
1402.9	264.569
1407.11	254.73
1411.32	244.304
1415.53	214.337
1419.73	233.343
1423.93	131.278
1428.13	275.231
1432.32	301.339
1436.52	181.011
1440.71	277.999
1444.89	387.259
1449.08	308.612
1453.26	231.971
1457.44	291.582
1461.62	193.58
1465.8	239.276
1469.97	201.894
1474.14	288.083
1478.31	199.724
1482.48	196.212
1486.64	181.969
1490.81	196.972
1494.96	17.9819
1499.12	115.957
1503.28	117.914
1507.43	147.018
1511.58	47.2334
1515.72	197.85
1519.87	76.6665
1524.01	83.1021
1528.15	169.927
1532.29	27.0718
1536.42	35.5703
1540.55	95.8813
1544.68	79.9331
1548.81	168.284
1552.94	337.094
1557.06	22.1738
1561.18	80.4136
1565.3	15.6475
1569.41	50.2568
1573.53	41.7451
1577.64	0.389648
