Measurement: Raman, 514 nm, depolarized, Raman Data Processed
Mineral: Enstatite
Rruff sample: R040093
Ideal chemistry: MgSiO_3_
Locality: Castle Rock, Pennsylvania, USA
Source: University of Arizona Mineral Museum
Description: Dark green massive
Measured chemistry: (Mg_0.84_Fe_0.15_Al_0.01_)Si_1.00_O_3_
Pin_id: L00172
Orientation: Laser parallel to -c* (0 0 -1). Fiducial mark perpendicular to laser is parallel to a [1 0 0]
Raman shift (cm-1)	intensity
110.504	0
115.447	885.808
120.387	811.421
125.324	25.165
130.259	74.1484
135.191	241.175
140.12	681.082
145.046	1368.75
149.97	1523.65
154.891	725.526
159.809	627.287
164.724	470.473
169.637	90.9898
174.547	31.5625
179.454	174.233
184.359	1346
189.261	3281.03
194.16	4247.44
199.056	2513.5
203.95	1192.94
208.841	935.876
213.729	819.364
218.614	1139.16
223.497	2131.39
228.377	5171.08
233.254	10279.3
238.129	10904.5
243.001	3753.58
247.87	695.498
252.737	518.227
257.6	850.259
262.461	63.9995
267.32	436.214
272.175	1154.33
277.028	707.127
281.879	100.086
286.726	241.958
291.571	1082.93
296.413	2402.17
301.252	2264.63
306.089	1932.99
310.923	3398.66
315.755	6768.35
320.583	9699.56
325.409	10607.4
330.232	15341.9
335.053	26402.2
339.871	37800.1
344.686	30033.9
349.498	14306
354.308	7392.49
359.115	4835.06
363.92	3997.62
368.721	4011.75
373.52	5260.45
378.317	7303.7
383.111	8237.42
387.902	8258.56
392.69	10864.1
397.475	13759
402.258	13395.3
407.039	10880.1
411.816	8952.41
416.591	6678.37
421.364	3722.15
426.133	1756.5
430.9	671.351
435.664	297.681
440.426	117.465
445.185	26.3271
449.941	289.213
454.695	538.106
459.445	323.348
464.194	229.962
468.939	335.914
473.682	143.526
478.423	66.0459
483.16	240.757
487.895	60.6914
492.627	195.838
497.357	317.062
502.084	176.857
506.808	296.486
511.53	1320.47
516.249	2940.05
520.965	4445.36
525.679	4948.29
530.39	4034.65
535.098	4673.21
539.804	5143.88
544.507	3795.61
549.208	3588.47
553.906	2677.3
558.601	1722.06
563.293	1732.77
567.983	2639.36
572.671	4015.8
577.355	4094.07
582.037	2457.15
586.717	1374.12
591.393	926.907
596.067	639.301
600.739	317.432
605.408	189.279
610.074	106.826
614.737	132.031
619.398	550.793
624.057	689.345
628.712	1046.97
633.365	1325.6
638.016	2002.99
642.664	3273.34
647.309	6135.65
651.951	11998.3
656.591	23207.6
661.229	34841.5
665.863	28577.5
670.495	22633.2
675.125	29956.8
679.752	45458.9
684.376	48914.3
688.998	28501.8
693.617	13044.3
698.233	6571.55
702.847	3892.75
707.458	2532.28
712.066	1795.18
716.672	1370.46
721.276	1154.1
725.877	1003.12
730.475	981.558
735.07	835.376
739.663	661.582
744.254	625.175
748.841	542.788
753.426	455.146
758.009	353.959
762.589	148.196
767.166	28.1909
771.741	5.59619
776.313	102.978
780.883	107.788
785.45	103.412
790.014	13.5801
794.576	105.854
799.135	116.878
803.692	8.55566
808.246	49.9507
812.797	43.3442
817.346	31.7876
821.893	37.6148
826.436	33.3955
830.977	58.1055
835.516	0.509277
840.052	34.5996
844.585	265.485
849.116	311.194
853.645	956.756
858.17	1305.2
862.693	1317.55
867.214	886.837
871.732	501.084
876.247	329.319
880.76	334.566
885.27	297.856
889.778	467.221
894.283	491.678
898.786	593.047
903.286	557.568
907.783	602.315
912.278	847.765
916.77	1410.71
921.26	2325.83
925.747	4309.41
930.232	6046.5
934.714	7389.18
939.193	7802.47
943.67	6045.78
948.145	4086.41
952.617	2880.28
957.086	2157.99
961.553	1899.88
966.017	1810.01
970.479	1987.46
974.938	2071.22
979.394	2945.86
983.848	4084.39
988.3	6643.73
992.749	11696.9
997.195	22761.9
1001.64	46300.7
1006.08	88271.2
1010.52	103540
1014.96	63955.5
1019.39	43597.2
1023.82	37045.7
1028.25	33229.9
1032.67	27946.9
1037.1	20901
1041.52	14516.7
1045.94	9498.85
1050.35	6413.33
1054.77	4477.11
1059.18	3155.69
1063.59	2228.75
1067.99	1679.68
1072.4	1262.23
1076.8	1139.95
1081.19	1268.86
1085.59	1846.8
1089.98	2715.89
1094.38	3225.98
1098.76	2613.5
1103.15	1434.74
1107.53	924.172
1111.91	636.958
1116.29	404.195
1120.67	485.88
1125.04	344.789
1129.41	347.654
1133.78	306.961
1138.14	300.185
1142.51	124.03
1146.87	185.283
1151.23	92.9219
1155.58	49.5435
1159.93	66.3823
1164.29	44.6753
1168.63	53.6641
1172.98	139.454
1177.32	12.2739
1181.66	92.2842
1186	71.0532
1190.34	20.3848
1194.67	109.269
1199	30.0664
1203.33	32.3872
1207.65	124.456
1211.98	13.8364
1216.3	47.0933
1220.62	1.56299
1224.93	6.01269
1229.24	1.70068
1233.56	15.2622
1237.86	17.9448
1242.17	35.7324
1246.47	53.6499
1250.77	168.303
1255.07	179.121
1259.37	87.2617
1263.66	100.737
1267.95	157.55
1272.24	140.531
1276.53	206.233
1280.81	142.17
1285.09	281.564
1289.37	201.264
1293.64	352.267
1297.92	301.377
1302.19	226.333
1306.46	327.265
1310.72	371.636
1314.99	284.035
1319.25	315.685
1323.51	252.597
1327.76	249.308
1332.02	285.095
1336.27	273.2
1340.52	200.179
1344.76	315.776
1349.01	219.519
1353.25	302.946
1357.49	279.872
1361.72	259.915
1365.96	397.455
1370.19	335.329
1374.42	276.722
1378.64	228.39
1382.87	195.12
1387.09	219.106
1391.31	233.672
1395.53	272.367
1399.74	194.995
1403.95	243.898
1408.16	161.065
1412.37	216.666
1416.58	132.264
1420.78	293.356
1424.98	94.2427
1429.18	201.898
1433.37	97.3867
1437.56	173.95
1441.75	140.054
1445.94	208.797
1450.13	171.065
1454.31	246.573
1458.49	86.2109
1462.67	140.774
1466.84	168.192
1471.02	156.979
1475.19	110.069
1479.36	191.692
1483.52	88.6211
1487.68	158.659
1491.85	165.798
1496	122.769
1500.16	192.59
1504.31	56.9795
1508.46	117.36
1512.61	14.9448
1516.76	135.693
1520.9	109.874
1525.05	168.513
1529.18	66.5352
1533.32	105.89
1537.45	41.5996
1541.59	175.384
1545.72	94.5933
1549.84	167.391
1553.97	354.456
1558.09	127.436
1562.21	61.5132
1566.33	82.4663
1570.44	17.3833
1574.56	14.8086
1578.67	0
