Measurement: Raman, 514 nm, ccw, Raman Data Processed
Mineral: Enstatite
Rruff sample: R040093
Ideal chemistry: MgSiO_3_
Locality: Castle Rock, Pennsylvania, USA
Source: University of Arizona Mineral Museum
Description: Dark green massive
Measured chemistry: (Mg_0.84_Fe_0.15_Al_0.01_)Si_1.00_O_3_
Pin_id: L00247
Orientation: Laser parallel to a* (1 0 0). Fiducial mark perpendicular to laser is parallel to -b [0 -1 0]
Raman shift (cm-1)	intensity
137.656	0
142.583	9.53223
147.508	156.939
152.431	55.0967
157.35	606.113
162.267	1654.74
167.181	4044.12
172.092	9418.12
177.001	18641.5
181.907	31611.8
186.81	46165.1
191.711	46772.7
196.608	47434.3
201.503	49585.1
206.395	47630.4
211.285	39687.6
216.172	28947.7
221.056	23388.8
225.937	18935
230.816	12241.5
235.692	7243.67
240.565	3859.86
245.436	1798.39
250.304	958.168
255.169	967.311
260.031	792.396
264.891	491.68
269.748	170.184
274.602	258.82
279.454	129.922
284.303	85.2402
289.149	775.648
293.992	3698.92
298.833	9612.25
303.671	11352.7
308.507	5624.08
313.339	5123.83
318.169	12140.5
322.996	25295.2
327.821	30369.9
332.643	18102.9
337.462	12212.6
342.279	8819.66
347.092	5147.12
351.904	3190.89
356.712	2235.2
361.518	2045.41
366.321	2264.91
371.121	2690.66
375.919	3728.56
380.714	4489.47
385.506	5018.28
390.296	4785.17
395.083	4158.43
399.867	2754.7
404.649	1732.75
409.428	1364.59
414.204	879.725
418.978	741.219
423.749	811.75
428.517	1410.21
433.282	1615.38
438.045	1060.97
442.806	468.639
447.563	100.281
452.318	115.549
457.07	115.961
461.82	31.5879
466.567	300.904
471.311	53.8848
476.053	62.4473
480.792	19.3418
485.528	29.2949
490.262	32.5312
494.992	290.09
499.721	808.232
504.446	920.047
509.169	789.521
513.89	891.644
518.607	1121.51
523.322	1508.2
528.035	1676.84
532.745	1975.83
537.452	2649.94
542.156	2253.03
546.858	1746.27
551.557	1382.91
556.254	1194.37
560.947	871.283
565.639	810.894
570.327	900.736
575.013	1228.11
579.697	1087.19
584.377	668.842
589.055	472.006
593.731	173.068
598.403	240.256
603.074	71.5195
607.741	191.502
612.406	549.381
617.068	595.205
621.728	719.973
626.385	1007.07
631.039	1495.04
635.691	2040.43
640.34	3111.08
644.987	4362.42
649.63	6821.44
654.272	10762.9
658.91	19245
663.546	39303
668.18	81083.3
672.81	122925
677.439	90414.3
682.064	42746.2
686.687	20845.3
691.307	12187
695.925	7914.35
700.54	5441.48
705.153	3824.93
709.763	3104.17
714.37	2898.44
718.974	2697.46
723.577	2732.27
728.176	3091.64
732.773	4199.03
737.367	5043.18
741.959	3983.83
746.548	2715.23
751.134	1596.47
755.718	1178.65
760.299	779.484
764.878	510.611
769.454	352.279
774.028	689.203
778.598	862.416
783.167	730.924
787.732	403.732
792.295	249.844
796.856	5.0332
801.414	145.93
805.969	137.486
810.522	190.018
815.072	16.1895
819.62	41.2598
824.165	254.059
828.707	56.7129
833.247	121.984
837.784	50.8516
842.319	75.8848
846.851	19.7402
851.381	12.377
855.908	153.742
860.432	221.557
864.954	77.8945
869.473	144.738
873.99	418.111
878.504	461.109
883.015	619.713
887.524	1006.91
892.031	1335.7
896.535	1905.09
901.036	1876.33
905.535	2029.39
910.031	2390.04
914.524	4007.63
919.015	6730.25
923.504	10121.8
927.99	9977.25
932.473	6267.11
936.954	3802.85
941.432	2384.49
945.908	1900.62
950.381	1326.24
954.852	1179.56
959.32	1207.51
963.785	1078.47
968.248	1378.84
972.708	1751.78
977.166	1762.51
981.622	1753.54
986.074	1869.31
990.525	1971.45
994.972	2510.95
999.417	2838.64
1003.86	3779.77
1008.3	4647.24
1012.74	5201.66
1017.17	5745.32
1021.61	7221.23
1026.04	10043.6
1030.46	16924.6
1034.89	33897.7
1039.31	60001.1
1043.73	55853
1048.15	28387
1052.56	13862.3
1056.97	8294.88
1061.38	6448.34
1065.79	6285.57
1070.19	6782.4
1074.6	8309.73
1079	12506
1083.39	24252.7
1087.79	45704.1
1092.18	64312.3
1096.57	58126.3
1100.96	35511.7
1105.34	19642.8
1109.72	10617.9
1114.1	5426.34
1118.48	3104.73
1122.85	1596.2
1127.22	942.621
1131.6	638.109
1135.96	390.752
1140.33	374.906
1144.69	324.06
1149.05	210.512
1153.4	239.211
1157.76	254.01
1162.11	102.562
1166.46	14.9492
1170.81	82.5644
1175.15	63.0332
1179.49	84.5644
1183.83	4.27344
1188.17	57.3691
1192.5	10.7773
1196.84	105.008
1201.16	47.2773
1205.49	0.296875
1209.82	143.584
1214.14	67.6445
1218.46	2.07031
1222.77	4.50195
1227.09	116.057
1231.4	162.219
1235.71	0.195313
1240.02	113.736
1244.32	327.184
1248.62	175.404
1252.92	410.887
1257.22	53.7031
1261.51	254.674
1265.81	81.9316
1270.1	258.432
1274.38	157.295
1278.67	230.688
1282.95	356.348
1287.23	545.805
1291.51	246.029
1295.78	338.391
1300.05	582.432
1304.32	252.029
1308.59	417.147
1312.86	328.783
1317.12	228.289
1321.38	318.539
1325.63	315.231
1329.89	296.074
1334.14	379.555
1338.39	371.668
1342.64	396.945
1346.88	510.043
1351.13	306.32
1355.37	393.586
1359.61	427.277
1363.84	386.695
1368.07	7.76953
1372.3	284.746
1376.53	182.684
1380.76	364.254
1384.98	468.773
1389.2	212.488
1393.42	193.41
1397.64	345.188
1401.85	274.801
1406.06	192.832
1410.27	225.047
1414.47	122.238
1418.68	510.894
1422.88	260.402
1427.08	231.324
1431.27	394.789
1435.47	728.656
1439.66	995.434
1443.85	800.16
1448.03	962.484
1452.22	865.879
1456.4	378.609
1460.58	442.09
1464.76	386.473
1468.93	241.598
1473.1	247.543
1477.27	251.856
1481.44	294.199
1485.6	363.637
1489.77	386.344
1493.92	199.844
1498.08	94.7617
1502.24	66.8594
1506.39	146.949
1510.54	262.41
1514.69	312.762
1518.83	218.086
1522.97	171.508
1527.12	174.637
1531.25	305.508
1535.39	201.223
1539.52	284.684
1543.65	397.254
1547.78	367.137
1551.91	433.684
1556.03	735.883
1560.15	303.398
1564.27	288.414
1568.39	517.266
1572.5	198.559
1576.61	322.113
