Measurement: Raman, 514 nm, depolarized, Raman Data Processed
Mineral: Enstatite
Rruff sample: R050644
Ideal chemistry: MgSiO_3_
Locality: Morogoro, Tanzania
Source: Jibamitra Ganguly
Description: Light brown crystal fragment
Measured chemistry: (Mg_0.90_Fe_0.10_)SiO_3_
Pin_id: L00720
Orientation: Laser parallel to c* (0 0 1). Fiducial mark perpendicular to laser is parallel to -a [-1 0 0]
Raman shift (cm-1)	intensity
51.431	0
56.387	78.4878
61.341	36.8842
66.292	10.3263
71.241	729.32
76.187	4640.6
81.131	4599.1
86.072	1013.05
91.012	604.626
95.948	520.817
100.883	622.203
105.815	1144.1
110.744	763.065
115.671	692.767
120.596	608.963
125.519	730.5
130.439	902.839
135.356	934.324
140.271	1112.81
145.184	1312.64
150.094	1289.93
155.002	1036.73
159.908	727.018
164.811	517.771
169.711	351.939
174.61	336.481
179.505	758.51
184.399	1685.81
189.29	2604.29
194.178	2545.88
199.064	1790.96
203.948	1086.06
208.829	643.533
213.708	480.418
218.585	701.236
223.459	1695.97
228.33	4208.2
233.199	6845.7
238.066	6525.29
242.93	2188.83
247.792	354.201
252.651	214.317
257.508	215.437
262.363	226.438
267.215	489.289
272.064	802.572
276.912	795.242
281.756	57.2859
286.598	370.686
291.438	1066.41
296.276	1758.67
301.111	1743.72
305.943	1365.18
310.773	2448.8
315.601	4273.56
320.426	5619.4
325.248	6978.29
330.068	12498.2
334.886	20602.1
339.701	23713.9
344.514	17168.1
349.324	7685.63
354.132	3812.03
358.938	2334.62
363.741	1881.11
368.541	2136.47
373.339	3335.74
378.135	4410.87
382.928	4529.84
387.718	5185.6
392.506	6928.14
397.292	7850.41
402.075	7064.4
406.856	6014.06
411.634	5561.38
416.41	4443.33
421.183	2597.86
425.954	1014.8
430.722	240.606
435.488	13.2449
440.251	51.6318
445.012	48.3196
449.77	176.941
454.526	249.355
459.28	182.445
464.03	70.0159
468.779	149.777
473.525	106.157
478.268	43.6506
483.009	1.05078
487.747	102.437
492.483	168.491
497.217	218.167
501.948	133.333
506.676	227.369
511.402	877.223
516.125	1863.3
520.846	2582.62
525.565	2552.2
530.281	2401.15
534.994	2809.4
539.705	2779.86
544.413	2203.4
549.119	1775.92
553.822	1232.37
558.523	880.7
563.222	828.908
567.917	1352.97
572.611	2014.87
577.302	1955.35
581.99	1243.37
586.676	744.401
591.359	602.509
596.04	485.33
600.718	246.02
605.394	263.392
610.067	194.49
614.737	286.295
619.406	443.173
624.071	658.118
628.734	834.73
633.395	1161.88
638.053	1464.76
642.708	2509.44
647.361	4478.1
652.012	9359.43
656.66	17277
661.305	21756.2
665.948	17592
670.588	14317.8
675.226	19574.1
679.861	28187.5
684.494	28768.9
689.124	16711.5
693.752	7468.49
698.377	3641.05
702.999	2065.27
707.619	1436.14
712.237	999.677
716.852	703.872
721.464	578.745
726.074	469.35
730.681	396.644
735.286	283.615
739.888	159.27
744.488	249.483
749.085	210.52
753.68	115.95
758.272	37.3704
762.861	45.998
767.448	15.4192
772.033	22.5303
776.614	2.32739
781.194	21.7317
785.77	0.167236
790.345	41.8804
794.916	38.5786
799.485	56.6692
804.052	79.4729
808.616	74.1477
813.177	22.6367
817.736	0.369385
822.292	29.9822
826.846	32.4158
831.397	15.7439
835.945	56.9853
840.491	151.159
845.035	381.282
849.576	808.372
854.114	1213.45
858.65	1039.52
863.183	659.61
867.713	330.728
872.241	215.889
876.767	126.109
881.29	210.406
885.81	289.795
890.328	397.278
894.843	348.536
899.356	297.378
903.866	380.336
908.373	594
912.878	755.586
917.38	1409.74
921.88	2666.39
926.377	3742.93
930.872	4391.73
935.364	4848.36
939.853	3956.24
944.34	2561
948.824	1628.51
953.306	1145.8
957.785	1087.2
962.261	939.179
966.735	957.971
971.207	1064.25
975.675	1388.03
980.141	1773.42
984.605	2585.37
989.066	4024.78
993.524	7131.65
997.98	13605
1002.43	29567.8
1006.88	53917
1011.33	57372.7
1015.78	36596.8
1020.22	26786.5
1024.66	26490.4
1029.1	25720.7
1033.53	21049.6
1037.97	14496.9
1042.4	9230.37
1046.82	5489.82
1051.25	3372.38
1055.67	2468.19
1060.09	1631.11
1064.51	1101.85
1068.92	727.847
1073.33	647.696
1077.74	420.357
1082.15	362.504
1086.55	249.05
1090.95	195.149
1095.35	249.866
1099.75	151.582
1104.14	201.762
1108.53	170.827
1112.92	199.025
1117.31	222.188
1121.69	204.229
1126.07	228.743
1130.45	263.916
1134.82	132.254
1139.19	116.45
1143.57	75.1714
1147.93	95.7886
1152.3	75.1318
1156.66	110.099
1161.02	89.0757
1165.38	42.0281
1169.73	35.0056
1174.08	42.7795
1178.43	4.4165
1182.78	64.7869
1187.12	6.22534
1191.46	43.0156
1195.8	25.3037
1200.14	21.4839
1204.47	42.8023
1208.8	12.8232
1213.13	23.3379
1217.46	33.363
1221.78	23.7412
1226.1	31.4341
1230.42	56.6035
1234.73	29.3181
1239.04	8.41382
1243.35	9.73584
1247.66	2.44897
1251.97	76.666
1256.27	13.4556
1260.57	43.7339
1264.86	146.624
1269.16	43.0188
1273.45	49.9761
1277.74	148.578
1282.03	188.779
1286.31	181.655
1290.59	144.989
1294.87	130.47
1299.14	140.02
1303.42	229.44
1307.69	226.163
1311.95	254.034
1316.22	189.655
1320.48	160.3
1324.74	163.232
1329	166.691
1333.26	129.292
1337.51	144.621
1341.76	198.241
1346	147.409
1350.25	160.883
1354.49	150.8
1358.73	180.736
1362.96	272.696
1367.2	228.964
1371.43	188.992
1375.66	241.41
1379.88	167.237
1384.11	212.946
1388.33	66.4741
1392.54	122.409
1396.76	103.559
1400.97	130.328
1405.18	27.5635
1409.39	162.15
1413.59	136.847
1417.8	48.2112
1421.99	109.683
1426.19	136.732
1430.38	61.676
1434.58	111.256
1438.77	135.064
1442.95	165.63
1447.13	111.452
1451.32	146.326
1455.49	144.061
1459.67	153.921
1463.84	167.469
1468.01	80.0815
1472.18	92.166
1476.35	63.6245
1480.51	145.058
1484.67	108.732
1488.83	120.9
1492.98	118.315
1497.13	27.0474
1501.28	60.5635
1505.43	0.782715
1509.57	98.9746
1513.71	71.9639
1517.85	94.2324
1521.99	60.749
1526.12	96.2856
1530.25	26.123
1534.38	87.7319
1538.5	72.3115
1542.62	56.6304
1546.74	23.1597
1550.86	106.371
1554.98	90.8574
1559.09	75.8628
1563.2	58.3018
1567.31	0.033691
