Measurement: Raman, 514 nm, ccw, Raman Data Processed
Mineral: Enstatite
Rruff sample: R040093
Ideal chemistry: MgSiO_3_
Locality: Castle Rock, Pennsylvania, USA
Source: University of Arizona Mineral Museum
Description: Dark green massive
Measured chemistry: (Mg_0.84_Fe_0.15_Al_0.01_)Si_1.00_O_3_
Pin_id: L00172
Orientation: Laser parallel to -c* (0 0 -1). Fiducial mark perpendicular to laser is parallel to a [1 0 0]
Raman shift (cm-1)	intensity
109.268	0
114.212	622.763
119.152	1040.7
124.09	174.618
129.026	116.294
133.958	315.659
138.888	1176.55
143.815	2270.09
148.739	3184.2
153.661	2645.61
158.58	1745.39
163.496	1631.54
168.409	1402.97
173.32	1293.07
178.228	1469.7
183.133	2449.39
188.035	4780.9
192.935	5819.81
197.832	3476.58
202.727	2089.01
207.618	1323.97
212.507	1011.64
217.393	885.82
222.277	1679.54
227.157	3927.86
232.035	8874.66
236.911	12664.5
241.783	5850.96
246.653	1345.07
251.52	348.846
256.385	566.652
261.246	113.554
266.105	277.786
270.962	155.241
275.815	55.0347
280.666	386.654
285.514	941.189
290.36	2223.31
295.203	4286.92
300.043	5187.62
304.88	4331.32
309.715	6083.83
314.547	10217.1
319.376	15056.4
324.203	14694.1
329.027	19718.4
333.848	36337.5
338.667	61275.1
343.482	58454.7
348.296	30600.2
353.106	15276.4
357.914	9901.22
362.719	7814.74
367.521	7632.77
372.321	9131.31
377.118	11937.3
381.912	13599.8
386.704	16334.8
391.493	25353.3
396.279	37085.2
401.063	40171.5
405.844	32962.2
410.622	24642.8
415.398	18092.1
420.171	12587.3
424.941	7535.49
429.709	4130.7
434.473	2780.33
439.236	2010.39
443.995	1195.86
448.752	452.747
453.506	514.033
458.258	358.715
463.007	304.285
467.753	109.025
472.497	156.733
477.238	132.66
481.976	65.2812
486.712	65.2285
491.445	25.8398
496.175	27.8208
500.902	261.016
505.627	625.578
510.35	1679.11
515.069	4025.77
519.786	8144.36
524.501	11360.8
529.213	9094.75
533.922	8179.01
538.628	9697.44
543.332	7889.06
548.033	8095.89
552.731	6439.72
557.427	3306.85
562.121	2080.66
566.811	1806.55
571.499	2037.44
576.184	1828.31
580.867	1255.13
585.547	782.898
590.224	595.581
594.899	383.159
599.571	179.613
604.241	14.105
608.908	97.3618
613.572	46.6592
618.233	59.3242
622.892	124.172
627.549	273.166
632.202	563.802
636.853	1002.94
641.502	1819.75
646.148	3353.86
650.791	6806.85
655.432	14131.5
660.069	23848.7
664.705	22241.9
669.338	14824.7
673.968	15004.7
678.595	22097.9
683.22	27060.1
687.842	18567.3
692.462	8750.83
697.079	4405.68
701.694	2614.99
706.305	1697.49
710.915	1348.31
715.521	1045.45
720.125	819.915
724.727	674.702
729.325	689.814
733.922	630.256
738.515	561.03
743.106	521.886
747.695	520.605
752.28	497.518
756.864	286.51
761.444	210.112
766.022	100.637
770.598	29.6289
775.17	40.6724
779.741	29.5664
784.308	108.294
788.873	170.046
793.436	74.9717
797.996	55.7222
802.553	55.9815
807.108	47.7544
811.66	39.02
816.209	82.8769
820.756	75.3193
825.301	18.46
829.842	42.3374
834.382	41.9878
838.918	148.461
843.452	382.795
847.984	867.024
852.513	1839.18
857.039	3117.3
861.563	3177.41
866.084	2169.55
870.603	1248.74
875.119	651.023
879.632	476.457
884.143	370.279
888.651	399.74
893.157	407.789
897.66	474.198
902.161	503.916
906.659	660.662
911.154	948.134
915.647	1781.35
920.138	3599.47
924.626	7051.99
929.111	9695.98
933.594	9795.21
938.074	9546.84
942.551	8040.43
947.026	5445.55
951.499	3471.61
955.969	2246.25
960.436	1824.38
964.901	1401.73
969.363	1302.42
973.823	1240.42
978.28	1617.84
982.735	2354.26
987.187	3756.84
991.637	6640.39
996.084	12238.9
1000.53	22642.4
1004.97	39035.7
1009.41	54460.9
1013.85	52312
1018.28	52234.1
1022.71	54773.2
1027.14	55124
1031.57	50484.5
1035.99	38096.9
1040.41	25697.4
1044.83	16518.8
1049.25	10597.8
1053.66	7303.08
1058.08	4914.09
1062.48	3233.13
1066.89	2189.03
1071.3	1529.67
1075.7	1264.96
1080.1	1084.01
1084.49	1205.33
1088.89	1567.63
1093.28	2011.28
1097.67	1596.68
1102.05	1113.21
1106.44	653.782
1110.82	423.28
1115.2	344.358
1119.57	266.076
1123.95	298.933
1128.32	340.722
1132.69	184.793
1137.05	232.502
1141.42	167.844
1145.78	216.208
1150.14	176.728
1154.49	71.0688
1158.85	10.2671
1163.2	47.3057
1167.55	123.269
1171.89	62.2944
1176.24	61.0073
1180.58	117.429
1184.92	79.6523
1189.25	24.2612
1193.59	101.669
1197.92	68.1733
1202.25	78.7617
1206.57	139.808
1210.9	138.668
1215.22	34.7622
1219.54	120.353
1223.85	41.2319
1228.17	68.9062
1232.48	12.1992
1236.79	177.886
1241.09	57.2031
1245.4	94.4961
1249.7	63.7017
1254	61.0547
1258.29	121.594
1262.59	169.375
1266.88	180.62
1271.17	202.122
1275.45	102.921
1279.74	287.992
1284.02	225.087
1288.3	336.829
1292.58	369.914
1296.85	242.348
1301.12	422.996
1305.39	261.115
1309.66	440.314
1313.92	346.926
1318.18	358.937
1322.44	237.678
1326.7	229.805
1330.95	279.624
1335.2	209.64
1339.45	145.043
1343.7	256.309
1347.95	285.81
1352.19	282.314
1356.43	179.301
1360.66	282.79
1364.9	244.68
1369.13	245.1
1373.36	147.467
1377.59	125.14
1381.81	169.178
1386.04	130.629
1390.26	138.703
1394.47	204.427
1398.69	162.119
1402.9	190.047
1407.11	259.997
1411.32	222.582
1415.53	182.336
1419.73	179.969
1423.93	69.3481
1428.13	124.676
1432.32	72.9565
1436.52	153.339
1440.71	205.839
1444.89	240.227
1449.08	209.854
1453.26	132.555
1457.44	137.004
1461.62	220.133
1465.8	169.997
1469.97	63.0523
1474.14	72.5273
1478.31	123.637
1482.48	50.373
1486.64	29.3271
1490.81	54.376
1494.96	27.6387
1499.12	73.0391
1503.28	46.5884
1507.43	61.3467
1511.58	56.3496
1515.72	25.6167
1519.87	72.0967
1524.01	89.2481
1528.15	81.959
1532.29	95.8486
1536.42	73.6709
1540.55	66.1367
1544.68	146.312
1548.81	119.434
1552.94	219.691
1557.06	43.6294
1561.18	59.3848
1565.3	243.053
1569.41	121.909
1573.53	157.478
1577.64	56.4898
