Measurement: Raman, 514 nm, depolarized, Raman Data Processed
Mineral: Enstatite
Rruff sample: R060744
Ideal chemistry: MgSiO_3_
Locality: Orissa, India
Source: Herb Obodda
Description: Brown transparent fragment
Measured chemistry: (Mg_0.85_Fe^2+^_0.13_Fe^3+^_0.01_Mn_0.01_)_Σ=1_(Si_0.99_Al_0.01_)_Σ=1_O_3_; trace amounts of Ca; Fe^2+^ and Fe^3+^ splitted by charge balance
Pin_id: L01127
Orientation: Laser parallel to -b* (0 -1 0). Fiducial mark perpendicular to laser is parallel to -c [0 0 -1]
Raman shift (cm-1)	intensity
113.208	0
118.134	929.188
123.058	3549.39
127.979	7516.78
132.898	4626.46
137.814	2282.16
142.728	1889.99
147.639	1461.84
152.549	643.321
157.455	250.19
162.359	127.901
167.261	38.6567
172.161	151.104
177.058	121.383
181.952	15.9829
186.845	116.715
191.734	48.2549
196.622	114.893
201.507	215.17
206.389	3.43359
211.269	11.3525
216.147	214.512
221.022	688.206
225.895	2117.05
230.765	4421.55
235.633	4509.94
240.498	1722.5
245.361	361.385
250.222	313.509
255.08	367.854
259.936	422.93
264.789	528.506
269.64	891.018
274.488	560.98
279.334	83.0596
284.178	144.285
289.019	612.207
293.857	1002.59
298.693	1008.45
303.527	894.995
308.358	1236.9
313.187	2361.26
318.013	3553.39
322.837	4925.97
327.659	8604.65
332.478	15498.2
337.294	21738.4
342.108	16724.4
346.92	8621.28
351.729	4532.74
356.535	2824.87
361.34	1974.38
366.141	1649.37
370.94	1785.86
375.737	2294.84
380.531	1990.89
385.323	1648.95
390.113	2111.98
394.9	2852.98
399.684	2964.93
404.466	2526.84
409.245	2333.74
414.022	1760.54
418.797	1086.19
423.569	805.717
428.338	882.122
433.105	1498.42
437.87	1952.67
442.632	883.898
447.391	320.092
452.149	437.242
456.903	289.367
461.655	298.664
466.405	317.356
471.152	160.381
475.897	10.4058
480.639	47.8081
485.378	48.4946
490.116	41.6851
494.85	154.932
499.582	246.509
504.312	31.5649
509.039	46.9419
513.764	273.752
518.486	448.682
523.206	569.879
527.923	965.079
532.638	1592.21
537.35	1807.29
542.059	1338.24
546.766	1031.07
551.471	732.746
556.173	465.285
560.873	328.698
565.57	475.998
570.264	522.155
574.957	605.17
579.646	518.613
584.333	379.783
589.018	336.382
593.7	426.847
598.379	403.176
603.056	371.371
607.73	464.427
612.402	533.338
617.072	530.379
621.739	816.693
626.403	930.372
631.065	1226.23
635.724	1684.47
640.381	2617.5
645.035	4242.81
649.687	8385.93
654.336	16664.1
658.983	24309
663.627	20553
668.268	16004.7
672.907	20994.3
677.544	32430.5
682.178	34352.6
686.809	20406.8
691.438	9422.2
696.065	4968.65
700.688	2868.67
705.31	2040
709.929	1321.37
714.545	1049.8
719.158	789.271
723.77	565.813
728.378	490.429
732.984	350.127
737.588	338.917
742.189	166.806
746.787	426.806
751.383	168.924
755.976	38.1875
760.567	118.685
765.155	108.501
769.741	95.6875
774.324	5.49121
778.904	161.899
783.482	94.9062
788.058	82.3027
792.631	128.297
797.201	67.417
801.769	30.0215
806.334	69.6123
810.897	17.8242
815.457	36.3994
820.014	37.1953
824.569	49.2188
829.122	7.47168
833.671	94.1094
838.219	87.9541
842.763	274.072
847.306	289.522
851.845	880.311
856.382	1293.45
860.917	1006.93
865.448	940.782
869.978	390.994
874.505	363.576
879.029	277.551
883.55	176.909
888.069	181.679
892.586	196.881
897.1	157.475
901.611	88.4727
906.12	288.162
910.626	174.192
915.129	375.108
919.63	679.416
924.129	1154.21
928.625	1881.01
933.118	2623.15
937.609	2937.41
942.097	2523.82
946.582	1669.23
951.065	1321.2
955.546	943.856
960.023	907.951
964.499	977.317
968.971	879.58
973.441	1116.77
977.909	1407.12
982.374	2033.9
986.836	3390.19
991.295	6043.88
995.753	12106
1000.21	24817.4
1004.66	45698.2
1009.11	50303.8
1013.55	31245.9
1018	18910.9
1022.44	13550.1
1026.88	10640
1031.32	7983.34
1035.75	5447.06
1040.18	3706.14
1044.61	2471.63
1049.04	1710.43
1053.46	1163.56
1057.88	771.043
1062.3	488.137
1066.71	417.406
1071.13	305.917
1075.54	303.54
1079.94	211.355
1084.35	361.502
1088.75	231.887
1093.15	220.513
1097.55	197.619
1101.94	282.772
1106.34	188.047
1110.73	130.643
1115.11	183.043
1119.5	391.499
1123.88	452.087
1128.26	156.243
1132.63	259.86
1137.01	228.728
1141.38	1.2666
1145.75	211.606
1150.12	20.2734
1154.48	31.6113
1158.84	82.3066
1163.2	108.494
1167.55	128.963
1171.91	99.3281
1176.26	36.0781
1180.61	95.3457
1184.95	44.415
1189.29	184.778
1193.63	8.40234
1197.97	43.001
1202.31	51.9766
1206.64	12.2568
1210.97	11.1934
1215.29	45.6963
1219.62	22.5684
1223.94	49.4736
1228.26	57.2627
1232.57	33.542
1236.89	96.6504
1241.2	1.02246
1245.51	35.2627
1249.81	61.041
1254.12	194.983
1258.42	151.976
1262.72	277.5
1267.01	172.881
1271.3	129.57
1275.59	273.524
1279.88	130.681
1284.17	235.32
1288.45	212.993
1292.73	143.308
1297.01	273.923
1301.28	130.69
1305.55	145.072
1309.82	200.938
1314.09	220.303
1318.35	186.349
1322.61	226.573
1326.87	169.929
1331.13	161.967
1335.38	162.755
1339.63	179.508
1343.88	257.026
1348.12	261.586
1352.37	227.061
1356.61	215.19
1360.85	21.8359
1365.08	206.715
1369.31	70.2529
1373.54	1.23438
1377.77	261.839
1381.99	69.1943
1386.22	204.495
1390.43	19.1191
1394.65	68.5186
1398.87	155.762
1403.08	142.716
1407.29	71.9268
1411.49	61.4844
1415.69	186.731
1419.89	101.402
1424.09	157.77
1428.29	76.2373
1432.48	113.174
1436.67	111.255
1440.86	124.44
1445.04	50.3438
1449.23	238.904
1453.4	60.9951
1457.58	264.042
1461.76	55.5889
1465.93	299.86
1470.1	165.708
1474.26	187.338
1478.43	80.958
1482.59	340.833
1486.75	359.293
1490.9	155.801
1495.06	261.872
1499.21	246.293
1503.35	328.81
1507.5	215.606
1511.64	142.594
1515.78	111.193
1519.92	112.449
1524.05	118.356
1528.18	153.023
1532.31	3.4707
1536.44	189.036
1540.56	137.782
1544.69	129.084
1548.8	132.325
1552.92	420.921
1557.03	23.8887
1561.14	168.362
1565.25	146.793
1569.36	234.395
