Measurement: Raman, 514 nm, depolarized, Raman Data Processed
Mineral: Enstatite
Rruff sample: R050644
Ideal chemistry: MgSiO_3_
Locality: Morogoro, Tanzania
Source: Jibamitra Ganguly
Description: Light brown crystal fragment
Measured chemistry: (Mg_0.90_Fe_0.10_)SiO_3_
Pin_id: L01041
Orientation: Laser parallel to -a* (-1 0 0). Fiducial mark perpendicular to laser is parallel to -b [0 -1 0]
Raman shift (cm-1)	intensity
113.208	0
118.134	122.626
123.058	1824
127.979	6762.92
132.898	5697.68
137.814	5013.57
142.728	4822.16
147.639	2366.35
152.549	974.705
157.455	508.473
162.359	353.688
167.261	141.041
172.161	98.3106
177.058	150.33
181.952	282.998
186.845	1185.21
191.734	1490.15
196.622	807.668
201.507	716.816
206.389	257.707
211.269	66.2383
216.147	121.133
221.022	430.951
225.895	1419.07
230.765	3789.43
235.633	4563.26
240.498	2339.31
245.361	696.676
250.222	37.2754
255.08	17.0879
259.936	95.6231
264.789	133.178
269.64	8.23828
274.488	173.315
279.334	210.297
284.178	143.096
289.019	473.389
293.857	946.488
298.693	1217.98
303.527	1064.95
308.358	1061.87
313.187	1521.22
318.013	2521.7
322.837	2987.89
327.659	5429.94
332.478	11866.9
337.294	20507.2
342.108	16864.4
346.92	8292.81
351.729	4326.16
356.535	3051.41
361.34	1922.2
366.141	1839.53
370.94	2128.95
375.737	2904.43
380.531	3005.95
385.323	3069.48
390.113	5099
394.9	7421.19
399.684	7628.29
404.466	6168.78
409.245	5366.85
414.022	5137.01
418.797	3966.26
423.569	2261.79
428.338	1190.14
433.105	1185.95
437.87	1810.71
442.632	1314.4
447.391	394.027
452.149	184.58
456.903	77.3867
461.655	235.359
466.405	201.449
471.152	119.787
475.897	174.977
480.639	192.852
485.378	22.457
490.116	203.051
494.85	81.5215
499.582	34.3184
504.312	191.947
509.039	651.607
513.764	1384.48
518.486	1819.38
523.206	2432.58
527.923	1605.74
532.638	1667.85
537.35	1944.19
542.059	1849.8
546.766	1515.63
551.471	1070.89
556.173	366.568
560.873	201.57
565.57	264.719
570.264	504.803
574.957	679.746
579.646	341.537
584.333	126.176
589.018	90.6582
593.7	198.977
598.379	100.277
603.056	39.3945
607.73	163.898
612.402	146.248
617.072	90.7188
621.739	494.166
626.403	664.584
631.065	815.279
635.724	1045.69
640.381	1291.73
645.035	1865.51
649.687	3373.93
654.336	6767.32
658.983	11052.6
663.627	9911.93
668.268	6604.03
672.907	6985.78
677.544	10522.2
682.178	13479.5
686.809	8961.17
691.438	4252.04
696.065	2328.36
700.688	1126.8
705.31	826.656
709.929	626.021
714.545	528.035
719.158	502.701
723.77	483.018
728.378	605.988
732.984	373.613
737.588	431.57
742.189	467.301
746.787	965.104
751.383	744.164
755.976	360.098
760.567	163.91
765.155	16.5781
769.741	280.438
774.324	225.375
778.904	40.9727
783.482	23.9219
788.058	192.992
792.631	119.375
797.201	64.9141
801.769	134.848
806.334	91.2656
810.897	138.758
815.457	65.2344
820.014	144.793
824.569	101.039
829.122	63.5742
833.671	92.3672
838.219	237.262
842.763	587.93
847.306	482.367
851.845	1433.61
856.382	1427.66
860.917	1155.61
865.448	489.438
869.978	352.09
874.505	622.57
879.029	84.6641
883.55	9.98828
888.069	252.023
892.586	223.168
897.1	197.223
901.611	208.715
906.12	238.035
910.626	244.789
915.129	607.578
919.63	1141.02
924.129	1695.07
928.625	1874.81
933.118	1678.49
937.609	1741.86
942.097	935.731
946.582	917.348
951.065	432.32
955.546	482.125
960.023	196.027
964.499	67.4297
968.971	425.328
973.441	117.309
977.909	564.703
982.374	591.547
986.836	795.098
991.295	1313.54
995.753	2285.64
1000.21	4144.66
1004.66	7605.13
1009.11	10606
1013.55	10128.8
1018	10414.3
1022.44	11844.8
1026.88	13596
1031.32	12827.8
1035.75	9765.73
1040.18	5963.27
1044.61	3455.19
1049.04	2221.52
1053.46	1941.71
1057.88	1329.82
1062.3	627.816
1066.71	878.07
1071.13	550.598
1075.54	353.344
1079.94	442.305
1084.35	924.648
1088.75	451.875
1093.15	290.762
1097.55	226.727
1101.94	169.324
1106.34	721.793
1110.73	251.215
1115.11	346.719
1119.5	151.18
1123.88	80.7188
1128.26	38.2031
1132.63	421.152
1137.01	76.0391
1141.38	472.59
1145.75	179.356
1150.12	329.367
1154.48	271.5
1158.84	142.656
1163.2	282.144
1167.55	417.164
1171.91	157.062
1176.26	373.75
1180.61	3.65234
1184.95	71.3984
1189.29	135.144
1193.63	23.5469
1197.97	163.191
1202.31	310.602
1206.64	106.629
1210.97	128.07
1215.29	396.348
1219.62	206.723
1223.94	214.949
1228.26	106.516
1232.57	131.324
1236.89	18.9336
1241.2	341.379
1245.51	14.6328
1249.81	268.711
1254.12	157.981
1258.42	270.988
1262.72	525.305
1267.01	151.262
1271.3	199.078
1275.59	143.312
1279.88	439.039
1284.17	43.3047
1288.45	322.773
1292.73	97.3008
1297.01	97.8359
1301.28	174.758
1305.55	175.363
1309.82	485.731
1314.09	155.898
1318.35	478.844
1322.61	230.68
1326.87	278.297
1331.13	385.848
1335.38	669.59
1339.63	35.2656
1343.88	263.211
1348.12	132.598
1352.37	197.184
1356.61	349.082
1360.85	375.66
1365.08	303.938
1369.31	523.254
1373.54	13.0352
1377.77	209.223
1381.99	407.719
1386.22	344.879
1390.43	257.543
1394.65	389.453
1398.87	247.195
1403.08	630.684
1407.29	216.144
1411.49	335
1415.69	328.684
1419.89	242.996
1424.09	639.519
1428.29	330.449
1432.48	255.539
1436.67	659.363
1440.86	405.012
1445.04	734.195
1449.23	472.129
1453.4	686.762
1457.58	277.117
1461.76	426.883
1465.93	594.988
1470.1	477.203
1474.26	255.406
1478.43	258.504
1482.59	344.867
1486.75	556.363
1490.9	413.309
1495.06	605.469
1499.21	337.844
1503.35	613.781
1507.5	291.914
1511.64	227.375
1515.78	435.84
1519.92	649.273
1524.05	406.617
1528.18	324.867
1532.31	462.871
1536.44	230.887
1540.56	426.945
1544.69	214.277
1548.8	197.621
1552.92	6.78125
1557.03	372.941
1561.14	224.781
1565.25	324.059
1569.36	157.215
