Measurement: Raman, 514 nm, ccw, Raman Data Processed
Mineral: Enstatite
Rruff sample: R040093
Ideal chemistry: MgSiO_3_
Locality: Castle Rock, Pennsylvania, USA
Source: University of Arizona Mineral Museum
Description: Dark green massive
Measured chemistry: (Mg_0.84_Fe_0.15_Al_0.01_)Si_1.00_O_3_
Pin_id: L00094
Orientation: Laser parallel to -b* (0 -1 0). Fiducial mark perpendicular to laser is parallel to c [0 0 1]
Raman shift (cm-1)	intensity
103.085	0
108.032	1150.86
112.976	305.363
117.917	1161.33
122.856	108.886
127.792	188.177
132.725	230.583
137.656	53.5029
142.583	533.386
147.508	751.96
152.431	539.215
157.35	951.36
162.267	1353.79
167.181	814.98
172.092	421.229
177.001	1094.16
181.907	1756.82
186.81	3027.02
191.711	4611.65
196.608	3770.49
201.503	1969.28
206.395	1615.19
211.285	1756.16
216.172	2931.88
221.056	4792.28
225.937	7502.77
230.816	11021.9
235.692	15170.9
240.565	9647.4
245.436	2772.61
250.304	1422.89
255.169	1729
260.031	1002.4
264.891	1153.65
269.748	1964.72
274.602	2518.96
279.454	970.861
284.303	67.0615
289.149	795.856
293.992	2339.38
298.833	3007.93
303.671	2292.78
308.507	2490.71
313.339	4581.7
318.169	7926.66
322.996	10349.5
327.821	13152.1
332.643	20245.5
337.462	31849.7
342.279	34908.4
347.092	21269.2
351.904	10380.3
356.712	5944.33
361.518	4306.47
366.321	3484.77
371.121	3642.69
375.919	4565.89
380.714	5337.27
385.506	4769.8
390.296	3809.45
395.083	3580.22
399.867	2789.33
404.649	2339.79
409.428	2032.64
414.204	2035.9
418.978	1264.68
423.749	314.031
428.517	86.7031
433.282	44.6074
438.045	35.5312
442.806	117.766
447.563	207.643
452.318	536.383
457.07	433.174
461.82	451.988
466.567	487.801
471.311	716.584
476.053	220.318
480.792	152.978
485.528	20.5293
490.262	118.644
494.992	132.107
499.721	301.418
504.446	42.875
509.169	309.99
513.89	980.037
518.607	1579.57
523.322	1792.53
528.035	2500.89
532.745	3414.46
537.452	5242.09
542.156	4213.99
546.858	2698.77
551.557	2428.41
556.254	1732.73
560.947	1575.71
565.639	1581.59
570.327	2152.24
575.013	3000.33
579.697	2270.21
584.377	1304.24
589.055	1111.86
593.731	932.037
598.403	932.781
603.074	940.084
607.741	978.936
612.406	1049.32
617.068	1238.23
621.728	1570.67
626.385	2166.3
631.039	2931.75
635.691	3592.66
640.34	5264.47
644.987	8414.72
649.63	14689.5
654.272	27596.4
658.91	47861.5
663.546	56618.1
668.18	47163.4
672.81	49538.2
677.439	66936.9
682.064	85467
686.687	70130.6
691.307	35458.5
695.925	16594.5
700.54	9021.15
705.153	5670.75
709.763	4136.67
714.37	2838.02
718.974	2136.98
723.577	1510.71
728.176	1363.44
732.773	1094.73
737.367	1010.58
741.959	853.49
746.548	730.885
751.134	696.779
755.718	552.189
760.299	225.131
764.878	255.691
769.454	122.018
774.028	1.61914
778.598	84.7383
783.167	43.1387
787.732	21.2402
792.295	216.398
796.856	84.416
801.414	103.992
805.969	38.1426
810.522	34.2773
815.072	135.461
819.62	49.1953
824.165	36.6582
828.707	6.90625
833.247	86.6992
837.784	14.0312
842.319	77.4414
846.851	258.719
851.381	611.016
855.908	783.361
860.432	807.771
864.954	651.271
869.473	411.891
873.99	504.65
878.504	298.582
883.015	437.705
887.524	448.047
892.031	820.633
896.535	824.484
901.036	803.644
905.535	829.299
910.031	1324.43
914.524	1517.34
919.015	2525.85
923.504	3553.18
927.99	5242.59
932.473	7582.7
936.954	9370.51
941.432	8724.83
945.908	6469.25
950.381	4662.66
954.852	3595.73
959.32	3012.37
963.785	2760.04
968.248	2782.83
972.708	3055.63
977.166	3934.81
981.622	5276.01
986.074	7743.21
990.525	13082.4
994.972	24333.5
999.417	48968.6
1003.86	99498.6
1008.3	159029
1012.74	128794
1017.17	65937.2
1021.61	41754.3
1026.04	31798.2
1030.46	25873.8
1034.89	19843.7
1039.31	14505.4
1043.73	10701.6
1048.15	8354.93
1052.56	6886.06
1056.97	6116.79
1061.38	4548.8
1065.79	3349.82
1070.19	2335.59
1074.6	1707.78
1079	1424.93
1083.39	1148.36
1087.79	1155.81
1092.18	1174.97
1096.57	1082.11
1100.96	872.719
1105.34	710.307
1109.72	628.551
1114.1	528.188
1118.48	405.717
1122.85	425.072
1127.22	290.559
1131.6	289.4
1135.96	231.621
1140.33	408.727
1144.69	98.1758
1149.05	287.203
1153.4	215.4
1157.76	100.522
1162.11	15.1211
1166.46	55.7637
1170.81	94.3144
1175.15	185.619
1179.49	167.728
1183.83	200.143
1188.17	23.3691
1192.5	7.49414
1196.84	104.621
1201.16	122.184
1205.49	42.2363
1209.82	53.0039
1214.14	69.3848
1218.46	115.41
1222.77	86.9238
1227.09	71.7461
1231.4	40.1641
1235.71	104.451
1240.02	52.9199
1244.32	264.072
1248.62	84.8535
1252.92	114.309
1257.22	15.4863
1261.51	308.309
1265.81	177.094
1270.1	292.816
1274.38	334.481
1278.67	276.129
1282.95	257.766
1287.23	373.406
1291.51	444.082
1295.78	627.191
1300.05	389.365
1304.32	689.904
1308.59	594.314
1312.86	784.144
1317.12	336.685
1321.38	243.752
1325.63	335.143
1329.89	348.59
1334.14	343.047
1338.39	322.789
1342.64	413.809
1346.88	450.086
1351.13	628.398
1355.37	411.836
1359.61	548.84
1363.84	583.785
1368.07	393.283
1372.3	429.449
1376.53	197.486
1380.76	516.246
1384.98	432.144
1389.2	455.764
1393.42	390.894
1397.64	215.815
1401.85	347.432
1406.06	262.678
1410.27	273.185
1414.47	298.383
1418.68	376.102
1422.88	394.609
1427.08	443.508
1431.27	154.269
1435.47	198.424
1439.66	253.549
1443.85	223.516
1448.03	168.373
1452.22	247.859
1456.4	148.051
1460.58	353.545
1464.76	389.584
1468.93	330.928
1473.1	261.664
1477.27	363.844
1481.44	316.764
1485.6	209.4
1489.77	266.275
1493.92	188.383
1498.08	104.654
1502.24	228.793
1506.39	390.832
1510.54	74.9238
1514.69	126.353
1518.83	63.2305
1522.97	405.928
1527.12	241.482
1531.25	344.816
1535.39	215.898
1539.52	52.8105
1543.65	141.746
1547.78	91.9375
1551.91	272.66
1556.03	389.883
1560.15	173.81
1564.27	84.1172
1568.39	220.883
1572.5	254.955
1576.61	0.330078
