Measurement: Raman, 514 nm, depolarized, Raman Data Processed
Mineral: Enstatite
Rruff sample: R050644
Ideal chemistry: MgSiO_3_
Locality: Morogoro, Tanzania
Source: Jibamitra Ganguly
Description: Light brown crystal fragment
Measured chemistry: (Mg_0.90_Fe_0.10_)SiO_3_
Pin_id: L01052
Orientation: Laser parallel to b* (0 1 0). Fiducial mark perpendicular to laser is parallel to c [0 0 1]
Raman shift (cm-1)	intensity
113.208	0
118.134	530.493
123.058	4031.2
127.979	7147.26
132.898	6036.31
137.814	2641.44
142.728	1285.46
147.639	1324.6
152.549	855.531
157.455	490.219
162.359	188.732
167.261	89.3018
172.161	123.722
177.058	106.658
181.952	26.8301
186.845	99.4648
191.734	422.028
196.622	540.489
201.507	685.461
206.389	317.441
211.269	108.978
216.147	51.1631
221.022	482.167
225.895	1927.82
230.765	3730.24
235.633	4208.64
240.498	2741.5
245.361	440.873
250.222	271.716
255.08	286.004
259.936	486.471
264.789	458.768
269.64	769.195
274.488	665.606
279.334	576.725
284.178	164.933
289.019	505.131
293.857	935.287
298.693	1175.21
303.527	859.961
308.358	968.369
313.187	1714.14
318.013	2878.31
322.837	4446.05
327.659	7950.6
332.478	15244.5
337.294	20802.4
342.108	19054
346.92	10885.4
351.729	5108.57
356.535	2852.11
361.34	1882.95
366.141	1430.68
370.94	1573.34
375.737	1833.73
380.531	1836.35
385.323	1726.12
390.113	2194.02
394.9	3084.01
399.684	3275.1
404.466	3151.26
409.245	2992.4
414.022	2733.43
418.797	2199.34
423.569	1360.17
428.338	972.936
433.105	1537.68
437.87	2034.48
442.632	1644.39
447.391	898.393
452.149	531.475
456.903	401.769
461.655	333.487
466.405	341.858
471.152	198.79
475.897	109.989
480.639	51.3105
485.378	48.3428
490.116	69.7383
494.85	77.8545
499.582	147.845
504.312	96.8701
509.039	22.4336
513.764	148.525
518.486	407.634
523.206	550.667
527.923	895.732
532.638	1125.75
537.35	1400.67
542.059	1149.45
546.766	966.098
551.471	702.594
556.173	520.241
560.873	359.127
565.57	335.147
570.264	431.996
574.957	499.67
579.646	514.163
584.333	431.472
589.018	496.588
593.7	520.505
598.379	405.218
603.056	430.716
607.73	401.984
612.402	489.045
617.072	672.829
621.739	960.485
626.403	1432.01
631.065	1562.29
635.724	1779.33
640.381	2451.56
645.035	4283.21
649.687	7596.32
654.336	14702.7
658.983	21371.7
663.627	20370.2
668.268	15693.3
672.907	17213.3
677.544	26406.4
682.178	30979.1
686.809	23402.2
691.438	11596.8
696.065	5357.51
700.688	2935.93
705.31	1813.13
709.929	1244.1
714.545	797.848
719.158	736.374
723.77	475.685
728.378	388.787
732.984	257.684
737.588	305.671
742.189	297.885
746.787	58.206
751.383	84.3447
755.976	180.688
760.567	31.5898
765.155	25.3555
769.741	173.787
774.324	126.023
778.904	84.6748
783.482	53.3086
788.058	59.7949
792.631	6.10156
797.201	10.6621
801.769	63.7881
806.334	39.2598
810.897	45.8135
815.457	125.975
820.014	124.742
824.569	150.496
829.122	0.766602
833.671	271.975
838.219	354.751
842.763	462.571
847.306	923.445
851.845	1818.39
856.382	2106.4
860.917	1609.5
865.448	1078.7
869.978	708.006
874.505	494.426
879.029	437.039
883.55	312.751
888.069	237.655
892.586	311.588
897.1	326.527
901.611	340.979
906.12	98.7764
910.626	289.925
915.129	355.158
919.63	524.723
924.129	863.067
928.625	1824.62
933.118	2660.11
937.609	2652.07
942.097	1953.87
946.582	1293.51
951.065	898.39
955.546	652.283
960.023	570.448
964.499	468.94
968.971	589.626
973.441	730.684
977.909	1155.06
982.374	1404.74
986.836	2281.75
991.295	3922.09
995.753	7526.74
1000.21	16107.8
1004.66	33080.1
1009.11	44196.2
1013.55	33448.1
1018	18893.7
1022.44	14134.5
1026.88	12691.4
1031.32	10697
1035.75	7373.55
1040.18	4367.56
1044.61	2696.82
1049.04	1671.72
1053.46	972.879
1057.88	674.186
1062.3	444.552
1066.71	375.493
1071.13	325.907
1075.54	445.402
1079.94	310.544
1084.35	326.785
1088.75	226.63
1093.15	228.701
1097.55	128.065
1101.94	66.9102
1106.34	195.846
1110.73	123.636
1115.11	205.863
1119.5	258.576
1123.88	208.601
1128.26	58.5205
1132.63	111.078
1137.01	210.519
1141.38	65.8281
1145.75	25.9336
1150.12	56.9004
1154.48	53.7041
1158.84	110.384
1163.2	48.1367
1167.55	168.767
1171.91	161.002
1176.26	195.754
1180.61	48.2744
1184.95	116.55
1189.29	118.43
1193.63	154.195
1197.97	41.9717
1202.31	19.4434
1206.64	36.668
1210.97	6.71484
1215.29	90.6465
1219.62	84.0596
1223.94	87.4258
1228.26	51.9619
1232.57	125.72
1236.89	238.399
1241.2	155.148
1245.51	220.859
1249.81	71.2305
1254.12	219.228
1258.42	260.877
1262.72	374.703
1267.01	289.678
1271.3	397.961
1275.59	428.275
1279.88	297.746
1284.17	444.117
1288.45	403.5
1292.73	505.383
1297.01	387.137
1301.28	263.594
1305.55	485.902
1309.82	397.611
1314.09	520.809
1318.35	603.221
1322.61	550.035
1326.87	265.539
1331.13	328.951
1335.38	226.816
1339.63	105.006
1343.88	128.654
1348.12	178.16
1352.37	96.3633
1356.61	127.859
1360.85	88.5332
1365.08	148.633
1369.31	233.533
1373.54	165.848
1377.77	192.041
1381.99	261.75
1386.22	310.945
1390.43	193.361
1394.65	239.809
1398.87	55.209
1403.08	211.623
1407.29	235.051
1411.49	24.4785
1415.69	651.99
1419.89	625.637
1424.09	824.398
1428.29	274.453
1432.48	300.715
1436.67	375.795
1440.86	861.727
1445.04	1098
1449.23	1041.29
1453.4	1211.34
1457.58	1203.9
1461.76	874.811
1465.93	610.785
1470.1	618.305
1474.26	553.943
1478.43	386.781
1482.59	464.598
1486.75	442.977
1490.9	211.033
1495.06	349.24
1499.21	134.459
1503.35	126.871
1507.5	154.471
1511.64	337.293
1515.78	2.41406
1519.92	211.447
1524.05	240.654
1528.18	158.318
1532.31	353.924
1536.44	46.2109
1540.56	106.772
1544.69	102.863
1548.8	90.7812
1552.92	144.941
1557.03	224.353
1561.14	186.816
1565.25	129.133
1569.36	178.248
