Measurement: Raman, 514 nm, depolarized, Raman Data Processed
Mineral: Enstatite
Rruff sample: R040094
Ideal chemistry: MgSiO_3_
Locality: unknown
Source: University of Arizona Mineral Museum
Description: Dark green massive, associated with anthophyllite
Measured chemistry: (Mg_0.84_Fe_0.15_)(Si_0.99_Al_0.01_)O_3_; = Enstatite :  [box](Mg_0.83_Fe_0.14_Na_0.01_Ca_0.01_)_7_(Si_0.99_Al_0.01_)_8_O_22_(OH)_2_ = Anthophyllite
Pin_id: M00384
Orientation: Laser parallel to c* (0 0 1). Fiducial mark perpendicular to laser is parallel to a [1 0 0]
Raman shift (cm-1)	intensity
117.772	0
121.94	97.833
126.106	2.683
130.27	36.685
134.432	78.484
138.592	143.043
142.75	242.975
146.905	389.701
151.059	466.436
155.21	268.835
159.359	240.399
163.506	192.783
167.651	161.324
171.794	55.301
175.935	109.949
180.074	87.611
184.21	222.981
188.344	462.392
192.477	744.728
196.607	985.776
200.735	670.548
204.861	524.701
208.985	411.393
213.107	263.283
217.227	266.443
221.344	463.887
225.46	583.622
229.573	927.794
233.685	1668.89
237.794	2846.34
241.901	2452.72
246.006	992.007
250.109	312.207
254.21	296.324
258.309	186.359
262.406	102.313
266.5	50.186
270.593	97.025
274.684	64.677
278.772	119.549
282.858	2.975
286.943	96.756
291.025	61.29
295.105	394.961
299.183	605
303.259	625.263
307.333	380.53
311.405	426.219
315.475	857.106
319.543	1567.01
323.609	1941.69
327.673	1786.52
331.734	2218.78
335.794	3569.3
339.852	6322.87
343.907	8166.53
347.961	6387.75
352.012	3557.82
356.061	2059.71
360.109	1418.95
364.154	1113.05
368.197	1050.07
372.239	1047.06
376.278	1268.02
380.315	1658.95
384.35	1867.84
388.383	1728.68
392.414	1941.47
396.443	2535.19
400.471	2965.84
404.496	2910.43
408.519	2462.89
412.539	2127.3
416.558	1855.62
420.575	1410.86
424.59	1020.02
428.603	587.095
432.614	342.718
436.623	165.208
440.63	107.388
444.635	101.04
448.637	110.284
452.638	46.9
456.637	173.492
460.634	130.735
464.629	127.727
468.621	137.561
472.612	100.181
476.601	34.382
480.588	53.49
484.573	45.501
488.556	58.429
492.536	20.224
496.515	32.865
500.492	7.713
504.467	51.116
508.44	4.339
512.411	142.188
516.38	405.577
520.347	701.835
524.312	974.973
528.274	993.983
532.235	740.86
536.194	902.596
540.152	1216.19
544.107	946.638
548.06	777.938
552.011	877.089
555.96	628.088
559.907	267.935
563.852	273.625
567.796	381.16
571.737	549.552
575.676	848.803
579.614	900.893
583.549	529.088
587.482	428.092
591.414	249.227
595.343	201.182
599.271	73.806
603.197	13.358
607.12	74.149
611.042	55.39
614.962	36.237
618.88	44.2
622.796	163.756
626.71	104.454
630.622	257.997
634.532	227.72
638.44	460.955
642.346	594.451
646.25	872.38
650.152	1255.64
654.053	2243.24
657.951	4251.85
661.848	7061.67
665.742	7307.17
669.635	5498.02
673.526	5238.75
677.415	6860.4
681.302	9841.15
685.186	11741.9
689.07	8741.87
692.951	4561.52
696.83	2468.1
700.707	1534.37
704.582	1034.45
708.456	692.334
712.327	524.033
716.197	463.546
720.065	410.872
723.931	367.014
727.795	433.113
731.657	291.925
735.517	154.521
739.375	215.935
743.231	241.165
747.085	119.14
750.938	187.942
754.789	208.878
758.637	199.739
762.484	121.321
766.329	55.353
770.172	36.225
774.013	36.01
777.852	57.345
781.69	49.687
785.525	32.475
789.359	36.938
793.19	79.656
797.02	21.704
800.848	19.051
804.674	25.762
808.498	49.837
812.32	9.172
816.141	80.465
819.959	205.041
823.776	106.519
827.591	96.876
831.404	23.103
835.215	2.798
839.024	129.182
842.831	73.077
846.637	62.889
850.44	129.614
854.242	87.257
858.042	275.822
861.84	243.362
865.636	262.843
869.43	277.271
873.223	219.665
877.013	36.987
880.802	19.288
884.589	99.534
888.374	218.659
892.157	246.644
895.938	107.546
899.718	215.069
903.495	330.225
907.271	336.238
911.045	360.995
914.817	505.758
918.587	573.927
922.356	718.04
926.122	1203.13
929.887	1501.38
933.65	1744.9
937.411	1940.85
941.17	1937.97
944.928	1488.46
948.683	1323.9
952.437	1018.17
956.189	736.49
959.939	646.696
963.687	644.716
967.434	663.878
971.178	504.988
974.921	636.268
978.662	788.164
982.401	1098.75
986.139	1360.23
989.874	1852.34
993.608	2646.32
997.34	4618.94
1001.07	8041.57
1004.8	14584.4
1008.52	22850.4
1012.25	20424.6
1015.97	13007.7
1019.69	9953.77
1023.41	8497.25
1027.13	7810.57
1030.85	7017.56
1034.56	6041.6
1038.27	4665.8
1041.98	3680.33
1045.69	2764.86
1049.4	2001.66
1053.1	1760.06
1056.81	1445.06
1060.51	1159.94
1064.2	825.513
1067.9	770.587
1071.6	685.777
1075.29	501.107
1078.98	526.728
1082.68	312.453
1086.37	389.339
1090.05	425.335
1093.74	301.491
1097.42	337.821
1101.1	344.532
1104.78	331.225
1108.46	198.15
1112.14	265.235
1115.81	132.642
1119.48	79.931
1123.15	147.867
1126.82	205.355
1130.49	162.998
1134.16	279.971
1137.82	61.601
1141.48	193.101
1145.14	0.625
1148.8	58.288
1152.46	46.116
1156.11	133.892
1159.77	34.61
1163.42	146.716
1167.07	91.082
1170.72	35.451
1174.36	34.833
1178.01	13.317
1181.65	199.72
1185.29	19.725
1188.93	53.221
1192.57	81.638
1196.2	60.418
1199.84	87.084
1203.47	114.077
1207.1	40.952
1210.73	187.979
1214.36	134.378
1217.98	101.152
1221.61	277.501
1225.23	87.746
1228.85	44.306
1232.47	190.708
1236.09	176.9
1239.7	113.041
1243.31	208.98
1246.92	164.689
1250.53	250.32
1254.14	225.83
1257.75	81.087
1261.35	167.362
1264.96	82.194
1268.56	117.491
1272.16	234.44
1275.76	408.488
1279.35	221.786
1282.94	3.436
1286.54	276.307
1290.13	178.784
1293.72	134.161
1297.31	153.125
1300.89	1.821
1304.47	27.911
1308.06	93.186
1311.64	141.148
1315.22	90.281
1318.79	19.062
1322.37	15.935
1325.94	25.167
1329.52	73.988
1333.09	42.494
1336.65	71.551
1340.22	263.943
1343.79	91.803
1347.35	161.151
1350.91	123.967
1354.47	188.477
1358.03	151.937
1361.59	264.16
1365.14	77.256
1368.7	219.915
1372.25	152.619
1375.8	334.811
1379.35	366.059
1382.89	391.044
1386.44	385.547
1389.98	345.664
1393.52	445.553
1397.06	224.237
1400.6	22.615
1404.14	117.213
1407.67	13.09
1411.21	85.272
1414.74	339.03
1418.27	391.509
1421.8	254.885
1425.32	97.953
1428.85	230.739
1432.37	110.955
1435.89	100.315
1439.41	179.281
1442.93	166.948
1446.45	249.498
1449.96	74.769
1453.48	110.185
1456.99	176.699
1460.5	324.016
1464.01	240.255
1467.51	206.668
1471.02	274.805
1474.52	74.682
1478.02	106.666
1481.52	32.369
1485.02	54.797
