Measurement: Raman, 514 nm, depolarized, Raman Data Processed
Mineral: Enstatite
Rruff sample: R040093
Ideal chemistry: MgSiO_3_
Locality: Castle Rock, Pennsylvania, USA
Source: University of Arizona Mineral Museum
Description: Dark green massive
Measured chemistry: (Mg_0.84_Fe_0.15_Al_0.01_)Si_1.00_O_3_
Pin_id: L00094
Orientation: Laser parallel to -b* (0 -1 0). Fiducial mark perpendicular to laser is parallel to c [0 0 1]
Raman shift (cm-1)	intensity
103.085	0
108.032	1228.83
112.976	369.127
117.917	1748.55
122.856	5602.78
127.792	12714.7
132.725	16190
137.656	6993.85
142.583	2992.68
147.508	1707.15
152.431	465.682
157.35	1.91406
162.267	320.957
167.181	192.109
172.092	171.312
177.001	654.275
181.907	1403.36
186.81	1849.24
191.711	2740.97
196.608	2717.38
201.503	1192.11
206.395	566.385
211.285	784.324
216.172	1574.86
221.056	3167.83
225.937	5013.02
230.816	7381.3
235.692	9071.59
240.565	5034.57
245.436	685.644
250.304	93.3623
255.169	483.267
260.031	61.6582
264.891	136.388
269.748	423.638
274.602	651.646
279.454	87.2285
284.303	160.619
289.149	536.074
293.992	1586.09
298.833	2285.24
303.671	1960.2
308.507	2053.61
313.339	3495.5
318.169	5512.94
322.996	8506.74
327.821	13207.1
332.643	24050.5
337.462	40037.7
342.279	42863.2
347.092	26844.7
351.904	13370.7
356.712	8425.16
361.518	6116.33
366.321	5139.27
371.121	4970.38
375.919	5993.93
380.714	6880.74
385.506	5112.1
390.296	5959.92
395.083	7460.32
399.867	8240.99
404.649	7651.61
409.428	7100.62
414.204	6164.94
418.978	4724.99
423.749	3324.82
428.517	2776.91
433.282	3548.48
438.045	5065.74
442.806	4287.42
447.563	1975.55
452.318	1227.14
457.07	936.262
461.82	1007.93
466.567	1008.58
471.311	644.702
476.053	127.319
480.792	17.7646
485.528	23.9766
490.262	106.199
494.992	232.314
499.721	117.062
504.446	99.3672
509.169	252.769
513.89	725.937
518.607	1279.34
523.322	1820.02
528.035	2013.81
532.745	2949.7
537.452	4037.53
542.156	3034.61
546.858	2335.5
551.557	2083.93
556.254	1360.31
560.947	1007.54
565.639	794.542
570.327	1192.47
575.013	1417.01
579.697	1061.21
584.377	780.071
589.055	742.582
593.731	601.748
598.403	456.562
603.074	527.021
607.741	565.104
612.406	728.811
617.068	858.689
621.728	1135.88
626.385	1526.79
631.039	2274.81
635.691	3055.35
640.34	4542.27
644.987	7571.05
649.63	13419.2
654.272	25774
658.91	42907
663.546	49209.8
668.18	41482.9
672.81	44680.1
677.439	58068.9
682.064	69896.2
686.687	55118.4
691.307	27709.6
695.925	13249.6
700.54	7587.14
705.153	4836.73
709.763	3074.87
714.37	2478.52
718.974	1685.69
723.577	1301.76
728.176	1086.61
732.773	1114.38
737.367	800.688
741.959	769.156
746.548	572.984
751.134	593.986
755.718	601.586
760.299	329.951
764.878	208.275
769.454	130.504
774.028	75.7285
778.598	167.807
783.167	105.717
787.732	76.957
792.295	87.6758
796.856	59.9922
801.414	27.8867
805.969	109.986
810.522	6.77148
815.072	224.109
819.62	88.9707
824.165	25.6602
828.707	161.207
833.247	55.8457
837.784	10.1152
842.319	381.297
846.851	744.441
851.381	1589.57
855.908	3002.7
860.432	3313.87
864.954	2485.09
869.473	1549.4
873.99	801.801
878.504	344.326
883.015	403
887.524	478.84
892.031	524.869
896.535	701.104
901.036	581.225
905.535	826.559
910.031	900.656
914.524	1181.19
919.015	1605.06
923.504	2502.98
927.99	4052.71
932.473	5120.47
936.954	6100.04
941.432	5197.93
945.908	4040.33
950.381	3066.28
954.852	2359.58
959.32	1769.14
963.785	1734.76
968.248	1354.13
972.708	1843.52
977.166	2220.37
981.622	2983.95
986.074	4738.33
990.525	7643.65
994.972	14642.8
999.417	29207.6
1003.86	57503.1
1008.3	86973.3
1012.74	69683.2
1017.17	40337.7
1021.61	28375.2
1026.04	23066
1030.46	18993.4
1034.89	14363.7
1039.31	10248.8
1043.73	7199.03
1048.15	5986.23
1052.56	5016.33
1056.97	4435.73
1061.38	3705.9
1065.79	2729.3
1070.19	1943.31
1074.6	1474.67
1079	1162.05
1083.39	1111.22
1087.79	1319.66
1092.18	1778.33
1096.57	1635.06
1100.96	1218.54
1105.34	981.715
1109.72	677.316
1114.1	719.932
1118.48	496.967
1122.85	443.982
1127.22	321.435
1131.6	367.203
1135.96	390.344
1140.33	164.818
1144.69	397.711
1149.05	75.0156
1153.4	134.869
1157.76	193.707
1162.11	175.932
1166.46	132.34
1170.81	74.0703
1175.15	140.807
1179.49	100.531
1183.83	40.4746
1188.17	75.3984
1192.5	59.5645
1196.84	141.961
1201.16	147.359
1205.49	36.0215
1209.82	11.9258
1214.14	93.7246
1218.46	40.9316
1222.77	11.1582
1227.09	24.084
1231.4	63.5996
1235.71	67.0547
1240.02	73.7383
1244.32	22.834
1248.62	188.291
1252.92	84.0391
1257.22	227.635
1261.51	173.207
1265.81	396.785
1270.1	84.3769
1274.38	323.877
1278.67	437.455
1282.95	456.812
1287.23	445.522
1291.51	574.314
1295.78	284.879
1300.05	405.32
1304.32	396.416
1308.59	413.519
1312.86	314.789
1317.12	354.654
1321.38	306.234
1325.63	165.148
1329.89	388.986
1334.14	233.193
1338.39	404.869
1342.64	252.885
1346.88	183.547
1351.13	427.818
1355.37	481.266
1359.61	422.328
1363.84	481.684
1368.07	414.533
1372.3	314.172
1376.53	193.228
1380.76	390.178
1384.98	241.6
1389.2	283.322
1393.42	363.32
1397.64	237.356
1401.85	210.199
1406.06	222.848
1410.27	171.205
1414.47	224.051
1418.68	212.166
1422.88	279.158
1427.08	323.062
1431.27	276.006
1435.47	262.766
1439.66	201.352
1443.85	163.662
1448.03	322.938
1452.22	376.822
1456.4	193.44
1460.58	328.42
1464.76	275
1468.93	295.119
1473.1	202.111
1477.27	257.764
1481.44	304.262
1485.6	291.252
1489.77	204.59
1493.92	386.065
1498.08	78.8359
1502.24	153.893
1506.39	220.1
1510.54	258.957
1514.69	219.69
1518.83	293.75
1522.97	129.566
1527.12	337.498
1531.25	146.309
1535.39	412.078
1539.52	7.06836
1543.65	159.85
1547.78	269.975
1551.91	404.795
1556.03	155.93
1560.15	153.711
1564.27	211.551
1568.39	63.8359
1572.5	270.254
1576.61	358.291
