Measurement: Raman, 514 nm, depolarized, Raman Data Processed
Mineral: Enstatite
Rruff sample: R070418
Ideal chemistry: MgSiO_3_
Locality: India
Source: Michael Scott
Description: Brown translucent fragments
Measured chemistry: (Mg_0.86_Fe_0.14_)_Î£=1_Si_1.00_O_3_; trace amounts of Al, Ca, Mn
Pin_id: L00897
Orientation: Laser parallel to b* (0 1 0). Fiducial mark perpendicular to laser is parallel to c [0 0 1]
Raman shift (cm-1)	intensity
41.8	0
46.809	14.6905
51.816	69.2716
56.819	133.14
61.819	143.452
66.816	271.473
71.81	283.341
76.8	211.227
81.788	91.9479
86.772	19.7966
91.754	94.5832
96.732	51.1125
101.707	281.388
106.679	890.932
111.648	784.517
116.613	1599.13
121.576	3952.55
126.535	8352.17
131.492	8659.51
136.445	4826.26
141.395	3500.84
146.343	3066.51
151.287	2363.06
156.228	1819.66
161.166	1517.3
166.1	1464.96
171.032	1173.62
175.961	1150.26
180.887	1205.86
185.809	1441.38
190.729	1641.05
195.645	1626.51
200.559	1343.11
205.469	1104.85
210.376	888.277
215.281	925.803
220.182	1325.9
225.08	2312.46
229.976	4307.11
234.868	6566.78
239.757	4639.56
244.643	1548.73
249.527	796.673
254.407	717.318
259.284	760.341
264.158	619.699
269.029	888.351
273.898	945.266
278.763	568.42
283.625	442.799
288.485	622.392
293.341	1064.2
298.194	1413.22
303.045	1131.42
307.892	1093.69
312.736	1559.24
317.578	2705.8
322.417	4116.44
327.252	7101.11
332.085	13415.8
336.914	22460.8
341.741	24631
346.565	15089.8
351.386	7334.21
356.204	4335.3
361.019	2880.8
365.831	2129.16
370.64	2047.62
375.447	2453.01
380.25	2809.38
385.05	2645.94
389.848	2854.73
394.643	3619.45
399.434	4267.96
404.223	3917.24
409.009	3742.26
413.792	3258.01
418.573	2437.46
423.35	1335.58
428.124	1033.35
432.896	1385.76
437.665	2218.76
442.431	1828.34
447.194	796.48
451.954	487.146
456.711	367.318
461.465	307.356
466.217	300.63
470.966	166.253
475.712	25.7905
480.455	0.570557
485.195	83.1194
489.932	101.581
494.667	240.601
499.399	176.588
504.128	181.682
508.854	3.40674
513.577	332.465
518.297	793.988
523.015	1004.9
527.73	956.153
532.442	1284.69
537.151	2008.4
541.858	1671.27
546.561	1091.36
551.262	884.54
555.96	612.784
560.656	458.11
565.348	533.431
570.038	751.729
574.725	1096
579.409	904.187
584.091	598.312
588.769	376.347
593.445	412.277
598.119	245.084
602.789	166.75
607.457	207.242
612.122	256.567
616.784	381.653
621.443	517.019
626.1	627.735
630.754	914.395
635.405	1191.5
640.054	1884.8
644.7	3233.38
649.343	5968.9
653.983	11973.1
658.621	21713
663.256	24918.8
667.888	18049.8
672.518	17390.2
677.144	26417.8
681.769	36123.5
686.39	29278.4
691.009	14660.5
695.625	6820.75
700.238	3749.24
704.849	2412.45
709.457	1574.41
714.062	1130.09
718.665	843.504
723.265	672.556
727.863	520.537
732.457	392.158
737.049	474.52
741.639	328.241
746.225	437.932
750.81	319.46
755.391	282.831
759.97	115.043
764.546	16.051
769.12	43.8484
773.69	31.342
778.259	30.5779
782.824	23.6777
787.387	58.9846
791.948	41.7261
796.506	36.167
801.061	48.1929
805.613	17.7197
810.163	18.1265
814.711	35.8227
819.255	77.293
823.797	12.8271
828.337	53.8159
832.874	17.625
837.408	62.272
841.94	115.859
846.469	302.402
850.996	688.913
855.52	1326.4
860.041	1535.89
864.56	1191.38
869.077	820.892
873.59	441.435
878.101	285.03
882.61	231.691
887.116	164.422
891.62	231.235
896.121	293.139
900.619	295.288
905.115	299.659
909.608	227.65
914.099	343.965
918.587	559.915
923.073	921.03
927.556	1576.04
932.037	2404.41
936.515	3040.02
940.991	2947.34
945.464	2178
949.934	1540.86
954.403	1173.81
958.868	1034.85
963.331	845.126
967.792	805.425
972.25	947.566
976.705	1160.19
981.158	1609.18
985.609	2570.53
990.057	4177.33
994.503	7994.5
998.946	16045.1
1003.39	31894
1007.83	49589.4
1012.26	41231.1
1016.69	24652.1
1021.12	17475.5
1025.55	13814.2
1029.98	11442.2
1034.4	8599.63
1038.82	5816.45
1043.24	3832.84
1047.66	2389.81
1052.07	1652.83
1056.48	1297.75
1060.89	834.678
1065.3	578.923
1069.7	440.334
1074.1	383.676
1078.5	252.89
1082.9	261.018
1087.29	240.011
1091.68	171.16
1096.07	184.197
1100.46	182.96
1104.84	202.396
1109.23	110.304
1113.61	162.782
1117.98	332.655
1122.36	359.221
1126.73	359.089
1131.1	206.64
1135.47	256.317
1139.83	117.648
1144.19	150.723
1148.56	118.926
1152.91	40.1221
1157.27	61.8276
1161.62	93.6255
1165.97	115.643
1170.32	136.609
1174.67	103.835
1179.01	104.377
1183.35	21.9629
1187.69	18.0703
1192.03	71.8594
1196.36	78.7134
1200.7	31.6753
1205.03	10.7505
1209.35	1.27295
1213.68	16.5244
1218	6.38867
1222.32	49.1074
1226.64	32.3696
1230.95	93.3774
1235.27	52.8818
1239.58	54.7402
1243.89	83.2729
1248.19	19.4634
1252.5	159.833
1256.8	121.703
1261.1	34.1235
1265.4	63.0151
1269.69	129.364
1273.98	84.2978
1278.27	157.792
1282.56	186.898
1286.85	71.604
1291.13	228.094
1295.41	212.076
1299.69	158.59
1303.97	169.708
1308.24	127.534
1312.51	169.459
1316.78	155.401
1321.05	268.311
1325.31	137.424
1329.58	172.004
1333.84	231.978
1338.1	60.5112
1342.35	263.187
1346.61	152.072
1350.86	146.219
1355.11	188.324
1359.35	97.6035
1363.6	88.9477
1367.84	137.655
1372.08	39.7852
1376.32	187.155
1380.55	119.949
1384.79	183.13
1389.02	55.5381
1393.25	80.9614
1397.47	128.381
1401.7	91.3042
1405.92	80.4604
1410.14	107.515
1414.36	46.0112
1418.57	167.227
1422.79	159.589
1427	105.486
1431.21	13.9722
1435.41	163.809
1439.62	232.319
1443.82	129.932
1448.02	185.784
1452.22	203.965
1456.41	214.973
1460.61	150.558
1464.8	136.469
1468.99	170.26
1473.17	42.4644
1477.36	128.924
1481.54	94.7666
1485.72	169.737
1489.9	60.6836
1494.08	137.227
1498.25	204.116
1502.42	106.315
1506.59	32.8071
1510.76	10.2427
1514.93	122.108
1519.09	154.836
1523.25	78.96
1527.41	47.4932
1531.57	40.4175
1535.72	74.4473
1539.87	44.648
1544.02	156.111
1548.17	89.4912
1552.32	90.6226
1556.46	124.207
1560.6	50.1435
