Measurement: Raman, 514 nm, depolarized, Raman Data Processed
Mineral: Enstatite
Rruff sample: R040093
Ideal chemistry: MgSiO_3_
Locality: Castle Rock, Pennsylvania, USA
Source: University of Arizona Mineral Museum
Description: Dark green massive
Measured chemistry: (Mg_0.84_Fe_0.15_Al_0.01_)Si_1.00_O_3_
Pin_id: L00247
Orientation: Laser parallel to a* (1 0 0). Fiducial mark perpendicular to laser is parallel to -b [0 -1 0]
Raman shift (cm-1)	intensity
137.656	0
142.583	5.49902
147.508	76.8769
152.431	5.95606
157.35	5.10449
162.267	596.234
167.181	1933.57
172.092	4875.08
177.001	10640.7
181.907	18827
186.81	27050.7
191.711	27918.2
196.608	28196.5
201.503	30389.3
206.395	30218.8
211.285	25824.3
216.172	18058.5
221.056	14052.6
225.937	11444.6
230.816	8265.41
235.692	5361.72
240.565	2585.57
245.436	1464.67
250.304	1136.84
255.169	1859.76
260.031	2328.45
264.891	2679.86
269.748	1026.95
274.602	68.3525
279.454	68.1143
284.303	19.752
289.149	643.689
293.992	2867.44
298.833	6682.07
303.671	8134.88
308.507	4784.36
313.339	5042.54
318.169	12642.9
322.996	27452.3
327.821	32790.5
332.643	19756.7
337.462	14488.8
342.279	11115.4
347.092	6188.83
351.904	3647.54
356.712	2822.2
361.518	2921.11
366.321	3372.51
371.121	4015.39
375.919	5018.66
380.714	6482.24
385.506	8047.98
390.296	7744.78
395.083	7143.59
399.867	5532.4
404.649	4032.21
409.428	3267.99
414.204	2779.73
418.978	2171.4
423.749	2676.59
428.517	3633.59
433.282	3532.55
438.045	2106.97
442.806	1022.66
447.563	349.556
452.318	177.96
457.07	53.04
461.82	90.6035
466.567	101.57
471.311	75.0684
476.053	314.288
480.792	4.58984
485.528	161.666
490.262	62.6768
494.992	627.403
499.721	1148.85
504.446	1405.01
509.169	1210.86
513.89	1444.39
518.607	1859.59
523.322	2325.46
528.035	1919.16
532.745	2182.86
537.452	2589.57
542.156	2108.6
546.858	1700.89
551.557	1236.36
556.254	987.916
560.947	783.684
565.639	713.53
570.327	646.732
575.013	940.473
579.697	1043.81
584.377	627.14
589.055	212.933
593.731	4.88965
598.403	147.257
603.074	39.3848
607.741	33.4414
612.406	140.881
617.068	263.184
621.728	449.775
626.385	671.041
631.039	941.9
635.691	1493.21
640.34	2356.15
644.987	3632.71
649.63	5625.87
654.272	9586.65
658.91	17665.5
663.546	33989.3
668.18	66657.1
672.81	96212.7
677.439	71186.2
682.064	35419.3
686.687	18183.4
691.307	10385.1
695.925	6700.06
700.54	4638.16
705.153	3456.87
709.763	2665.95
714.37	2660.63
718.974	2422.68
723.577	2514.79
728.176	3068.78
732.773	4255.2
737.367	4704.42
741.959	3698.14
746.548	2634.92
751.134	1917.86
755.718	1428.97
760.299	1150.81
764.878	1124.74
769.454	900.654
774.028	1064.07
778.598	1421.91
783.167	1306.19
787.732	1041.32
792.295	570.137
796.856	168.791
801.414	17.873
805.969	39.0918
810.522	138.691
815.072	38.916
819.62	143.412
824.165	89.6738
828.707	170.398
833.247	63.8105
837.784	21.5625
842.319	93.2793
846.851	59.4609
851.381	78.1211
855.908	260.328
860.432	36.2656
864.954	241.938
869.473	203.459
873.99	69.9277
878.504	229.373
883.015	368.881
887.524	574.322
892.031	874.621
896.535	1178.76
901.036	1363.88
905.535	1166.24
910.031	1537.88
914.524	2504.55
919.015	4130.34
923.504	6319.22
927.99	6248.42
932.473	4117
936.954	2782.41
941.432	1953.69
945.908	1566.11
950.381	1018.43
954.852	1054.15
959.32	1154.59
963.785	1540.06
968.248	1793.23
972.708	2467.1
977.166	2864.16
981.622	2680.09
986.074	2840.95
990.525	3307.74
994.972	3635.75
999.417	4617.62
1003.86	6203.93
1008.3	7529.55
1012.74	7445.7
1017.17	7616.26
1021.61	8514.22
1026.04	9925.59
1030.46	13518.5
1034.89	22709
1039.31	35994.4
1043.73	32506.7
1048.15	16831.9
1052.56	8860.81
1056.97	5803.16
1061.38	4840.3
1065.79	5158.07
1070.19	5710.73
1074.6	7324.24
1079	12443.3
1083.39	22219.6
1087.79	41755.8
1092.18	62398.6
1096.57	56981.2
1100.96	34786.1
1105.34	19205.6
1109.72	10381
1114.1	5306.15
1118.48	2907.65
1122.85	2031.69
1127.22	1381.34
1131.6	940.398
1135.96	601.416
1140.33	346.014
1144.69	171.861
1149.05	223.943
1153.4	163.387
1157.76	95.3379
1162.11	169.828
1166.46	133.398
1170.81	61.4375
1175.15	1.60938
1179.49	34.9961
1183.83	71.8945
1188.17	115.133
1192.5	50.459
1196.84	69.7012
1201.16	109.207
1205.49	95.2285
1209.82	85.8242
1214.14	62.0488
1218.46	208.809
1222.77	11.9219
1227.09	217.318
1231.4	25.6348
1235.71	144.322
1240.02	144.4
1244.32	302.738
1248.62	162.41
1252.92	118.318
1257.22	115.037
1261.51	211.602
1265.81	254.475
1270.1	308.252
1274.38	220.211
1278.67	299.379
1282.95	156.06
1287.23	450.16
1291.51	427.629
1295.78	354.568
1300.05	375.602
1304.32	317.277
1308.59	404.006
1312.86	29.0332
1317.12	425.82
1321.38	270.49
1325.63	458.066
1329.89	538.887
1334.14	304.072
1338.39	288.365
1342.64	399.496
1346.88	333.691
1351.13	393.188
1355.37	482.512
1359.61	339.103
1363.84	298.902
1368.07	217.252
1372.3	464.461
1376.53	241.594
1380.76	7.51562
1384.98	329.193
1389.2	350.715
1393.42	220.783
1397.64	151.9
1401.85	30.9336
1406.06	154.215
1410.27	150.912
1414.47	121.338
1418.68	246.002
1422.88	343.873
1427.08	426.262
1431.27	155.984
1435.47	475.555
1439.66	832.283
1443.85	1046.61
1448.03	662.305
1452.22	593.021
1456.4	512.852
1460.58	436.33
1464.76	210.603
1468.93	226.191
1473.1	245.754
1477.27	265.106
1481.44	232.277
1485.6	210.69
1489.77	107.178
1493.92	273.648
1498.08	106.719
1502.24	2.11133
1506.39	231.369
1510.54	150.236
1514.69	48.7168
1518.83	35.4766
1522.97	255.74
1527.12	187.471
1531.25	174.867
1535.39	128.641
1539.52	52.6484
1543.65	104.951
1547.78	197.891
1551.91	381.523
1556.03	513.102
1560.15	447.787
1564.27	156.279
1568.39	378.906
1572.5	213.037
1576.61	409.295
