Measurement: Raman, 514 nm, ccw, Raman Data Processed
Mineral: Enstatite
Rruff sample: R040093
Ideal chemistry: MgSiO_3_
Locality: Castle Rock, Pennsylvania, USA
Source: University of Arizona Mineral Museum
Description: Dark green massive
Measured chemistry: (Mg_0.84_Fe_0.15_Al_0.01_)Si_1.00_O_3_
Pin_id: L00247
Orientation: Laser parallel to a* (1 0 0). Fiducial mark perpendicular to laser is parallel to -b [0 -1 0]
Raman shift (cm-1)	intensity
137.656	0
142.583	118.97
147.508	356.937
152.431	185.8
157.35	48.2422
162.267	127.546
167.181	730.953
172.092	2289.15
177.001	5181.21
181.907	9349.11
186.81	14268.6
191.711	14737.6
196.608	15313.5
201.503	17353.3
206.395	19192.7
211.285	16909.9
216.172	11185.9
221.056	7598.41
225.937	6287.14
230.816	4615.62
235.692	3048.37
240.565	1184.07
245.436	336.195
250.304	290.212
255.169	1034.1
260.031	1176.85
264.891	1529.4
269.748	491.722
274.602	13.7451
279.454	98.5723
284.303	129.733
289.149	272.763
293.992	1363.4
298.833	3686.73
303.671	4765.37
308.507	3197.62
313.339	5486.23
318.169	16107
322.996	36820.1
327.821	42744.9
332.643	22250.6
337.462	12400.9
342.279	8952.12
347.092	4834.35
351.904	2726.14
356.712	2117.37
361.518	2301.06
366.321	2658.22
371.121	3245.82
375.919	4034.81
380.714	4616.12
385.506	5302.67
390.296	5144.42
395.083	4993.35
399.867	4073.45
404.649	2996.7
409.428	2321.07
414.204	1852.43
418.978	1654.19
423.749	1695.15
428.517	2210.74
433.282	2087.9
438.045	1165.47
442.806	634.366
447.563	280.575
452.318	9.15039
457.07	172.868
461.82	119.525
466.567	49.5254
471.311	58.0908
476.053	63.79
480.792	12.7705
485.528	33.5127
490.262	337.651
494.992	820.649
499.721	1753.49
504.446	2126.16
509.169	1449.64
513.89	1508.9
518.607	1822.2
523.322	1954.5
528.035	1792.69
532.745	1701.71
537.452	2255.82
542.156	1998.23
546.858	1605.54
551.557	1241.96
556.254	867.367
560.947	560.997
565.639	530.685
570.327	800.523
575.013	680.242
579.697	667.676
584.377	409.664
589.055	53.1562
593.731	32.332
598.403	27.8994
603.074	54.2393
607.741	5.20019
612.406	282.638
617.068	278.12
621.728	268.049
626.385	496.363
631.039	723.828
635.691	1296.83
640.34	1703.37
644.987	2377.43
649.63	3768.01
654.272	6370.1
658.91	10918.9
663.546	19832.6
668.18	38086.8
672.81	57062.9
677.439	43826.4
682.064	22960.2
686.687	12809.7
691.307	7574.52
695.925	5052.46
700.54	3811.81
705.153	2930.52
709.763	2399.09
714.37	2263.7
718.974	2386.95
723.577	2635.37
728.176	3590.7
732.773	4719.81
737.367	5489.43
741.959	4631.28
746.548	3076.03
751.134	2110.76
755.718	1569.42
760.299	1153.57
764.878	863.255
769.454	745.306
774.028	595.725
778.598	874.52
783.167	764.703
787.732	595.28
792.295	160.27
796.856	149.636
801.414	137.656
805.969	3.68262
810.522	175.109
815.072	115.89
819.62	12.2275
824.165	149.999
828.707	65.7481
833.247	125.261
837.784	22.9316
842.319	76.0488
846.851	88.3603
851.381	32.4395
855.908	214.76
860.432	173.784
864.954	312.575
869.473	269.243
873.99	195.08
878.504	265.91
883.015	458.864
887.524	282.91
892.031	548.856
896.535	752.671
901.036	814.361
905.535	791.952
910.031	1017.52
914.524	1502.07
919.015	2606.59
923.504	3852.19
927.99	3945.66
932.473	2886.83
936.954	1989.59
941.432	1338.31
945.908	1052.81
950.381	800.668
954.852	926.779
959.32	930.957
963.785	1209.91
968.248	1350.75
972.708	2084.95
977.166	2393.05
981.622	2380.41
986.074	2336.38
990.525	2776.48
994.972	3159.52
999.417	3927.14
1003.86	4875.23
1008.3	5991.85
1012.74	6012.92
1017.17	5764.43
1021.61	6640.38
1026.04	7067.34
1030.46	9274.47
1034.89	13868.7
1039.31	21697.5
1043.73	19979.8
1048.15	10810
1052.56	5923.12
1056.97	4156.97
1061.38	3926.61
1065.79	4350.46
1070.19	5606.5
1074.6	7828.24
1079	12713.3
1083.39	25121
1087.79	48403.8
1092.18	73297.5
1096.57	69421.7
1100.96	42197.2
1105.34	22869.4
1109.72	11732.1
1114.1	6039.87
1118.48	3381.45
1122.85	2122.28
1127.22	1422.92
1131.6	800.554
1135.96	570.712
1140.33	361.257
1144.69	269.603
1149.05	302.34
1153.4	182.356
1157.76	14.168
1162.11	17.2041
1166.46	76.0215
1170.81	45.6309
1175.15	65.9209
1179.49	92.6777
1183.83	107.075
1188.17	59.9307
1192.5	118.856
1196.84	70.7598
1201.16	46.6641
1205.49	79.791
1209.82	24.2607
1214.14	10.3828
1218.46	94.9561
1222.77	138.287
1227.09	31.0195
1231.4	85.8936
1235.71	272.178
1240.02	94.8047
1244.32	21.0781
1248.62	79.7353
1252.92	108.15
1257.22	198.735
1261.51	199.184
1265.81	43.0391
1270.1	253.17
1274.38	223.182
1278.67	237.711
1282.95	212.363
1287.23	224.733
1291.51	251.821
1295.78	387.445
1300.05	366.677
1304.32	349.254
1308.59	293.874
1312.86	91.0234
1317.12	228.274
1321.38	355.975
1325.63	515.136
1329.89	338.603
1334.14	317.106
1338.39	191.476
1342.64	303.156
1346.88	318.131
1351.13	410.144
1355.37	395.298
1359.61	117.26
1363.84	356.78
1368.07	83.4043
1372.3	243.847
1376.53	262.749
1380.76	201.005
1384.98	95.7148
1389.2	185.852
1393.42	141.231
1397.64	53.8281
1401.85	177.316
1406.06	93.3887
1410.27	301.727
1414.47	227.103
1418.68	27.874
1422.88	114.578
1427.08	265.968
1431.27	366.234
1435.47	401.087
1439.66	728.711
1443.85	1167.43
1448.03	924.04
1452.22	600.815
1456.4	301.637
1460.58	441.656
1464.76	391.872
1468.93	391.764
1473.1	270.447
1477.27	86.1269
1481.44	279.562
1485.6	251.535
1489.77	144.736
1493.92	155.441
1498.08	177.994
1502.24	25.9434
1506.39	108.951
1510.54	31.8496
1514.69	75.7402
1518.83	79.6426
1522.97	59.9199
1527.12	40.5176
1531.25	233.471
1535.39	110.887
1539.52	197.867
1543.65	196.676
1547.78	102.947
1551.91	33.7324
1556.03	172.815
1560.15	194.16
1564.27	154.094
1568.39	262.299
1572.5	13.6074
1576.61	93.0254
