Measurement: Raman, 514 nm, ccw, Raman Data Processed
Mineral: Enstatite
Rruff sample: R040093
Ideal chemistry: MgSiO_3_
Locality: Castle Rock, Pennsylvania, USA
Source: University of Arizona Mineral Museum
Description: Dark green massive
Measured chemistry: (Mg_0.84_Fe_0.15_Al_0.01_)Si_1.00_O_3_
Pin_id: L00247
Orientation: Laser parallel to a* (1 0 0). Fiducial mark perpendicular to laser is parallel to -b [0 -1 0]
Raman shift (cm-1)	intensity
137.656	0
142.583	6.11231
147.508	105.726
152.431	67.5791
157.35	22.835
162.267	415.184
167.181	1322.45
172.092	3773.31
177.001	7527.92
181.907	13497.7
186.81	19457.8
191.711	20197.6
196.608	20154.8
201.503	21970.7
206.395	22210.3
211.285	19032.8
216.172	13490.5
221.056	10545.7
225.937	8339.47
230.816	5530.67
235.692	3431.72
240.565	1388.53
245.436	641.856
250.304	608.831
255.169	1184.39
260.031	1517.52
264.891	1870.19
269.748	716.363
274.602	105.012
279.454	144.992
284.303	8.45117
289.149	363.381
293.992	1641.82
298.833	4439.32
303.671	5606.35
308.507	3168.91
313.339	3810.1
318.169	9486.32
322.996	18287.4
327.821	20436.8
332.643	12670.2
337.462	8756.89
342.279	6516.77
347.092	3610.07
351.904	2268.38
356.712	1848.21
361.518	1848.23
366.321	2682.6
371.121	3296.3
375.919	3820.27
380.714	4763.43
385.506	5116.66
390.296	4944.93
395.083	4066.21
399.867	2945.5
404.649	1855.8
409.428	1560.07
414.204	1225.32
418.978	1259.34
423.749	1725.08
428.517	2426.65
433.282	2545.02
438.045	1703.7
442.806	895.574
447.563	422.514
452.318	172.914
457.07	28.291
461.82	46.8926
466.567	245.871
471.311	138.56
476.053	198.398
480.792	0.097656
485.528	51.1094
490.262	430.144
494.992	1025.14
499.721	1870.9
504.446	2042.41
509.169	1253.64
513.89	1206.6
518.607	1473.27
523.322	1503.66
528.035	1391.83
532.745	1673.26
537.452	1947.97
542.156	1779.7
546.858	1290.68
551.557	820.551
556.254	733.264
560.947	553.352
565.639	574.941
570.327	605.211
575.013	558.529
579.697	684.586
584.377	333.275
589.055	127.389
593.731	68.6016
598.403	9.05664
603.074	33.7207
607.741	105.795
612.406	188.273
617.068	178.576
621.728	485.938
626.385	601.943
631.039	834.391
635.691	1286.11
640.34	2225.42
644.987	3084.31
649.63	4199.76
654.272	7316.79
658.91	12976
663.546	25585.2
668.18	49699.8
672.81	71622.8
677.439	54310.6
682.064	27510.5
686.687	14528.1
691.307	8674.27
695.925	5623.44
700.54	4121.08
705.153	3112.14
709.763	2423.16
714.37	2676.58
718.974	2383.34
723.577	2371.12
728.176	2833.61
732.773	3823.4
737.367	4390.97
741.959	3576.35
746.548	2421.47
751.134	1756.19
755.718	1489.02
760.299	1055.76
764.878	827.086
769.454	781.871
774.028	833.021
778.598	815.545
783.167	894.457
787.732	770.768
792.295	223.486
796.856	136.594
801.414	112.035
805.969	215.373
810.522	98.7539
815.072	127.791
819.62	269.065
824.165	41.8262
828.707	25.959
833.247	36.002
837.784	78.1211
842.319	90.5898
846.851	163.387
851.381	123.455
855.908	275.652
860.432	162.342
864.954	262.697
869.473	162.928
873.99	127.029
878.504	288.088
883.015	407.986
887.524	370.652
892.031	736.055
896.535	948.195
901.036	1109.12
905.535	1091.98
910.031	1478.88
914.524	2380.95
919.015	3599.31
923.504	4993.68
927.99	4792.62
932.473	3292.89
936.954	2195.21
941.432	1595.77
945.908	1166.01
950.381	1020.01
954.852	1110.4
959.32	1350.18
963.785	1373.66
968.248	1696.75
972.708	2535.56
977.166	2959.53
981.622	2622.43
986.074	2768.63
990.525	2774.51
994.972	3264.4
999.417	3684.88
1003.86	4103.85
1008.3	4893.18
1012.74	4837.73
1017.17	4844.52
1021.61	5695.8
1026.04	6973.36
1030.46	9991.61
1034.89	17934
1039.31	29381.3
1043.73	27178.7
1048.15	14171.1
1052.56	7326.73
1056.97	4953.29
1061.38	3975.2
1065.79	4323.57
1070.19	5012.69
1074.6	6478.06
1079	10019.4
1083.39	20163.9
1087.79	37514.3
1092.18	53275.8
1096.57	49918.7
1100.96	30708.8
1105.34	16800.6
1109.72	9196.1
1114.1	4791.59
1118.48	2744.42
1122.85	1704.04
1127.22	1166.88
1131.6	813.15
1135.96	392.391
1140.33	357.352
1144.69	377.291
1149.05	68.834
1153.4	254.1
1157.76	48.416
1162.11	27.3145
1166.46	116.791
1170.81	4.6582
1175.15	203.185
1179.49	67.9629
1183.83	144.934
1188.17	15.3359
1192.5	56.5645
1196.84	22.9707
1201.16	10.5605
1205.49	52.3008
1209.82	167.805
1214.14	131.057
1218.46	37.8027
1222.77	18.9863
1227.09	70.7754
1231.4	66.9863
1235.71	122.801
1240.02	349.402
1244.32	102.262
1248.62	320.135
1252.92	193.391
1257.22	326.906
1261.51	98.6719
1265.81	174.848
1270.1	106.412
1274.38	201.688
1278.67	369.033
1282.95	213.793
1287.23	299.93
1291.51	396.957
1295.78	523.391
1300.05	410.76
1304.32	393.842
1308.59	574.783
1312.86	77.0664
1317.12	207.822
1321.38	186.672
1325.63	174.981
1329.89	530.252
1334.14	458.926
1338.39	281.166
1342.64	446.279
1346.88	276.185
1351.13	372.418
1355.37	298.99
1359.61	142.162
1363.84	137.961
1368.07	432.318
1372.3	285.029
1376.53	425.941
1380.76	53.3086
1384.98	202.346
1389.2	101.231
1393.42	286.992
1397.64	181.412
1401.85	274.94
1406.06	241.397
1410.27	301.262
1414.47	210.631
1418.68	215.812
1422.88	390.475
1427.08	352.352
1431.27	488.816
1435.47	479.19
1439.66	740.529
1443.85	880.449
1448.03	791.387
1452.22	596.25
1456.4	193.363
1460.58	373.873
1464.76	440.94
1468.93	267.188
1473.1	335.281
1477.27	308.82
1481.44	300.781
1485.6	205.227
1489.77	256.57
1493.92	153
1498.08	147.672
1502.24	247.262
1506.39	18.4023
1510.54	110.414
1514.69	289.211
1518.83	21.6914
1522.97	368
1527.12	275.156
1531.25	308.75
1535.39	523.945
1539.52	261.945
1543.65	55.6758
1547.78	226.785
1551.91	245.481
1556.03	257.773
1560.15	275.863
1564.27	190.164
1568.39	86.4648
1572.5	144.805
1576.61	66.1328
