Measurement: Raman, 514 nm, depolarized, Raman Data Processed
Mineral: Enstatite
Rruff sample: R040094
Ideal chemistry: MgSiO_3_
Locality: unknown
Source: University of Arizona Mineral Museum
Description: Dark green massive, associated with anthophyllite
Measured chemistry: (Mg_0.84_Fe_0.15_)(Si_0.99_Al_0.01_)O_3_; = Enstatite :  [box](Mg_0.83_Fe_0.14_Na_0.01_Ca_0.01_)_7_(Si_0.99_Al_0.01_)_8_O_22_(OH)_2_ = Anthophyllite
Pin_id: M00257
Orientation: Laser parallel to b* (0 1 0). Fiducial mark perpendicular to laser is parallel to -c [0 0 -1]
Raman shift (cm-1)	intensity
109.429	0
113.602	244.506
117.772	193.875
121.94	348.741
126.106	804.314
130.27	2790.77
134.432	5405.18
138.592	4153.99
142.75	2084.11
146.905	1638.31
151.059	1333.48
155.21	701.344
159.359	374.284
163.506	243.479
167.651	59.919
171.794	95.611
175.935	7.401
180.074	0.824
184.21	69.864
188.344	212.792
192.477	960.569
196.607	1238.2
200.735	1165.12
204.861	682.818
208.985	581.214
213.107	230.168
217.227	219.687
221.344	529.853
225.46	650.928
229.573	1072.94
233.685	1825.85
237.794	3418.66
241.901	3291.22
246.006	1233.53
250.109	545.613
254.21	337.471
258.309	289.108
262.406	180.536
266.5	98.256
270.593	327.324
274.684	128.209
278.772	13.961
282.858	138.438
286.943	353.943
291.025	149.922
295.105	456.015
299.183	872.36
303.259	868.295
307.333	673.853
311.405	598.915
315.475	1003.88
319.543	1498.84
323.609	2138.73
327.673	2395.93
331.734	3543.53
335.794	5566.33
339.852	9962.11
343.907	13683.6
347.961	11193.5
352.012	6178.05
356.061	3712.64
360.109	2761.53
364.154	2190.15
368.197	1737.68
372.239	1447.18
376.278	1675.57
380.315	1833.87
384.35	1932.06
388.383	1620.13
392.414	1598.07
396.443	1915.86
400.471	2323.49
404.496	2091.18
408.519	2108.74
412.539	1979.15
416.558	1952.94
420.575	1589.81
424.59	1406.53
428.603	852.059
432.614	715.525
436.623	689.359
440.63	1176.71
444.635	1542.61
448.637	839.111
452.638	445.671
456.637	421.569
460.634	537.243
464.629	442.308
468.621	387.221
472.612	312.073
476.601	176.794
480.588	11.438
484.573	4.053
488.556	430.264
492.536	135.423
496.515	41.482
500.492	32.176
504.467	154.604
508.44	131.956
512.411	170.201
516.38	182.077
520.347	343.82
524.312	555.524
528.274	507.093
532.235	498.515
536.194	589.783
540.152	1110.91
544.107	961.881
548.06	952.699
552.011	733.367
555.96	453.881
559.907	154.242
563.852	144.441
567.796	224.486
571.737	424.375
575.676	354.141
579.614	333.756
583.549	283.219
587.482	272.584
591.414	232.639
595.343	123.379
599.271	134.145
603.197	45.209
607.12	135.471
611.042	165.449
614.962	85.861
618.88	216.281
622.796	415.789
626.71	237.619
630.622	454.176
634.532	653.547
638.44	822.412
642.346	1179.45
646.25	1731.9
650.152	2285.38
654.053	4130.59
657.951	7491.03
661.848	12892.3
665.742	14502.7
669.635	10688.6
673.526	9511.82
677.415	12091.2
681.302	17559.1
685.186	22346.1
689.07	17863
692.951	9619.63
696.83	5146.44
700.707	3162.78
704.582	2338.98
708.456	1265.03
712.327	1070.95
716.197	916.523
720.065	811.93
723.931	617.443
727.795	544.891
731.657	370.146
735.517	455.279
739.375	390.289
743.231	385.066
747.085	69.303
750.938	183.273
754.789	397.15
758.637	189.834
762.484	143.797
766.329	127.107
770.172	10.299
774.013	280.322
777.852	127.777
781.69	91.133
785.525	34.145
789.359	223.029
793.19	30.746
797.02	138.715
800.848	22.84
804.674	204.043
808.498	5.102
812.32	74.357
816.141	103.619
819.959	427
823.776	347.633
827.591	128.26
831.404	58.6
835.215	38.768
839.024	38.936
842.831	289.092
846.637	0.773
850.44	259.322
854.242	539.443
858.042	987.135
861.84	1089.71
865.636	809.834
869.43	769.959
873.223	340.098
877.013	150.256
880.802	20.516
884.589	360.832
888.374	321.174
892.157	321.559
895.938	71.996
899.718	381.732
903.495	422.305
907.271	192.045
911.045	482.566
914.817	763.199
918.587	763.98
922.356	463.281
926.122	1134.26
929.887	1285.24
933.65	2133.7
937.411	2387.18
941.17	2222.83
944.928	1843.65
948.683	1643.38
952.437	1170.08
956.189	1311.47
959.939	1087.26
963.687	813.648
967.434	824.996
971.178	515.293
974.921	867.49
978.662	1129.3
982.401	1509.55
986.139	1726.86
989.874	2279.92
993.608	3257.31
997.34	6020.73
1001.07	10375.9
1004.8	19316.3
1008.52	30321.3
1012.25	27506
1015.97	16981.6
1019.69	11748.2
1023.41	9103.85
1027.13	7870.98
1030.85	6288.56
1034.56	5275.65
1038.27	3823.49
1041.98	3141.69
1045.69	2589.15
1049.4	2117.27
1053.1	1948.14
1056.81	1397.16
1060.51	904.791
1064.2	913.656
1067.9	601.311
1071.6	839.016
1075.29	696.723
1078.98	654.016
1082.68	632.529
1086.37	431.553
1090.05	559.168
1093.74	497.434
1097.42	115.791
1101.1	473.836
1104.78	582.322
1108.46	401.596
1112.14	199.939
1115.81	129.062
1119.48	288.078
1123.15	126.6
1126.82	256.432
1130.49	350.576
1134.16	379.562
1137.82	119.514
1141.48	116.924
1145.14	16.682
1148.8	116.426
1152.46	131.262
1156.11	401.176
1159.77	285.92
1163.42	485.455
1167.07	265.459
1170.72	135.691
1174.36	155.234
1178.01	107.961
1181.65	254.645
1185.29	261.805
1188.93	317.641
1192.57	144.41
1196.2	20.898
1199.84	72.588
1203.47	185.447
1207.1	187.188
1210.73	548.914
1214.36	519.424
1217.98	220.074
1221.61	331.516
1225.23	120.18
1228.85	300.344
1232.47	750.348
1236.09	589.422
1239.7	477.615
1243.31	614.902
1246.92	542.172
1250.53	638.826
1254.14	595.928
1257.75	271.816
1261.35	437.98
1264.96	411.844
1268.56	445
1272.16	557.598
1275.76	820.277
1279.35	766.338
1282.94	331.561
1286.54	539.775
1290.13	256.215
1293.72	232.348
1297.31	472.189
1300.89	26.949
1304.47	18.758
1308.06	134.094
1311.64	8.08
1315.22	396.549
1318.79	146.531
1322.37	112.535
1325.94	101.596
1329.52	128.799
1333.09	125.201
1336.65	261.129
1340.22	294.152
1343.79	308.541
1347.35	562.707
1350.91	597.414
1354.47	471.213
1358.03	465.312
1361.59	358.572
1365.14	362.887
1368.7	292.248
1372.25	576.479
1375.8	616.795
1379.35	816.365
1382.89	860.623
1386.44	683.346
1389.98	535.824
1393.52	487.49
1397.06	359.014
1400.6	161.049
1404.14	493.725
1407.67	400.744
1411.21	551.363
1414.74	804.93
1418.27	777.098
1421.8	787.168
1425.32	532.559
1428.85	371.191
1432.37	524
1435.89	207.816
1439.41	501.785
1442.93	444.75
1446.45	760.848
1449.96	327.508
1453.48	984.383
1456.99	827.055
1460.5	1136.91
1464.01	852.133
1467.51	634.379
1471.02	649.406
1474.52	310.766
1478.02	631.422
1481.52	392.93
1485.02	446.27
1488.52	351.57
1492.02	260.332
1495.51	433.641
1499	451.469
1502.49	535.984
1505.98	790.258
1509.47	479.246
1512.95	182.172
1516.43	0
