Measurement: Raman, 514 nm, depolarized, Raman Data Processed
Mineral: Enstatite
Rruff sample: R070550
Ideal chemistry: MgSiO_3_
Locality: Tanzania
Source: www.multicolour.com
Description: Brown, translucent, vitreous crystal fragment
Measured chemistry: (Mg_0.90_Fe_0.10_)_Î£=1_Si_1.00_O_3_
Pin_id: L01735
Orientation: Laser parallel to -b* (0 -1 0). Fiducial mark perpendicular to laser is parallel to c [0 0 1]
Raman shift (cm-1)	intensity
115.372	0
120.336	1041.99
125.296	3044.9
130.253	6425
135.207	6475.32
140.158	1947.64
145.106	1319.51
150.051	1245.27
154.993	909.974
159.931	316.135
164.867	130.038
169.8	26.9856
174.729	166.358
179.655	88.9048
184.579	10.6482
189.499	215.864
194.416	433.196
199.331	482.641
204.242	628.993
209.15	387.597
214.055	107.471
218.957	58.3174
223.856	525.287
228.752	1981.27
233.645	3667.9
238.535	5251.1
243.422	1923.56
248.306	257.427
253.187	116.923
258.065	345.998
262.94	261.811
267.812	361.803
272.681	754.102
277.547	788.529
282.41	142.621
287.27	75.5132
292.127	360.329
296.981	931.274
301.832	1198.68
306.68	686.178
311.526	1028.62
316.368	1722.08
321.207	3013.62
326.043	4527.86
330.877	8683.91
335.707	15135.2
340.535	22930.6
345.359	20675.8
350.181	9578.53
355	4487.81
359.815	2725.68
364.628	1716.67
369.438	1216.79
374.245	1489.72
379.049	1841.05
383.851	2040.56
388.649	1860.21
393.444	2155.95
398.237	3003.77
403.026	3512.66
407.813	3060.63
412.597	2919.85
417.378	2857.21
422.156	2096.65
426.931	1323.15
431.703	1011.09
436.473	1346.67
441.239	2055.32
446.003	1829.06
450.764	725.859
455.522	521.701
460.277	377.576
465.029	453.647
469.779	423.25
474.525	335.127
479.269	64.0039
484.01	44.3565
488.748	42.352
493.484	98.144
498.216	55.0493
502.946	74.8652
507.672	94.7065
512.396	78.4731
517.118	235.492
521.836	410.477
526.551	711.512
531.264	826.563
535.974	1267.69
540.681	1650.84
545.386	1197.95
550.087	927.927
554.786	725.701
559.482	489.265
564.175	445.61
568.866	393.735
573.553	445.66
578.238	477.401
582.921	438.904
587.6	409.164
592.277	409.175
596.95	429.933
601.622	361.433
606.29	414.669
610.956	528.629
615.618	449.303
620.279	683.618
624.936	823.819
629.591	1039.79
634.243	1219.11
638.892	1577.07
643.538	2482.35
648.182	4188
652.823	8263.3
657.462	15675
662.097	23584.9
666.73	21515.1
671.36	15280
675.988	18700.6
680.613	28309.7
685.235	34115.9
689.854	22901.6
694.471	10190.4
699.085	4728.89
703.697	2798.2
708.305	1737.29
712.911	1192.16
717.515	823.813
722.115	627.259
726.713	484.501
731.309	390.545
735.902	318.397
740.492	177.065
745.079	144.554
749.664	266.872
754.246	191.014
758.825	27.0239
763.402	146.008
767.976	11.1357
772.548	2.58691
777.117	21.1411
781.683	55.2632
786.247	6.1875
790.808	34.5205
795.366	57.7144
799.922	13.5942
804.475	40.9946
809.026	80.0727
813.574	67.6807
818.119	13.2598
822.662	17.0542
827.202	76.5317
831.74	88.1152
836.275	28.7075
840.807	220.32
845.337	496.964
849.864	932.65
854.389	1681.39
858.911	1900.19
863.431	1258.08
867.948	722.041
872.462	400.102
876.974	249.268
881.483	260.551
885.99	228.966
890.494	262.514
894.996	227.01
899.495	209.83
903.991	226.005
908.485	201.284
912.977	305.582
917.466	475.09
921.952	786.102
926.436	1284.47
930.917	2214.75
935.396	2993.79
939.872	2847.8
944.346	1939.24
948.817	1219.11
953.286	844.816
957.752	709.807
962.216	616.876
966.677	594.352
971.136	689.184
975.592	892.407
980.045	1119.99
984.497	1628.93
988.945	2704.25
993.392	4533.96
997.835	8931.99
1002.28	19185.3
1006.72	37855
1011.15	49013
1015.59	31040.8
1020.02	18101.4
1024.45	14376.3
1028.87	12859.6
1033.3	10365.3
1037.72	6859.14
1042.14	4100.34
1046.55	2527.96
1050.97	1704.7
1055.38	1097.9
1059.79	832.333
1064.2	539.313
1068.6	362.737
1073	333.082
1077.4	214.683
1081.8	225.88
1086.19	193.148
1090.59	230.513
1094.97	180.436
1099.36	213.293
1103.75	178.758
1108.13	143.609
1112.51	104.627
1116.89	184.246
1121.26	181.598
1125.64	162.138
1130.01	171.628
1134.38	199.289
1138.74	251.727
1143.11	141.163
1147.47	29.582
1151.83	63.6108
1156.18	29.9927
1160.54	131.107
1164.89	30.2602
1169.23	71.3159
1173.58	27.7495
1177.93	18.7627
1182.27	45.9839
1186.61	11.5957
1190.95	28.9697
1195.28	70.0298
1199.61	25.4282
1203.94	0.706543
1208.27	62.8062
1212.6	14.2661
1216.92	77.0049
1221.24	21.6802
1225.56	5.74707
1229.88	59.6948
1234.19	35.1812
1238.5	113.53
1242.81	70.9394
1247.12	83.9888
1251.42	107.657
1255.72	132.975
1260.02	40.1851
1264.32	103.034
1268.62	118.596
1272.91	165.925
1277.2	210.53
1281.49	211.533
1285.78	166.102
1290.06	242.392
1294.34	246.179
1298.62	242.167
1302.9	215.725
1307.17	254.282
1311.44	329.458
1315.71	222.549
1319.98	216.597
1324.25	211.148
1328.51	164.37
1332.77	144.428
1337.03	91.8506
1341.29	176.652
1345.54	156.136
1349.79	147.817
1354.04	121.456
1358.29	75.915
1362.54	113.311
1366.78	228.947
1371.02	100.446
1375.26	121.424
1379.49	193.563
1383.73	27.8452
1387.96	197.301
1392.19	139.458
1396.42	15.6953
1400.64	75.085
1404.86	1.83887
1409.09	41.9297
1413.3	72.5381
1417.52	169.96
1421.73	134.425
1425.94	57.8706
1430.15	159.233
1434.36	215.562
1438.57	268.604
1442.77	397.096
1446.97	397.015
1451.17	433.858
1455.37	454.111
1459.56	429.567
1463.75	362.434
1467.94	215.566
1472.13	141.965
1476.31	252.424
1480.5	142.019
1484.68	148.004
1488.86	177.328
1493.03	160.093
1497.21	59.583
1501.38	132.588
1505.55	37.8213
1509.72	15.5435
1513.88	24.4644
1518.05	113.778
1522.21	98.1484
1526.37	144.53
1530.53	73.6953
1534.68	153.711
1538.84	130.821
1542.99	108.141
1547.13	86.0195
1551.28	99.1533
1555.42	96.3989
1559.57	96.0547
1563.71	0
