Measurement: Raman, 514 nm, depolarized, Raman Data Processed
Mineral: Epidote
Rruff sample: R050191
Ideal chemistry: Ca_2_Fe^3+^Al_2_(Si_2_O_7_)(SiO_4_)O(OH)
Locality: Pampa Blanca, Castrovirreyna Province, Huancavelica Department, Peru
Source: Dave Bunk Minerals
Description: Cluster of green elongated prismatic crystals
Measured chemistry: Ca_2.00_Al_2.00_(Fe^3+^_0.84_Al_0.16_)(SiO_4_)(Si_2_O_7_)O(OH)
Pin_id: L01284
Orientation: Laser parallel to -a* (-1 0 0). Fiducial mark perpendicular to laser is parallel to b [0 1 0]
Raman shift (cm-1)	intensity
53.91	0
58.864	333.217
63.817	103.781
68.767	117.238
73.714	176.335
78.659	1124.99
83.602	5027.42
88.542	10965.6
93.48	11712.5
98.416	10719
103.349	4954.02
108.28	4318.49
113.208	2421.22
118.134	2257.4
123.058	2280.69
127.979	2922.69
132.898	3235.42
137.814	2929.47
142.728	3799.26
147.639	5253
152.549	5075.21
157.455	7953.91
162.359	15369.6
167.261	20870.6
172.161	17942.4
177.058	10647.1
181.952	5360.67
186.845	3479.89
191.734	2855.72
196.622	2990.03
201.507	4018.3
206.389	2530.59
211.269	1263.25
216.147	1206.75
221.022	2582.3
225.895	5509.73
230.765	9903.98
235.633	13623.5
240.498	20445.2
245.361	20753.5
250.222	10538.7
255.08	5015.26
259.936	3445.03
264.789	3300.79
269.64	4815.73
274.488	7731.45
279.334	6228.8
284.178	5928.78
289.019	8795.35
293.857	11903.4
298.693	8668.77
303.527	5361.56
308.358	3854.96
313.187	4447.46
318.013	4630.81
322.837	5615.93
327.659	7664.76
332.478	9329.23
337.294	11419.2
342.108	19377.7
346.92	31681.6
351.729	29402.9
356.535	14595.9
361.34	6863.88
366.141	4278.27
370.94	2198.84
375.737	25.2666
380.531	782.826
385.323	94.9883
390.113	1005.04
394.9	230.92
399.684	641.893
404.466	565.544
409.245	227.872
414.022	2333.19
418.797	6437.34
423.569	13597.2
428.338	17858.8
433.105	24321.1
437.87	27633.7
442.632	30576.8
447.391	44371.9
452.149	50441.9
456.903	43834
461.655	29396.8
466.405	15112.3
471.152	7968.65
475.897	5269.31
480.639	4494.83
485.378	5283
490.116	7572.73
494.85	11578.9
499.582	15823.5
504.312	15061.2
509.039	12402.2
513.764	6980.36
518.486	3617.2
523.206	2736.86
527.923	1056.76
532.638	78.7353
537.35	255.053
542.059	247.554
546.766	172.339
551.471	1672.65
556.173	5989.63
560.873	15406
565.57	24472.7
570.264	11481.3
574.957	5574.63
579.646	6261.12
584.333	10115
589.018	14999.6
593.7	21895.7
598.379	28902
603.056	24609.3
607.73	18842.8
612.402	16592.1
617.072	11337.6
621.739	6112.32
626.403	3401.97
631.065	2108.3
635.724	1492.25
640.381	1072.79
645.035	951.073
649.687	717.383
654.336	588.846
658.983	705.904
663.627	562.582
668.268	747.588
672.907	870.096
677.544	1260.65
682.178	1775.58
686.809	2417.99
691.438	2237.55
696.065	1422.6
700.688	1043.98
705.31	587.675
709.929	292.609
714.545	49.7075
719.158	145.441
723.77	158.589
728.378	210.633
732.984	255.006
737.588	105.811
742.189	135.661
746.787	30.2007
751.383	151.849
755.976	344.551
760.567	1098.51
765.155	1741.89
769.741	1811.76
774.324	1149.15
778.904	544.093
783.482	253.603
788.058	75.5576
792.631	172.384
797.201	233.436
801.769	360.685
806.334	494.913
810.897	819.198
815.457	867.379
820.014	1132.17
824.569	1504.17
829.122	1779.29
833.671	2050.44
838.219	2336.68
842.763	2881.05
847.306	3470.63
851.845	4863.64
856.382	7264.57
860.917	10560.8
865.448	14762.2
869.978	17495.2
874.505	21178.5
879.029	27035.2
883.55	32786.7
888.069	35539.6
892.586	26334
897.1	17865.7
901.611	15254.2
906.12	16971.6
910.626	22311.9
915.129	27361.9
919.63	23739.9
924.129	14648.9
928.625	8503.31
933.118	5196.5
937.609	3301
942.097	2246.93
946.582	1560.17
951.065	1257.42
955.546	1137.75
960.023	1036.08
964.499	1063.45
968.971	1520.91
973.441	2854.46
977.909	5011.15
982.374	5259.13
986.836	2769.76
991.295	1074.5
995.753	400.967
1000.21	230.4
1004.66	178.734
1009.11	520.176
1013.55	1614.6
1018	3613.94
1022.44	3808.73
1026.88	2266.68
1031.32	1451.79
1035.75	1516.08
1040.18	1710.59
1044.61	1612.79
1049.04	1281.03
1053.46	1015.65
1057.88	1213.1
1062.3	1199.33
1066.71	1152.96
1071.13	1540.06
1075.54	2803.27
1079.94	5216.69
1084.35	9006.1
1088.75	9621.31
1093.15	4703.25
1097.55	1658.58
1101.94	891.95
1106.34	475.021
1110.73	318.489
1115.11	328.06
1119.5	307.795
1123.88	197.551
1128.26	273.083
1132.63	34.0332
1137.01	12.5107
1141.38	60.7607
1145.75	122.607
1150.12	203.544
1154.48	123.131
1158.84	112.679
1163.2	59.6299
1167.55	141.161
1171.91	81.2158
1176.26	47.457
1180.61	1.95215
1184.95	31.5957
1189.29	35.3291
1193.63	47.2471
1197.97	30.0254
1202.31	138.931
1206.64	54.2744
1210.97	71.5928
1215.29	133.196
1219.62	163.125
1223.94	84.3272
1228.26	116.919
1232.57	195.699
1236.89	137.746
1241.2	96
1245.51	151.31
1249.81	160.752
1254.12	191.409
1258.42	51.0913
1262.72	244.068
1267.01	156.323
1271.3	281.412
1275.59	206.124
1279.88	170.455
1284.17	143.582
1288.45	51.7012
1292.73	270.865
1297.01	191.431
1301.28	69.5327
1305.55	118.219
1309.82	200.794
1314.09	179.61
1318.35	141.017
1322.61	198.023
1326.87	152.166
1331.13	141.056
1335.38	234.488
1339.63	148.36
1343.88	278.577
1348.12	241.327
1352.37	269.203
1356.61	350.494
1360.85	289.209
1365.08	224.125
1369.31	334.638
1373.54	330.394
1377.77	260.356
1381.99	221.242
1386.22	319.045
1390.43	173.39
1394.65	158.066
1398.87	233.269
1403.08	276.116
1407.29	143.809
1411.49	182.507
1415.69	195.048
1419.89	153.29
1424.09	70.5742
1428.29	134.225
1432.48	150.561
1436.67	168.112
1440.86	166.77
1445.04	146.307
1449.23	110.342
1453.4	225.803
1457.58	219.838
1461.76	0.457031
1465.93	197.988
1470.1	158.44
1474.26	69.7432
1478.43	74.9297
1482.59	130.343
1486.75	93.2519
1490.9	49.624
1495.06	78.375
1499.21	50.5527
1503.35	81.7773
1507.5	152.447
1511.64	226.368
1515.78	146.68
1519.92	88.8438
1524.05	78.5508
1528.18	60.2568
1532.31	104.106
1536.44	127.024
1540.56	128.973
1544.69	26.4746
1548.8	33.4502
1552.92	289.138
1557.03	106.333
1561.14	22.4893
1565.25	102.281
1569.36	15.1523
