Measurement: Raman, 514 nm, depolarized, Raman Data Processed
Mineral: Epidote
Rruff sample: R040089
Ideal chemistry: Ca_2_Fe^3+^Al_2_(Si_2_O_7_)(SiO_4_)O(OH)
Locality: Grafton County, New Hampshire, USA
Source: University of Arizona Mineral Museum
Description: Dark green coarsely crystalline massive
Measured chemistry: Ca_2.00_(Al_2.36_Fe^3+^_0.64_)[Si_2.00_O_7_][Si_1.00_O_4_]O(OH)
Pin_id: L00423
Orientation: Laser parallel to c [0 0 1]. Fiducial mark perpendicular to laser is parallel to b* (0 1 0)
Raman shift (cm-1)	intensity
67.135	0
71.353	4.541
75.568	226.777
79.782	1789.22
83.993	6349.29
88.203	13974.5
92.409	12294.5
96.614	11282.3
100.817	13387
105.017	7946.27
109.215	3310.78
113.412	1987.26
117.605	1117.53
121.797	733.043
125.987	1599.69
130.174	3265.79
134.359	5073.15
138.542	4081.65
142.723	2411.76
146.902	1591.31
151.078	1068.84
155.252	834.675
159.424	1360.17
163.594	2055.69
167.762	1931.28
171.928	1346.84
176.091	212.317
180.253	795.376
184.412	397.701
188.569	238.212
192.724	169.938
196.877	257.095
201.027	1075.93
205.176	2448.47
209.322	2846.61
213.466	2811.55
217.608	3460.72
221.748	5536.35
225.886	7893.55
230.022	9775.73
234.155	8535.78
238.286	6345.87
242.416	6743.17
246.543	9362.92
250.668	9693.95
254.79	6805.48
258.911	4357.2
263.03	3838.8
267.146	5579.46
271.261	12199.3
275.373	14638.7
279.483	7447.62
283.591	3606.26
287.697	2434.67
291.801	2067.06
295.902	2196.55
300.002	2346.48
304.099	2116.87
308.195	1577.69
312.288	1049.79
316.379	896.968
320.468	877.23
324.555	1512.6
328.64	1704.07
332.722	1285.65
336.803	1055.34
340.882	1274.15
344.958	2554.66
349.032	4663.13
353.105	4270.82
357.175	1933.26
361.243	435.445
365.309	186.764
369.373	736.46
373.435	949.575
377.494	614.516
381.552	154.914
385.608	1313.98
389.661	3804.47
393.713	5154.1
397.762	3747.59
401.81	1564.74
405.855	753.224
409.898	1283.15
413.939	3038.7
417.978	7552.97
422.015	17418.1
426.05	26924.2
430.083	22901.2
434.114	16649.2
438.143	13948.1
442.169	15097.9
446.194	18678.6
450.217	22500.1
454.237	22032.5
458.256	19235.5
462.272	16789.3
466.286	14903.6
470.299	12508.4
474.309	10013.6
478.317	7709.17
482.324	6115.02
486.328	5861.1
490.33	5867.4
494.33	5803.87
498.328	6090.53
502.324	7337.36
506.318	9345.22
510.31	10935
514.3	10545.5
518.288	9246.13
522.274	10756.9
526.258	12995.9
530.24	8239.8
534.22	4425.85
538.198	3250.55
542.174	2858.02
546.148	3389.67
550.119	4531.6
554.089	5983.8
558.057	8548.25
562.023	15117.5
565.986	32561
569.948	36772.9
573.908	16753.9
577.866	7958.82
581.822	6593.89
585.775	7716.64
589.727	10527.3
593.677	14265.7
597.625	21331.5
601.57	29354.9
605.514	27847.7
609.456	19795.5
613.396	12783.9
617.333	8936.68
621.269	6295.6
625.203	4731.73
629.135	3255.54
633.065	2501.28
636.993	1736.36
640.918	1448.45
644.842	1172.28
648.764	1004.17
652.684	1217.55
656.602	1771.42
660.518	2386.76
664.432	2809.55
668.344	2620.77
672.255	2150.38
676.163	2444.37
680.069	2885.74
683.973	3279.63
687.875	3197.94
691.776	2746.44
695.674	2211.37
699.57	1902.91
703.465	1344.97
707.357	779.312
711.248	403.94
715.136	164.812
719.023	68.812
722.907	72.197
726.79	134.681
730.671	216.944
734.55	231.256
738.426	216.89
742.301	206.917
746.174	282.3
750.045	293.076
753.915	174.2
757.782	154.541
761.647	173.025
765.51	109.624
769.372	108.051
773.231	125.143
777.088	37.847
780.944	47.138
784.798	10.99
788.649	47.724
792.499	113.541
796.347	278.546
800.193	500.794
804.037	608.34
807.879	802.194
811.719	998.405
815.558	1249.95
819.394	1911.85
823.228	3006.11
827.061	4179.76
830.891	4977.8
834.72	4765.25
838.547	4454.12
842.372	4235.42
846.195	4234.13
850.016	4376.25
853.835	4670.77
857.652	5223.7
861.468	5752.06
865.281	6745.67
869.093	7520.04
872.903	7919.93
876.71	8209.33
880.516	8532.66
884.32	8605.55
888.122	8928.58
891.923	10133.3
895.721	11849.9
899.517	14653.2
903.312	19282.7
907.105	25952.8
910.896	32729
914.684	37053.4
918.472	35997.9
922.257	30807.7
926.04	24521.9
929.821	19656.4
933.601	15742.6
937.379	12694.9
941.154	10321.8
944.928	8754.37
948.7	8028.79
952.471	7955.3
956.239	8342.85
960.005	8360.7
963.77	7568.88
967.533	6517.37
971.294	6036.18
975.053	7245.33
978.81	10124.8
982.565	12584.7
986.319	10114.9
990.07	6315.51
993.82	4015.5
997.568	2713.89
1001.31	1924.69
1005.06	1314.94
1008.8	1008.9
1012.54	777.279
1016.28	830.778
1020.02	1031.34
1023.75	1539.35
1027.48	2012.93
1031.22	2609.76
1034.94	3492.75
1038.67	4539.27
1042.4	5627.27
1046.12	6009
1049.85	5707.5
1053.57	5073.73
1057.28	4540.77
1061	4155.81
1064.71	3876.88
1068.43	4236.56
1072.14	5706.31
1075.85	8271.13
1079.56	12443
1083.26	18519.7
1086.97	25903.3
1090.67	28568.9
1094.37	17983.3
1098.07	8251.22
1101.76	4100.1
1105.46	2478.7
1109.15	1660.66
1112.84	1190.36
1116.53	928.964
1120.22	917.285
1123.9	625.605
1127.59	449.925
1131.27	503.018
1134.95	443.692
1138.63	360.679
1142.31	244.233
1145.98	175.721
1149.65	64.451
1153.33	16.928
1156.99	5.457
1160.66	60.611
1164.33	23.354
1167.99	87.959
1171.66	75.255
1175.32	92.571
1178.97	94.35
1182.63	66.333
1186.29	90.033
1189.94	38.4
1193.59	39.932
1197.24	3.063
1200.89	59.476
1204.54	62.593
1208.18	93.316
1211.82	1.386
1215.46	17.735
1219.1	16.727
1222.74	68.25
1226.38	22.404
1230.01	54.19
1233.64	36.61
1237.27	46.692
1240.9	62.386
1244.53	47.801
1248.15	82.765
1251.78	112.429
1255.4	69.582
1259.02	96.429
1262.64	115.192
1266.25	104.322
1269.87	107.759
1273.48	93.02
1277.09	171.681
1280.7	138.749
1284.31	164.945
1287.91	179.472
1291.52	131.719
1295.12	152.794
1298.72	154.073
1302.32	158.255
1305.92	131.296
1309.51	172.585
1313.11	146.495
1316.7	153.658
1320.29	162.136
1323.88	144.346
1327.46	130.39
1331.05	147.131
1334.63	147.78
1338.21	107.932
1341.79	164.126
1345.37	217.285
1348.95	214.254
1352.52	207.178
1356.09	280.444
1359.66	269.927
1363.23	222.019
1366.8	201.83
1370.37	213.897
1373.93	226.562
1377.49	237.787
1381.05	216.616
1384.61	202.483
1388.17	181.169
1391.73	159.373
1395.28	189.004
1398.83	147.531
1402.38	86.447
1405.93	89.216
1409.48	87.139
1413.02	67.333
1416.57	64.139
1420.11	80.863
1423.65	62.181
1427.19	70.473
1430.72	114.473
1434.26	68.907
1437.79	103.92
1441.33	49.922
1444.86	98.779
1448.38	33.213
1451.91	65.072
1455.43	74.153
1458.96	104.095
1462.48	93.268
1466	95.248
1469.52	86.455
1473.03	49.915
1476.55	81.142
1480.06	26.423
1483.57	25.268
1487.08	31.406
1490.59	0.584
1494.1	18.683
1497.6	48.353
1501.11	77.659
1504.61	32.841
1508.11	47.268
1511.6	59.389
