Measurement: Raman, 514 nm, depolarized, Raman Data Processed
Mineral: Epidote
Rruff sample: R050303
Ideal chemistry: Ca_2_Fe^3+^Al_2_(Si_2_O_7_)(SiO_4_)O(OH)
Locality: San Martin mine, Zacatecas, Mexico
Source: Eugene Schlepp
Description: Green elongated prismatic crystals
Measured chemistry: Ca_2.00_Al_2.00_(Fe^3+^_0.97_Al_0.03_)(SiO_4_)(Si_2_O_7_)O(OH)
Pin_id: L00691
Orientation: Laser parallel to -b* (0 -1 0). Fiducial mark perpendicular to laser is parallel to -c [0 0 -1]
Raman shift (cm-1)	intensity
53.91	0
58.864	2468.52
63.817	35.1446
68.767	37.9807
73.714	711.03
78.659	3519.38
83.602	11929.4
88.542	22368
93.48	15557.1
98.416	6929.65
103.349	3553.01
108.28	5092.42
113.208	2254.3
118.134	2656.78
123.058	4969.78
127.979	11822.6
132.898	12743.2
137.814	6058.3
142.728	5206.88
147.639	4328.07
152.549	4642.27
157.455	8594.46
162.359	16460.8
167.261	17991.1
172.161	10936.4
177.058	5087.88
181.952	2356.48
186.845	1933.16
191.734	2488.88
196.622	4910.59
201.507	6439.98
206.389	4964.34
211.269	5007.84
216.147	7420.26
221.022	12090.8
225.895	15516
230.765	13656.9
235.633	16436.2
240.498	20506
245.361	12414.4
250.222	4954.51
255.08	1871.82
259.936	2011.82
264.789	3639.53
269.64	9269.52
274.488	11691.5
279.334	6575.51
284.178	7107.4
289.019	12337.1
293.857	12085.3
298.693	7520.78
303.527	3738.51
308.358	1694.22
313.187	1262.46
318.013	3146.62
322.837	5294.86
327.659	4012.15
332.478	3957.45
337.294	7882.7
342.108	16372.9
346.92	22660
351.729	15589
356.535	6593.3
361.34	1824.04
366.141	285.238
370.94	1189.06
375.737	1064.84
380.531	178.412
385.323	1662.13
390.113	1127.94
394.9	235.061
399.684	225.377
404.466	642.641
409.245	3276.53
414.022	9853.34
418.797	21640
423.569	27734.5
428.338	24217.1
433.105	23604.2
437.87	24301.2
442.632	34593.2
447.391	50726.2
452.149	47743.4
456.903	33901.1
461.655	17595.7
466.405	8903.76
471.152	4762.13
475.897	3685.55
480.639	4060.67
485.378	6503.19
490.116	11477
494.85	17190
499.582	17800
504.312	15391
509.039	13238.6
513.764	11229.2
518.486	12828.4
523.206	9626.3
527.923	3709.8
532.638	1127.99
537.35	349.22
542.059	679.904
546.766	2160.28
551.471	6237.63
556.173	17264.3
560.873	36759.4
565.57	26971.4
570.264	11180
574.957	8058.02
579.646	10671.6
584.333	14689.9
589.018	18820.3
593.7	25537.1
598.379	24313.4
603.056	17386.7
607.73	12727.5
612.402	9721.97
617.072	6206.7
621.739	3317.24
626.403	1771.22
631.065	949.135
635.724	454.397
640.381	227.909
645.035	183.202
649.687	74.4756
654.336	88.7285
658.983	296.585
663.627	339.311
668.268	508.382
672.907	856.156
677.544	1358.63
682.178	2036.64
686.809	2164.76
691.438	1651.35
696.065	669.356
700.688	352.711
705.31	3.57031
709.929	5.76807
714.545	154.539
719.158	177.779
723.77	210.648
728.378	194.593
732.984	126.409
737.588	174.527
742.189	119.427
746.787	122.628
751.383	20.7725
755.976	95.5547
760.567	111.967
765.155	115.811
769.741	196.167
774.324	203.13
778.904	195.812
783.482	303.266
788.058	408.56
792.631	437.586
797.201	619.184
801.769	767.893
806.334	1016.72
810.897	1443.69
815.457	1962.84
820.014	2789.19
824.569	3936.77
829.122	4259.61
833.671	3802.76
838.219	3280.27
842.763	3343.91
847.306	3914.18
851.845	4631.54
856.382	6064.78
860.917	7832.35
865.448	10204.4
869.978	12517.8
874.505	13019
879.029	11489.2
883.55	9609.02
888.069	8466.27
892.586	8882.52
897.1	11292.8
901.611	16174.9
906.12	23788.7
910.626	32488.4
915.129	32367.9
919.63	21437.5
924.129	12560.9
928.625	7133.62
933.118	4653.02
937.609	3219.56
942.097	2362.47
946.582	2019.79
951.065	1805.59
955.546	1915.91
960.023	2163.83
964.499	2396.39
968.971	3672.64
973.441	6485.7
977.909	8395.65
982.374	5758.97
986.836	2947.29
991.295	1423.84
995.753	733.699
1000.21	365.155
1004.66	28.252
1009.11	7.4209
1013.55	293.236
1018	527.313
1022.44	860.835
1026.88	1797.39
1031.32	3343.32
1035.75	5212.88
1040.18	5605.77
1044.61	4640.37
1049.04	3553.39
1053.46	3664.26
1057.88	4627.69
1062.3	4536.33
1066.71	4259.89
1071.13	5233.52
1075.54	8837.8
1079.94	15465.5
1084.35	18694.3
1088.75	9916.89
1093.15	3988.3
1097.55	1852.4
1101.94	1131.05
1106.34	686.916
1110.73	397.29
1115.11	376.939
1119.5	323.684
1123.88	333.959
1128.26	177.883
1132.63	15.6807
1137.01	30.8286
1141.38	122.031
1145.75	128.882
1150.12	95.2314
1154.48	147.669
1158.84	125.492
1163.2	13.4629
1167.55	41.0659
1171.91	41.7529
1176.26	54.7637
1180.61	44.5483
1184.95	54.749
1189.29	65.7666
1193.63	62.9815
1197.97	98.4785
1202.31	144.742
1206.64	133.868
1210.97	106.369
1215.29	112.689
1219.62	26.4634
1223.94	75.4424
1228.26	73.8867
1232.57	41.6602
1236.89	131.892
1241.2	54.4536
1245.51	139.361
1249.81	92.6064
1254.12	168.152
1258.42	160.074
1262.72	19.3901
1267.01	187.886
1271.3	133.21
1275.59	64.8076
1279.88	130.503
1284.17	93.6484
1288.45	121.671
1292.73	91.5977
1297.01	80.98
1301.28	81.0415
1305.55	6.55322
1309.82	56.2412
1314.09	21.604
1318.35	95.5967
1322.61	41.0352
1326.87	68.5518
1331.13	81.5483
1335.38	141
1339.63	116.307
1343.88	146.957
1348.12	157.173
1352.37	242.896
1356.61	275.394
1360.85	217.138
1365.08	270.428
1369.31	308.335
1373.54	206.1
1377.77	227.842
1381.99	177.154
1386.22	122.789
1390.43	149.602
1394.65	83.5195
1398.87	138.485
1403.08	126.428
1407.29	74.5859
1411.49	163.168
1415.69	150.1
1419.89	78.0342
1424.09	109.234
1428.29	78.3193
1432.48	100.981
1436.67	116.269
1440.86	25.9722
1445.04	42.1382
1449.23	75.6021
1453.4	76.6089
1457.58	106.261
1461.76	121.259
1465.93	76.4443
1470.1	79.438
1474.26	106.238
1478.43	95.9243
1482.59	51.3457
1486.75	136.672
1490.9	116.086
1495.06	142.657
1499.21	137.92
1503.35	175.24
1507.5	171.682
1511.64	158.311
1515.78	138.349
1519.92	114.275
1524.05	62.521
1528.18	120.032
1532.31	76.7412
1536.44	23.8169
1540.56	46.4937
1544.69	46.9014
1548.8	79.0742
1552.92	177.342
1557.03	82.9624
1561.14	51.668
1565.25	121.54
1569.36	28.1426
