Measurement: Raman, 514 nm, depolarized, Raman Data Processed
Mineral: Epidote
Rruff sample: R050064
Ideal chemistry: Ca_2_Fe^3+^Al_2_(Si_2_O_7_)(SiO_4_)O(OH)
Locality: East Xichang City, Meigu County, Sichuan Province, China
Source: Rock Currier
Description: Green prismatic crystals
Measured chemistry: (Ca_1.99_Mn_0.01_)_Î£=2_Fe^3+^_1.00_Al_2.00_(Si_2.00_O_7_)(Si_1.00_O_4_)O(OH);
Pin_id: L00111
Orientation: Laser parallel to (-1 0 -1). Fiducial mark perpendicular to laser is parallel to -b [0 -1 0]
Raman shift (cm-1)	intensity
87.329	0
91.527	920.398
95.723	3480.58
99.917	4661.21
104.109	2289.57
108.298	787.309
112.486	340.949
116.672	97.748
120.855	1.423
125.036	415.847
129.216	777.106
133.393	514.098
137.568	52.259
141.741	38.637
145.911	89.975
150.08	2.787
154.247	28.322
158.411	271.991
162.574	1185.8
166.734	2746.37
170.893	4727.92
175.049	4720.19
179.203	2403.31
183.355	707.211
187.505	52.268
191.653	123.236
195.799	156.326
199.943	849.788
204.084	1068.53
208.224	591.688
212.362	37.42
216.497	14.273
220.631	487.588
224.762	1771.26
228.891	3277.2
233.018	3966.3
237.144	4974.65
241.267	6155.33
245.388	4558.2
249.507	2032.97
253.624	827.165
257.739	435.134
261.852	409.6
265.962	1244.9
270.071	3496.29
274.178	6837.72
278.283	6261.28
282.385	3624.75
286.486	2661.15
290.584	2556.81
294.681	3778.91
298.775	4484.45
302.868	3350.91
306.958	2566.36
311.047	3373.27
315.133	3765.03
319.217	2612.89
323.299	2225.72
327.38	2737
331.458	3092.72
335.534	2551.83
339.608	2250.33
343.681	3864.2
347.751	6561.43
351.819	6526.33
355.885	3713.31
359.949	2208.46
364.011	2114.08
368.071	2062.05
372.129	1143.6
376.185	235.027
380.239	32.288
384.291	226.418
388.341	698.844
392.389	558.579
396.435	242.654
400.479	104.019
404.521	170.54
408.561	205.108
412.599	1070.77
416.636	3034.86
420.67	6759.47
424.702	10962.5
428.732	11175.9
432.76	13829.8
436.786	15834.1
440.81	14188.8
444.832	16463.9
448.852	24199.5
452.87	31665.6
456.887	33032
460.901	22488.7
464.913	12145.8
468.923	6223.25
472.931	3428.11
476.938	2196.19
480.942	1791.52
484.944	1594.04
488.945	1754.69
492.943	2489.47
496.94	4486.36
500.934	5681.36
504.927	5590.44
508.917	5419.65
512.906	3680.9
516.892	1726.39
520.877	812.182
524.86	193.035
528.841	75.083
532.82	83.418
536.796	12.229
540.771	60.977
544.744	39.116
548.715	586.117
552.684	1225.73
556.652	2739.97
560.617	7040.46
564.58	14653.9
568.541	10893.5
572.501	5165.51
576.458	3533.68
580.414	4085.24
584.367	6350.76
588.319	8702.47
592.268	11422.8
596.216	15916.2
600.162	16722.1
604.106	13676.7
608.048	11941.3
611.988	11910.6
615.926	9708.9
619.862	6182.66
623.797	3620.79
627.729	2358.94
631.659	1518.01
635.588	1127.99
639.515	767.905
643.439	710.707
647.362	613.199
651.283	482.888
655.202	276.09
659.119	239.886
663.034	401.308
666.947	333.352
670.859	303.012
674.768	323.284
678.676	501.16
682.581	885.637
686.485	1287.52
690.387	1201.4
694.287	737.558
698.185	429.557
702.081	398.162
705.975	212.379
709.868	121.169
713.758	11.591
717.647	81.909
721.533	76.249
725.418	26.776
729.301	17.491
733.182	91.622
737.061	54.582
740.939	48.704
744.814	33.193
748.688	24.094
752.559	136.197
756.429	128.213
760.297	37.03
764.163	10.592
768.027	65.032
771.89	34.024
775.75	81.719
779.609	30.979
783.465	115.208
787.32	81.93
791.173	2.218
795.024	35.118
798.873	72.693
802.721	142.955
806.566	284.92
810.41	232.598
814.252	290.002
818.092	306.142
821.93	549.985
825.766	881.623
829.601	1197.02
833.433	1365.19
837.264	1380.15
841.093	1365.92
844.92	1710.68
848.745	2041.51
852.568	2695.32
856.39	3510.03
860.209	4896.27
864.027	6643.37
867.843	7461.25
871.657	7526.14
875.47	8173.46
879.28	10829.3
883.089	15962.3
886.896	19320
890.701	17437.2
894.504	12862.2
898.305	10097.3
902.105	9631.16
905.902	11230.4
909.698	14269.3
913.492	18387.2
917.285	19122.4
921.075	15190.2
924.864	9844.83
928.65	6264.39
932.435	4166.08
936.218	2968.31
940	2326.83
943.779	1826.86
947.557	1474.81
951.333	1328.58
955.107	1387.63
958.879	1552.07
962.65	1507.89
966.418	1572.02
970.185	1655.39
973.95	2531.02
977.714	4228.89
981.475	4926.04
985.235	3495.48
988.993	2025.41
992.749	1105.53
996.503	653.6
1000.26	470.949
1004.01	537.71
1007.75	610.886
1011.5	955.124
1015.25	1635.97
1018.99	2525.54
1022.73	2187.35
1026.47	1490.01
1030.21	1297.09
1033.95	1611.87
1037.68	2298.74
1041.41	2752.39
1045.15	2424.18
1048.88	1909.02
1052.6	1530.29
1056.33	1702.14
1060.05	2178.52
1063.78	2245
1067.5	1730.56
1071.21	1793.93
1074.93	2632.12
1078.65	4340.19
1082.36	7742.83
1086.07	11056.8
1089.78	7472.99
1093.49	3439.5
1097.2	1568.86
1100.9	895.626
1104.6	704.033
1108.3	503.701
1112	443.606
1115.7	362.323
1119.4	279.655
1123.09	315.422
1126.78	71.79
1130.47	17.271
1134.16	190.982
1137.85	271.483
1141.54	247.873
1145.22	168.92
1148.9	0.341
1152.58	117.898
1156.26	110.854
1159.94	28.734
1163.61	66.816
1167.28	119.316
1170.95	156.228
1174.62	105.695
1178.29	40.842
1181.96	141.042
1185.62	84.319
1189.29	7.262
1192.95	124.721
1196.61	89.897
1200.26	244.894
1203.92	165.956
1207.57	28.105
1211.23	16.471
1214.88	25.765
1218.53	3.03
1222.17	143.014
1225.82	210.883
1229.46	205.362
1233.11	203.826
1236.74	74.021
1240.38	78.17
1244.02	75.964
1247.66	59.806
1251.29	146.789
1254.92	131.642
1258.55	283.387
1262.18	264.676
1265.81	108.624
1269.43	69.416
1273.06	38.435
1276.68	5.979
1280.3	86.784
1283.91	180.881
1287.53	196.842
1291.15	329.872
1294.76	307.634
1298.37	159.89
1301.98	108.049
1305.59	0.689
1309.19	14.312
1312.8	129.056
1316.4	145.718
1320	329.735
1323.6	348.544
1327.2	217.198
1330.8	216.818
1334.39	151.501
1337.98	14.818
1341.58	108.032
1345.16	69.968
1348.75	184.473
1352.34	266.73
1355.92	266.751
1359.51	378.926
1363.09	381.119
1366.67	210.535
1370.24	192.965
1373.82	99.867
1377.39	123.164
1380.97	163.249
1384.54	223.542
1388.11	320.103
1391.68	352.24
1395.24	409.097
1398.81	359.227
1402.37	251.182
1405.93	182.689
1409.49	85.083
1413.05	13.419
1416.6	24.982
1420.16	122.201
1423.71	238.644
1427.26	291.621
1430.81	278.63
1434.36	334.596
1437.91	371.526
1441.45	286.695
1444.99	192.14
1448.54	151.124
1452.08	88.67
1455.61	164.553
1459.15	191.956
1462.68	291.027
1466.22	348.299
1469.75	374.675
1473.28	396.229
1476.81	306.704
1480.33	266.999
1483.86	230.375
1487.38	102.801
1490.9	105.361
1494.42	3.761
1497.94	60.991
1501.46	104.458
1504.97	117.682
1508.49	175.287
1512	401.977
1515.51	332.695
