Measurement: Raman, 514 nm, ccw, Raman Data Processed
Mineral: Epidote
Rruff sample: R050191
Ideal chemistry: Ca_2_Fe^3+^Al_2_(Si_2_O_7_)(SiO_4_)O(OH)
Locality: Pampa Blanca, Castrovirreyna Province, Huancavelica Department, Peru
Source: Dave Bunk Minerals
Description: Cluster of green elongated prismatic crystals
Measured chemistry: Ca_2.00_Al_2.00_(Fe^3+^_0.84_Al_0.16_)(SiO_4_)(Si_2_O_7_)O(OH)
Pin_id: L01970
Orientation: Laser parallel to b* (0 1 0). Fiducial mark perpendicular to laser is parallel to c [0 0 1]
Raman shift (cm-1)	intensity
74.951	0
79.895	3184.77
84.837	17224
89.777	35195.6
94.714	19662.3
99.649	6870.06
104.582	1832.19
109.512	516.45
114.44	89.46
119.365	234.731
124.288	3259.1
129.209	13829.3
134.127	8676.52
139.043	2492.05
143.956	1384.93
148.867	234.976
153.775	546.325
158.681	901.37
163.585	4995.26
168.486	4923.88
173.385	1820.66
178.282	277.453
183.176	374.459
188.067	832.162
192.956	1825.65
197.843	4847.61
202.727	6905.97
207.609	6149.8
212.489	7970.62
217.366	13355.6
222.24	22674.5
227.112	26415.8
231.982	15086.8
236.849	10218
241.714	9538.33
246.577	5712.1
251.437	3521.78
256.294	2698.81
261.149	3208.16
266.002	7190.82
270.852	17549.7
275.7	17691.9
280.545	6703.98
285.388	3559.86
290.229	4782.2
295.067	6278.17
299.902	4989.33
304.735	4217.75
309.566	3278.91
314.394	3130.84
319.22	5145.57
324.043	5622.15
328.864	1809.6
333.682	335.113
338.498	834.735
343.311	481.127
348.122	122.902
352.931	63.1587
357.737	50.6606
362.54	195.336
367.341	319.945
372.14	144.99
376.936	1203.62
381.73	4149.6
386.521	7802.81
391.31	5206.2
396.096	2691.76
400.88	2306.44
405.661	3336.36
410.44	6952.66
415.216	17112.2
419.99	37301.9
424.761	38254
429.53	26508.1
434.297	19225.3
439.061	15062.2
443.822	21032.8
448.581	29611.1
453.337	26663.2
458.091	17901
462.843	10283.2
467.592	6246.74
472.338	4146.64
477.082	3282.46
481.824	3702.35
486.563	5042.32
491.3	8298.46
496.034	13048.1
500.765	14428
505.494	17407.3
510.221	17343.2
514.945	19504.5
519.666	27777.7
524.385	18165.4
529.102	7701.18
533.816	3703.89
538.527	2739.54
543.236	2944.12
547.943	4701.6
552.647	9424.98
557.348	25158.2
562.047	51908.1
566.744	32239.6
571.438	14915.7
576.129	12110.3
580.818	16873.7
585.504	22481.5
590.188	28250.9
594.87	37552.1
599.549	32716.2
604.225	22937.7
608.899	17661.7
613.57	13328.9
618.239	7898.45
622.905	4907.76
627.569	3232.62
632.23	2134.98
636.889	1545.73
641.545	1083.14
646.198	1080.59
650.849	934.181
655.498	975.18
660.144	1080.84
664.787	1039.87
669.428	1301.22
674.067	1343.87
678.703	1564.77
683.336	1710.78
687.967	1539.17
692.595	736.592
697.221	306.12
701.844	20.6885
706.465	143.317
711.083	208.965
715.698	267.746
720.311	202.419
724.922	340.986
729.53	254.905
734.135	185.92
738.738	159.514
743.338	185.574
747.936	158.852
752.531	60.2031
757.124	94.0317
761.714	186.667
766.302	256.049
770.887	266.253
775.469	94.2935
780.049	338.125
784.626	157.785
789.201	299.254
793.773	413.563
798.343	608.731
802.91	860.334
807.475	1267.75
812.037	1818.65
816.596	2890.53
821.153	4401.4
825.707	6366.31
830.259	6789.28
834.808	5134.35
839.355	3977.02
843.899	3587.53
848.441	3812.06
852.98	4694.61
857.516	5931.27
862.05	7880.93
866.581	9369.17
871.11	8565.76
875.636	7292.15
880.159	6109.97
884.68	6176.08
889.199	7278.95
893.714	9577.24
898.228	14370.4
902.738	22345.7
907.246	35083.7
911.752	50119.6
916.255	51605.8
920.755	33412.8
925.253	18723.2
929.748	10617.8
934.241	6492.32
938.731	4386.66
943.218	3141.89
947.703	2690.01
952.186	2775.02
956.665	2809.95
961.142	2676.81
965.617	2930.64
970.089	4594.46
974.558	8376.35
979.025	11348.8
983.489	7998.15
987.951	3944.77
992.41	1988.98
996.866	1104.75
1001.32	477.287
1005.77	93.4824
1010.22	25.0889
1014.67	59.6133
1019.11	418.484
1023.55	732.852
1027.99	1647.36
1032.42	3468.31
1036.86	5753.67
1041.29	6622.76
1045.72	5701.44
1050.14	4250.56
1054.56	5101.41
1058.98	7050.54
1063.4	6543.6
1067.82	5522.9
1072.23	7092.28
1076.64	12023.2
1081.05	22900.2
1085.45	26655.1
1089.85	14115.9
1094.25	5469.31
1098.65	2533.27
1103.04	1342.92
1107.43	679.244
1111.82	476.409
1116.21	419.132
1120.59	468.887
1124.97	326.419
1129.35	181.25
1133.73	146.223
1138.1	42.7895
1142.47	36.7349
1146.84	133.916
1151.21	89.6953
1155.57	10.5991
1159.93	86.4209
1164.29	112.552
1168.64	24.8096
1172.99	16.7617
1177.34	9.50781
1181.69	37.9634
1186.04	83.9189
1190.38	84.5117
1194.72	134.977
1199.05	139.739
1203.39	100.908
1207.72	61.4199
1212.05	124.508
1216.37	336.603
1220.7	233.362
1225.02	327.369
1229.34	254.606
1233.65	254.217
1237.97	195.178
1242.28	309.415
1246.59	213.086
1250.89	377.074
1255.19	341.224
1259.49	462.397
1263.79	355.987
1268.09	472.267
1272.38	351.812
1276.67	347.598
1280.95	287.981
1285.24	339.169
1289.52	329.506
1293.8	260.252
1298.08	218.132
1302.35	177.281
1306.62	283.9
1310.89	253.15
1315.15	191.136
1319.42	255.922
1323.68	157.161
1327.94	201.309
1332.19	4.82373
1336.44	236.461
1340.69	88.0801
1344.94	160.757
1349.19	192.037
1353.43	196.841
1357.67	236.152
1361.9	221.088
1366.14	236.658
1370.37	174.829
1374.6	119.585
1378.83	239.448
1383.05	209.63
1387.27	98.6187
1391.49	121.036
1395.7	115.01
1399.92	42.6977
1404.13	63.1655
1408.34	69.4116
1412.54	10.9458
1416.74	105.146
1420.94	183.529
1425.14	81.9609
1429.34	198.202
1433.53	59.1367
1437.72	180.526
1441.9	248.793
1446.09	241.774
1450.27	414.795
1454.45	324.614
1458.63	322.83
1462.8	337.674
1466.97	286.414
1471.14	140.144
1475.31	203.295
1479.47	216.579
1483.63	122.687
1487.79	97.3135
1491.94	184.239
1496.09	116.794
1500.24	5.91992
1504.39	261.042
1508.54	209.472
1512.68	18.5977
1516.82	122.996
1520.95	50.4116
1525.09	94.3564
1529.22	136.308
1533.35	115.403
1537.47	174.887
1541.6	77.2647
1545.72	24.4536
1549.83	28.4512
1553.95	96.6655
1558.06	87.3931
1562.17	44.499
1566.28	5.24951
1570.38	67.085
