Measurement: Raman, 514 nm, depolarized, Raman Data Processed
Mineral: Epidote
Rruff sample: R040089
Ideal chemistry: Ca_2_Fe^3+^Al_2_(Si_2_O_7_)(SiO_4_)O(OH)
Locality: Grafton County, New Hampshire, USA
Source: University of Arizona Mineral Museum
Description: Dark green coarsely crystalline massive
Measured chemistry: Ca_2.00_(Al_2.36_Fe^3+^_0.64_)[Si_2.00_O_7_][Si_1.00_O_4_]O(OH)
Pin_id: M00420
Orientation: Laser parallel to [1 0 1]. Fiducial mark perpendicular to laser is parallel to b* (0 1 0)
Raman shift (cm-1)	intensity
84.891	0
89.089	201.638
93.284	1223.42
97.477	3372.32
101.667	3888.74
105.856	5574.72
110.042	7285.98
114.226	4587.62
118.408	2233.53
122.588	1763.17
126.765	1177.37
130.94	965.376
135.113	709.118
139.284	894.964
143.452	1089.95
147.618	890.344
151.782	1148.05
155.944	1641.54
160.104	1522.64
164.261	917.22
168.417	663.646
172.57	652.408
176.72	923.422
180.869	1076.49
185.015	561.267
189.16	147.688
193.302	442.674
197.442	277.044
201.579	60.445
205.715	52.954
209.848	384.494
213.979	961.938
218.108	729.417
222.235	685.638
226.359	217.398
230.482	616.41
234.602	1355.9
238.72	2472.78
242.836	3225.53
246.949	3395.03
251.061	4225.09
255.17	5140.14
259.277	4414.27
263.382	2339.92
267.485	1105.91
271.586	1221.5
275.684	2986.46
279.781	6340.44
283.875	7362.63
287.967	4143.35
292.057	2682.99
296.144	2251.78
300.23	1939.92
304.313	2275.45
308.395	2784.96
312.474	2881.18
316.551	2227.65
320.625	2064.49
324.698	1921.67
328.769	1549.19
332.837	1187.01
336.903	1774.98
340.968	2723.03
345.03	2691.59
349.089	2420.35
353.147	3502.03
357.203	4948.8
361.256	3957.66
365.308	2165.07
369.357	1411.57
373.404	1229.33
377.449	800.619
381.492	176.919
385.533	66.586
389.571	192.98
393.608	71.741
397.642	835.974
401.675	1205.99
405.705	645.697
409.733	75.276
413.759	133.183
417.783	246.841
421.804	1466.13
425.824	3696.77
429.842	8767.69
433.857	13568.9
437.871	12270.5
441.882	10002.5
445.891	10364.9
449.898	13737.7
453.903	19081
457.906	24814.6
461.907	26228.5
465.906	25522.8
469.902	24017.4
473.897	20392.4
477.889	15227.6
481.88	10603.2
485.868	7898.88
489.854	6164.72
493.839	4690.69
497.821	3846.75
501.801	3182.9
505.779	3209.12
509.755	3655.4
513.729	4091.9
517.7	4359.19
521.67	3537.6
525.638	1727.07
529.603	757.338
533.567	212.792
537.528	33.777
541.488	88.508
545.445	133.239
549.4	36.323
553.354	292.221
557.305	1002.98
561.254	1922.86
565.201	3374.53
569.146	7176.46
573.089	16657.8
577.03	16101.4
580.969	6751.53
584.906	3495.32
588.841	3069.07
592.774	4210.52
596.705	5858.72
600.633	7942.26
604.56	11236
608.485	15074.6
612.408	14494.2
616.328	10612.5
620.247	7640.54
624.163	5237.16
628.078	3663.11
631.991	2660.17
635.901	1848.96
639.81	1108.37
643.716	844.229
647.621	750.667
651.523	733.748
655.424	636.503
659.322	535.408
663.218	802.838
667.113	1149.79
671.005	1146.25
674.896	1058.21
678.784	903.648
682.671	950.55
686.555	1303.89
690.437	1887.67
694.318	2053.69
698.196	1853.07
702.073	1542.26
705.947	1246.41
709.82	1067.35
713.69	594.729
717.558	295.526
721.425	140.712
725.289	129.232
729.152	137.196
733.013	47.704
736.871	64.919
740.728	53.132
744.582	114.204
748.435	54.365
752.286	122.886
756.134	154.892
759.981	121.435
763.826	107.383
767.668	11.349
771.509	10.848
775.348	105.835
779.185	161.672
783.02	68.568
786.853	4.662
790.684	81.129
794.513	98.841
798.34	6.99
802.165	153.587
805.988	225.682
809.809	404.296
813.628	522.459
817.446	623.184
821.261	639.482
825.074	935.366
828.886	1376.85
832.695	1517.93
836.503	1666.64
840.309	1774.98
844.112	1712.97
847.914	2020.63
851.714	2518.07
855.512	2785.34
859.308	3042.33
863.102	3749.06
866.894	4805.54
870.684	6761.11
874.472	7994.6
878.258	8585.3
882.043	9002.92
885.825	9546.82
889.606	10720.6
893.384	12342.4
897.161	13419.5
900.936	12006.5
904.709	9978.47
908.479	9317.28
912.248	10899.8
916.016	13016.1
919.781	13757.8
923.544	12843.2
927.305	9991.3
931.065	7834.53
934.822	6147.6
938.578	5108.18
942.332	4353.1
946.083	3657.14
949.833	2971.94
953.581	2658.34
957.328	2775.48
961.072	3073.6
964.814	3302.19
968.555	3151.06
972.293	2880.24
976.03	3099.72
979.765	4379.52
983.497	7089.66
987.228	8610.13
990.958	6670.93
994.685	3852.11
998.41	2173.69
1002.13	1425.67
1005.86	898.093
1009.58	872.819
1013.29	999.426
1017.01	1014.28
1020.72	1241.17
1024.43	1721.32
1028.14	1945.11
1031.85	2177.86
1035.56	2296.06
1039.27	2759.35
1042.97	3201.25
1046.67	3414.34
1050.37	3373.46
1054.07	2979.68
1057.76	2721.63
1061.45	2578.12
1065.15	2220.84
1068.84	2065.73
1072.52	2127.28
1076.21	2634.52
1079.89	4071.09
1083.58	6661.55
1087.26	10758
1090.94	14915.1
1094.61	14122.1
1098.29	8163.39
1101.96	3810.59
1105.63	1908.6
1109.3	1209.51
1112.97	1127.93
1116.63	938.225
1120.3	657.435
1123.96	677.374
1127.62	380.116
1131.28	319.971
1134.94	239.713
1138.59	374.431
1142.24	249.08
1145.89	183.218
1149.55	48.941
1153.19	83.203
1156.84	118.203
1160.48	41.397
1164.12	171.823
1167.76	111.546
1171.4	85.484
1175.04	117.486
1178.67	30.959
1182.31	135.32
1185.94	92.827
1189.57	163.319
1193.19	88.955
1196.82	182.422
1200.44	226.156
1204.07	75.992
1207.69	145.733
1211.3	15.37
1214.92	110.312
1218.54	68.54
1222.15	45.559
1225.76	122.9
1229.37	331.524
1232.98	297.48
1236.58	132.99
1240.19	21.245
1243.79	106.431
1247.39	148.019
1250.99	82.322
1254.59	226.267
1258.18	300.171
1261.77	315.069
1265.37	337.863
1268.95	230.032
1272.54	261.522
1276.13	162.896
1279.71	53.6
1283.3	203.855
1286.88	283.528
1290.46	222.52
1294.03	251.038
1297.61	87.189
1301.18	61.416
1304.75	102.466
1308.32	2.704
1311.89	46.83
1315.46	96.761
1319.02	353.005
1322.59	339.387
1326.15	386.207
1329.71	375.581
1333.27	179.977
1336.82	82.278
1340.38	31.021
1343.93	35.973
1347.48	146.4
1351.03	272.752
1354.58	351.852
1358.12	414.604
1361.66	505.024
1365.21	351.885
1368.75	130.206
1372.29	123.93
1375.82	190.285
1379.36	122.463
1382.89	217.383
1386.42	299.347
1389.95	470.938
1393.48	408.943
1397.01	397.722
1400.53	360.043
1404.05	298.043
1407.57	237.559
1411.09	271.379
1414.61	88.508
1418.13	95.821
1421.64	184.199
1425.15	282.227
1428.66	263.858
1432.17	364.15
1435.68	484.69
1439.19	426.276
1442.69	380.008
1446.19	150.179
1449.69	249.793
1453.19	188.435
1456.69	305.255
1460.18	217.966
1463.68	335.716
1467.17	434.516
1470.66	403.26
1474.15	563.556
1477.63	463.938
1481.12	374.729
1484.6	265.853
1488.08	88.576
1491.56	22.579
1495.04	17.981
1498.52	8.31
1501.99	146.11
1505.46	178.717
1508.94	248.875
