Measurement: Raman, 514 nm, depolarized, Raman Data Processed
Mineral: Epidote
Rruff sample: R050191
Ideal chemistry: Ca_2_Fe^3+^Al_2_(Si_2_O_7_)(SiO_4_)O(OH)
Locality: Pampa Blanca, Castrovirreyna Province, Huancavelica Department, Peru
Source: Dave Bunk Minerals
Description: Cluster of green elongated prismatic crystals
Measured chemistry: Ca_2.00_Al_2.00_(Fe^3+^_0.84_Al_0.16_)(SiO_4_)(Si_2_O_7_)O(OH)
Pin_id: L01410
Orientation: Laser parallel to c* (0 0 1). Fiducial mark perpendicular to laser is parallel to -a [-1 0 0]
Raman shift (cm-1)	intensity
53.91	0
58.864	363.914
63.817	55.7952
68.767	207.603
73.714	1357.52
78.659	6176.07
83.602	17990.6
88.542	28136.2
93.48	26647.6
98.416	16426.9
103.349	7705.98
108.28	6588.93
113.208	3650.42
118.134	3376
123.058	4973.93
127.979	7429.14
132.898	6496.82
137.814	4233.8
142.728	2945.72
147.639	2654.6
152.549	3078.06
157.455	4683.97
162.359	7926.77
167.261	10880
172.161	9960.72
177.058	6359.97
181.952	4669.74
186.845	4258.41
191.734	4015.36
196.622	4823.72
201.507	5939.98
206.389	5220.52
211.269	5910.03
216.147	9054.09
221.022	14797.4
225.895	19174.7
230.765	15141.2
235.633	10921.8
240.498	10361.1
245.361	7784.64
250.222	5987.12
255.08	4922.53
259.936	4408.37
264.789	6772.54
269.64	13269.4
274.488	14589.8
279.334	7425.65
284.178	3461.89
289.019	3031.36
293.857	3714.77
298.693	3619.08
303.527	3025.28
308.358	3204.33
313.187	2968.22
318.013	2564.94
322.837	2459.45
327.659	835.736
332.478	193.254
337.294	374.12
342.108	2935.83
346.92	5386.05
351.729	3762.97
356.535	1021.81
361.34	328.51
366.141	812.254
370.94	1030.81
375.737	658.711
380.531	1270.79
385.323	3654.24
390.113	3021.69
394.9	794.077
399.684	112.685
404.466	351.807
409.245	2261.91
414.022	8370.73
418.797	20659.2
423.569	27218.6
428.338	23653.2
433.105	21373.2
437.87	16594.9
442.632	17142.6
447.391	23028.2
452.149	23110.8
456.903	17438.2
461.655	9793.21
466.405	5157.68
471.152	2710.41
475.897	1315.81
480.639	1331.73
485.378	2230.1
490.116	4246.52
494.85	7677.87
499.582	10736.1
504.312	12223.7
509.039	12223.6
513.764	11742.6
518.486	14589
523.206	10791.4
527.923	4359.34
532.638	1227.97
537.35	450.219
542.059	729.89
546.766	1987.27
551.471	4925.98
556.173	14657
560.873	31307
565.57	25410.4
570.264	11736.5
574.957	8178.14
579.646	11136
584.333	16462.6
589.018	22883.8
593.7	32291
598.379	32965.5
603.056	24280
607.73	18512.1
612.402	14779.9
617.072	9306.79
621.739	5099.32
626.403	3081.86
631.065	1969.82
635.724	1287.6
640.381	872.707
645.035	506.34
649.687	457.04
654.336	455.059
658.983	616.038
663.627	607.906
668.268	744.635
672.907	806.164
677.544	1088.44
682.178	1203.46
686.809	1093.58
691.438	704.944
696.065	371.027
700.688	140.517
705.31	209.106
709.929	99.8506
714.545	158.118
719.158	160.719
723.77	223.963
728.378	223.047
732.984	155.055
737.588	273.627
742.189	95.7212
746.787	117.894
751.383	26.0591
755.976	4.10938
760.567	185.167
765.155	245.418
769.741	313.832
774.324	250.474
778.904	173.285
783.482	293.423
788.058	229.469
792.631	310.014
797.201	501.903
801.769	707.159
806.334	970.815
810.897	1415.91
815.457	2124.48
820.014	3202.57
824.569	4726.21
829.122	5610.45
833.671	4657.32
838.219	3708.52
842.763	3225.68
847.306	3465.71
851.845	3956.53
856.382	4873.67
860.917	5959.07
865.448	7120.96
869.978	7504.89
874.505	7078.02
879.029	6745.57
883.55	6817.16
888.069	7709.67
892.586	9773.82
897.1	13870.9
901.611	21432.4
906.12	33422.3
910.626	48768.7
915.129	54132.4
919.63	40524.9
924.129	23628.7
928.625	13344.1
933.118	8219.8
937.609	5459.32
942.097	4048.68
946.582	3505.83
951.065	3548.8
955.546	3849.59
960.023	3544.25
964.499	3087.8
968.971	3786.31
973.441	5921.88
977.909	8628.86
982.374	6952.69
986.836	3688.81
991.295	1859.46
995.753	1021.76
1000.21	517.807
1004.66	26.6016
1009.11	117.939
1013.55	198.943
1018	296.054
1022.44	703.333
1026.88	1361.93
1031.32	2616.67
1035.75	4151.95
1040.18	5053.64
1044.61	4332.35
1049.04	3615.2
1053.46	3762.61
1057.88	4684.78
1062.3	4791.8
1066.71	4181.07
1071.13	4940.65
1075.54	7919.9
1079.94	14562.9
1084.35	21775
1088.75	15709.6
1093.15	6360.63
1097.55	2441.4
1101.94	1213.38
1106.34	683.48
1110.73	653.184
1115.11	719.498
1119.5	1123.03
1123.88	1231.68
1128.26	658.195
1132.63	180.251
1137.01	146.837
1141.38	42.7383
1145.75	127.285
1150.12	55.0547
1154.48	126.425
1158.84	57.9375
1163.2	184.9
1167.55	71.2939
1171.91	11.8408
1176.26	23.2451
1180.61	7.60938
1184.95	14.7305
1189.29	68.4033
1193.63	17.9541
1197.97	89.4082
1202.31	71.1074
1206.64	86.2588
1210.97	174.131
1215.29	131.653
1219.62	198.366
1223.94	286.597
1228.26	66.1533
1232.57	223.202
1236.89	219.941
1241.2	219.926
1245.51	248.1
1249.81	184.588
1254.12	157.089
1258.42	221.861
1262.72	186.718
1267.01	408.433
1271.3	239.994
1275.59	259.29
1279.88	249.462
1284.17	208.61
1288.45	303.127
1292.73	140.157
1297.01	233.802
1301.28	283.257
1305.55	284.614
1309.82	254.581
1314.09	57.1865
1318.35	164.225
1322.61	234.917
1326.87	98.7695
1331.13	146.254
1335.38	101.092
1339.63	126.551
1343.88	261.4
1348.12	250.698
1352.37	237.785
1356.61	305.719
1360.85	269.184
1365.08	157.716
1369.31	298.764
1373.54	107.495
1377.77	175.63
1381.99	245.931
1386.22	154.344
1390.43	201.149
1394.65	118.002
1398.87	197.542
1403.08	212.103
1407.29	26.4961
1411.49	69.7344
1415.69	122.125
1419.89	152.964
1424.09	147.028
1428.29	76.9648
1432.48	160.598
1436.67	173.253
1440.86	282.331
1445.04	118.897
1449.23	322.371
1453.4	229.977
1457.58	179.092
1461.76	182.906
1465.93	42.3037
1470.1	50.1543
1474.26	92.8594
1478.43	97.2236
1482.59	71.5019
1486.75	191.19
1490.9	110.355
1495.06	210.397
1499.21	143.45
1503.35	145.39
1507.5	37.1758
1511.64	175.628
1515.78	161.735
1519.92	73.9766
1524.05	158.797
1528.18	111.625
1532.31	149.476
1536.44	75.1191
1540.56	40.4932
1544.69	77.584
1548.8	22.3545
1552.92	253.766
1557.03	109.164
1561.14	181.956
1565.25	41.375
1569.36	1.55664
