Measurement: Raman, 514 nm, depolarized, Raman Data Processed
Mineral: Epidote
Rruff sample: R050303
Ideal chemistry: Ca_2_Fe^3+^Al_2_(Si_2_O_7_)(SiO_4_)O(OH)
Locality: San Martin mine, Zacatecas, Mexico
Source: Eugene Schlepp
Description: Green elongated prismatic crystals
Measured chemistry: Ca_2.00_Al_2.00_(Fe^3+^_0.97_Al_0.03_)(SiO_4_)(Si_2_O_7_)O(OH)
Pin_id: L01741
Orientation: Laser parallel to -a* (-1 0 0). Fiducial mark perpendicular to laser is parallel to -b [0 -1 0]
Raman shift (cm-1)	intensity
53.91	0
58.864	476.35
63.817	42.8011
68.767	0.518799
73.714	813.454
78.659	3027.29
83.602	9422.27
88.542	17680.8
93.48	17276.6
98.416	11896.4
103.349	6493.56
108.28	6437.71
113.208	5017.72
118.134	5110.69
123.058	5420.16
127.979	7023.36
132.898	7070.88
137.814	5933.93
142.728	6925.93
147.639	6805.59
152.549	7857.62
157.455	12799.6
162.359	22648.7
167.261	26374.3
172.161	24214.5
177.058	13109.9
181.952	7058.82
186.845	5480.8
191.734	4553.73
196.622	5403.42
201.507	5803.39
206.389	3771.08
211.269	2624.78
216.147	3490.8
221.022	5764.63
225.895	10404.6
230.765	14127.5
235.633	20725.3
240.498	26241.2
245.361	14332.6
250.222	6600.85
255.08	4027.28
259.936	3372.2
264.789	2751.47
269.64	5069.08
274.488	7157.71
279.334	5703.16
284.178	7705.44
289.019	13529.5
293.857	12672.1
298.693	6653.06
303.527	3590.21
308.358	3376.36
313.187	4381.36
318.013	5407.1
322.837	8319.44
327.659	9885.29
332.478	10035.5
337.294	14138.9
342.108	26861.5
346.92	37799.1
351.729	25641.3
356.535	11711.4
361.34	5997.68
366.141	2975.44
370.94	177.377
375.737	1064.35
380.531	746.609
385.323	974.891
390.113	1361.02
394.9	147.512
399.684	447.727
404.466	89.9453
409.245	1653.11
414.022	4691.63
418.797	9267.39
423.569	15240.4
428.338	22734.9
433.105	34315.8
437.87	27592.4
442.632	32128.6
447.391	43385.4
452.149	37662.8
456.903	24240.5
461.655	11360.3
466.405	5455.22
471.152	3002.82
475.897	2110.86
480.639	3019.34
485.378	5459.05
490.116	10498.6
494.85	17757.8
499.582	18297.4
504.312	14576.1
509.039	10579.8
513.764	4368.19
518.486	2501.95
523.206	1315.29
527.923	209.885
532.638	453.367
537.35	470.094
542.059	143.555
546.766	962.584
551.471	3432.72
556.173	10137.6
560.873	21617
565.57	16191.2
570.264	7198.98
574.957	6164.5
579.646	9598.89
584.333	14613.8
589.018	19680.7
593.7	27921.6
598.379	26430.9
603.056	20040.2
607.73	18602.6
612.402	16626
617.072	10310.7
621.739	5765.49
626.403	3751.88
631.065	2339.43
635.724	1665.59
640.381	1387.44
645.035	1179.42
649.687	1094.55
654.336	822.492
658.983	597.115
663.627	616.627
668.268	691.723
672.907	768.078
677.544	841.561
682.178	1300.39
686.809	1529.73
691.438	1069.7
696.065	528.076
700.688	228.539
705.31	101.885
709.929	5.21875
714.545	41.0195
719.158	20.2773
723.77	128.701
728.378	44.5938
732.984	103.92
737.588	43.6055
742.189	226.213
746.787	168.617
751.383	19.0898
755.976	160.916
760.567	114.539
765.155	0.597656
769.741	122.58
774.324	90.2676
778.904	215.402
783.482	194.281
788.058	237.117
792.631	494.057
797.201	285.094
801.769	519.547
806.334	580.424
810.897	763.176
815.457	1188.79
820.014	1590.21
824.569	2181.04
829.122	2611.43
833.671	2979.41
838.219	3557.08
842.763	3947.33
847.306	5266.39
851.845	6724.79
856.382	10153.9
860.917	13928.5
865.448	16546.3
869.978	20149.2
874.505	26981.3
879.029	33699.3
883.55	37732.1
888.069	31265.2
892.586	22018.3
897.1	18399
901.611	19314.5
906.12	24513.6
910.626	32185.1
915.129	33943.7
919.63	23602
924.129	13486.5
928.625	8204.18
933.118	5156.35
937.609	3318.4
942.097	2476.35
946.582	1684.12
951.065	1264.85
955.546	1244.38
960.023	1046.74
964.499	1146.05
968.971	1550.27
973.441	2817.54
977.909	3409.07
982.374	2066.25
986.836	1099.31
991.295	564.531
995.753	341.978
1000.21	645.041
1004.66	944.014
1009.11	1658.87
1013.55	3474.71
1018	4534.13
1022.44	3253.63
1026.88	2022.53
1031.32	2086.62
1035.75	2359.18
1040.18	2517.86
1044.61	2057.18
1049.04	1252.9
1053.46	1144.29
1057.88	1017.42
1062.3	1075.49
1066.71	1187.59
1071.13	1856.1
1075.54	3148.17
1079.94	6658.92
1084.35	9477.52
1088.75	5130.52
1093.15	2198.74
1097.55	927.654
1101.94	596.752
1106.34	552.984
1110.73	167.357
1115.11	257.815
1119.5	530.604
1123.88	297.129
1128.26	304.748
1132.63	99.5664
1137.01	26.9961
1141.38	67.5098
1145.75	58.4316
1150.12	110.371
1154.48	180.961
1158.84	83.2988
1163.2	163.408
1167.55	108.195
1171.91	165.037
1176.26	15.541
1180.61	228.512
1184.95	147.445
1189.29	228.637
1193.63	76.5684
1197.97	143.281
1202.31	188.836
1206.64	41.3984
1210.97	107.965
1215.29	189.58
1219.62	198.361
1223.94	17.0645
1228.26	136.254
1232.57	167.404
1236.89	200.785
1241.2	194.656
1245.51	276.363
1249.81	152.031
1254.12	53.1211
1258.42	125.334
1262.72	86.1055
1267.01	368.961
1271.3	306.662
1275.59	307.805
1279.88	143.981
1284.17	356.447
1288.45	136.949
1292.73	132.856
1297.01	68.9316
1301.28	258.873
1305.55	38.0469
1309.82	68.6562
1314.09	176.883
1318.35	328.045
1322.61	299.916
1326.87	393.352
1331.13	269.875
1335.38	7.34961
1339.63	78.3106
1343.88	60.0156
1348.12	262.742
1352.37	321.24
1356.61	218.406
1360.85	416.352
1365.08	161.346
1369.31	314.508
1373.54	276.92
1377.77	290.113
1381.99	190.373
1386.22	200.059
1390.43	288.795
1394.65	313.947
1398.87	277.498
1403.08	87.3262
1407.29	143.334
1411.49	63.2773
1415.69	205.484
1419.89	109.455
1424.09	48.7285
1428.29	222.793
1432.48	435.053
1436.67	626.764
1440.86	579.521
1445.04	569.693
1449.23	467.375
1453.4	737.084
1457.58	754.949
1461.76	679.119
1465.93	562.611
1470.1	609.438
1474.26	382.586
1478.43	187.76
1482.59	466.699
1486.75	327.35
1490.9	393.971
1495.06	258.836
1499.21	239.168
1503.35	66.3828
1507.5	219.621
1511.64	410.576
1515.78	236.498
1519.92	286.106
1524.05	59.9961
1528.18	184.076
1532.31	160.984
1536.44	343.141
1540.56	97.7812
1544.69	325.465
1548.8	245.373
1552.92	397.918
1557.03	215.506
1561.14	16.9023
1565.25	128.455
1569.36	170.644
