Measurement: Raman, 514 nm, depolarized, Raman Data Processed
Mineral: Epidote
Rruff sample: R050131
Ideal chemistry: Ca_2_Fe^3+^Al_2_(Si_2_O_7_)(SiO_4_)O(OH)
Locality: Calumet mine, Chaffee County, Colorado, USA
Source: Dave Bunk Minerals
Description: Green prismatic crystal
Measured chemistry: Ca_2.00_Al_2.00_(Fe^3+^_0.75_Al_0.25_)(SiO_4_)(Si_2_O_7_)O(OH)
Pin_id: L00405
Orientation: Laser parallel to b* (0 1 0). Fiducial mark perpendicular to laser is parallel to c [0 0 1]
Raman shift (cm-1)	intensity
121.31	0
125.482	155.545
129.653	1645.84
133.821	4974.52
137.987	4623.85
142.152	1829.28
146.314	1245.61
150.474	1142.85
154.633	622.855
158.789	1506.02
162.943	4206.99
167.095	5685.59
171.246	3932.47
175.394	1958.21
179.54	884.746
183.684	86.378
187.826	149.411
191.967	179.542
196.105	5.106
200.241	285.262
204.375	738.908
208.507	915.383
212.638	810.222
216.766	1043.79
220.892	1789.82
225.016	3328.9
229.139	4589.73
233.259	4320.4
237.377	3455.4
241.493	4557.33
245.608	6862.8
249.72	6977.42
253.83	4048.76
257.939	2041.83
262.045	1184.49
266.15	1226.74
270.252	2363.59
274.353	5157.94
278.451	5690.86
282.548	2590.39
286.642	1565.28
290.735	1798.73
294.826	2767.45
298.914	3271.43
303.001	2093.17
307.086	932.864
311.168	302.643
315.249	90.19
319.328	304.606
323.405	726.323
327.48	1552.99
331.553	1346.1
335.624	1287.64
339.693	1510.55
343.76	2535.81
347.826	5707.46
351.889	7552.79
355.95	4703.36
360.01	1943.44
364.067	780.889
368.123	155.331
372.176	200.917
376.228	413.4
380.277	362.588
384.325	53.57
388.371	731.734
392.415	1362.09
396.457	1086.66
400.497	459.55
404.535	261.97
408.571	118.05
412.605	580.145
416.638	1820.16
420.668	4306.71
424.697	9354.09
428.723	11718.3
432.748	9413.23
436.77	7928.83
440.791	7154.96
444.81	8351.51
448.827	13798.3
452.842	16555.2
456.855	14022
460.867	11998.8
464.876	9995.62
468.883	7182.4
472.889	4341.93
476.892	2924.01
480.894	2977.96
484.894	2699.06
488.892	2798.38
492.888	3000.25
496.882	3459.85
500.874	4680.68
504.865	5713.51
508.853	6441.5
512.84	6519.93
516.824	5409.09
520.807	5469.02
524.788	6639.35
528.767	5153.77
532.744	2703.64
536.719	1459.52
540.693	950.198
544.664	795.055
548.634	1024.23
552.601	1747.06
556.567	2624.35
560.531	4696.55
564.493	10605.3
568.453	18158.3
572.412	10087.2
576.368	4517.03
580.323	3049.68
584.275	3196.78
588.226	4228.83
592.175	5471.33
596.122	7510.2
600.068	10415.9
604.011	10792.4
607.952	8453.16
611.892	5943.43
615.83	4253.51
619.766	2907.41
623.7	1906.12
627.632	1382.01
631.563	953.955
635.491	638.398
639.418	412.93
643.343	323.786
647.266	311.122
651.187	263.426
655.106	202.419
659.024	397.158
662.939	611.641
666.853	739.861
670.765	616.81
674.675	602.477
678.583	721.845
682.49	997.905
686.394	1261.65
690.297	1254.22
694.198	830.075
698.097	485.525
701.995	357.182
705.89	204.539
709.784	64.516
713.675	49.948
717.565	143.141
721.453	100.427
725.34	106.893
729.224	123.681
733.107	125.862
736.988	207.364
740.867	110.316
744.744	46.56
748.62	14.996
752.493	68.418
756.365	18.669
760.235	201.505
764.103	458.306
767.969	686.765
771.834	735.886
775.697	508.673
779.558	284.131
783.417	176.26
787.274	94.036
791.13	117.426
794.983	78.449
798.835	75.127
802.686	223.421
806.534	399.024
810.38	449.636
814.225	543.102
818.068	647.288
821.909	907.198
825.749	1397.84
829.586	1967.21
833.422	2015.33
837.256	1686.2
841.088	1469.83
844.919	1411.21
848.748	1598.37
852.575	1828.3
856.4	2053
860.223	2423.88
864.045	3044.74
867.864	3799.58
871.682	4671.57
875.499	5426.45
879.313	5751.05
883.126	4849.01
886.937	4180.98
890.746	4103.13
894.553	4098.01
898.359	4368.78
902.163	5161.07
905.965	6615.64
909.765	9167.79
913.564	12220
917.361	13964
921.156	12618.1
924.949	9022.33
928.74	6316.67
932.53	4329.17
936.318	3358.09
940.104	2717.85
943.889	2206.51
947.672	1843.8
951.453	1624.86
955.232	1572.96
959.01	1739.39
962.785	1842.05
966.559	1757.86
970.332	1632.83
974.102	1811.97
977.871	2829.28
981.638	4352.75
985.404	4288.42
989.167	2776.26
992.929	1824.31
996.689	953.025
1000.45	556.189
1004.2	322.576
1007.96	218.23
1011.71	192.312
1015.46	174.332
1019.21	260.309
1022.96	392.636
1026.71	436.016
1030.45	756.242
1034.19	1183.11
1037.94	1888.85
1041.68	2593.37
1045.41	2764.76
1049.15	2463.71
1052.88	2092.96
1056.62	2044.18
1060.35	2246.72
1064.08	2284.45
1067.8	1950.42
1071.53	1919.23
1075.25	2499.21
1078.97	3742.76
1082.7	5914.73
1086.41	8971.75
1090.13	10501.2
1093.85	7120.74
1097.56	3112.51
1101.27	1366.23
1104.98	747.65
1108.69	518.591
1112.4	387.858
1116.1	318.79
1119.81	288.477
1123.51	516.708
1127.21	180.042
1130.91	95.893
1134.61	79.24
1138.3	122.687
1141.99	100.643
1145.68	31.914
1149.38	57.04
1153.06	15.162
1156.75	92
1160.43	19.07
1164.12	72.448
1167.8	21.763
1171.48	20.622
1175.16	33.944
1178.83	41.49
1182.51	23.288
1186.18	68.854
1189.85	10.792
1193.52	0.746
1197.19	31.649
1200.86	11.474
1204.52	5.559
1208.19	26.604
1211.85	21.483
1215.51	7.344
1219.17	40.123
1222.82	42.168
1226.48	67.248
1230.13	99.666
1233.78	37.252
1237.43	76.277
1241.08	55.296
1244.73	17.51
1248.37	10.403
1252.01	62.053
1255.66	65.466
1259.3	127.635
1262.93	103.634
1266.57	101.435
1270.21	108.785
1273.84	91.938
1277.47	80.771
1281.1	144.288
1284.73	64.406
1288.36	97.229
1291.98	124.41
1295.6	97.027
1299.23	89.621
1302.85	137.389
1306.46	16.537
1310.08	105.635
1313.7	80.436
1317.31	43.83
1320.92	60.887
1324.53	113.246
1328.14	99.417
1331.75	35.064
1335.35	63.145
1338.96	21.953
1342.56	77.81
1346.16	46.383
1349.76	119.925
1353.36	126.969
1356.95	92.36
1360.55	249.856
1364.14	240.966
1367.73	219.655
1371.32	151.052
1374.91	153.976
1378.49	34.634
1382.08	25.902
1385.66	189.807
1389.24	125.265
1392.82	180.398
1396.4	198.525
1399.97	152.01
1403.55	107.031
1407.12	119.783
1410.69	104.641
1414.26	56.262
1417.83	66.779
1421.4	74.242
1424.96	88.097
1428.53	47.403
1432.09	95.844
1435.65	61.455
1439.21	74.062
1442.76	91.609
1446.32	1.99
1449.87	82.762
1453.43	39.936
1456.98	51.44
1460.53	36.837
1464.07	33.861
1467.62	57.461
1471.16	138.948
1474.71	157.715
1478.25	96.342
1481.79	79.782
1485.32	62.538
1488.86	49.459
1492.39	62.095
1495.93	35.624
1499.46	5.23
1502.99	44.661
1506.52	33.871
1510.05	96.18
1513.57	63.594
1517.09	54.158
