Measurement: Raman, 514 nm, depolarized, Raman Data Processed
Mineral: Epidote
Rruff sample: R040092
Ideal chemistry: Ca_2_Fe^3+^Al_2_(Si_2_O_7_)(SiO_4_)O(OH)
Locality: Nahant, Massachusetts, USA
Source: University of Arizona Mineral Museum
Description: Green prismatic crystals imbedded in quartz
Measured chemistry: Ca_2.01_Al_2.00_Fe_1.00_(Si_1.00_O_4_)(Si_1.97_Fe_0.02_Al_0.01_Ti_0.01_O_7_)O(OH)
Pin_id: S00018
Orientation: Laser parallel to b* (0 1 0). Fiducial mark perpendicular to laser is parallel to c [0 0 1]
Raman shift (cm-1)	intensity
51.466	0
55.666	173.193
59.863	368.14
64.059	55.934
68.253	99.677
72.445	136.439
76.635	1134.64
80.823	4255.72
85.009	11721.2
89.193	21996.7
93.375	16579.1
97.554	7722.06
101.732	3681.86
105.908	2587.41
110.082	1531.3
114.254	1431.59
118.424	1589.62
122.592	2774.91
126.758	6334.08
130.922	14164.8
135.083	11349.1
139.243	4548.81
143.401	3762.98
147.557	4284.38
151.711	2704.76
155.863	3794.78
160.013	8271.76
164.161	16018.9
168.308	18070.5
172.452	11089.5
176.594	5768.11
180.734	2660.13
184.872	1642.85
189.008	1333.2
193.143	1939.17
197.275	3482.78
201.405	5770.03
205.534	5332.9
209.66	4158.4
213.784	4577.58
217.907	6915.37
222.027	10986.4
226.146	15703.1
230.263	15181.8
234.377	12088
238.49	17187
242.601	20118.8
246.709	11004
250.816	4413.66
254.921	1852.45
259.024	968.237
263.125	1168.85
267.224	3327.13
271.321	8535.98
275.416	14846.3
279.51	8692.97
283.601	5136.97
287.69	7653.21
291.778	12763.6
295.863	10783.2
299.947	7211.71
304.029	4058.1
308.108	2293.34
312.186	1380.45
316.262	1501.42
320.336	3393.23
324.408	5404.89
328.478	4389.36
332.546	2926.64
336.612	3867.72
340.677	7779.55
344.739	15186.1
348.799	20382.4
352.858	14123.4
356.915	6222.12
360.969	2378.45
365.022	517.408
369.073	419.059
373.122	949.588
377.169	857.841
381.215	156.546
385.258	1522.75
389.299	2463.12
393.339	924.81
397.376	90.853
401.412	369.048
405.446	93.733
409.478	1431.17
413.508	4329.36
417.536	10725.2
421.562	21754.6
425.586	27330.5
429.609	22102.9
433.629	21180.5
437.648	18851.2
441.665	19606.9
445.68	32005.4
449.693	46704.5
453.704	44232.2
457.713	35620.4
461.721	20164.9
465.726	10038
469.73	5354.42
473.731	3079.23
477.731	2547.33
481.729	2701.7
485.725	3592.28
489.72	6123.03
493.712	11629.9
497.703	17108.9
501.691	16374
505.678	13585.2
509.663	12774.4
513.646	10072.5
517.627	11571.6
521.607	14956.7
525.584	10651.6
529.56	4752.99
533.534	1869
537.506	855.53
541.476	691.989
545.444	1150.28
549.41	2350.96
553.375	5064.96
557.337	12753.5
561.298	30650.5
565.257	39592
569.214	17810.6
573.17	8852.95
577.123	7691.29
581.075	10230.9
585.024	14403.1
588.972	17297.9
592.918	22168.1
596.863	28566
600.805	24244.2
604.746	17383.9
608.685	13493
612.621	11676.4
616.557	8698.61
620.49	5268.55
624.421	3155.65
628.351	1894.27
632.279	1277.54
636.205	919.953
640.129	629.879
644.051	447.839
647.972	254.656
651.89	237.451
655.807	213.816
659.722	249.722
663.636	335.146
667.547	393.061
671.457	523.047
675.365	774.268
679.271	1085.51
683.175	1717.15
687.077	2104.28
690.978	1644.76
694.877	839.136
698.774	379.962
702.669	157.621
706.562	19.409
710.454	198.46
714.344	161.534
718.232	197.655
722.118	279.01
726.002	174.068
729.885	188.782
733.766	238.036
737.645	186.946
741.522	152.383
745.397	65.091
749.271	110.817
753.143	30.466
757.013	83.26
760.881	145.633
764.748	276.85
768.613	377.066
772.476	274.337
776.337	235.568
780.196	278.734
784.054	382.874
787.91	372.079
791.764	453.353
795.616	543.751
799.467	648.304
803.316	830.02
807.163	1061.9
811.008	1298.97
814.851	1671.22
818.693	2198.67
822.533	3128.32
826.371	4326.2
830.208	4944.29
834.042	4350.63
837.875	3620.22
841.706	3328.06
845.536	3358.19
849.363	3826.62
853.189	4645.39
857.013	5912.78
860.836	7696.17
864.656	9923.37
868.475	12006.7
872.292	13564.3
876.108	13892.2
879.922	13058.6
883.733	11792
887.544	10409.3
891.352	9164.75
895.159	9351.54
898.964	11171.1
902.767	15034
906.568	21422.9
910.368	29887
914.166	38332.6
917.962	34154.4
921.757	21971.4
925.55	13514.2
929.341	8469.52
933.13	5701.86
936.918	4144
940.703	3123.95
944.488	2611.16
948.27	2274.1
952.051	2151.12
955.83	2163.27
959.607	2162.59
963.383	2153.09
967.156	2396.75
970.928	3411.57
974.699	5726.57
978.468	8797.77
982.234	8141.18
986	4961.8
989.763	2833.66
993.525	1881.96
997.285	1362.61
1001.04	1040.39
1004.8	787.284
1008.55	694.653
1012.31	750.283
1016.06	1152.11
1019.81	1329.03
1023.56	1402.51
1027.31	1838.26
1031.05	2986.11
1034.79	4823.75
1038.53	6728.44
1042.27	6974.05
1046.01	5446.96
1049.75	4049.64
1053.48	3631.39
1057.22	4473.31
1060.95	5518.2
1064.68	4748.47
1068.4	3953.15
1072.13	4304.18
1075.86	6290.57
1079.58	10101.3
1083.3	17831.6
1087.02	20314.2
1090.74	10313.1
1094.45	4243.04
1098.17	2059.51
1101.88	1280.38
1105.59	849.992
1109.3	646.137
1113.01	504.119
1116.71	395.065
1120.42	431.706
1124.12	849.632
1127.82	286.119
1131.52	166.568
1135.22	92.108
1138.91	23.35
1142.61	35.333
1146.3	40.685
1149.99	79.592
1153.68	102.103
1157.37	83.668
1161.06	98.339
1164.74	108.987
1168.42	94.773
1172.1	101.222
1175.78	64.591
1179.46	35.681
1183.14	4.266
1186.81	21.301
1190.48	15.675
1194.15	19.413
1197.83	17.765
1201.49	66.327
1205.16	33.345
1208.82	58.875
1212.49	52.082
1216.15	48.134
1219.81	66.023
1223.46	54.739
1227.12	47.271
1230.78	53.608
1234.43	56.74
1238.08	34.648
1241.73	71.473
1245.38	62.071
1249.03	53.334
1252.67	65.325
1256.31	60.22
1259.95	59.941
1263.6	101.484
1267.23	83.795
1270.87	114.721
1274.51	102.013
1278.14	122.455
1281.77	91.503
1285.4	94.559
1289.03	77.729
1292.66	86.87
1296.28	57.928
1299.91	85.346
1303.53	79.607
1307.15	65.448
1310.77	9.938
1314.38	43.977
1318	19.776
1321.61	19.651
1325.23	31.146
1328.84	5.983
1332.45	52.896
1336.06	20.296
1339.66	69.988
1343.27	97.395
1346.87	132.761
1350.47	191.23
1354.07	179.845
1357.67	201.255
1361.26	257.331
1364.86	245.956
1368.45	247.479
1372.04	232.591
1375.63	225.312
1379.22	216.271
1382.81	246.983
1386.39	155.336
1389.98	159.23
1393.56	199.12
1397.14	182.446
1400.72	112.263
1404.3	149.225
1407.87	127.991
1411.45	114.245
1415.02	124.216
1418.59	155.781
1422.16	131.055
1425.73	53.49
1429.29	381.585
1432.86	361.469
1436.42	84.75
1439.98	50.746
1443.54	52.47
1447.1	45.634
1450.66	46.873
1454.21	72.107
1457.77	89.783
1461.32	26.537
1464.87	40.031
1468.42	18.119
1471.96	11.548
1475.51	32.159
1479.06	61.876
1482.6	52.92
1486.14	23.529
1489.68	1.562
1493.22	44.406
1496.75	43.062
1500.29	84.194
1503.82	39.233
1507.35	86.389
1510.88	82.858
1514.41	39.724
1517.94	19.917
1521.46	0
