Measurement: Raman, 514 nm, depolarized, Raman Data Processed
Mineral: Epididymite
Rruff sample: R070580
Ideal chemistry: Na_2_Be_2_Si_6_O_15_H_2_O
Locality: Narsarsuk, Narsaq, Kitaa, Greenland
Source: James Shigley
Description: A translucent to white elongated prism.
Measured chemistry: (Na_1.97_K_0.03_)_Σ=2_Be_2_Si_6.00_O_15_·H_2_O; trace amounts of Al; Be and H_2_O assumed by stoichiometry
Pin_id: M01755
Orientation: Laser parallel to -a* (-1 0 0). Fiducial mark perpendicular to laser is parallel to b [0 1 0]
Raman shift (cm-1)	intensity
111.206	0
116.155	1146.46
121.101	3911.08
126.045	3787.22
130.985	5816.64
135.923	5414.85
140.858	2416.08
145.79	2500.43
150.719	2144.56
155.646	902.412
160.569	98.9629
165.49	90.3008
170.408	142.699
175.324	8.11035
180.237	13.2725
185.146	98.5059
190.053	769.209
194.958	1315.81
199.859	1774.21
204.758	1113.7
209.654	764.774
214.547	668.46
219.438	756.633
224.326	1345.61
229.211	2099.19
234.093	3917.13
238.972	6892.34
243.849	7521.55
248.723	3881.81
253.594	2335.13
258.462	1437.01
263.328	889.507
268.191	315.086
273.051	190.06
277.908	373.698
282.763	512.79
287.615	487.629
292.464	249.552
297.31	34.543
302.154	126.601
306.995	167.498
311.833	94.1709
316.668	78.4277
321.501	265.92
326.331	240.554
331.158	543.395
335.983	670.077
340.804	435.594
345.623	328.935
350.44	217.964
355.253	283.293
360.064	206.124
364.872	147.519
369.677	122.98
374.48	778.536
379.28	1414.17
384.077	1871.62
388.872	1462.77
393.663	1057.18
398.452	1977.02
403.239	4966.44
408.022	11585
412.803	5594.41
417.581	1045.83
422.357	369.106
427.129	236.785
431.899	652.385
436.667	884.893
441.431	160.842
446.193	153.518
450.952	8.12305
455.709	193.188
460.463	450.322
465.214	1122.43
469.962	3174.06
474.708	7731.81
479.451	7166.61
484.191	4129.44
488.929	3106.32
493.663	1248.25
498.396	992.551
503.125	1621.66
507.852	3840.29
512.576	11945.1
517.298	29098.8
522.016	37581.9
526.732	12927.2
531.446	4490.19
536.156	2180.29
540.865	1343.82
545.57	800.012
550.273	408.82
554.973	223.135
559.67	233.553
564.364	454.44
569.056	187.369
573.746	427.004
578.432	1019.79
583.116	2035.23
587.798	2052.61
592.476	768.453
597.152	539.65
601.825	381.693
606.496	284.568
611.164	180.709
615.829	347.219
620.492	176.65
625.152	284.057
629.809	385.824
634.464	590.512
639.116	171.67
643.765	261.949
648.412	38.3203
653.056	28.2559
657.697	113.746
662.336	120.535
666.972	14.1973
671.605	178.365
676.236	23.8008
680.864	123.644
685.49	155.734
690.113	21.2266
694.733	143.582
699.351	95.0332
703.965	24.1387
708.578	249.772
713.187	52.8359
717.794	0.021484
722.399	137.553
727.001	100.725
731.6	24.6289
736.196	78.5215
740.79	192.176
745.381	74.4629
749.97	326.383
754.556	503.086
759.139	570.451
763.72	388.603
768.298	182.859
772.874	182.373
777.447	254.994
782.017	123.846
786.585	329.643
791.15	289.475
795.712	245.81
800.272	353.398
804.829	338.879
809.384	507.943
813.936	749.127
818.485	624.514
823.032	659.248
827.576	261.81
832.118	296.047
836.657	39.4316
841.193	101.43
845.727	73.7402
850.258	179.711
854.787	254.453
859.313	477.09
863.836	280.178
868.357	341.375
872.875	531.457
877.391	269.018
881.904	271.744
886.414	102.74
890.922	295.621
895.427	58.2285
899.93	97.5
904.43	12.9531
908.927	237.287
913.422	69.8184
917.914	289.588
922.404	113.486
926.891	203.262
931.376	16.8965
935.858	171.342
940.337	235.012
944.814	148.475
949.289	48.4941
953.76	107.394
958.229	154.777
962.696	17.3145
967.16	297.162
971.621	174.711
976.08	235.297
980.537	201.309
984.99	257.385
989.442	265.527
993.89	385.91
998.336	464.668
1002.78	191.772
1007.22	756.291
1011.66	637.85
1016.1	509.383
1020.53	257.766
1024.96	244.268
1029.39	370.32
1033.81	324.699
1038.24	610.156
1042.66	863.691
1047.07	1488.24
1051.49	1454.06
1055.9	1307.88
1060.31	1099.17
1064.72	1200.37
1069.13	1016.07
1073.53	719.481
1077.93	547.475
1082.33	484.207
1086.72	383.578
1091.12	280.935
1095.51	343.674
1099.89	411.027
1104.28	167.18
1108.66	499.728
1113.04	702.342
1117.42	772.197
1121.79	1049.48
1126.16	1814.54
1130.53	2456.69
1134.9	3765.94
1139.27	4369.31
1143.63	3608.86
1147.99	2111.5
1152.35	938.258
1156.7	507.334
1161.05	624.496
1165.4	331.799
1169.75	172.248
1174.09	2.08398
1178.44	36.3105
1182.78	61.5273
1187.11	31.4941
1191.45	151.475
1195.78	53.5273
1200.11	13.2637
1204.44	102.508
1208.76	149.348
1213.08	9.17969
1217.4	71.4531
1221.72	66.3594
1226.03	87.6211
1230.35	25.0898
1234.66	77.6719
1238.96	256.098
1243.27	70.4844
1247.57	349.996
1251.87	56.6172
1256.17	155.356
1260.46	318.207
1264.75	302.18
1269.04	166.602
1273.33	288.801
1277.62	109.109
1281.9	0.527344
1286.18	158.449
1290.45	276.137
1294.73	229.953
1299	316.891
1303.27	203.828
1307.54	196.352
1311.8	291.602
1316.07	230.348
1320.33	396.805
1324.58	407.422
1328.84	218.551
1333.09	279.453
1337.34	242.387
1341.59	421.109
1345.83	237.754
1350.08	167.066
1354.32	159.512
1358.55	273.988
1362.79	80.1094
1367.02	201.652
1371.25	70.3125
1375.48	76.2617
1379.71	346.348
1383.93	158.094
1388.15	246.769
1392.37	82.4531
1396.58	63.0586
1400.8	232.711
1405.01	129.461
1409.21	399.148
1413.42	56.0508
1417.62	254.922
1421.83	149.164
1426.02	282.707
1430.22	301.644
1434.41	199.879
1438.61	494.957
1442.79	454.039
1446.98	487.41
1451.16	295.016
1455.35	331.316
1459.52	443.668
1463.7	414.848
1467.87	249.781
1472.05	415.031
1476.21	198.586
1480.38	515.469
1484.55	515.336
1488.71	225.894
1492.87	416.894
1497.03	315.523
1501.18	256.305
1505.33	134.457
1509.48	438.926
1513.63	359.762
1517.77	376.043
1521.92	407.801
1526.06	293.387
1530.19	252.961
1534.33	194.438
1538.46	68.5391
1542.59	304.168
1546.72	206.277
1550.85	151.055
1554.97	275.871
1559.09	48.5898
