Measurement: Raman, 514 nm, depolarized, Raman Data Processed
Mineral: Epididymite
Rruff sample: R060773
Ideal chemistry: Na_2_Be_2_Si_6_O_15_H_2_O
Locality: unknown
Source: Michael Scott
Description: Colorless platy crystals forming a pseudohexagonal aggregate
Pin_id: M00395
Orientation: Laser parallel to b* (0 1 0). Fiducial mark perpendicular to laser is parallel to -c [0 0 -1]
Raman shift (cm-1)	intensity
102.116	0
107.047	696.047
111.976	11.0117
116.903	864.375
121.827	3318.61
126.749	4981.97
131.668	8730.91
136.585	9266.63
141.5	2319.36
146.412	1580.49
151.321	2396.34
156.229	1297.72
161.134	28.7832
166.036	27.4307
170.936	34.331
175.834	58.6992
180.729	27.627
185.622	329.029
190.512	926.523
195.4	1968.88
200.286	2812.97
205.169	1786.21
210.049	850.332
214.928	586.883
219.803	564.461
224.677	675.004
229.548	1584.48
234.416	3421.83
239.282	6836.09
244.146	8499.25
249.007	5309.51
253.866	3861.6
258.722	3877.83
263.576	3436.35
268.427	2792.53
273.276	1503.14
278.123	845.818
282.967	575.072
287.809	365.652
292.648	155.758
297.485	50.8359
302.319	94.9102
307.151	211.523
311.98	282.922
316.807	220.68
321.631	551.623
326.454	784.465
331.273	1067.36
336.09	1609.19
340.905	2593.93
345.717	5184.25
350.527	3522.52
355.334	1918.49
360.139	1308.41
364.941	1469.34
369.741	1720.29
374.538	2962.25
379.333	5980.23
384.126	7110.22
388.916	3687.23
393.703	1680.26
398.488	2078.04
403.271	4399.59
408.051	12830.1
412.828	6939.61
417.603	1237.19
422.376	266.775
427.146	150.451
431.914	196.002
436.679	247.279
441.442	36.8184
446.202	21.2363
450.96	75.8008
455.715	215.484
460.467	676.637
465.218	1325.58
469.965	3005.38
474.711	7969.36
479.454	7405.31
484.194	3120.16
488.932	2119.94
493.667	986.641
498.4	989.268
503.13	1831.82
507.858	4183.3
512.583	10846.7
517.306	30411
522.026	43012.2
526.744	15659.2
531.459	5398.38
536.172	2443.02
540.882	1529.92
545.59	918.51
550.295	822.639
554.998	755.168
559.698	730.531
564.396	436.682
569.091	721.08
573.784	878.326
578.474	1725.17
583.162	4208.98
587.847	3952.09
592.529	1706.15
597.209	877.268
601.887	862.332
606.562	547.869
611.235	581.904
615.905	892.598
620.572	1418.94
625.237	2169.92
629.9	2120.54
634.56	1888.79
639.217	1457.66
643.872	1498.15
648.524	1447.25
653.174	1482.96
657.821	745.268
662.466	618.117
667.108	483.662
671.748	265.723
676.385	139.309
681.02	68.3965
685.652	48.2793
690.281	104.871
694.908	24.5137
699.533	29.0488
704.155	188.549
708.774	72.9844
713.391	48.1191
718.005	83.0606
722.617	128.848
727.226	247.279
731.833	120.299
736.437	366.908
741.039	274.082
745.638	387.812
750.234	586.115
754.828	1057
759.419	953.471
764.008	741.533
768.595	511.193
773.178	721.459
777.759	474.338
782.338	563.834
786.914	502.955
791.488	910.705
796.059	902.102
800.627	969.144
805.193	922.854
809.756	817.998
814.317	976.705
818.875	955.816
823.431	1081.41
827.984	586.062
832.534	845.924
837.082	734.955
841.627	1093.48
846.17	767.736
850.71	1024.22
855.248	1350.3
859.783	1446.46
864.316	1513.52
868.846	1191.51
873.373	1010.94
877.898	889.182
882.42	780.6
886.94	738.148
891.457	759.668
895.971	593.174
900.483	723.674
904.993	603.182
909.5	771.711
914.004	403.272
918.505	331.879
923.004	220.541
927.501	307.268
931.995	231.147
936.486	204.26
940.975	163.566
945.461	159.047
949.945	109.799
954.426	144.775
958.904	88.8926
963.38	198.754
967.853	5.08789
972.324	50.459
976.792	242.633
981.258	63.9121
985.72	80.2832
990.181	235.969
994.639	174.758
999.094	538.809
1003.55	1755.1
1008	926.637
1012.44	653.422
1016.89	354.457
1021.33	792.75
1025.77	481.305
1030.21	251.135
1034.64	294.238
1039.07	381.629
1043.5	675.314
1047.93	970.293
1052.35	1373.57
1056.78	947.154
1061.19	765.045
1065.61	618.254
1070.02	848.918
1074.43	956.957
1078.84	918.025
1083.25	874.021
1087.65	688.213
1092.05	481.688
1096.45	531.746
1100.85	677.619
1105.24	844.504
1109.63	1100.74
1114.02	1229.26
1118.4	2072.1
1122.78	2189.17
1127.16	3391.36
1131.54	4790.05
1135.92	7441.05
1140.29	7020.38
1144.66	5779
1149.02	3367.98
1153.39	1762.35
1157.75	1125.27
1162.11	767.566
1166.46	385.262
1170.82	449.285
1175.17	347.613
1179.52	290.242
1183.86	190.164
1188.21	176.379
1192.55	40.8828
1196.89	34.5391
1201.22	147.023
1205.55	206.742
1209.88	38.625
1214.21	134.57
1218.54	303.734
1222.86	6.16016
1227.18	7.06641
1231.5	242.754
1235.81	378.715
1240.12	547.109
1244.43	512.309
1248.74	322.938
1253.04	505.93
1257.34	326.332
1261.64	613.356
1265.94	861.891
1270.23	938.215
1274.52	832.867
1278.81	905.719
1283.1	576.809
1287.38	662.68
1291.66	313.93
1295.94	503.371
1300.21	336.184
1304.48	359.144
1308.75	618.246
1313.02	892.481
1317.29	1058.86
1321.55	1104.34
1325.81	903.457
1330.06	530.594
1334.32	279.356
1338.57	244.215
1342.82	321.25
1347.06	203.535
1351.31	168.231
1355.55	21.8867
1359.79	202.094
1364.02	274.465
1368.26	135.676
1372.49	60.6484
1376.71	227.887
1380.94	317.664
1385.16	187.84
1389.38	391.496
1393.6	195.305
1397.81	27.9336
1402.02	49.5273
1406.23	196.34
1410.44	23.8047
1414.64	158.723
1418.85	295.371
1423.04	105.535
1427.24	211.258
1431.43	357.629
1435.62	725.641
1439.81	1381.03
1444	1641.91
1448.18	2307.94
1452.36	2570.99
1456.54	2600.51
1460.71	2143.5
1464.89	1653.56
1469.06	1387.54
1473.22	902.742
1477.39	905.156
1481.55	789.113
1485.71	555.109
1489.86	728.945
1494.02	306.289
1498.17	216.445
1502.32	114.356
1506.46	92.4141
1510.61	96.1602
1514.75	280
1518.88	259.652
1523.02	2.05469
1527.15	428.617
1531.28	566.797
1535.41	684.57
1539.53	414.164
1543.66	239.863
1547.78	435.394
1551.89	218
1556.01	220.832
1560.12	356.461
1564.23	6.66797
1568.33	113.379
