Measurement: Raman, 514 nm, depolarized, Raman Data Processed
Mineral: Epidote
Rruff sample: R050064
Ideal chemistry: Ca_2_Fe^3+^Al_2_(Si_2_O_7_)(SiO_4_)O(OH)
Locality: East Xichang City, Meigu County, Sichuan Province, China
Source: Rock Currier
Description: Green prismatic crystals
Measured chemistry: (Ca_1.99_Mn_0.01_)_Î£=2_Fe^3+^_1.00_Al_2.00_(Si_2.00_O_7_)(Si_1.00_O_4_)O(OH);
Pin_id: L00201
Orientation: Laser parallel to -b* (0 -1 0). Fiducial mark perpendicular to laser is parallel to -c [0 0 -1]
Raman shift (cm-1)	intensity
81.728	0
85.929	483.906
90.128	2726.29
94.324	2895.47
98.519	1666.18
102.712	714.746
106.902	235.764
111.09	262.195
115.277	136.877
119.461	33.068
123.643	1553.75
127.823	6656.89
132.001	9505.29
136.176	4560.3
140.35	1867.16
144.521	1766.52
148.691	1298.09
152.858	1156.59
157.024	3067.74
161.187	7994.32
165.348	11754.4
169.507	8434.16
173.664	4513.96
177.819	1751.7
181.971	370.382
186.122	146.894
190.271	49.891
194.417	652.544
198.562	2377.42
202.704	3190.8
206.844	2288.72
210.983	2111.19
215.119	3028.23
219.253	5377.37
223.385	9359.66
227.515	11753.7
231.643	9503.59
235.769	9635.56
239.893	13453.4
244.014	11192.3
248.134	5281.26
252.252	1878.62
256.367	552.709
260.481	334.797
264.592	1066.79
268.702	3957.42
272.809	9320.21
276.915	8684.05
281.018	4116.75
285.119	3625.37
289.218	7179.71
293.316	9876.78
297.411	7474.56
301.504	4209.28
305.595	2081.2
309.684	810.826
313.771	474.119
317.856	1198.06
321.939	3090.58
326.02	3451.53
330.099	2161.91
334.176	1866.71
338.251	3291.95
342.323	6977.63
346.394	12880.7
350.463	12994.5
354.53	7350.54
358.594	3058.03
362.657	871.994
366.718	54.593
370.777	506.983
374.833	628.971
378.888	259.809
382.941	701.207
386.992	2054.64
391.04	1603.12
395.087	422.786
399.132	13.465
403.174	103.042
407.215	544.519
411.254	1744.99
415.29	4953.37
419.325	12675.6
423.358	20443.7
427.389	18282.7
431.417	15792.6
435.444	15603.2
439.469	13244.6
443.492	17136.8
447.512	29140
451.531	34163.8
455.548	31148.1
459.563	20142.9
463.576	10488.2
467.587	5693.85
471.596	3285.88
475.603	2383.29
479.608	2138.05
483.611	2516.13
487.612	3586.51
491.611	5955.2
495.608	10573.2
499.603	13401.4
503.596	11750
507.587	11078.7
511.577	9237.82
515.564	8647.41
519.549	12697.3
523.533	12637.4
527.514	6614.8
531.493	2851.41
535.471	1357.59
539.447	859.998
543.42	921.608
547.392	1381.32
551.362	2428.14
555.329	5321.51
559.295	14747.4
563.259	31327.2
567.221	23457.6
571.181	9952.92
575.139	5957.99
579.095	6451.09
583.049	9205.53
587.002	11735.8
590.952	14693.4
594.9	20432.9
598.847	21259.8
602.792	15401.6
606.734	11423.2
610.675	9724.94
614.614	7864.56
618.55	5023.48
622.485	3110.44
626.418	1939.87
630.349	1292.67
634.279	911.085
638.206	705.026
642.131	532.518
646.055	444.631
649.976	405.454
653.896	322.977
657.814	294.189
661.729	389.083
665.643	449.647
669.555	454.872
673.465	590.746
677.373	705.258
681.28	1004.4
685.184	1406.18
689.087	1490.08
692.987	999.802
696.886	430.27
700.783	234.63
704.677	84.566
708.57	20.991
712.462	92.31
716.351	96.755
720.238	132.413
724.124	128.439
728.007	65.889
731.889	65.61
735.769	120.641
739.647	89.043
743.523	71.732
747.397	58.579
751.269	48.597
755.139	48.786
759.008	0.956
762.875	18.15
766.739	2.019
770.602	49.396
774.463	60.184
778.323	99.563
782.18	122.083
786.035	107.271
789.889	186.969
793.741	223.205
797.591	303
801.439	397.69
805.285	488.613
809.129	670.833
812.971	871.947
816.812	1213.65
820.651	1777.96
824.488	2616.88
828.323	3399.41
832.156	3419.57
835.987	2766.35
839.817	2250.78
843.644	2126.28
847.47	2303.55
851.294	2726.91
855.116	3383.92
858.936	4434.76
862.755	5967.53
866.571	7609.46
870.386	8884.87
874.199	9333.43
878.01	8904.13
881.82	7011.5
885.627	5851.2
889.433	5307.36
893.236	5374.57
897.038	6540.96
900.838	8896.71
904.637	12868.3
908.433	18971.8
912.228	26793.4
916.021	29970.8
919.812	23350
923.601	14192.2
927.388	8665.11
931.174	5416.1
934.958	3740.2
938.739	2657.48
942.52	2044.47
946.298	1739.38
950.074	1622.92
953.849	1566.43
957.622	1561.08
961.393	1537.87
965.162	1678.8
968.93	2131.88
972.696	3326.11
976.459	5839.51
980.222	7578.06
983.982	5306.81
987.74	3050.74
991.497	1798.87
995.252	1205.71
999.005	804.883
1002.76	521.678
1006.51	350.303
1010.25	332.038
1014	400.005
1017.74	540.048
1021.49	713.173
1025.23	874.54
1028.96	1401.8
1032.7	2316.62
1036.44	4011.02
1040.17	5485.47
1043.9	5312.85
1047.63	3884.12
1051.36	2996.41
1055.09	3125.78
1058.81	4278.28
1062.54	4491.34
1066.26	3554.39
1069.97	3228.08
1073.69	4050.09
1077.41	5974.39
1081.12	10337
1084.84	15828.8
1088.55	11270.8
1092.25	4969.11
1095.96	2323.88
1099.67	1287.65
1103.37	827.678
1107.07	548.516
1110.77	421.255
1114.47	333.996
1118.16	230.068
1121.86	293.3
1125.55	223.705
1129.24	168.308
1132.93	87.941
1136.62	62.405
1140.31	27.603
1143.99	8.994
1147.67	15.965
1151.35	30.399
1155.03	55.819
1158.71	57.755
1162.39	84.902
1166.06	44.439
1169.73	52.9
1173.4	38.107
1177.07	18.064
1180.74	23.672
1184.4	28.633
1188.07	30.795
1191.73	5.028
1195.39	33.007
1199.05	2.438
1202.7	16.42
1206.36	26.885
1210.01	35.263
1213.66	31.532
1217.31	47.106
1220.96	50.747
1224.6	37.683
1228.25	65.496
1231.89	31.178
1235.53	60.724
1239.17	16.121
1242.81	10.309
1246.44	0.612
1250.08	45.3
1253.71	42.017
1257.34	62.958
1260.97	55.703
1264.6	71.102
1268.22	100.463
1271.85	88.417
1275.47	64.144
1279.09	55.38
1282.71	45.462
1286.33	74.566
1289.94	102.236
1293.56	61.74
1297.17	56.466
1300.78	63.587
1304.39	46.488
1307.99	48.965
1311.6	50.286
1315.2	9.187
1318.8	22.63
1322.4	2.814
1326	13.471
1329.6	14.71
1333.19	51.172
1336.79	61.829
1340.38	46.74
1343.97	67.103
1347.56	121.896
1351.14	161.203
1354.73	184.183
1358.31	161.291
1361.89	205.879
1365.47	213.19
1369.05	177.253
1372.63	207.08
1376.2	130.837
1379.78	164.077
1383.35	156.602
1386.92	138.973
1390.49	110.893
1394.05	94.733
1397.62	113.12
1401.18	81.186
1404.74	128.896
1408.3	117.41
1411.86	97.008
1415.42	74.354
1418.97	67.975
1422.53	44.46
1426.08	42.558
1429.63	21.859
1433.18	27.68
1436.72	54.262
1440.27	60.626
1443.81	31.642
1447.36	37.291
1450.89	62.568
1454.43	58.531
1457.97	41.325
1461.51	14.788
1465.04	39.696
1468.57	1.415
1472.1	55.313
1475.63	44.458
1479.16	30.95
1482.68	43.254
1486.21	40.968
1489.73	42.868
1493.25	74.056
1496.77	19.956
1500.29	13.97
1503.8	58.064
1507.32	26.797
1510.83	49.023
1514.34	33.331
1517.85	44.853
