Measurement: Raman, 514 nm, depolarized, Raman Data Processed
Mineral: Epidote
Rruff sample: R050064
Ideal chemistry: Ca_2_Fe^3+^Al_2_(Si_2_O_7_)(SiO_4_)O(OH)
Locality: East Xichang City, Meigu County, Sichuan Province, China
Source: Rock Currier
Description: Green prismatic crystals
Measured chemistry: (Ca_1.99_Mn_0.01_)_Î£=2_Fe^3+^_1.00_Al_2.00_(Si_2.00_O_7_)(Si_1.00_O_4_)O(OH);
Pin_id: L00177
Orientation: Laser parallel to -c* (0 0 -1). Fiducial mark perpendicular to laser is parallel to a [1 0 0]
Raman shift (cm-1)	intensity
81.728	0
85.929	123.575
90.128	2076.58
94.324	6787.95
98.519	9880.72
102.712	4560.29
106.902	1736.12
111.09	1196.55
115.277	693.978
119.461	457.879
123.643	855.574
127.823	958.946
132.001	531.107
136.176	55.139
140.35	35.757
144.521	176.405
148.691	109.101
152.858	12.038
157.024	604.05
161.187	1885.96
165.348	4330.4
169.507	7199.2
173.664	6649.99
177.819	3559.59
181.971	1434.73
186.122	792.007
190.271	355.48
194.417	485.996
198.562	1416.85
202.704	1811.96
206.844	1002.82
210.983	588.493
215.119	780.98
219.253	1916.28
223.385	4098.4
227.515	6069.33
231.643	5397
235.769	5112.27
239.893	5997.2
244.014	4687.9
248.134	2406.28
252.252	1478.55
256.367	1147.78
260.481	1089.18
264.592	2009.09
268.702	5486.86
272.809	12319.1
276.915	12960.5
281.018	7468.21
285.119	4794.6
289.218	3969.98
293.316	5140.31
297.411	6519.52
301.504	5207.41
305.595	4536.11
309.684	6072.42
313.771	6176.73
317.856	3964.99
321.939	3050.8
326.02	3216.28
330.099	2862.38
334.176	1809.03
338.251	1394.21
342.323	2552.92
346.394	4956.16
350.463	4793.92
354.53	3008.2
358.594	2020.01
362.657	2374.36
366.718	2541.28
370.777	1599.76
374.833	322.787
378.888	191.66
382.941	301.203
386.992	940.541
391.04	587.421
395.087	191.134
399.132	431.554
403.174	418.07
407.215	27.443
411.254	1360.97
415.29	4084.36
419.325	11313.6
423.358	20028.6
427.389	19194.3
431.417	19140.8
435.444	19358.1
439.469	15406.1
443.492	16144.9
447.512	24894.5
451.531	36474.9
455.548	40765.9
459.563	28197.5
463.576	14419.7
467.587	7542.57
471.596	4197.34
475.603	2535.95
479.608	1672.24
483.611	1480.94
487.612	1774.98
491.611	2785.36
495.608	5148.06
499.603	6928.06
503.596	7085.36
507.587	6962.93
511.577	5480.77
515.564	3963.87
519.549	4907.2
523.533	4722.76
527.514	2132.53
531.493	733.496
535.471	243.647
539.447	190.158
543.42	363.218
547.392	722.552
551.362	1600.13
555.329	3550.48
559.295	10287.9
563.259	23135.7
567.221	18321.6
571.181	8173.99
575.139	5255.38
579.095	6253.76
583.049	9461.51
587.002	12897
590.952	17908.5
594.9	23503.8
598.847	25600.1
602.792	19684.9
606.734	16735.8
610.675	16947.3
614.614	14214
618.55	8844.78
622.485	5096.21
626.418	3167.66
630.349	2134.97
634.279	1516.76
638.206	1088.2
642.131	839.233
646.055	623.593
649.976	489.418
653.896	370.879
657.814	348.967
661.729	346.671
665.643	390.983
669.555	378.895
673.465	365.396
677.373	555.479
681.28	823.136
685.184	1179.36
689.087	1230.14
692.987	851.479
696.886	401.431
700.783	188.134
704.677	65.367
708.57	11.809
712.462	0.093
716.351	56.613
720.238	120.371
724.124	112.97
728.007	88.872
731.889	82.082
735.769	82.594
739.647	32.362
743.523	31.305
747.397	54.371
751.269	69.592
755.139	58.014
759.008	92.607
762.875	49.326
766.739	26.051
770.602	8.275
774.463	27.387
778.323	23.7
782.18	83.206
786.035	89.204
789.889	134.714
793.741	148.761
797.591	134.367
801.439	227.546
805.285	278.319
809.129	397.694
812.971	483.681
816.812	791.29
820.651	1135.53
824.488	1682.41
828.323	2234.94
832.156	2505.14
835.987	2307
839.817	2168.54
843.644	2140.78
847.47	2423.72
851.294	3036.39
855.116	3995.78
858.936	5448.42
862.755	7462.34
866.571	8812.58
870.386	9107.05
874.199	9521.67
878.01	11885.4
881.82	16189
885.627	20313.6
889.433	17868.7
893.236	13148.6
897.038	11317.6
900.838	12349.2
904.637	16047.5
908.433	22656.4
912.228	31153.9
916.021	35150.3
919.812	28467.5
923.601	17703.6
927.388	10806
931.174	6894.48
934.958	4831.87
938.739	3623.58
942.52	2889.89
946.298	2493.36
950.074	2367.07
953.849	2523.46
957.622	2828.45
961.393	2697.57
965.162	2568.99
968.93	2891.68
972.696	4116.67
976.459	6878.93
980.222	8997.47
983.982	6481.32
987.74	3831.48
991.497	2294.96
995.252	1534.78
999.005	1154.63
1002.76	856.064
1006.51	770.797
1010.25	950.671
1014	1613.73
1017.74	2457.71
1021.49	2308.22
1025.23	1841.26
1028.96	2023.79
1032.7	3041.54
1036.44	5053.49
1040.17	6925.19
1043.9	6487.02
1047.63	4741.57
1051.36	3556.22
1055.09	3501.96
1058.81	4551.5
1062.54	5160.65
1066.26	4082.38
1069.97	3721.9
1073.69	4629.74
1077.41	7075.48
1081.12	12791.3
1084.84	20624.8
1088.55	14761.7
1092.25	6578.44
1095.96	3020.12
1099.67	1689.67
1103.37	1069.15
1107.07	758.48
1110.77	583.118
1114.47	438.651
1118.16	359.984
1121.86	509.444
1125.55	316.882
1129.24	163.926
1132.93	136.188
1136.62	128.76
1140.31	76.372
1143.99	23.187
1147.67	35.381
1151.35	22.519
1155.03	8.09
1158.71	64.474
1162.39	58.388
1166.06	72.944
1169.73	72.782
1173.4	46.121
1177.07	33.023
1180.74	29.522
1184.4	29.842
1188.07	23.968
1191.73	19.505
1195.39	12.317
1199.05	25.219
1202.7	2.56
1206.36	10.505
1210.01	4.236
1213.66	9.314
1217.31	9.395
1220.96	36.933
1224.6	11.686
1228.25	27.469
1231.89	16.44
1235.53	43.184
1239.17	1.624
1242.81	4.714
1246.44	3.516
1250.08	55.929
1253.71	28.185
1257.34	17.273
1260.97	31.088
1264.6	56.704
1268.22	95.798
1271.85	109.635
1275.47	42.298
1279.09	86.263
1282.71	69.946
1286.33	52.423
1289.94	124.19
1293.56	125.953
1297.17	93.76
1300.78	113.867
1304.39	78.036
1307.99	74.859
1311.6	57.148
1315.2	62.759
1318.8	28.344
1322.4	41.252
1326	98.011
1329.6	101.819
1333.19	86.535
1336.79	109.712
1340.38	78.177
1343.97	88.262
1347.56	126.406
1351.14	137.351
1354.73	197.927
1358.31	226.687
1361.89	182.026
1365.47	246.837
1369.05	209.767
1372.63	207.419
1376.2	160.532
1379.78	181.221
1383.35	168.633
1386.92	161.698
1390.49	143.856
1394.05	118.836
1397.62	148.558
1401.18	128.766
1404.74	114.137
1408.3	138.5
1411.86	130.624
1415.42	62.537
1418.97	116.328
1422.53	49.21
1426.08	32.982
1429.63	102.687
1433.18	62.64
1436.72	68.851
1440.27	79.349
1443.81	99.983
1447.36	127.146
1450.89	101.896
1454.43	79.588
1457.97	55
1461.51	34.063
1465.04	70.533
1468.57	80.647
1472.1	58.044
1475.63	98.776
1479.16	33.492
1482.68	90.337
1486.21	57.08
1489.73	71.819
1493.25	42.905
1496.77	70.742
1500.29	58.246
1503.8	30.188
1507.32	61.445
1510.83	24.321
1514.34	2.042
1517.85	53.359
