Measurement: Raman, 514 nm, ccw, Raman Data Processed
Mineral: Epidote
Rruff sample: R050191
Ideal chemistry: Ca_2_Fe^3+^Al_2_(Si_2_O_7_)(SiO_4_)O(OH)
Locality: Pampa Blanca, Castrovirreyna Province, Huancavelica Department, Peru
Source: Dave Bunk Minerals
Description: Cluster of green elongated prismatic crystals
Measured chemistry: Ca_2.00_Al_2.00_(Fe^3+^_0.84_Al_0.16_)(SiO_4_)(Si_2_O_7_)O(OH)
Pin_id: L01970
Orientation: Laser parallel to b* (0 1 0). Fiducial mark perpendicular to laser is parallel to c [0 0 1]
Raman shift (cm-1)	intensity
77.423	0
82.367	4277.45
87.308	14688
92.246	14092.1
97.182	5116.06
102.116	1203.82
107.047	225.711
111.976	362.154
116.903	190.86
121.827	2236.84
126.749	8015.7
131.668	16959.2
136.585	6740.98
141.5	3434.66
146.412	2882.87
151.321	3087.18
156.229	6189.62
161.134	13992.3
166.036	19991.9
170.936	12860.3
175.834	5458.23
180.729	1302.04
185.622	13.6777
190.512	217.875
195.4	699.339
200.286	2513.23
205.169	1512.69
210.049	549.519
214.928	1332.43
219.803	3917.74
224.677	7082.1
229.548	8722.08
234.416	11363.3
239.282	19686.9
244.146	17200.7
249.007	8191.65
253.866	2691.87
258.722	1321.77
263.576	1514.7
268.427	4178.04
273.276	8362.27
278.123	5907.03
282.967	5691.7
287.809	11739.2
292.648	17813.7
297.485	11043
302.319	4915.1
307.151	2105.59
311.98	1095.45
316.807	1916.61
321.631	4594.01
326.454	5125.63
331.273	4912.37
336.09	7583.12
340.905	15042.4
345.717	25969.6
350.527	24412.7
355.334	12069.9
360.139	4655.06
364.941	1465.15
369.741	69.7881
374.538	512.85
379.333	382.01
384.126	303.603
388.916	986.947
393.703	235.544
398.488	203.26
403.271	220.885
408.051	829.074
412.828	3329.88
417.603	9800.57
422.376	18074.1
427.146	18439.5
431.914	20939.2
436.679	21120.5
441.442	26265.9
446.202	43028.5
450.96	50918.3
455.715	43719
460.467	25313.7
465.218	13072.9
469.965	6890.43
474.711	4350.87
479.454	3936.25
484.194	5091.4
488.932	7774.91
493.667	13455.7
498.4	17329.8
503.13	15282.2
507.858	13151.8
512.583	8957.66
517.306	8304.05
522.026	8376.49
526.744	4134
531.459	1214.93
536.172	232.033
540.882	19.5654
545.59	512.824
550.295	2075.15
554.998	7052.33
559.698	19169.7
564.396	27162.4
569.091	13245.5
573.784	5663.92
578.474	5661.07
583.162	8797.93
587.847	12595.6
592.529	16872
597.209	20938.4
601.887	16403.9
606.562	11678.7
611.235	8679.07
615.905	5852.42
620.572	3435.7
625.237	2074.55
629.9	1045.46
634.56	709.39
639.217	458.32
643.872	492.624
648.524	485.793
653.174	487.132
657.821	391.181
662.466	330.318
667.108	340.663
671.748	446.476
676.385	916.809
681.02	1707.4
685.652	2212.08
690.281	1863.18
694.908	971.994
699.533	578.507
704.155	229.675
708.774	35.1465
713.391	120.775
718.005	230.272
722.617	245.94
727.226	241.189
731.833	163.721
736.437	226.194
741.039	47.7588
745.638	37.4707
750.234	11.9609
754.828	219.462
759.419	582.361
764.008	796.983
768.595	1000.38
773.178	684.578
777.759	416.603
782.338	243.463
786.914	127.009
791.488	234.531
796.059	279.829
800.627	364.829
805.193	597.968
809.756	703.064
814.317	926.15
818.875	1514.26
823.431	2173.42
827.984	2571.64
832.534	2612.95
837.082	2385.41
841.627	2394.47
846.17	2771.02
850.71	3380.75
855.248	4492.86
859.783	6105.6
864.316	8562.31
868.846	11268.2
873.373	13877.4
877.898	13784.9
882.42	10843.7
886.94	8441.5
891.457	7416.14
895.971	7747.51
900.483	9873.88
904.993	14144.8
909.5	20186.2
914.004	23980.1
918.505	19246.8
923.004	11317.1
927.501	6473.39
931.995	3671.57
936.486	2398.22
940.975	1597.85
945.461	1161.2
949.945	1037.24
954.426	992.131
958.904	1020.9
963.38	1396.74
967.853	1805
972.324	3394.38
976.792	6064.65
981.258	6407.05
985.72	3691.97
990.181	1695.02
994.639	680.443
999.094	746.367
1003.55	182.635
1008	99.874
1012.44	31.8496
1016.89	337.025
1021.33	880.713
1025.77	1356.21
1030.21	2721.33
1034.64	4543.41
1039.07	6489.73
1043.5	5871.24
1047.93	4367.36
1052.35	3409.06
1056.78	3650.61
1061.19	3741.88
1065.61	3179.91
1070.02	3223.29
1074.43	4853.08
1078.84	8476.55
1083.25	14038.8
1087.65	12433.2
1092.05	5751.58
1096.45	2250.17
1100.85	1169.78
1105.24	694.146
1109.63	492.837
1114.02	605.247
1118.4	298.015
1122.78	504.103
1127.16	337.454
1131.54	236.016
1135.92	179.738
1140.29	61.1895
1144.66	57.4053
1149.02	156.782
1153.39	102.584
1157.75	35.8574
1162.11	142.353
1166.46	79.3262
1170.82	71.0469
1175.17	18.5449
1179.52	133.042
1183.86	48.7158
1188.21	41.5635
1192.55	36.3809
1196.89	3.70703
1201.22	169.064
1205.55	141.598
1209.88	101.704
1214.21	68.7949
1218.54	44.8213
1222.86	91.416
1227.18	5.36035
1231.5	93.7686
1235.81	278.667
1240.12	195.944
1244.43	308.063
1248.74	293.063
1253.04	330.8
1257.34	350.874
1261.64	411.815
1265.94	411.021
1270.23	451.152
1274.52	432.285
1278.81	471.808
1283.1	426.613
1287.38	312.032
1291.66	402.224
1295.94	315.759
1300.21	344.276
1304.48	421.903
1308.75	400.901
1313.02	509.618
1317.29	663.656
1321.55	502.05
1325.81	359.024
1330.06	163.733
1334.32	157.572
1338.57	53.9951
1342.82	131.85
1347.06	233.677
1351.31	111.532
1355.55	125.748
1359.79	130.054
1364.02	113.377
1368.26	140.565
1372.49	72.5703
1376.71	171.542
1380.94	204.468
1385.16	136.087
1389.38	121.575
1393.6	53.0508
1397.81	104.593
1402.02	94.8574
1406.23	98.001
1410.44	154.024
1414.64	76.2852
1418.85	82.0156
1423.04	188.838
1427.24	203.676
1431.43	316.894
1435.62	442.393
1439.81	613.921
1444	834.724
1448.18	938.163
1452.36	980.294
1456.54	1009.11
1460.71	899.414
1464.89	637.36
1469.06	489.527
1473.22	378.116
1477.39	194.597
1481.55	322.477
1485.71	292.755
1489.86	172.912
1494.02	55.4863
1498.17	46.4297
1502.32	0.365234
1506.46	96.8076
1510.61	106.186
1514.75	133.552
1518.88	146.254
1523.02	199.168
1527.15	145.315
1531.28	230.832
1535.41	391.657
1539.53	180.243
1543.66	185.322
1547.78	62.085
1551.89	171.613
1556.01	131.15
1560.12	23.9873
1564.23	174.69
1568.33	69.9072
1572.43	0
