Measurement: Raman, 514 nm, depolarized, Raman Data Processed
Mineral: Epidote
Rruff sample: R040089
Ideal chemistry: Ca_2_Fe^3+^Al_2_(Si_2_O_7_)(SiO_4_)O(OH)
Locality: Grafton County, New Hampshire, USA
Source: University of Arizona Mineral Museum
Description: Dark green coarsely crystalline massive
Measured chemistry: Ca_2.00_(Al_2.36_Fe^3+^_0.64_)[Si_2.00_O_7_][Si_1.00_O_4_]O(OH)
Pin_id: M00263
Orientation: Laser parallel to -b* (0 -1 0). Fiducial mark perpendicular to laser is parallel to c [0 0 1]
Raman shift (cm-1)	intensity
82.092	0
86.291	160.322
90.487	2995
94.682	9749.32
98.874	13193.6
103.064	6282.96
107.252	2300.13
111.437	952.014
115.62	522.043
119.801	623.63
123.98	672.747
128.157	314.612
132.331	1399.17
136.503	4966.15
140.673	10440.1
144.841	9248.47
149.007	5338.26
153.17	4287.32
157.331	3462.52
161.49	2219.18
165.647	3385.22
169.801	6212.73
173.953	7603.23
178.104	5086.02
182.251	2240.33
186.397	435.398
190.541	239.464
194.682	334.583
198.821	466.995
202.958	200.484
207.093	634.847
211.225	1542.26
215.356	1508.64
219.484	1432.97
223.61	2189.51
227.734	3558.43
231.855	5789.63
235.975	7908.6
240.092	7558.09
244.207	5738.52
248.32	7551.45
252.431	11916.1
256.539	12502.7
260.646	7008.07
264.75	3351.3
268.852	2181.75
272.952	2719.02
277.05	5663.39
281.146	11073.6
285.239	8739.88
289.33	3993.25
293.419	2549.03
297.506	3118.03
301.591	4623.78
305.674	4709
309.755	2835.53
313.833	1640.79
317.909	515.008
321.983	260.097
326.055	502.888
330.125	1630.42
334.193	2694.82
338.258	2149.1
342.322	1903.22
346.383	2447.15
350.442	4596.1
354.499	8340.94
358.554	9562.68
362.607	5972.94
366.658	2602.08
370.706	910.08
374.753	79.356
378.797	380.018
382.839	619.334
386.879	505.487
390.917	178.638
394.953	1712.6
398.987	3129.45
403.018	2045.52
407.048	1095.05
411.075	589.03
415.1	832.981
419.124	1435.87
423.145	3769.8
427.164	9556.88
431.18	19204.1
435.195	19571.6
439.208	14599.3
443.219	12417.3
447.227	12795.5
451.233	16263.9
455.238	24712.6
459.24	26291.5
463.24	23330.8
467.238	19630.4
471.234	15970.4
475.228	11440.7
479.22	8202.9
483.21	6034.11
487.197	4789.05
491.183	4696.87
495.166	5108.34
499.148	5390.2
503.127	5532.06
507.104	6323.98
511.08	8346.12
515.053	11209.2
519.024	10773.9
522.993	8470.84
526.96	9099.68
530.925	12869.4
534.888	9434.91
538.848	4171.08
542.807	2190.47
546.764	1734.4
550.718	1899.03
554.671	2446.51
558.622	3169.04
562.57	4805.62
566.516	8945.06
570.461	21176
574.403	31822.4
578.344	15287.7
582.282	6692.84
586.218	4779.6
590.152	4980.25
594.084	5981.66
598.014	8100.55
601.943	12492.9
605.869	18231.3
609.793	19034.7
613.715	13476
617.635	8862.33
621.553	6444.71
625.468	4558.53
629.382	2948.32
633.294	1987
637.204	1329.63
641.112	1073.1
645.018	788.326
648.922	469.404
652.823	254.419
656.723	294.926
660.621	611.833
664.517	976.378
668.411	1190.55
672.302	1253.33
676.192	1166.68
680.08	1376.59
683.966	1539
687.849	1812.9
691.731	2015.3
695.611	2048.53
699.489	1637.39
703.364	1129.06
707.238	747.765
711.11	380.913
714.98	116.455
718.848	34.295
722.713	41.695
726.577	70.779
730.439	116.419
734.299	162.02
738.157	165.574
742.013	107.955
745.867	155.11
749.719	225.026
753.569	181.804
757.417	66.309
761.263	137.266
765.107	68.594
768.949	177.405
772.789	80.8
776.627	75.526
780.463	33.478
784.298	8.616
788.13	45.245
791.96	82.222
795.789	221.42
799.615	275.904
803.439	429.697
807.262	418.608
811.083	572.035
814.901	678.948
818.718	984.262
822.532	1366.98
826.345	1883.12
830.156	2584.68
833.965	3408.67
837.772	3586.1
841.577	3431.98
845.38	3106.32
849.181	2910.12
852.98	2953.39
856.777	3309.11
860.573	4007.33
864.366	4889.86
868.157	5729.77
871.947	6599.78
875.734	7614.14
879.52	8727.52
883.304	9454.17
887.086	8591.86
890.865	7072.23
894.643	6384.66
898.419	6416.47
902.194	7495.99
905.966	9755.02
909.736	13305
913.504	17477
917.271	20822.7
921.035	21939.2
924.798	19593.5
928.559	15505.8
932.317	11722.7
936.074	8570.55
939.829	6535.47
943.582	5250.79
947.334	4370.44
951.083	4010.03
954.83	3985.04
958.576	3936.23
962.319	4022.7
966.061	3822.54
969.801	3563.52
973.539	3538.64
977.275	4347.9
981.009	6140.31
984.741	8424.88
988.472	7539.61
992.2	4754.52
995.927	3096.62
999.651	2251.92
1003.37	1578.43
1007.1	1108.61
1010.81	681.203
1014.53	452.959
1018.25	387.807
1021.96	662.025
1025.67	977.675
1029.38	1373.5
1033.09	1761.47
1036.8	2352.87
1040.5	3338.22
1044.2	4282.38
1047.9	4841.45
1051.6	4851.42
1055.3	4116.04
1058.99	3761.09
1062.68	3638.8
1066.38	3354.23
1070.07	3305.53
1073.75	3929.16
1077.44	5302.13
1081.12	7702.35
1084.8	11281
1088.48	15559.9
1092.16	17728.9
1095.84	12552.4
1099.51	6051.75
1103.18	3060.27
1106.86	1755.59
1110.52	1190.49
1114.19	778.29
1117.86	516.885
1121.52	563.96
1125.18	768.13
1128.84	482.892
1132.5	489.077
1136.15	297.044
1139.81	224.972
1143.46	172.277
1147.11	106.932
1150.76	36.893
1154.41	7.678
1158.05	108.232
1161.7	6.868
1165.34	34.549
1168.98	62.445
1172.61	146.136
1176.25	115.006
1179.88	78.987
1183.52	47.244
1187.15	69.267
1190.78	5.545
1194.4	43.557
1198.03	80.636
1201.65	81.189
1205.27	47.632
1208.89	90.224
1212.51	16.684
1216.13	126.224
1219.74	146.499
1223.35	168.483
1226.96	41.203
1230.57	40.696
1234.18	63.987
1237.78	56.087
1241.39	123.961
1244.99	125.654
1248.59	213.019
1252.19	225.199
1255.78	131.214
1259.38	84.951
1262.97	62.315
1266.56	90.623
1270.15	133.291
1273.74	175.746
1277.32	215.943
1280.91	205.869
1284.49	191.709
1288.07	113.351
1291.65	93.457
1295.22	37.637
1298.8	70.835
1302.37	116.079
1305.94	154.491
1309.51	151.826
1313.08	191.563
1316.65	204.707
1320.21	141.599
1323.77	75.075
1327.34	14.505
1330.89	48.533
1334.45	98.554
1338.01	178.834
1341.56	209.283
1345.11	213.94
1348.66	256.833
1352.21	242.449
1355.76	216.824
1359.3	193.066
1362.85	210.267
1366.39	180.673
1369.93	137.132
1373.46	232.279
1377	304.792
1380.54	316.727
1384.07	216.596
1387.6	237.987
1391.13	145.981
1394.65	103.195
1398.18	105.689
1401.7	150.236
1405.23	76.328
1408.75	123.525
1412.27	211.744
1415.78	211.698
1419.3	152.357
1422.81	150.671
1426.32	124.618
1429.83	47.499
1433.34	6.438
1436.85	1.207
1440.35	12.982
1443.86	19.789
1447.36	90.197
1450.86	154.141
1454.36	186.54
1457.85	253.621
1461.35	185.225
1464.84	205.93
1468.33	189.256
1471.82	126.042
1475.31	66.78
1478.8	84.993
1482.28	53.861
1485.76	78.917
1489.24	119.017
1492.72	206.481
1496.2	215.738
1499.67	235.8
1503.15	190.296
1506.62	230.635
1510.09	69.777
