Measurement: Raman, 514 nm, depolarized, Raman Data Processed
Mineral: Epidote
Rruff sample: R050191
Ideal chemistry: Ca_2_Fe^3+^Al_2_(Si_2_O_7_)(SiO_4_)O(OH)
Locality: Pampa Blanca, Castrovirreyna Province, Huancavelica Department, Peru
Source: Dave Bunk Minerals
Description: Cluster of green elongated prismatic crystals
Measured chemistry: Ca_2.00_Al_2.00_(Fe^3+^_0.84_Al_0.16_)(SiO_4_)(Si_2_O_7_)O(OH)
Pin_id: L01970
Orientation: Laser parallel to b* (0 1 0). Fiducial mark perpendicular to laser is parallel to c [0 0 1]
Raman shift (cm-1)	intensity
81.131	0
86.072	10506.6
91.012	18856.3
95.948	7751.13
100.883	2546.57
105.815	578.346
110.744	108.647
115.671	437.878
120.596	201.463
125.519	3872.6
130.439	13167.9
135.356	6767.95
140.271	2576.02
145.184	2809.59
150.094	1464.69
155.002	2635.43
159.908	7238.25
164.811	15187.9
169.711	11849.1
174.61	5205.02
179.505	1235.23
184.399	76.5
189.29	139.103
194.178	582.904
199.064	2927.34
203.948	3221.32
208.829	1889.19
213.708	2829.54
218.585	6000
223.459	10915.5
228.33	13063.5
233.199	10972.1
238.066	14857.8
242.93	16170.4
247.792	9134.92
252.651	3712.76
257.508	1877.31
262.363	1382.79
267.215	4140.1
272.064	10569.6
276.912	8904.62
281.756	4674.67
286.598	6680.25
291.438	11872.9
296.276	10016.5
301.111	5192.79
305.943	2751.53
310.773	1252.37
315.601	1484.34
320.426	3645.47
325.248	4656.81
330.068	3059.93
334.886	3835.1
339.701	8040.42
344.514	15532.6
349.324	18675.9
354.132	10869.3
358.938	4140.86
363.741	805.486
368.541	534.926
373.339	997.17
378.135	823.537
382.928	672.396
387.718	2372.9
392.506	1088.7
397.292	174.926
402.075	270.309
406.856	752.205
411.634	3499.99
416.41	10549.1
421.183	22776.4
425.954	23727
430.722	21639.4
435.488	19808.2
440.251	21139.6
445.012	32410.7
449.77	42698.4
454.526	38256.3
459.28	25187.5
464.03	13931.3
468.779	7177.72
473.525	4373.32
478.268	3682.34
483.009	4295.49
487.747	6504.34
492.483	11099.9
497.217	15571
501.948	15596.6
506.676	14915.9
511.402	12174
516.125	11767
520.846	13450.5
525.565	8460.86
530.281	2998.51
534.994	1001.95
539.705	344.121
544.413	1046.2
549.119	2257.28
553.822	6821.48
558.523	19326.3
563.222	34641.1
567.917	20726.1
572.611	9108
577.302	7597.78
581.99	11171.5
586.676	14680.8
591.359	19704.8
596.04	25664.3
600.718	22453.7
605.394	16032.3
610.067	12165.3
614.737	8728.56
619.406	5452.05
624.071	3714.5
628.734	2058.32
633.395	1303.25
638.053	1015.24
642.708	824.57
647.361	939.301
652.012	713.731
656.66	577.453
661.305	505.553
665.948	359.644
670.588	662.637
675.226	997.398
679.861	1353.9
684.494	1970.8
689.124	1806.84
693.752	984.514
698.377	497.785
702.999	150.574
707.619	137.758
712.237	239.56
716.852	314.596
721.464	203.676
726.074	130.56
730.681	191.139
735.286	46.0098
739.888	90.0254
744.488	95.7969
749.085	33.9141
753.68	108.965
758.272	174.549
762.861	810.377
767.448	920.771
772.033	668.766
776.614	395.381
781.194	492.623
785.77	342.482
790.345	292.967
794.916	358.123
799.485	557.961
804.052	752.463
808.616	1125.66
813.177	1269.58
817.736	1849.27
822.292	2908.76
826.846	3993.06
831.397	4009.23
835.945	3450.31
840.491	2968.9
845.035	3433.28
849.576	3594.93
854.114	4893.97
858.65	6333.37
863.183	8782.28
867.713	10625.9
872.241	12220.4
876.767	12744.3
881.29	10968.2
885.81	9394.01
890.328	8261.26
894.843	8690.69
899.356	10990.5
903.866	16286.9
908.373	24096.8
912.878	31687.2
917.38	28903.2
921.88	18370.3
926.377	10457
930.872	6132.39
935.364	3822.99
939.853	2514.34
944.34	1735.52
948.824	1518.52
953.306	1644.38
957.785	1660.04
962.261	1783.57
966.735	1921.62
971.207	3427.53
975.675	6045
980.141	7896.92
984.605	5329.98
989.066	2457.43
993.524	1175.76
997.98	650.689
1002.43	434.264
1006.88	42.5664
1011.33	81.7773
1015.78	377.734
1020.22	739.148
1024.66	1260.53
1029.1	1846.19
1033.53	3496.97
1037.97	5404.18
1042.4	5466.52
1046.82	4337.47
1051.25	3130.18
1055.67	3722.72
1060.09	4408.04
1064.51	4092.08
1068.92	3694.94
1073.33	5009.6
1077.74	8759.87
1082.15	16147.8
1086.55	16885.7
1090.95	9145.26
1095.35	3729.86
1099.75	1584.6
1104.14	941.176
1108.53	614.955
1112.92	618.211
1117.31	647.904
1121.69	278.445
1126.07	411.148
1130.45	137.815
1134.82	33.6914
1139.19	5.30273
1143.57	195.961
1147.93	203.719
1152.3	237.537
1156.66	37.3574
1161.02	33.6016
1165.38	61.8359
1169.73	27.9805
1174.08	140.285
1178.43	77.1191
1182.78	76.3672
1187.12	244.635
1191.46	174.418
1195.8	3.58008
1200.14	127.65
1204.47	15.8984
1208.8	77.2656
1213.13	222.91
1217.46	221.775
1221.78	113.852
1226.1	131.154
1230.42	216.816
1234.73	268.914
1239.04	257.523
1243.35	428.684
1247.66	243.428
1251.97	277.754
1256.27	462.603
1260.57	491.012
1264.86	436.293
1269.16	833.484
1273.45	763.547
1277.74	511.555
1282.03	564.463
1286.31	332.166
1290.59	520.144
1294.87	498.182
1299.14	342.688
1303.42	665.779
1307.69	592.473
1311.95	635.184
1316.22	812.223
1320.48	669.986
1324.74	391.787
1329	308.99
1333.26	178.615
1337.51	306.9
1341.76	188.656
1346	231.568
1350.25	262.367
1354.49	289.568
1358.73	277.33
1362.96	232.926
1367.2	339.139
1371.43	421.807
1375.66	377.742
1379.88	299.981
1384.11	400.836
1388.33	235.342
1392.54	166.496
1396.76	243.57
1400.97	91.459
1405.18	15.6309
1409.39	307.139
1413.59	39.5742
1417.8	111.553
1421.99	189.557
1426.19	82.9356
1430.38	297.85
1434.58	487.49
1438.77	768.529
1442.95	1023.21
1447.13	1255.41
1451.32	1368.83
1455.49	1282.57
1459.67	1389.74
1463.84	918.877
1468.01	571.834
1472.18	891.943
1476.35	485.867
1480.51	510.602
1484.67	480.529
1488.83	268.506
1492.98	202.19
1497.13	38.2207
1501.28	24.8086
1505.43	291.438
1509.57	129.393
1513.71	167.926
1517.85	201.572
1521.99	146.043
1526.12	195.24
1530.25	367.178
1534.38	373.42
1538.5	395.488
1542.62	376.137
1546.74	142.582
1550.86	246.199
1554.98	376.225
1559.09	56.1465
1563.2	81.1348
1567.31	139.082
1571.41	17.9375
