Measurement: Raman, 514 nm, depolarized, Raman Data Processed
Mineral: Epidote
Rruff sample: R050191
Ideal chemistry: Ca_2_Fe^3+^Al_2_(Si_2_O_7_)(SiO_4_)O(OH)
Locality: Pampa Blanca, Castrovirreyna Province, Huancavelica Department, Peru
Source: Dave Bunk Minerals
Description: Cluster of green elongated prismatic crystals
Measured chemistry: Ca_2.00_Al_2.00_(Fe^3+^_0.84_Al_0.16_)(SiO_4_)(Si_2_O_7_)O(OH)
Pin_id: L00883
Orientation: Laser parallel to (1 0 1). Fiducial mark perpendicular to laser is parallel to b [0 1 0]
Raman shift (cm-1)	intensity
53.91	0
58.864	238.393
63.817	25.7539
68.767	77.6138
73.714	351.587
78.659	2143.78
83.602	7527.84
88.542	14002.5
93.48	16611.9
98.416	11225.3
103.349	6211.51
108.28	5080.4
113.208	3312.45
118.134	3262.46
123.058	3391.23
127.979	2967.64
132.898	2649.55
137.814	2378.07
142.728	2008.18
147.639	2201.74
152.549	2475.6
157.455	2855.47
162.359	5037.55
167.261	6530.21
172.161	5426.47
177.058	3436.35
181.952	2015.81
186.845	1890.79
191.734	2451.22
196.622	3647.03
201.507	4245.2
206.389	3569.02
211.269	2625.18
216.147	2864.54
221.022	4501.2
225.895	5442.24
230.765	5725.63
235.633	6343.96
240.498	6013.75
245.361	4851.27
250.222	2785.48
255.08	1958.6
259.936	3573.45
264.789	7025.88
269.64	11613.8
274.488	12964
279.334	11126.5
284.178	5981.18
289.019	5707.07
293.857	6603.03
298.693	6944.9
303.527	6655.55
308.358	5632.92
313.187	4222.97
318.013	3282.68
322.837	2786.01
327.659	2211.92
332.478	1530.38
337.294	1847.35
342.108	3744.78
346.92	4061.66
351.729	2935.5
356.535	1835.3
361.34	1506.37
366.141	1007.63
370.94	82.9316
375.737	530.368
380.531	470.888
385.323	165.552
390.113	253.034
394.9	329.428
399.684	203.128
404.466	681.098
409.245	2749.61
414.022	8719.37
418.797	17028.3
423.569	23858.4
428.338	26956.6
433.105	23350
437.87	24325
442.632	33031.8
447.391	46663.7
452.149	53745.8
456.903	46923
461.655	30472.5
466.405	15121
471.152	7685.17
475.897	4596.8
480.639	3350.47
485.378	3382.72
490.116	4561.34
494.85	6124.26
499.582	7051.42
504.312	6864.84
509.039	5027.46
513.764	3147.17
518.486	2097.3
523.206	1241.41
527.923	372.278
532.638	186.747
537.35	136.453
542.059	373.275
546.766	1503.75
551.471	4221.19
556.173	12718.3
560.873	20393
565.57	20349.1
570.264	11641.2
574.957	7318.74
579.646	9140.36
584.333	13254.2
589.018	18711.7
593.7	23660.1
598.379	24200.7
603.056	20682.3
607.73	16876.3
612.402	13181
617.072	8854.2
621.739	5290.17
626.403	3270.14
631.065	2179.05
635.724	1646.19
640.381	1067.23
645.035	820.795
649.687	748.957
654.336	616.255
658.983	637.064
663.627	647.546
668.268	790.96
672.907	965.153
677.544	1320.5
682.178	2134.89
686.809	2537.52
691.438	2108.94
696.065	1322.97
700.688	706.642
705.31	417.933
709.929	108.768
714.545	112.259
719.158	129.213
723.77	161.637
728.378	210.929
732.984	109.394
737.588	233.211
742.189	185.417
746.787	13.6895
751.383	154.335
755.976	46.8696
760.567	221.88
765.155	299.37
769.741	337.555
774.324	250.327
778.904	7.88965
783.482	30.2529
788.058	48.9438
792.631	0.32666
797.201	239.575
801.769	277.644
806.334	421.768
810.897	704.085
815.457	972.265
820.014	1222.07
824.569	1798.98
829.122	2234.07
833.671	2297.37
838.219	2318.94
842.763	2474.82
847.306	3078.42
851.845	4063.49
856.382	6013.44
860.917	8279.02
865.448	9919.85
869.978	11265.1
874.505	13565.9
879.029	17155.3
883.55	19559.2
888.069	17074.7
892.586	13255.2
897.1	12459.9
901.611	15002.1
906.12	20628.2
910.626	27280.5
915.129	27098.8
919.63	19973.2
924.129	11814.3
928.625	6732.5
933.118	4185.66
937.609	2876.46
942.097	2090.95
946.582	1835.49
951.065	1885.15
955.546	2157.94
960.023	2135.95
964.499	2509.2
968.971	3666.74
973.441	6677.54
977.909	9190.62
982.374	8178.03
986.836	4658.11
991.295	2242.41
995.753	1229.19
1000.21	726.71
1004.66	634.961
1009.11	776.596
1013.55	1593.54
1018	2093.6
1022.44	1903.19
1026.88	2369.72
1031.32	3637.8
1035.75	5592.55
1040.18	6711.08
1044.61	5857.71
1049.04	4503.08
1053.46	3969.15
1057.88	4746.56
1062.3	5106.05
1066.71	4589.76
1071.13	5349.37
1075.54	8659.87
1079.94	15461.3
1084.35	20819.7
1088.75	16409.1
1093.15	7087.02
1097.55	2639.79
1101.94	1380.4
1106.34	794.84
1110.73	554.575
1115.11	492.987
1119.5	605.329
1123.88	578.992
1128.26	318.433
1132.63	97.5708
1137.01	101.755
1141.38	42.8384
1145.75	102.149
1150.12	64.8291
1154.48	131.733
1158.84	175.642
1163.2	95.8369
1167.55	83.0054
1171.91	75.1103
1176.26	28.7661
1180.61	3.68701
1184.95	35.8062
1189.29	16.5815
1193.63	20.29
1197.97	31.5381
1202.31	79.8848
1206.64	77.0464
1210.97	117.403
1215.29	110.279
1219.62	63.7231
1223.94	35.3037
1228.26	73.0913
1232.57	192.082
1236.89	155.349
1241.2	208.895
1245.51	134.706
1249.81	246.712
1254.12	184.792
1258.42	75.8989
1262.72	311.048
1267.01	227.684
1271.3	235.846
1275.59	332.471
1279.88	242.883
1284.17	165.117
1288.45	189.991
1292.73	225.806
1297.01	242.746
1301.28	231.254
1305.55	98.7534
1309.82	256.235
1314.09	195.184
1318.35	132.836
1322.61	144.701
1326.87	266.897
1331.13	60.5825
1335.38	218.682
1339.63	225.696
1343.88	236.999
1348.12	295.819
1352.37	237.299
1356.61	337.278
1360.85	227.412
1365.08	230.407
1369.31	288.685
1373.54	329.4
1377.77	236.745
1381.99	224.449
1386.22	219.065
1390.43	154.301
1394.65	306.551
1398.87	119.764
1403.08	281.938
1407.29	158.967
1411.49	238.187
1415.69	118.08
1419.89	111.487
1424.09	113.66
1428.29	118.528
1432.48	176.376
1436.67	140.977
1440.86	243.449
1445.04	131.914
1449.23	95.1533
1453.4	162.299
1457.58	137.988
1461.76	110.358
1465.93	116.675
1470.1	137.394
1474.26	142.763
1478.43	80.5967
1482.59	111.749
1486.75	109.384
1490.9	137.569
1495.06	50.5352
1499.21	52.9961
1503.35	116.136
1507.5	135.804
1511.64	33.7139
1515.78	113.872
1519.92	82.3648
1524.05	68.0112
1528.18	74.626
1532.31	41.3599
1536.44	34.4082
1540.56	58.3931
1544.69	97.6016
1548.8	33.7188
1552.92	251.806
1557.03	56.0942
1561.14	6.97852
1565.25	73.4082
1569.36	35.6157
