Measurement: Raman, 514 nm, depolarized, Raman Data Processed
Mineral: Epidote
Rruff sample: R050131
Ideal chemistry: Ca_2_Fe^3+^Al_2_(Si_2_O_7_)(SiO_4_)O(OH)
Locality: Calumet mine, Chaffee County, Colorado, USA
Source: Dave Bunk Minerals
Description: Green prismatic crystal
Measured chemistry: Ca_2.00_Al_2.00_(Fe^3+^_0.75_Al_0.25_)(SiO_4_)(Si_2_O_7_)O(OH)
Pin_id: L00135
Orientation: Laser parallel to (1 0 1). Fiducial mark perpendicular to laser is parallel to b [0 1 0]
Raman shift (cm-1)	intensity
84.529	0
88.728	168.871
92.926	698.003
97.121	1933.04
101.314	2490.5
105.505	1247.36
109.694	515.944
113.881	551.267
118.066	266.245
122.249	258.223
126.43	336.817
130.608	351.785
134.785	17.256
138.959	117.922
143.131	343.4
147.301	740.655
151.469	678.888
155.635	595.857
159.799	1167.75
163.961	2128.11
168.121	2962.17
172.278	3059.72
176.434	2002.8
180.587	862.463
184.739	156.136
188.888	199.538
193.035	193.44
197.18	123.363
201.324	620.795
205.465	670.876
209.603	254.619
213.74	22.028
217.875	132.102
222.008	567.076
226.139	1635.93
230.267	3036.61
234.394	3498.15
238.518	4095.75
242.641	5536.21
246.761	5269.55
250.879	3134.38
254.996	1441.15
259.11	748.457
263.222	848.549
267.332	1734.93
271.44	3591.29
275.546	5112.5
279.65	3767.31
283.752	2190.59
287.852	1826.36
291.95	2041.64
296.046	2667.43
300.14	2804.71
304.231	2574.34
308.321	2054.66
312.409	2033.6
316.495	2064.12
320.578	1676.2
324.66	1691.83
328.739	2231.96
332.817	2826.56
336.892	2715.63
340.966	3241.15
345.037	5479.12
349.107	7858.54
353.174	6630.41
357.24	3653.55
361.303	2046.81
365.365	1581.93
369.424	1137.46
373.481	572.243
377.537	19.043
381.59	255.449
385.642	42.152
389.691	386.065
393.738	406.346
397.784	95.817
401.827	59.681
405.868	35.659
409.908	275.933
413.945	922.324
417.98	2553.73
422.014	5881.09
426.045	9069.34
430.075	9298.42
434.102	9908.19
438.127	11268.5
442.151	12389.2
446.172	15980.3
450.192	21681.6
454.209	24813.1
458.225	25105
462.238	21227
466.25	14339.4
470.259	9021.94
474.267	5724.77
478.273	3923.84
482.276	3032.17
486.278	2708.72
490.278	2848.47
494.276	2982.4
498.271	3580.5
502.265	4201.76
506.257	4715.17
510.247	4444.72
514.235	2936.51
518.221	1410.81
522.205	609.369
526.187	254.026
530.167	50.233
534.145	84.575
538.122	69.91
542.096	34.44
546.068	218.713
550.039	604.869
554.007	1338.62
557.973	2811.82
561.938	6794.77
565.901	12672.2
569.861	9714.94
573.82	4643.83
577.777	3155.22
581.732	3502.48
585.685	4668.14
589.636	6101.89
593.585	8440.66
597.532	11965.2
601.477	13381.6
605.42	11525.5
609.361	9159.03
613.301	7932.31
617.238	6186.31
621.174	3921.05
625.108	2441.5
629.039	1576.98
632.969	1086.46
636.897	812.36
640.823	673.55
644.747	477.441
648.669	350.13
652.589	411.384
656.508	375.296
660.424	398.863
664.339	409.078
668.251	353.937
672.162	464.435
676.071	541.562
679.978	772.313
683.883	1100.68
687.786	1459.65
691.687	1323.62
695.586	994.155
699.484	695.321
703.379	497.296
707.273	271.911
711.165	134.137
715.055	20.094
718.943	28.01
722.829	84.859
726.713	157.983
730.595	219.569
734.476	135.732
738.354	134.342
742.231	112.36
746.106	37.667
749.978	7.965
753.849	88.991
757.719	229.443
761.586	493.526
765.451	919.266
769.315	1037.67
773.177	881.739
777.036	585.484
780.894	287.912
784.75	96.023
788.605	50.793
792.457	60.202
796.307	115.26
800.156	150
804.003	266.454
807.848	364.644
811.691	454.578
815.532	596.265
819.371	725.712
823.209	811.929
827.045	900.924
830.878	1042.71
834.71	1105.28
838.54	1249.66
842.369	1380.53
846.195	1549.02
850.02	1888.17
853.842	2433.3
857.663	3216.34
861.482	4558.28
865.299	6114.6
869.115	7211.99
872.928	7583.29
876.74	8497.5
880.55	10361.2
884.358	12901.4
888.164	14797.3
891.969	13683.1
895.771	10352.8
899.572	8071.73
903.371	7600.76
907.168	8750.04
910.963	10545.3
914.757	12242
918.548	12008.8
922.338	9555.83
926.126	6671
929.912	4678.35
933.697	3288.91
937.479	2436.84
941.26	1812.88
945.039	1557.94
948.816	1294.87
952.591	1254.82
956.365	1308.85
960.136	1316.14
963.906	1318.7
967.674	1368.69
971.441	1643.61
975.205	2545.94
978.968	4147.55
982.729	4791.43
986.488	3328.59
990.245	1896.01
994	1071.24
997.754	689.071
1001.51	487.65
1005.26	413.027
1009	411.942
1012.75	547.697
1016.5	1037.87
1020.24	1739.07
1023.98	1823.54
1027.72	1331.6
1031.46	1108.04
1035.19	1150.27
1038.93	1470.39
1042.66	1602.18
1046.39	1655.5
1050.12	1385.91
1053.85	1263.3
1057.57	1221.99
1061.29	1323.7
1065.02	1098.7
1068.74	1176.92
1072.45	1495.04
1076.17	2483.57
1079.88	4003.92
1083.6	6232.02
1087.31	8228.53
1091.02	6963.38
1094.72	3491.81
1098.43	1595.45
1102.13	897.727
1105.84	567.395
1109.54	396.529
1113.24	330.702
1116.93	288.16
1120.63	326.857
1124.32	294.277
1128.01	165.417
1131.7	144.614
1135.39	125.271
1139.08	72.927
1142.76	15.604
1146.45	14.185
1150.13	44.013
1153.81	51.633
1157.48	41.841
1161.16	30.361
1164.84	58.006
1168.51	47.56
1172.18	59.211
1175.85	43.106
1179.52	47.429
1183.18	19.566
1186.85	16.83
1190.51	0.462
1194.17	3.568
1197.83	27.516
1201.48	19.635
1205.14	12.4
1208.79	116.427
1212.44	19.137
1216.09	11.616
1219.74	5.906
1223.39	7.111
1227.03	4.026
1230.68	20.646
1234.32	13.042
1237.96	35.205
1241.6	55.047
1245.23	13.565
1248.87	51.719
1252.5	38.749
1256.13	45.278
1259.76	78.56
1263.39	68.502
1267.02	18.18
1270.64	168.642
1274.26	77.734
1277.88	69.49
1281.5	67.946
1285.12	97.136
1288.74	76.862
1292.35	87.025
1295.96	96.179
1299.57	98.099
1303.18	95.074
1306.79	62.16
1310.4	69.331
1314	98.037
1317.6	102.697
1321.2	72.421
1324.8	94.344
1328.4	91.502
1331.99	70.265
1335.59	111.463
1339.18	85.184
1342.77	109.365
1346.36	134.771
1349.95	159.052
1353.53	114.314
1357.12	152.938
1360.7	128.048
1364.28	97.193
1367.86	170.308
1371.44	153.799
1375.01	152.583
1378.59	102.612
1382.16	122.891
1385.73	154.889
1389.3	158.429
1392.87	118.181
1396.43	139.928
1399.99	80.828
1403.56	96.844
1407.12	90.204
1410.68	87.223
1414.23	134.14
1417.79	65.767
1421.34	105.358
1424.9	91.677
1428.45	103.501
1431.99	90.463
1435.54	75.199
1439.09	36.807
1442.63	63.962
1446.17	55.049
1449.71	76.604
1453.26	84.36
1456.79	113.219
1460.33	50.628
1463.86	75.595
1467.39	75.388
1470.92	75.535
1474.45	21.845
1477.98	13.331
1481.51	68.686
1485.03	59.071
1488.56	56.108
1492.08	51.462
1495.6	88.908
1499.11	57.026
1502.63	59.369
1506.14	54.543
1509.66	6.74
1513.17	52.817
1516.68	11.282
