Measurement: Raman, 514 nm, depolarized, Raman Data Processed
Mineral: Epidote
Rruff sample: R040092
Ideal chemistry: Ca_2_Fe^3+^Al_2_(Si_2_O_7_)(SiO_4_)O(OH)
Locality: Nahant, Massachusetts, USA
Source: University of Arizona Mineral Museum
Description: Green prismatic crystals imbedded in quartz
Measured chemistry: Ca_2.01_Al_2.00_Fe_1.00_(Si_1.00_O_4_)(Si_1.97_Fe_0.02_Al_0.01_Ti_0.01_O_7_)O(OH)
Pin_id: M00185
Orientation: Laser parallel to -c [0 0 -1]. Fiducial mark perpendicular to laser is parallel to b* (0 1 0)
Raman shift (cm-1)	intensity
51.466	0
55.666	281.963
59.863	518.089
64.059	637.838
68.253	361.021
72.445	122.506
76.635	226.843
80.823	2743.94
85.009	8470.32
89.193	14857.4
93.375	17223.2
97.554	14774.6
101.732	9498.86
105.908	4100.62
110.082	1405.82
114.254	781.147
118.424	477.125
122.592	378.386
126.758	1103.67
130.922	2562.82
135.083	3121.75
139.243	1793.97
143.401	344.374
147.557	102.298
151.711	196.743
155.863	303.658
160.013	1465.7
164.161	3842.52
168.308	5937.21
172.452	6605.88
176.594	4626.58
180.734	2566.37
184.872	1855.19
189.008	1809.88
193.143	1441.75
197.275	1423.8
201.405	2579.06
205.534	3168.54
209.66	2883.08
213.784	3133.49
217.907	5017.69
222.027	8194.69
226.146	11712.6
230.263	12863.3
234.377	10142.3
238.49	7800.61
242.601	7004.35
246.709	5552.66
250.816	4047.67
254.921	3414.27
259.024	2794.39
263.125	2639.92
267.224	4577.64
271.321	8369.34
275.416	11728.3
279.51	8273.49
283.601	4160.6
287.69	2029.39
291.778	1912.05
295.863	2294.8
299.947	2497.55
304.029	2490.16
308.108	2742.64
312.186	2907
316.262	2795.36
320.336	2301.89
324.408	1974.96
328.478	1458.93
332.546	526.802
336.612	299.564
340.677	954.214
344.739	2982.74
348.799	5190.14
352.858	4733.39
356.915	2385.51
360.969	704.464
365.022	14.747
369.073	487.369
373.122	842.136
377.169	659.932
381.215	77.202
385.258	1526.75
389.299	3202.38
393.339	2688.14
397.376	1180.18
401.412	402.691
405.446	341.713
409.478	1244.24
413.508	3470.33
417.536	8318.03
421.562	15584.4
425.586	20901.3
429.609	19203.8
433.629	18337.8
437.648	17621.2
441.665	15097.8
445.68	16009.6
449.693	18969.4
453.704	18934.2
457.713	17129.7
461.721	12819.1
465.726	8304.27
469.73	5660.19
473.731	3834.82
477.731	2569.16
481.729	2280.21
485.725	2389.85
489.72	2994.05
493.712	4436.79
497.703	6392.06
501.691	8699.83
505.678	10036.1
509.663	10525.8
513.646	9331.99
517.627	9471.59
521.607	10998.6
525.584	9773.21
529.56	5617.77
533.534	2709.27
537.506	1757.72
541.476	1609.55
545.444	1869.99
549.41	2896.88
553.375	4634.28
557.337	9333.03
561.298	19042.6
565.257	27346.8
569.214	19387.9
573.17	10504.5
577.123	7940.87
581.075	9304.01
585.024	12421.7
588.972	16533.7
592.918	21074
596.863	26574.5
600.805	26045.3
604.746	21053.4
608.685	16500.9
612.621	13933.3
616.557	11358.3
620.49	7564.43
624.421	5083.61
628.351	3391.51
632.279	2468.91
636.205	2059.92
640.129	1525.33
644.051	1253.98
647.972	1102.15
651.89	942.827
655.807	942.989
659.722	1056.62
663.636	1052.7
667.547	999.225
671.457	977.167
675.365	1139.52
679.271	1164.26
683.175	1261.38
687.077	1195.33
690.978	1017.82
694.877	630.224
698.774	342.926
702.669	152.003
706.562	49.302
710.454	72.396
714.344	120.529
718.232	5.631
722.118	144.897
726.002	106.424
729.885	138.044
733.766	215.906
737.645	181.062
741.522	148.476
745.397	128.094
749.271	115.708
753.143	44.187
757.013	18.648
760.881	5.97
764.748	60.081
768.613	96.007
772.476	79.015
776.337	68.021
780.196	87.207
784.054	140.165
787.91	259.417
791.764	339.877
795.616	526.592
799.467	569.591
803.316	741.887
807.163	817.489
811.008	1098.41
814.851	1586.66
818.693	2100.25
822.533	3068.19
826.371	3957.49
830.208	4612.18
834.042	4464.25
837.875	4159.72
841.706	3582.61
845.536	3522.91
849.363	3848.64
853.189	4429.85
857.013	5253.14
860.836	6203.32
864.656	6880.99
868.475	7382.02
872.292	7692.17
876.108	7209.23
879.922	7353.16
883.733	7885.78
887.544	8575.05
891.352	9460.17
895.159	11003.9
898.964	14024.4
902.767	19011
906.568	26262.8
910.368	35329.6
914.166	44341.3
917.962	43455.2
921.757	32909.4
925.55	22506.8
929.341	14684
933.13	10013.4
936.918	7225.16
940.703	5584.35
944.488	4408.1
948.27	3951.92
952.051	3901.14
955.83	4119.62
959.607	4127.37
963.383	3636.38
967.156	3252.68
970.928	3480.28
974.699	4957.17
978.468	7178.35
982.234	7385.85
986	5046.67
989.763	3091.86
993.525	1951.4
997.285	1436.75
1001.04	865.908
1004.8	633.414
1008.55	552.714
1012.31	616.466
1016.06	741.419
1019.81	867.168
1023.56	1048.59
1027.31	1417.11
1031.05	2049.45
1034.79	3034.56
1038.53	4261.87
1042.27	4949.63
1046.01	4534.97
1049.75	3779.26
1053.48	3310.74
1057.22	3615.13
1060.95	4010.37
1064.68	3474.34
1068.4	3179.9
1072.13	3997.97
1075.86	5990.52
1079.58	9508.57
1083.3	15183.1
1087.02	18695
1090.74	13502.4
1094.45	6665.69
1098.17	3209.08
1101.88	1837.33
1105.59	1154.78
1109.3	710.068
1113.01	530.375
1116.71	392.131
1120.42	303.519
1124.12	703.215
1127.82	252.447
1131.52	260.104
1135.22	74.003
1138.91	103.676
1142.61	19.491
1146.3	21.508
1149.99	107.359
1153.68	133.864
1157.37	150.321
1161.06	130.756
1164.74	82.002
1168.42	23.886
1172.1	43.18
1175.78	29.27
1179.46	110.594
1183.14	3.644
1186.81	103.969
1190.48	18.475
1194.15	10.039
1197.83	66.952
1201.49	118.941
1205.16	110.687
1208.82	35.573
1212.49	49.427
1216.15	31.414
1219.81	91.457
1223.46	101.867
1227.12	102.132
1230.78	140.44
1234.43	69.345
1238.08	6.981
1241.73	33.808
1245.38	112.085
1249.03	20.1
1252.67	35.871
1256.31	51.247
1259.95	70.054
1263.6	72.391
1267.23	123.585
1270.87	140.672
1274.51	92.958
1278.14	112.671
1281.77	120.407
1285.4	81.847
1289.03	71.987
1292.66	158.363
1296.28	62.528
1299.91	64.471
1303.53	40.896
1307.15	81.381
1310.77	52.972
1314.38	54.141
1318	30.521
1321.61	57.753
1325.23	75.298
1328.84	3.159
1332.45	116.515
1336.06	109.106
1339.66	75.168
1343.27	96.284
1346.87	216.033
1350.47	195.323
1354.07	170.151
1357.67	237.549
1361.26	174.531
1364.86	233.264
1368.45	216.452
1372.04	233.454
1375.63	213.886
1379.22	250.896
1382.81	193.462
1386.39	255.135
1389.98	230.775
1393.56	186.347
1397.14	231.505
1400.72	319.108
1404.3	142.606
1407.87	246.099
1411.45	200.329
1415.02	208.972
1418.59	248.221
1422.16	149.922
1425.73	163.391
1429.29	129.984
1432.86	129.515
1436.42	114.204
1439.98	163.37
1443.54	155.374
1447.1	143.545
1450.66	243.041
1454.21	210.918
1457.77	197.725
1461.32	149.833
1464.87	88.593
1468.42	112.771
1471.96	82.52
1475.51	92.341
1479.06	32.842
1482.6	213.617
1486.14	61.448
1489.68	101.701
1493.22	188.745
1496.75	78.768
1500.29	97.745
1503.82	59.427
1507.35	78.182
1510.88	57.024
1514.41	43.289
1517.94	0.133
1521.46	0
