Measurement: Raman, 514 nm, depolarized, Raman Data Processed
Mineral: Epidote
Rruff sample: R040089
Ideal chemistry: Ca_2_Fe^3+^Al_2_(Si_2_O_7_)(SiO_4_)O(OH)
Locality: Grafton County, New Hampshire, USA
Source: University of Arizona Mineral Museum
Description: Dark green coarsely crystalline massive
Measured chemistry: Ca_2.00_(Al_2.36_Fe^3+^_0.64_)[Si_2.00_O_7_][Si_1.00_O_4_]O(OH)
Pin_id: M00383
Orientation: Laser parallel to a [1 0 0]. Fiducial mark perpendicular to laser is parallel to b* (0 1 0)
Raman shift (cm-1)	intensity
84.891	0
89.089	671.837
93.284	2495.68
97.477	6166.12
101.667	4122.42
105.856	1787.36
110.042	954.601
114.226	657.424
118.408	123.332
122.588	185.788
126.765	67.809
130.94	28.612
135.113	591.42
139.284	2290.06
143.452	3359.8
147.618	2349.55
151.782	1632.27
155.944	1444.03
160.104	670.237
164.261	617.897
168.417	1451.08
172.57	2564.68
176.72	2515.29
180.869	2012.62
185.015	1309.09
189.16	412.145
193.302	167.309
197.442	242.709
201.579	27.016
205.715	291.338
209.848	139.109
213.979	133.875
218.108	157.021
222.235	101.972
226.359	208.002
230.482	685.177
234.602	1159.36
238.72	1713.87
242.836	2130.85
246.949	2530.83
251.061	3434.3
255.17	5325.42
259.277	5620.79
263.382	3420.76
267.485	1898.63
271.586	1690.01
275.684	1896.32
279.781	2179.29
283.875	1809.01
287.967	1207.75
292.057	1297.87
296.144	1286.24
300.23	1425.55
304.313	2040.96
308.395	1561.76
312.474	580.669
316.551	349.274
320.625	624.929
324.698	795.704
328.769	817.999
332.837	1028.98
336.903	1621.91
340.968	2247.48
345.03	2533.68
349.089	2911.88
353.147	4711.84
357.203	6832.12
361.256	5219.54
365.308	2665.79
369.357	1588.27
373.404	919.501
377.449	402.678
381.492	97.282
385.533	62.083
389.571	55.908
393.608	100.62
397.642	416.526
401.675	730.297
405.705	439.683
409.733	49.964
413.759	149.05
417.783	20.801
421.804	241.614
425.824	1236.6
429.842	1530.99
433.857	2819.89
437.871	3564.41
441.882	3604.68
445.891	3976.86
449.898	5434.1
453.903	8490.34
457.906	9386.74
461.907	6253.18
465.906	4238.44
469.902	3355.54
473.897	2580.78
477.889	1800.7
481.88	1404.06
485.868	1303.21
489.854	1370.31
493.839	1349.65
497.821	1306.37
501.801	1534.75
505.779	1920.83
509.755	2413.44
513.729	3054.48
517.7	4044.84
521.67	4250.31
525.638	2638.55
529.603	1179.87
533.567	582.542
537.528	317.243
541.488	194.531
545.445	54.644
549.4	27.88
553.354	66.823
557.305	411.888
561.254	831.529
565.201	1384.44
569.146	2953.35
573.089	7469.42
577.03	8316.19
580.969	3181.57
584.906	1446.11
588.841	1392.55
592.774	1906.89
596.705	2834.63
600.633	3628.13
604.56	5065.85
608.485	6875.77
612.408	6624.4
616.328	4511.38
620.247	3040.87
624.163	2075.46
628.078	1391.94
631.991	949.961
635.901	539.978
639.81	310.634
643.716	194.738
647.621	203.505
651.523	237.778
655.424	176.054
659.322	51.796
663.218	188.233
667.113	314.456
671.005	304.468
674.896	236.265
678.784	128.839
682.671	196.176
686.555	244.272
690.437	346.127
694.318	315.743
698.196	315.69
702.073	335.197
705.947	438.011
709.82	420.028
713.69	196.924
717.558	61.674
721.425	44.132
725.289	57.311
729.152	24.013
733.013	16.195
736.871	74.019
740.728	59.331
744.582	22.777
748.435	6.619
752.286	21.643
756.134	53.313
759.981	102.647
763.826	19.673
767.668	39.261
771.509	40.486
775.348	34.255
779.185	84.514
783.02	24.295
786.853	76.5
790.684	120.899
794.513	33.908
798.34	20.401
802.165	28.263
805.988	164.631
809.809	228.036
813.628	227.131
817.446	272.233
821.261	261.076
825.074	424.982
828.886	665.367
832.695	701.077
836.503	755.766
840.309	740.723
844.112	778.676
847.914	982.439
851.714	1134.02
855.512	1310.45
859.308	1519.72
863.102	1751.87
866.894	2161.71
870.684	3077.51
874.472	3868.44
878.258	4235.74
882.043	4744.32
885.825	5006.01
889.606	5356.02
893.384	5797.96
897.161	6151.34
900.936	5414.97
904.709	4535.37
908.479	4502.76
912.248	5808.64
916.016	7529.46
919.781	8250.96
923.544	7267.7
927.305	5557.02
931.065	4091.15
934.822	3221.18
938.578	2431.4
942.332	1823.05
946.083	1314.46
949.833	993.535
953.581	769.122
957.328	766.485
961.072	888.135
964.814	843.129
968.555	733.288
972.293	644.515
976.03	624.808
979.765	872.177
983.497	1524.64
987.228	1811.41
990.958	1422.05
994.685	900.953
998.41	505.799
1002.13	345.457
1005.86	294.498
1009.58	305.919
1013.29	368.085
1017.01	414.428
1020.72	372.275
1024.43	724.03
1028.14	901.813
1031.85	1028.52
1035.56	981.635
1039.27	1122.5
1042.97	1415.38
1046.67	1077.51
1050.37	1031.81
1054.07	931.344
1057.76	891.458
1061.45	857.813
1065.15	751.556
1068.84	716.303
1072.52	561.297
1076.21	560.773
1079.89	629.153
1083.58	1036.8
1087.26	1563.92
1090.94	2317.71
1094.61	2423.66
1098.29	1424
1101.96	715.857
1105.63	427.457
1109.3	372.523
1112.97	305.19
1116.63	276.534
1120.3	218.455
1123.96	289.302
1127.62	89.989
1131.28	7.062
1134.94	63.022
1138.59	84.916
1142.24	43.693
1145.89	30.001
1149.55	25.477
1153.19	15.022
1156.84	91.33
1160.48	11.3
1164.12	16.094
1167.76	57.981
1171.4	55.867
1175.04	37.12
1178.67	6.379
1182.31	80.634
1185.94	29.5
1189.57	1.598
1193.19	4.054
1196.82	93.555
1200.44	96.994
1204.07	1.183
1207.69	0.867
1211.3	10.309
1214.92	76.31
1218.54	10.421
1222.15	43.465
1225.76	71.397
1229.37	112.829
1232.98	118.49
1236.58	13.057
1240.19	31.5
1243.79	12.79
1247.39	36.141
1250.99	94.377
1254.59	65.35
1258.18	108.087
1261.77	85.042
1265.37	109.569
1268.95	29.829
1272.54	6.023
1276.13	60.81
1279.71	15.404
1283.3	51.921
1286.88	31.989
1290.46	58.42
1294.03	82.826
1297.61	12.482
1301.18	25.327
1304.75	76.301
1308.32	18.336
1311.89	60.25
1315.46	93.191
1319.02	112.078
1322.59	101.868
1326.15	85.413
1329.71	103.4
1333.27	93.532
1336.82	31.644
1340.38	44.799
1343.93	115.682
1347.48	31.015
1351.03	169.42
1354.58	146.883
1358.12	169.473
1361.66	119.104
1365.21	117.404
1368.75	17.833
1372.29	64.345
1375.82	62.052
1379.36	72.672
1382.89	82.92
1386.42	143.543
1389.95	116.009
1393.48	118.345
1397.01	160.64
1400.53	134.415
1404.05	70.592
1407.57	58.875
1411.09	79.775
1414.61	49.41
1418.13	55.832
1421.64	108.545
1425.15	64.427
1428.66	97.614
1432.17	37.41
1435.68	106.724
1439.19	74.911
1442.69	61.514
1446.19	118.883
1449.69	130.992
1453.19	144.325
1456.69	143.807
1460.18	155.692
1463.68	104.911
1467.17	167.451
1470.66	132.628
1474.15	97.267
1477.63	107.097
1481.12	131.16
1484.6	62.136
1488.08	41.777
1491.56	80.941
1495.04	11.513
1498.52	59.669
1501.99	123.566
1505.46	123.616
