Measurement: Raman, 514 nm, depolarized, Raman Data Processed
Mineral: Epididymite
Rruff sample: R060773
Ideal chemistry: Na_2_Be_2_Si_6_O_15_H_2_O
Locality: unknown
Source: Michael Scott
Description: Colorless platy crystals forming a pseudohexagonal aggregate
Pin_id: M00206
Orientation: Laser parallel to a* (1 0 0). Fiducial mark perpendicular to laser is parallel to b [0 1 0]
Raman shift (cm-1)	intensity
102.116	0
107.047	732.553
111.976	1766.66
116.903	3371.1
121.827	5271.06
126.749	5284.1
131.668	5159.34
136.585	3711.78
141.5	1834.5
146.412	1659.55
151.321	1403.79
156.229	400.06
161.134	37.209
166.036	27.127
170.936	110.447
175.834	64.6602
180.729	28.498
185.622	576.125
190.512	1035.95
195.4	1614.52
200.286	1505.65
205.169	1030.5
210.049	525.064
214.928	734.107
219.803	1054.4
224.677	1874.15
229.548	3702.61
234.416	6598.18
239.282	8048.47
244.146	6740.41
249.007	3887.61
253.866	2156.33
258.722	1706.26
263.576	1003.83
268.427	803.469
273.276	502.353
278.123	450.709
282.967	484.938
287.809	205.602
292.648	63.6699
297.485	56.1211
302.319	119.928
307.151	130.621
311.98	54.6016
316.807	196.545
321.631	249.832
326.454	553.992
331.273	461.272
336.09	616.887
340.905	431.559
345.717	365.445
350.527	316.31
355.334	392.488
360.139	268.717
364.941	171.752
369.741	330.754
374.538	1011.39
379.333	1456.67
384.126	1721.68
388.916	1609.54
393.703	1970.23
398.488	5318.24
403.271	8965.44
408.051	9541.02
412.828	4393.08
417.603	875.801
422.376	308.951
427.146	399.781
431.914	563.857
436.679	333.619
441.442	277.666
446.202	80.7148
450.96	124.473
455.715	414.107
460.467	985.943
465.218	3068.7
469.965	6536.87
474.711	8782.25
479.454	7287.92
484.194	4330
488.932	2835.62
493.667	1605.43
498.4	2046.54
503.13	3755
507.858	10199.2
512.583	26387.5
517.306	37418
522.026	30105.4
526.744	11138.1
531.459	4300.56
536.172	2095.08
540.882	1404.67
545.59	724.981
550.295	593.135
554.998	702.262
559.698	654.588
564.396	648.744
569.091	1002.69
573.784	1305.14
578.474	2622.23
583.162	3335.91
587.847	2655.03
592.529	1749.45
597.209	1271.49
601.887	1045.25
606.562	1106.94
611.235	873.318
615.905	1112.23
620.572	2023.64
625.237	2789.56
629.9	2876.98
634.56	1827.91
639.217	1204.34
643.872	1649.32
648.524	1987.07
653.174	1918.07
657.821	1245.51
662.466	552.385
667.108	582.672
671.748	344.328
676.385	134.332
681.02	14.5684
685.652	120.152
690.281	37.25
694.908	20.1719
699.533	68.4766
704.155	41.9199
708.774	190.824
713.391	64.6074
718.005	41.457
722.617	238.768
727.226	117.266
731.833	367.16
736.437	311.385
741.039	257.912
745.638	376.721
750.234	428.846
754.828	553.303
759.419	758.102
764.008	513.246
768.595	342.748
773.178	623.615
777.759	343.857
782.338	207.488
786.914	608.504
791.488	260.922
796.059	747.764
800.627	726.252
805.193	763.488
809.756	1036.22
814.317	1108.42
818.875	1362.33
823.431	1077.8
827.984	1075.35
832.534	864.963
837.082	924.734
841.627	1183.24
846.17	1480.69
850.71	1650.79
855.248	2303.95
859.783	2815.39
864.316	2390.86
868.846	1738.74
873.373	1245.77
877.898	1236.81
882.42	1093.14
886.94	1192.98
891.457	929.799
895.971	820.619
900.483	790.453
904.993	912.32
909.5	753.244
914.004	676.238
918.505	133.094
923.004	218.356
927.501	186.883
931.995	329.574
936.486	400.695
940.975	330.18
945.461	296.129
949.945	310.488
954.426	491.285
958.904	317.547
963.38	8.49609
967.853	40.2695
972.324	110.039
976.792	155.566
981.258	586.852
985.72	252.332
990.181	464.359
994.639	367.148
999.094	1015.42
1003.55	2402.07
1008	770.074
1012.44	464.469
1016.89	387.258
1021.33	926.441
1025.77	935.023
1030.21	865.012
1034.64	801.406
1039.07	1217.23
1043.5	1421.47
1047.93	1492.61
1052.35	1333.04
1056.78	1050.35
1061.19	1032.53
1065.61	1072.99
1070.02	735.801
1074.43	817.609
1078.84	1120.94
1083.25	1402.84
1087.65	814.305
1092.05	864.156
1096.45	592.426
1100.85	742
1105.24	800.867
1109.63	1168.59
1114.02	1381.57
1118.4	1502.39
1122.78	1633.42
1127.16	2786.6
1131.54	3855.75
1135.92	4978.27
1140.29	4681.16
1144.66	3021.42
1149.02	1936.1
1153.39	957.25
1157.75	523.926
1162.11	301.008
1166.46	280.496
1170.82	432.383
1175.17	488.621
1179.52	19.8008
1183.86	207.066
1188.21	37.082
1192.55	29.2422
1196.89	234.356
1201.22	123.281
1205.55	169.188
1209.88	68.6211
1214.21	384.535
1218.54	184.59
1222.86	55.043
1227.18	88.4414
1231.5	419.156
1235.81	429.269
1240.12	839.758
1244.43	568.066
1248.74	1017.29
1253.04	739.191
1257.34	476.59
1261.64	1008.77
1265.94	1162.53
1270.23	1233.71
1274.52	1381.95
1278.81	1034.32
1283.1	696.863
1287.38	868.227
1291.66	1053.69
1295.94	816.742
1300.21	943.617
1304.48	631.676
1308.75	1143.66
1313.02	1486.05
1317.29	1712.3
1321.55	1579.78
1325.81	1036.52
1330.06	796.598
1334.32	302.809
1338.57	256.941
1342.82	453.934
1347.06	383.019
1351.31	345.297
1355.55	281.719
1359.79	239.644
1364.02	155.793
1368.26	208.824
1372.49	533.863
1376.71	420.785
1380.94	518.125
1385.16	365.898
1389.38	497.773
1393.6	208.137
1397.81	0.089844
1402.02	277.246
1406.23	140.715
1410.44	179.731
1414.64	378.824
1418.85	39.2031
1423.04	184.965
1427.24	478.375
1431.43	860.016
1435.62	1696.3
1439.81	2577.16
1444	3395.28
1448.18	3945.72
1452.36	4665.3
1456.54	4439.07
1460.71	3628.68
1464.89	2936.81
1469.06	2269.42
1473.22	1989.36
1477.39	1734.67
1481.55	1270.1
1485.71	1111.52
1489.86	758.176
1494.02	514.844
1498.17	56.3125
1502.32	259.672
1506.46	182.043
1510.61	31.8633
1514.75	42.2227
1518.88	118.191
1523.02	374.184
1527.15	303.793
1531.28	620.223
1535.41	662.539
1539.53	647.41
1543.66	191.938
1547.78	139.547
1551.89	399.301
1556.01	560.981
1560.12	246.926
1564.23	239.973
1568.33	198.5
