Measurement: Raman, 514 nm, depolarized, Raman Data Processed
Mineral: Epidote
Rruff sample: R050303
Ideal chemistry: Ca_2_Fe^3+^Al_2_(Si_2_O_7_)(SiO_4_)O(OH)
Locality: San Martin mine, Zacatecas, Mexico
Source: Eugene Schlepp
Description: Green elongated prismatic crystals
Measured chemistry: Ca_2.00_Al_2.00_(Fe^3+^_0.97_Al_0.03_)(SiO_4_)(Si_2_O_7_)O(OH)
Pin_id: L01452
Orientation: Laser parallel to c* (0 0 1). Fiducial mark perpendicular to laser is parallel to a [1 0 0]
Raman shift (cm-1)	intensity
53.91	0
58.864	478.991
63.817	79.1052
68.767	158.491
73.714	1471.08
78.659	4607.88
83.602	12729
88.542	25419.4
93.48	34849.3
98.416	26029.6
103.349	12219.7
108.28	9972.5
113.208	5270.18
118.134	4565.73
123.058	4553.99
127.979	3990.09
132.898	3433.37
137.814	3374.21
142.728	3106.15
147.639	3059.68
152.549	3529.92
157.455	5018.46
162.359	8989.72
167.261	12570.1
172.161	10235.8
177.058	5700.86
181.952	4163.21
186.845	3746.82
191.734	3698.61
196.622	5300.52
201.507	6124.24
206.389	4400.26
211.269	4409.7
216.147	6467.87
221.022	10256.8
225.895	12674.1
230.765	9742.28
235.633	8580.55
240.498	7632.54
245.361	4784.86
250.222	3542.18
255.08	3168.33
259.936	4685.16
264.789	8061.35
269.64	17727.6
274.488	17624.6
279.334	8837.2
284.178	5212.5
289.019	5276.41
293.857	6965.66
298.693	6548.1
303.527	6447.58
308.358	8340.93
313.187	7580.11
318.013	4851.08
322.837	3802.78
327.659	2482.16
332.478	1183.16
337.294	1660.73
342.108	4801.8
346.92	6880.4
351.729	4563.72
356.535	2371.17
361.34	1639.7
366.141	552.822
370.94	608.934
375.737	992.529
380.531	57.2266
385.323	1230.31
390.113	527.693
394.9	586.247
399.684	581.825
404.466	306.518
409.245	3408.8
414.022	10991.5
418.797	24293.6
423.569	28819.1
428.338	26474.5
433.105	25376.3
437.87	22271.5
442.632	28074.2
447.391	38468.4
452.149	41197
456.903	29736
461.655	15571.1
466.405	8160.14
471.152	3904.64
475.897	2121.44
480.639	1517.54
485.378	2182.27
490.116	3945.61
494.85	6635.35
499.582	8286.31
504.312	9226.38
509.039	7981.37
513.764	7301.81
518.486	8772.39
523.206	5366.23
527.923	1695
532.638	269.367
537.35	72.6592
542.059	621.846
546.766	2166.01
551.471	5760.23
556.173	15850.8
560.873	31216
565.57	20767.8
570.264	10009.6
574.957	9175.37
579.646	13244.6
584.333	18743.1
589.018	24659.6
593.7	32137.1
598.379	29623
603.056	22763
607.73	19514
612.402	15702.5
617.072	9845.19
621.739	5641.04
626.403	3157.04
631.065	1997.71
635.724	1348.31
640.381	940.032
645.035	612.581
649.687	430.793
654.336	361.539
658.983	433.172
663.627	426.002
668.268	525.674
672.907	755.715
677.544	1003.51
682.178	1637.78
686.809	1483.78
691.438	898.017
696.065	450.339
700.688	122.629
705.31	44.668
709.929	101.613
714.545	223.118
719.158	158.726
723.77	112.535
728.378	243.411
732.984	88.8154
737.588	166.367
742.189	198.999
746.787	32.1426
751.383	230.167
755.976	16.7432
760.567	46.3252
765.155	72.0635
769.741	140.008
774.324	146.731
778.904	141.505
783.482	204.216
788.058	321.781
792.631	470.382
797.201	532.921
801.769	705.94
806.334	1064.94
810.897	1467.15
815.457	2015.62
820.014	2861.37
824.569	3998.41
829.122	4450.81
833.671	4339.63
838.219	4150.12
842.763	4506.12
847.306	5079.7
851.845	6513.04
856.382	8165.26
860.917	10075.8
865.448	11595.8
869.978	12836.4
874.505	15086.6
879.029	18430.3
883.55	19603.6
888.069	17696.8
892.586	17342
897.1	20592
901.611	27630.5
906.12	39018.7
910.626	50511.3
915.129	47911.2
919.63	32606.6
924.129	18998.1
928.625	11394.9
933.118	7167.45
937.609	5042.94
942.097	3938.36
946.582	3365.75
951.065	3561.21
955.546	3926.88
960.023	3570.72
964.499	3406.72
968.971	4746.99
973.441	8047.67
977.909	9918.11
982.374	6868.91
986.836	3355.34
991.295	1529.84
995.753	808.327
1000.21	453.847
1004.66	257.229
1009.11	587.068
1013.55	1199.6
1018	1362.77
1022.44	1571.96
1026.88	2775.44
1031.32	4879.69
1035.75	7225.41
1040.18	7730.89
1044.61	6003.06
1049.04	4614.41
1053.46	4634.92
1057.88	5627.44
1062.3	5334.68
1066.71	5242.5
1071.13	7158.94
1075.54	11973.5
1079.94	21678.3
1084.35	24755.9
1088.75	13309.9
1093.15	5443.6
1097.55	2649.22
1101.94	1547.64
1106.34	913.614
1110.73	601.265
1115.11	440.325
1119.5	255.727
1123.88	217.016
1128.26	17.4961
1132.63	86.6826
1137.01	22.0664
1141.38	82.042
1145.75	162.768
1150.12	72.2686
1154.48	62.999
1158.84	67.0684
1163.2	115.969
1167.55	67.6748
1171.91	43.124
1176.26	77.8838
1180.61	75.8184
1184.95	57.8359
1189.29	35.5654
1193.63	56.249
1197.97	154.868
1202.31	34.9463
1206.64	149.927
1210.97	29.9707
1215.29	50.7773
1219.62	91.7939
1223.94	210.829
1228.26	131.931
1232.57	134.319
1236.89	167.849
1241.2	197.557
1245.51	89.4424
1249.81	188.389
1254.12	166.451
1258.42	132.55
1262.72	256.906
1267.01	160.312
1271.3	259.011
1275.59	206.42
1279.88	234.821
1284.17	211.293
1288.45	152.181
1292.73	186.015
1297.01	68.4922
1301.28	100.906
1305.55	186.024
1309.82	81.2119
1314.09	10.5127
1318.35	22.9277
1322.61	148.676
1326.87	99.0977
1331.13	132.762
1335.38	119.335
1339.63	197.41
1343.88	281.881
1348.12	205.9
1352.37	312.095
1356.61	322.741
1360.85	391.843
1365.08	309.252
1369.31	285.655
1373.54	357.711
1377.77	298.708
1381.99	288.743
1386.22	261.276
1390.43	204.889
1394.65	168.683
1398.87	234.851
1403.08	204.587
1407.29	228.918
1411.49	79.1699
1415.69	123.316
1419.89	207.378
1424.09	163.422
1428.29	251.413
1432.48	216.467
1436.67	296.82
1440.86	277.083
1445.04	214.158
1449.23	209.375
1453.4	269.019
1457.58	176.902
1461.76	189.364
1465.93	257.244
1470.1	202.678
1474.26	202.695
1478.43	158.403
1482.59	188.587
1486.75	272.897
1490.9	297.723
1495.06	154.677
1499.21	268.482
1503.35	233.539
1507.5	175.019
1511.64	192.205
1515.78	155.167
1519.92	203.359
1524.05	69.5996
1528.18	172.031
1532.31	56.9473
1536.44	84.6406
1540.56	123.178
1544.69	62.6123
1548.8	5.99902
1552.92	222.751
1557.03	111.894
1561.14	81.1406
1565.25	3.09863
1569.36	41.3252
