Measurement: Raman, 514 nm, depolarized, Raman Data Processed
Mineral: Epidote
Rruff sample: R050064
Ideal chemistry: Ca_2_Fe^3+^Al_2_(Si_2_O_7_)(SiO_4_)O(OH)
Locality: East Xichang City, Meigu County, Sichuan Province, China
Source: Rock Currier
Description: Green prismatic crystals
Measured chemistry: (Ca_1.99_Mn_0.01_)_Î£=2_Fe^3+^_1.00_Al_2.00_(Si_2.00_O_7_)(Si_1.00_O_4_)O(OH);
Pin_id: L00552
Orientation: Laser parallel to a* (1 0 0). Fiducial mark perpendicular to laser is parallel to -b [0 -1 0]
Raman shift (cm-1)	intensity
85.929	0
90.128	159.032
94.324	821.972
98.519	1470.45
102.712	1110.55
106.902	335.306
111.09	86.804
115.277	225.88
119.461	160.699
123.643	124.538
127.823	702.217
132.001	397.27
136.176	31.48
140.35	77.408
144.521	130.788
148.691	415.32
152.858	335.022
157.024	602.12
161.187	1626.24
165.348	4327.65
169.507	6970.25
173.664	7897.8
177.819	6211.74
181.971	2510.44
186.122	876.202
190.271	308.781
194.417	31.373
198.562	213.915
202.704	999.155
206.844	684.377
210.983	3.319
215.119	171.912
219.253	2.396
223.385	557.167
227.515	1904.54
231.643	3150.02
235.769	3175.27
239.893	5782.03
244.014	8232.04
248.134	3860.32
252.252	1228.69
256.367	711.094
260.481	352.774
264.592	103.368
268.702	238.29
272.809	1204.49
276.915	2978
281.018	2302.65
285.119	1557.43
289.218	1817.09
293.316	3979.31
297.411	4352.42
301.504	2969.02
305.595	1509.7
309.684	1201.04
313.771	1786.75
317.856	1812.81
321.939	1644.06
326.02	2891.31
330.099	3385.72
334.176	2868.3
338.251	2412.01
342.323	3342.79
346.394	6742.64
350.463	11593.6
354.53	9734
358.594	4701.78
362.657	2640.7
366.718	2335.08
370.777	1803.62
374.833	773.203
378.888	158.432
382.941	89.03
386.992	475.867
391.04	989.054
395.087	578.399
399.132	98.967
403.174	85.268
407.215	107.418
411.254	266.399
415.29	866.271
419.325	1492.1
423.358	3180.88
427.389	4900.93
431.417	6521.67
435.444	14022.6
439.469	12355.6
443.492	7538.76
447.512	10072.1
451.531	16595.7
455.548	17809.5
459.563	13083.3
463.576	5870.3
467.587	2613.62
471.596	1427.24
475.603	758.956
479.608	508.734
483.611	497.603
487.612	728.528
491.611	1325.5
495.608	3381.51
499.603	7018.55
503.596	5789.01
507.587	4083.74
511.577	3858.68
515.564	1954.64
519.549	889.422
523.533	739.23
527.514	376.543
531.493	39.849
535.471	84.849
539.447	51.439
543.42	54.327
547.392	34.975
551.362	206.854
555.329	656.804
559.295	1620.54
563.259	4887.35
567.221	7912.24
571.181	3547.48
575.139	1788.43
579.095	1844.46
583.049	2857.49
587.002	5163.19
590.952	6308.18
594.9	8304.38
598.847	11425.3
602.792	9237.91
606.734	6903.24
610.675	7513.26
614.614	8269.38
618.55	6023.3
622.485	3461.4
626.418	1924.81
630.349	1271.08
634.279	906.075
638.206	615.363
642.131	517.378
646.055	453.793
649.976	351.017
653.896	255.948
657.814	160.667
661.729	138.165
665.643	142.43
669.555	118.456
673.465	111.234
677.373	130.767
681.28	214.056
685.184	390.11
689.087	605.928
692.987	613.751
696.886	277.128
700.783	97.174
704.677	59.188
708.57	2.259
712.462	22.152
716.351	36.483
720.238	51.216
724.124	24.256
728.007	2.732
731.889	45.682
735.769	20.111
739.647	32.983
743.523	19.319
747.397	2.133
751.269	6.558
755.139	43.181
759.008	58.382
762.875	26.05
766.739	31.857
770.602	19.431
774.463	0.338
778.323	8.461
782.18	15.13
786.035	8.48
789.889	58.591
793.741	53.478
797.591	82.15
801.439	73.618
805.285	121.892
809.129	166.977
812.971	206.802
816.812	220.035
820.651	293.957
824.488	452.415
828.323	654.763
832.156	832.312
835.987	936.932
839.817	877.693
843.644	951.324
847.47	1189.86
851.294	1432.41
855.116	1970.68
858.936	2649.16
862.755	4001.54
866.571	4897.98
870.386	5203.85
874.199	5906.48
878.01	7534.89
881.82	10278
885.627	14455.4
889.433	14924.9
893.236	10322.8
897.038	6858.7
900.838	5726.39
904.637	5913.21
908.433	7130.55
912.228	10145.3
916.021	14545.2
919.812	15017.6
923.601	10251.3
927.388	5871.54
931.174	3496.64
934.958	2363.75
938.739	1728.85
942.52	1321.35
946.298	963.197
950.074	805.346
953.849	636.872
957.622	563.641
961.393	502.529
965.162	505.55
968.93	527.7
972.696	643.994
976.459	961.414
980.222	1369.97
983.982	1282.66
987.74	777.48
991.497	443.399
995.252	297.457
999.005	216.823
1002.76	179.439
1006.51	257.949
1010.25	412.839
1014	848.017
1017.74	1700.4
1021.49	2226.6
1025.23	1330.67
1028.96	658.356
1032.7	462.077
1036.44	467.652
1040.17	630.883
1043.9	629.463
1047.63	449.6
1051.36	305.741
1055.09	238.409
1058.81	315.501
1062.54	482.662
1066.26	521.056
1069.97	382.656
1073.69	398.424
1077.41	644.381
1081.12	1295.57
1084.84	3275.84
1088.55	4074.57
1092.25	1839.09
1095.96	780.725
1099.67	380.371
1103.37	245.792
1107.07	194.085
1110.77	113.758
1114.47	104.836
1118.16	75.193
1121.86	97.239
1125.55	193.632
1129.24	24.172
1132.93	45.34
1136.62	54.568
1140.31	47.336
1143.99	39.445
1147.67	2.672
1151.35	17.976
1155.03	23.219
1158.71	32.551
1162.39	31.209
1166.06	3.522
1169.73	2.583
1173.4	46.925
1177.07	15.651
1180.74	18.452
1184.4	15.276
1188.07	30.313
1191.73	6.477
1195.39	38.159
1199.05	26.498
1202.7	57.237
1206.36	40.861
1210.01	63.848
1213.66	48.144
1217.31	15.495
1220.96	18.791
1224.6	25.996
1228.25	41.071
1231.89	32.253
1235.53	68.297
1239.17	38.497
1242.81	29.356
1246.44	25.97
1250.08	54.576
1253.71	4.319
1257.34	8.762
1260.97	20.842
1264.6	26.755
1268.22	50.467
1271.85	23.17
1275.47	3.349
1279.09	21.817
1282.71	45.83
1286.33	78.756
1289.94	77.522
1293.56	49.925
1297.17	30.124
1300.78	36.658
1304.39	3.864
1307.99	20.708
1311.6	18.984
1315.2	26.264
1318.8	45.731
1322.4	19.259
1326	61.798
1329.6	89.055
1333.19	87.821
1336.79	30.812
1340.38	14.343
1343.97	6.012
1347.56	4.675
1351.14	23.618
1354.73	87.613
1358.31	104.497
1361.89	113.278
1365.47	108.928
1369.05	121.463
1372.63	68.055
1376.2	48.419
1379.78	32.208
1383.35	58.355
1386.92	96.899
1390.49	117.781
1394.05	86.783
1397.62	77.333
1401.18	138.413
1404.74	86.161
1408.3	81.884
1411.86	35.469
1415.42	36.549
1418.97	76.63
1422.53	59.604
1426.08	31.787
1429.63	73.131
1433.18	89.684
1436.72	77.068
1440.27	76.142
1443.81	110.819
1447.36	52.363
1450.89	59.582
1454.43	44.521
1457.97	54.572
1461.51	7.605
1465.04	75.884
1468.57	84.828
1472.1	47.718
1475.63	53.719
1479.16	70.822
1482.68	101.324
1486.21	56.705
1489.73	37.326
1493.25	45.72
1496.77	27.811
1500.29	29.264
1503.8	47.099
1507.32	33.293
1510.83	34.101
1514.34	72.687
1517.85	36.852
