Measurement: Raman, 514 nm, depolarized, Raman Data Processed
Mineral: Epidote
Rruff sample: R050303
Ideal chemistry: Ca_2_Fe^3+^Al_2_(Si_2_O_7_)(SiO_4_)O(OH)
Locality: San Martin mine, Zacatecas, Mexico
Source: Eugene Schlepp
Description: Green elongated prismatic crystals
Measured chemistry: Ca_2.00_Al_2.00_(Fe^3+^_0.97_Al_0.03_)(SiO_4_)(Si_2_O_7_)O(OH)
Pin_id: L01647
Orientation: Laser parallel to (1 0 1). Fiducial mark perpendicular to laser is parallel to b [0 1 0]
Raman shift (cm-1)	intensity
53.91	0
58.864	275.983
63.817	97.803
68.767	52.5337
73.714	269.708
78.659	2198.29
83.602	7702.36
88.542	14184.1
93.48	15828.9
98.416	9944.05
103.349	5580.01
108.28	4442.34
113.208	2516.97
118.134	2751.67
123.058	2710.78
127.979	2328.18
132.898	2454.15
137.814	2627.68
142.728	2551.37
147.639	3053.39
152.549	4748.38
157.455	8079.56
162.359	12402.3
167.261	13999.5
172.161	10411.3
177.058	5615.46
181.952	2810.02
186.845	1818.83
191.734	2316.78
196.622	2962.71
201.507	3075.75
206.389	1866.24
211.269	1564.71
216.147	2488.8
221.022	5071.26
225.895	7596.42
230.765	10680.1
235.633	13413
240.498	11247.1
245.361	7879.41
250.222	3759.83
255.08	1788.87
259.936	2838.73
264.789	4489.69
269.64	6713.88
274.488	6533.06
279.334	5595.09
284.178	5671.99
289.019	7207.7
293.857	7403.1
298.693	6017.06
303.527	5130.47
308.358	5107.18
313.187	4839.13
318.013	5186.23
322.837	5867.39
327.659	5869.53
332.478	6140.57
337.294	10552.4
342.108	17362
346.92	18528.3
351.729	14251.2
356.535	8543.1
361.34	4950.1
366.141	2112.81
370.94	45.959
375.737	770.106
380.531	282.586
385.323	292.223
390.113	33.6992
394.9	434.069
399.684	228.026
404.466	718.312
409.245	2792.34
414.022	7005.47
418.797	12349.6
423.569	19243.7
428.338	26798.8
433.105	27859
437.87	30712.4
442.632	39744.1
447.391	47395.1
452.149	45344.6
456.903	33727.7
461.655	19943.8
466.405	10323.9
471.152	5045.78
475.897	3438.38
480.639	3239.48
485.378	4939.77
490.116	8318.17
494.85	10420.4
499.582	10728.3
504.312	9295.77
509.039	5554.55
513.764	2996.22
518.486	1333.48
523.206	658.965
527.923	4.95508
532.638	387.33
537.35	418.519
542.059	131.908
546.766	1376.93
551.471	4520.38
556.173	12566.1
560.873	16836.1
565.57	14095
570.264	8676.93
574.957	7326.45
579.646	10022.1
584.333	14362.9
589.018	20570
593.7	24066.3
598.379	22717.2
603.056	20202.2
607.73	17618.7
612.402	13383.9
617.072	8550.75
621.739	5007.08
626.403	3072.4
631.065	2053.65
635.724	1492.6
640.381	1049.47
645.035	855.668
649.687	718.447
654.336	581.82
658.983	551.86
663.627	509.054
668.268	701.327
672.907	825.705
677.544	1248.04
682.178	1716.41
686.809	1941.88
691.438	1649.54
696.065	898.356
700.688	456.305
705.31	247.764
709.929	106.13
714.545	26.8814
719.158	45.8706
723.77	45.2549
728.378	221.98
732.984	65.6074
737.588	69.4658
742.189	29.9907
746.787	59.9844
751.383	79.4394
755.976	42.3355
760.567	17.7402
765.155	76.8242
769.741	107.931
774.324	82.521
778.904	118.737
783.482	70.98
788.058	119.355
792.631	224.695
797.201	340.572
801.769	396.103
806.334	422.832
810.897	707.918
815.457	1016.96
820.014	1503.4
824.569	2124.82
829.122	2492.04
833.671	2790.11
838.219	3064.08
842.763	3848.42
847.306	4901.39
851.845	6693.69
856.382	9721.01
860.917	12307.2
865.448	14553.2
869.978	18543.6
874.505	25366
879.029	32080.3
883.55	32620
888.069	25925.8
892.586	19660.7
897.1	17337.8
901.611	19126
906.12	24306.3
910.626	29161.8
915.129	26093.6
919.63	17829.7
924.129	10595.1
928.625	6387.01
933.118	4093.57
937.609	2547.98
942.097	2001.23
946.582	1546.28
951.065	1271.13
955.546	1245.77
960.023	1217.26
964.499	1564.65
968.971	2567.03
973.441	4121.4
977.909	4717.85
982.374	3710.61
986.836	1921.05
991.295	948.382
995.753	608.68
1000.21	463.681
1004.66	1066.74
1009.11	2031.45
1013.55	3034.45
1018	2915.91
1022.44	1947.61
1026.88	1375.75
1031.32	1408.81
1035.75	1655.84
1040.18	1791.17
1044.61	1541.1
1049.04	1220.88
1053.46	2205.74
1057.88	1740.88
1062.3	1848.98
1066.71	2178.05
1071.13	3079.98
1075.54	5682.08
1079.94	10179.4
1084.35	10456.2
1088.75	6849.95
1093.15	2994.86
1097.55	1347.33
1101.94	705.812
1106.34	293.335
1110.73	223.51
1115.11	241.969
1119.5	128.286
1123.88	133.213
1128.26	24.7456
1132.63	15.2139
1137.01	64.7471
1141.38	76.1763
1145.75	92.0083
1150.12	93.3613
1154.48	124.159
1158.84	25.5684
1163.2	71.4653
1167.55	77.6748
1171.91	75.5166
1176.26	52.4482
1180.61	73.1177
1184.95	157.027
1189.29	41.2837
1193.63	177.232
1197.97	14.8896
1202.31	79.3213
1206.64	82.3657
1210.97	64.2485
1215.29	211.026
1219.62	163.47
1223.94	49.2935
1228.26	25.0811
1232.57	148.224
1236.89	2.74707
1241.2	139.519
1245.51	73.5557
1249.81	18.27
1254.12	54.898
1258.42	14.834
1262.72	13.7271
1267.01	137.658
1271.3	68.2061
1275.59	120.443
1279.88	124.996
1284.17	175.149
1288.45	152.497
1292.73	47.1558
1297.01	97.2656
1301.28	90.9048
1305.55	125.828
1309.82	97.9248
1314.09	169.741
1318.35	87.7617
1322.61	121.152
1326.87	148.358
1331.13	73.9365
1335.38	231.068
1339.63	121.261
1343.88	228.102
1348.12	231.32
1352.37	336.793
1356.61	354.312
1360.85	209.385
1365.08	275.401
1369.31	278.125
1373.54	214.247
1377.77	313.793
1381.99	173.667
1386.22	192.422
1390.43	238.739
1394.65	171.04
1398.87	139.155
1403.08	186.155
1407.29	230.083
1411.49	161.885
1415.69	92.4136
1419.89	180.49
1424.09	226.413
1428.29	169.702
1432.48	219.434
1436.67	363.363
1440.86	262.975
1445.04	291.141
1449.23	275.132
1453.4	174.415
1457.58	247.714
1461.76	194.212
1465.93	251.396
1470.1	103.627
1474.26	189.664
1478.43	161.847
1482.59	200.425
1486.75	261.413
1490.9	83.3125
1495.06	125.638
1499.21	188.595
1503.35	230.811
1507.5	192.194
1511.64	117.803
1515.78	120.445
1519.92	157.753
1524.05	115.366
1528.18	222.368
1532.31	66.7422
1536.44	176.59
1540.56	103.074
1544.69	97.3096
1548.8	135.427
1552.92	268.241
1557.03	139.721
1561.14	55.4336
1565.25	63.7725
1569.36	150.581
