Measurement: Raman, 514 nm, depolarized, Raman Data Processed
Mineral: Epidote
Rruff sample: R040092
Ideal chemistry: Ca_2_Fe^3+^Al_2_(Si_2_O_7_)(SiO_4_)O(OH)
Locality: Nahant, Massachusetts, USA
Source: University of Arizona Mineral Museum
Description: Green prismatic crystals imbedded in quartz
Measured chemistry: Ca_2.01_Al_2.00_Fe_1.00_(Si_1.00_O_4_)(Si_1.97_Fe_0.02_Al_0.01_Ti_0.01_O_7_)O(OH)
Pin_id: M00265
Orientation: Laser parallel to -a [-1 0 0]. Fiducial mark perpendicular to laser is parallel to -b* (0 -1 0)
Raman shift (cm-1)	intensity
51.466	0
55.666	484.562
59.863	1142.91
64.059	1124.68
68.253	292.29
72.445	68.702
76.635	883.758
80.823	5252.59
85.009	13688.8
89.193	21153.5
93.375	15192.3
97.554	5951.06
101.732	1713.18
105.908	648.257
110.082	237.686
114.254	61.637
118.424	326.834
122.592	1689.63
126.758	5588.81
130.922	10951.2
135.083	10297.8
139.243	4394.79
143.401	2907.59
147.557	3566.62
151.711	2165.53
155.863	3609.78
160.013	8457.62
164.161	15982.2
168.308	21871.7
172.452	20890.2
176.594	13279.8
180.734	6457.62
184.872	4347.6
189.008	2771.76
193.143	1481.12
197.275	1749.69
201.405	2879.47
205.534	2532.44
209.66	1360.61
213.784	1578.52
217.907	3293.45
222.027	6482.02
226.146	10201.9
230.263	12280.9
234.377	14202.9
238.49	20954.6
242.601	25899.2
246.709	17175.2
250.816	8472.03
254.921	5123.36
259.024	3001.02
263.125	1550.91
267.224	1598.92
271.321	3163.98
275.416	4577.95
279.51	4048.26
283.601	4631.14
287.69	9600.86
291.778	15022.4
295.863	11770.7
299.947	5137.61
304.029	2146.15
308.108	1319.25
312.186	1417.91
316.262	2780.12
320.336	5372.89
324.408	8219.19
328.478	8993.03
332.546	8209.38
336.612	9466.24
340.677	14924.6
344.739	26002.4
348.799	33883.7
352.858	26062.4
356.915	13439.5
360.969	6361.93
365.022	3118.76
369.073	1234.91
373.122	295.62
377.169	833.413
381.215	448.067
385.258	876.644
389.299	2472.82
393.339	1841.65
397.376	501.375
401.412	222.548
405.446	54.667
409.478	1044.81
413.508	3132.58
417.536	6016.34
421.562	10653.4
425.586	16443.6
429.609	22649.8
433.629	31558
437.648	29192.1
441.665	22466.2
445.68	28058.7
449.693	35744.6
453.704	28532.7
457.713	19418.8
461.721	11187.1
465.726	6085.4
469.73	3578.82
473.731	2054.27
477.731	1886.69
481.729	2694.03
485.725	4203.23
489.72	7773.25
493.712	14709.1
497.703	21789.6
501.691	23260.9
505.678	19346.9
509.663	15864.6
513.646	8679.87
517.627	3678.76
521.607	1719.22
525.584	676.218
529.56	378.723
533.534	65.702
537.506	149.954
541.476	35.624
545.444	507.457
549.41	1745.85
553.375	3953.95
557.337	9802.65
561.298	21650.7
565.257	27572.5
569.214	14622
573.17	8238.06
577.123	8054.01
581.075	11466.2
585.024	15876.9
588.972	20542.5
592.918	27118.5
596.863	34277.1
600.805	30470.1
604.746	24087.7
608.685	20867.6
612.621	19266.9
616.557	14959.4
620.49	9166.1
624.421	5627.69
628.351	3456.12
632.279	2472.06
636.205	2019.32
640.129	1567.87
644.051	1305.95
647.972	1014.31
651.89	833.914
655.807	749.369
659.722	536.791
663.636	551.018
667.547	573.409
671.457	741.942
675.365	775.601
679.271	861.364
683.175	1075.21
687.077	1142.13
690.978	960.473
694.877	632.404
698.774	350.748
702.669	232.029
706.562	114.345
710.454	20.729
714.344	112.726
718.232	100.056
722.118	160.639
726.002	172.071
729.885	287.529
733.766	176.174
737.645	132.635
741.522	157.619
745.397	128.915
749.271	72.552
753.143	0.948
757.013	138.24
760.881	133.532
764.748	304.448
768.613	936.207
772.476	304.922
776.337	219.478
780.196	232.826
784.054	251.975
787.91	305.981
791.764	468.909
795.616	609.83
799.467	667.794
803.316	924.821
807.163	1075.92
811.008	1330.12
814.851	1664.42
818.693	2062.85
822.533	2616.41
826.371	3137.14
830.208	3657.04
834.042	3726.13
837.875	3969.49
841.706	4204.15
845.536	4908.22
849.363	5852.94
853.189	7440.16
857.013	10034.7
860.836	13901.2
864.656	17109.2
868.475	18966.1
872.292	22642.5
876.108	28526.8
879.922	34900.4
883.733	39473.6
887.544	36991.8
891.352	27344.3
895.159	20618.6
898.964	18715.1
902.767	20541.5
906.568	25570
910.368	33360.2
914.166	39750.2
917.962	35181.4
921.757	23918.2
925.55	15580.5
929.341	10386.6
933.13	7310.55
936.918	5414.26
940.703	4138.23
944.488	3302.67
948.27	2868.8
952.051	2665.58
955.83	2429.62
959.607	2360.96
963.383	2096.62
967.156	2015.61
970.928	2191.95
974.699	3108.66
978.468	3838.74
982.234	3406.25
986	2247.29
989.763	1514.47
993.525	1296.71
997.285	1280.49
1001.04	1258.85
1004.8	1422.26
1008.55	1715.59
1012.31	2908.59
1016.06	4924.54
1019.81	5432.65
1023.56	4042.8
1027.31	3119.53
1031.05	3179.47
1034.79	4145.12
1038.53	4955.39
1042.27	4927.99
1046.01	3754.86
1049.75	2719.03
1053.48	2044.4
1057.22	1826.76
1060.95	1562.94
1064.68	1287.79
1068.4	1198.76
1072.13	1528.08
1075.86	2193.41
1079.58	4037.24
1083.3	7330.58
1087.02	8983.42
1090.74	5274.74
1094.45	2493.5
1098.17	1294.34
1101.88	809.267
1105.59	493.561
1109.3	331.547
1113.01	237.059
1116.71	218.265
1120.42	259.548
1124.12	163.861
1127.82	2.705
1131.52	102.999
1135.22	54.183
1138.91	81.433
1142.61	128.042
1146.3	71.89
1149.99	95.347
1153.68	147.895
1157.37	61.765
1161.06	110.071
1164.74	24.49
1168.42	37.122
1172.1	53.736
1175.78	18.107
1179.46	105.835
1183.14	76.584
1186.81	90.183
1190.48	166.663
1194.15	143.974
1197.83	150.711
1201.49	216.589
1205.16	164.567
1208.82	172.574
1212.49	118.436
1216.15	194.568
1219.81	114.542
1223.46	132.362
1227.12	166.531
1230.78	117.558
1234.43	415.67
1238.08	97.542
1241.73	94.812
1245.38	57.608
1249.03	75.481
1252.67	92.178
1256.31	37.312
1259.95	53.56
1263.6	51.614
1267.23	44.322
1270.87	132.133
1274.51	113.388
1278.14	146.037
1281.77	114.37
1285.4	103.236
1289.03	133.88
1292.66	176.211
1296.28	48.139
1299.91	90.638
1303.53	107.39
1307.15	9.81
1310.77	52.417
1314.38	12.215
1318	3.811
1321.61	26.931
1325.23	26.62
1328.84	15.5
1332.45	43.659
1336.06	10.225
1339.66	43.516
1343.27	39.569
1346.87	152.35
1350.47	114.59
1354.07	175.307
1357.67	195.538
1361.26	193.307
1364.86	178.874
1368.45	209.787
1372.04	236.333
1375.63	204.5
1379.22	186.477
1382.81	239.191
1386.39	258.33
1389.98	207.791
1393.56	206.809
1397.14	213.549
1400.72	250.572
1404.3	203.114
1407.87	254.804
1411.45	609.064
1415.02	262.286
1418.59	248.347
1422.16	204.118
1425.73	218.231
1429.29	221.245
1432.86	159.897
1436.42	185.999
1439.98	147.589
1443.54	168.197
1447.1	181.689
1450.66	206.719
1454.21	163.949
1457.77	177.324
1461.32	141.305
1464.87	169.066
1468.42	191.946
1471.96	99.377
1475.51	160.609
1479.06	116.77
1482.6	173.87
1486.14	34.267
1489.68	87.359
1493.22	6.946
1496.75	124.901
1500.29	80.113
1503.82	86.096
1507.35	13.772
1510.88	35.989
1514.41	37.902
1517.94	54.981
