Measurement: Raman, 514 nm, depolarized, Raman Data Processed
Mineral: Epidote
Rruff sample: R040092
Ideal chemistry: Ca_2_Fe^3+^Al_2_(Si_2_O_7_)(SiO_4_)O(OH)
Locality: Nahant, Massachusetts, USA
Source: University of Arizona Mineral Museum
Description: Green prismatic crystals imbedded in quartz
Measured chemistry: Ca_2.01_Al_2.00_Fe_1.00_(Si_1.00_O_4_)(Si_1.97_Fe_0.02_Al_0.01_Ti_0.01_O_7_)O(OH)
Pin_id: M00463
Orientation: Laser parallel to [-1 0 -1]. Fiducial mark perpendicular to laser is parallel to b* (0 1 0)
Raman shift (cm-1)	intensity
51.466	0
55.666	981.82
59.863	1529.31
64.059	148.271
68.253	80.956
72.445	456.48
76.635	2393.37
80.823	7925.16
85.009	18228.9
89.193	23574.8
93.375	19851.2
97.554	12109.5
101.732	6269.06
105.908	3516.91
110.082	1747.87
114.254	1629.18
118.424	1931.31
122.592	2826.86
126.758	6113.52
130.922	8648.39
135.083	8254.55
139.243	4488.06
143.401	1684.32
147.557	832.371
151.711	101.929
155.863	250.367
160.013	1191.95
164.161	3103.85
168.308	5223.2
172.452	5691.09
176.594	3969.6
180.734	2787.75
184.872	2797.56
189.008	2317.05
193.143	1416.23
197.275	1422.11
201.405	2012.01
205.534	2217
209.66	2370.74
213.784	3328.57
217.907	5668.89
222.027	9160.79
226.146	11846.7
230.263	11365.4
234.377	9375.84
238.49	9306.96
242.601	8962.17
246.709	6867.02
250.816	5386.27
254.921	4226.77
259.024	2887.36
263.125	1927.92
267.224	2497.31
271.321	4220.45
275.416	4349.28
279.51	2416.74
283.601	910.769
287.69	1742.33
291.778	1834.38
295.863	1628.87
299.947	835.661
304.029	563.618
308.108	802.753
312.186	1141.1
316.262	1558.67
320.336	2426.47
324.408	2839.48
328.478	2030.69
332.546	1071.11
336.612	1140.31
340.677	2376.94
344.739	4325.44
348.799	5608.52
352.858	4084.74
356.915	1699.06
360.969	233.485
365.022	458.105
369.073	935.419
373.122	744.105
377.169	693.328
381.215	578.762
385.258	2510.73
389.299	3887.08
393.339	2983.05
397.376	1486.02
401.412	722.996
405.446	783.863
409.478	1874.68
413.508	3806.46
417.536	7480.12
421.562	12429.7
425.586	15646
429.609	16334.2
433.629	17122.9
437.648	15714.2
441.665	12901
445.68	14432.1
449.693	15821.5
453.704	13272
457.713	10045.5
461.721	6713.99
465.726	4459.47
469.73	3195.86
473.731	1925.12
477.731	1417.23
481.729	1515.12
485.725	2306.78
489.72	3651.16
493.712	6327.24
497.703	9381.99
501.691	11544.4
505.678	12280.4
509.663	11231.1
513.646	8424.27
517.627	7039.04
521.607	6519.33
525.584	4444.9
529.56	2358.72
533.534	1147.18
537.506	872.776
541.476	935.702
545.444	1419.49
549.41	2445.92
553.375	4431.47
557.337	9633.23
561.298	19144
565.257	21814.3
569.214	13408.5
573.17	8003.37
577.123	7103.56
581.075	9092.39
585.024	12288.4
588.972	16178
592.918	20672
596.863	24882.9
600.805	22270.7
604.746	17798.5
608.685	14281.9
612.621	12185.5
616.557	9436.7
620.49	6100.79
624.421	4051.44
628.351	2631.83
632.279	2106.45
636.205	1811.56
640.129	1401.32
644.051	1167.4
647.972	1013.96
651.89	950.975
655.807	873.434
659.722	753.312
663.636	754.587
667.547	784.243
671.457	777.259
675.365	1023.62
679.271	966.297
683.175	888.536
687.077	654.143
690.978	555.394
694.877	393.925
698.774	259.401
702.669	10.082
706.562	1.329
710.454	118.084
714.344	181.54
718.232	83.014
722.118	159.604
726.002	178.562
729.885	210.871
733.766	202.557
737.645	126.616
741.522	106.917
745.397	79.388
749.271	149.897
753.143	53.262
757.013	19.472
760.881	15.699
764.748	91.582
768.613	131.236
772.476	138.742
776.337	126.138
780.196	264.461
784.054	234.787
787.91	402.128
791.764	325.537
795.616	520.051
799.467	630.704
803.316	874.513
807.163	1010.49
811.008	1218.64
814.851	1667.97
818.693	2319.51
822.533	3074.24
826.371	3737.2
830.208	4170.39
834.042	3836.81
837.875	3548.51
841.706	3275.5
845.536	3343.79
849.363	3634.4
853.189	4323.35
857.013	5128.23
860.836	6244.55
864.656	6895.07
868.475	7133.61
872.292	7568.18
876.108	8314.04
879.922	10246.5
883.733	11353.2
887.544	11756.9
891.352	10547
895.159	10342.2
898.964	11878.9
902.767	14812.9
906.568	19691.1
910.368	26358.6
914.166	31942.1
917.962	29162.4
921.757	20471.5
925.55	13726.8
929.341	9030.2
933.13	6464.3
936.918	4906.87
940.703	3832.05
944.488	3179.03
948.27	3000.98
952.051	2924.38
955.83	3131.98
959.607	3003.71
963.383	2519.59
967.156	2251.63
970.928	2453.53
974.699	3315.22
978.468	4288.81
982.234	3974.61
986	2633.34
989.763	1751.98
993.525	1275.7
997.285	958.342
1001.04	666.142
1004.8	584.448
1008.55	684.975
1012.31	1022.5
1016.06	1403.39
1019.81	1679.47
1023.56	1535.68
1027.31	1323.56
1031.05	1397.72
1034.79	1673.66
1038.53	1919.9
1042.27	2032.3
1046.01	1725.79
1049.75	1626.89
1053.48	1536.81
1057.22	1752.23
1060.95	1921.19
1064.68	1775.26
1068.4	1677.65
1072.13	2209.53
1075.86	3558.87
1079.58	5829.66
1083.3	9576.87
1087.02	11397.5
1090.74	7399.46
1094.45	3693.8
1098.17	1886.46
1101.88	1097.64
1105.59	691.213
1109.3	542.615
1113.01	305.855
1116.71	177.829
1120.42	309.153
1124.12	783.14
1127.82	84.53
1131.52	11.036
1135.22	32.236
1138.91	59.748
1142.61	45.046
1146.3	60.843
1149.99	79.87
1153.68	162.195
1157.37	185.873
1161.06	52.737
1164.74	24.374
1168.42	93.481
1172.1	4.631
1175.78	45.958
1179.46	39.749
1183.14	177.505
1186.81	185.052
1190.48	143.311
1194.15	128.349
1197.83	104.422
1201.49	236.853
1205.16	232.589
1208.82	201.219
1212.49	181.98
1216.15	113.317
1219.81	283.889
1223.46	266.609
1227.12	164.018
1230.78	141.554
1234.43	175.06
1238.08	160.749
1241.73	151.857
1245.38	146.996
1249.03	84.4
1252.67	191.542
1256.31	25.978
1259.95	99.929
1263.6	120.39
1267.23	191.123
1270.87	202.339
1274.51	119.913
1278.14	165.752
1281.77	127.377
1285.4	134.023
1289.03	98.808
1292.66	150.374
1296.28	24.352
1299.91	64.979
1303.53	73.752
1307.15	31.4
1310.77	39.441
1314.38	1.878
1318	54.185
1321.61	29.808
1325.23	54.968
1328.84	9.266
1332.45	25.783
1336.06	81.236
1339.66	15.847
1343.27	58.5
1346.87	111.31
1350.47	77.622
1354.07	196.51
1357.67	172.867
1361.26	200.798
1364.86	231.351
1368.45	188.471
1372.04	171.218
1375.63	168.632
1379.22	226.101
1382.81	296.331
1386.39	288.212
1389.98	244.858
1393.56	234.542
1397.14	177.184
1400.72	195.317
1404.3	245.619
1407.87	327.193
1411.45	271.519
1415.02	283.059
1418.59	309.417
1422.16	294.137
1425.73	182.33
1429.29	196.197
1432.86	253.353
1436.42	200.33
1439.98	211.373
1443.54	294.671
1447.1	288.297
1450.66	274.298
1454.21	300.75
1457.77	225.717
1461.32	189.985
1464.87	234.253
1468.42	230.709
1471.96	181.538
1475.51	98.079
1479.06	159.909
1482.6	125.767
1486.14	117.896
1489.68	131.331
1493.22	128.507
1496.75	69.858
1500.29	52.719
1503.82	7.277
1507.35	61.916
1510.88	123.573
1514.41	18.456
1517.94	59.536
1521.46	88.628
