Measurement: Raman, 514 nm, depolarized, Raman Data Processed
Mineral: Epididymite
Rruff sample: R070580
Ideal chemistry: Na_2_Be_2_Si_6_O_15_H_2_O
Locality: Narsarsuk, Narsaq, Kitaa, Greenland
Source: James Shigley
Description: A translucent to white elongated prism.
Measured chemistry: (Na_1.97_K_0.03_)_Σ=2_Be_2_Si_6.00_O_15_·H_2_O; trace amounts of Al; Be and H_2_O assumed by stoichiometry
Pin_id: M01839
Orientation: Laser parallel to b* (0 1 0). Fiducial mark perpendicular to laser is parallel to -c [0 0 -1]
Raman shift (cm-1)	intensity
111.206	0
116.155	349.708
121.101	2140.62
126.045	3594.39
130.985	5094.26
135.923	4840.43
140.858	1462.36
145.79	1040.45
150.719	1289.42
155.646	729.717
160.569	52.7852
165.49	79.1567
170.408	13.021
175.324	68.2588
180.237	80.7563
185.146	281.517
190.053	699.353
194.958	1206.82
199.859	1498.79
204.758	1034.81
209.654	499.561
214.547	336.09
219.438	360.158
224.326	552.032
229.211	1311.35
234.093	2813.04
238.972	4490.02
243.849	5278.27
248.723	3271.77
253.594	2638.53
258.462	2227.7
263.328	2206.41
268.191	1706.48
273.051	1183.89
277.908	390.466
282.763	372.287
287.615	277.103
292.464	79.8867
297.31	85.751
302.154	25.7012
306.995	80.7266
311.833	110.9
316.668	233.411
321.501	282.69
326.331	431.013
331.158	751.216
335.983	1357.08
340.804	1960.05
345.623	3043.09
350.44	2141.99
355.253	1094.06
360.064	1006.15
364.872	968.356
369.677	1342.69
374.48	2616.59
379.28	3970.75
384.077	4206.47
388.872	2359.34
393.663	1023.4
398.452	1892.73
403.239	4050.28
408.022	7247.91
412.803	3876.52
417.581	712.17
422.357	53.8603
427.129	5.56445
431.899	67.084
436.667	78.4717
441.431	8.77832
446.193	0.094727
450.952	81.6338
455.709	183.42
460.463	483.975
465.214	1051.87
469.962	2652.08
474.708	4966.43
479.451	4596.79
484.191	1911.18
488.929	1133.15
493.663	672.993
498.396	635.428
503.125	1406.89
507.852	3575.36
512.576	10949.9
517.298	21156.4
522.016	25320.7
526.732	9437.52
531.446	3206.6
536.156	1574.19
540.865	762.36
545.57	576.849
550.273	433.093
554.973	386.174
559.67	257.234
564.364	278.424
569.056	299.428
573.746	623.183
578.432	1286.34
583.116	2350.52
587.798	1987.32
592.476	618.559
597.152	303.049
601.825	197.676
606.496	233.265
611.164	109.194
615.829	262.987
620.492	253.638
625.152	526.143
629.809	743.498
634.464	646.699
639.116	477.75
643.765	319.658
648.412	213.386
653.056	179.977
657.697	110.338
662.336	27.6992
666.972	60.7324
671.605	55.4629
676.236	19.1016
680.864	65.7647
685.49	29.7158
690.113	161.428
694.733	12.1416
699.351	20.6602
703.965	8.94727
708.578	24.3701
713.187	104.843
717.794	89.5019
722.399	64.1465
727.001	67.8135
731.6	110.705
736.196	61.9863
740.79	68.0078
745.381	236.77
749.97	221.308
754.556	549.623
759.139	430.717
763.72	314.592
768.298	312.481
772.874	229.69
777.447	278.816
782.017	236.829
786.585	146.836
791.15	280.543
795.712	308.922
800.272	410.916
804.829	372.888
809.384	227.78
813.936	327.448
818.485	292.478
823.032	242.77
827.576	234.522
832.118	158.392
836.657	219.144
841.193	119.789
845.727	150.236
850.258	240.397
854.787	182.539
859.313	390.611
863.836	369.58
868.357	335.637
872.875	360.838
877.391	333.103
881.904	216.351
886.414	323.868
890.922	307.309
895.427	195.676
899.93	204.976
904.43	125.214
908.927	283.398
913.422	166.505
917.914	82.5469
922.404	114.553
926.891	81.4385
931.376	66.2422
935.858	93.0488
940.337	27.8438
944.814	202.639
949.289	1.57812
953.76	63.6025
958.229	53.7754
962.696	44.998
967.16	197.377
971.621	29.8828
976.08	17.4902
980.537	70.1133
984.99	150.635
989.442	36.832
993.89	114.667
998.336	163.294
1002.78	515.163
1007.22	623.352
1011.66	384.181
1016.1	256.336
1020.53	207.58
1024.96	213.916
1029.39	252.348
1033.81	75.8799
1038.24	287.525
1042.66	477.284
1047.07	687.556
1051.49	731.248
1055.9	691.152
1060.31	718.482
1064.72	689.047
1069.13	616.552
1073.53	519.04
1077.93	309.876
1082.33	263.592
1086.72	290.565
1091.12	263.363
1095.51	236.185
1099.89	248.886
1104.28	324.649
1108.66	467.304
1113.04	946.213
1117.42	1063.38
1121.79	1695.79
1126.16	2153.99
1130.53	3133.99
1134.9	4577.15
1139.27	4886.47
1143.63	3601.95
1147.99	2057.57
1152.35	1226.35
1156.7	698.285
1161.05	598.37
1165.4	207.619
1169.75	253.648
1174.09	269.236
1178.44	185.003
1182.78	96.9209
1187.11	159.001
1191.45	88.2832
1195.78	8.16406
1200.11	67.2978
1204.44	33.0352
1208.76	1.12598
1213.08	76.8643
1217.4	26.0654
1221.72	28.9756
1226.03	21.6201
1230.35	47.2959
1234.66	110.724
1238.96	193.312
1243.27	31.7451
1247.57	125.72
1251.87	83.124
1256.17	97.3838
1260.46	235.793
1264.75	211.501
1269.04	131.644
1273.33	108.297
1277.62	150.039
1281.9	69.8672
1286.18	139.783
1290.45	26.7861
1294.73	59.4531
1299	153.686
1303.27	187.362
1307.54	297.743
1311.8	269.176
1316.07	276.669
1320.33	214.244
1324.58	212.453
1328.84	188.008
1333.09	59.3818
1337.34	169.071
1341.59	17.7832
1345.83	33.3887
1350.08	73.4287
1354.32	57.5488
1358.55	62.1065
1362.79	159.216
1367.02	6.42871
1371.25	79.8711
1375.48	119.126
1379.71	259.792
1383.93	93.0117
1388.15	6.73731
1392.37	124.623
1396.58	94.9502
1400.8	56.3438
1405.01	44.8105
1409.21	150.368
1413.42	57.998
1417.62	17.6777
1421.83	139.387
1426.02	83.7051
1430.22	236.435
1434.41	225.185
1438.61	376.507
1442.79	701.07
1446.98	746.687
1451.16	610.414
1455.35	678.938
1459.52	756.631
1463.7	483.981
1467.87	369.07
1472.05	367.626
1476.21	254.551
1480.38	410.683
1484.55	172.825
1488.71	177.978
1492.87	222.523
1497.03	227.398
1501.18	183.891
1505.33	130.279
1509.48	130.982
1513.63	176.106
1517.77	224.988
1521.92	106.881
1526.06	219.098
1530.19	163.176
1534.33	246.629
1538.46	251.884
1542.59	15.9521
1546.72	254.133
1550.85	333.234
1554.97	269.533
1559.09	8.73633
