Measurement: Raman, 514 nm, depolarized, Raman Data Processed
Mineral: Epidote
Rruff sample: R050131
Ideal chemistry: Ca_2_Fe^3+^Al_2_(Si_2_O_7_)(SiO_4_)O(OH)
Locality: Calumet mine, Chaffee County, Colorado, USA
Source: Dave Bunk Minerals
Description: Green prismatic crystal
Measured chemistry: Ca_2.00_Al_2.00_(Fe^3+^_0.75_Al_0.25_)(SiO_4_)(Si_2_O_7_)O(OH)
Pin_id: L00285
Orientation: Laser parallel to c* (0 0 1). Fiducial mark perpendicular to laser is parallel to -a [-1 0 0]
Raman shift (cm-1)	intensity
123.72	0
127.882	67.472
132.041	216.291
136.199	416.587
140.355	395.895
144.509	185.979
148.66	155.397
152.81	261.596
156.958	420.625
161.105	854.306
165.249	1480.22
169.391	2235.48
173.531	2566.19
177.669	1945.06
181.806	704.78
185.94	32.006
190.073	10.815
194.204	55.173
198.332	116.44
202.459	406.422
206.584	1047.44
210.707	1107.78
214.828	855.625
218.947	902.69
223.064	1329.79
227.179	2461.77
231.293	4066.49
235.404	4177.03
239.514	3327.18
243.621	3217.8
247.727	3783.5
251.831	3143.65
255.933	2201.34
260.033	1613.84
264.131	1278.74
268.227	2000.64
272.321	4793.64
276.413	8938.01
280.504	6952.77
284.592	3205.96
288.679	2186.49
292.764	1947.92
296.847	1923.79
300.928	1991.52
305.007	1958.22
309.084	1758.15
313.159	1543.74
317.233	1582.54
321.304	1267.62
325.374	1003.94
329.442	1120.12
333.508	1304.64
337.572	1404.46
341.634	1302.58
345.694	1690.98
349.753	3213.04
353.809	3517.67
357.864	2078.33
361.916	920.479
365.967	416.626
370.016	260.196
374.064	68.946
378.109	246.208
382.152	456.798
386.194	33.968
390.233	1120.75
394.271	1797.71
398.307	977.865
402.341	155.256
406.374	121.049
410.404	27.17
414.433	788.852
418.459	2796.83
422.484	7874.14
426.507	13877.1
430.528	12980.4
434.547	10454.3
438.565	10078.8
442.58	10754
446.594	11799.7
450.606	14876
454.616	17572.6
458.624	18099.4
462.631	16656.6
466.635	12973.9
470.638	9441.48
474.639	6359.18
478.638	4140.02
482.635	2891.99
486.63	2666.1
490.624	2631.35
494.615	2518.74
498.605	2592.24
502.593	3409.85
506.579	4647.54
510.564	5594.35
514.546	4903.39
518.527	3499.75
522.506	3724.57
526.483	4244.08
530.458	2847.73
534.431	1282.74
538.403	713.855
542.373	666.642
546.341	865.122
550.307	1164.38
554.271	1786.67
558.234	3219.56
562.195	6491.1
566.154	15153.6
570.111	18354.1
574.066	9051.86
578.019	4527.85
581.971	3733.23
585.921	4316.63
589.869	6017.5
593.815	8597.78
597.76	12835.6
601.703	16921.5
605.644	15776
609.583	11812.9
613.52	8919.98
617.455	6888.48
621.389	4642.58
625.321	2924.33
629.251	1975.54
633.18	1299.59
637.106	1011.04
641.031	732.575
644.954	501.811
648.875	435.998
652.795	440.237
656.712	579.591
660.628	805.566
664.542	888.155
668.455	822.349
672.365	778.142
676.274	841.524
680.181	970.484
684.086	1126.01
687.99	1350.1
691.891	1261.75
695.791	1006.16
699.689	666.896
703.586	473.798
707.48	301.276
711.373	217.272
715.264	77.744
719.154	24.583
723.041	43.273
726.927	37.323
730.811	81.159
734.693	101.724
738.574	87.86
742.453	106.596
746.33	112.922
750.205	100.546
754.079	99.447
757.95	73.283
761.82	55.865
765.689	92.21
769.555	92.544
773.42	8.127
777.283	20.047
781.144	30.005
785.004	5.551
788.862	53.292
792.718	59.608
796.572	147.404
800.425	154.714
804.276	233.562
808.125	288.978
811.972	307.978
815.818	534.576
819.662	677.78
823.504	1040.6
827.345	1365.03
831.183	1869.1
835.02	2179.8
838.856	2127.14
842.689	2041.14
846.521	2060.8
850.351	2111.13
854.18	2429.14
858.006	3071.84
861.831	3848.08
865.655	4708.84
869.476	5455.55
873.296	5542.42
877.114	5770.06
880.93	6331.44
884.745	7190.37
888.558	8410.29
892.369	9837.82
896.179	9830.12
899.987	9813.56
903.793	11255.6
907.597	14260.3
911.4	18428.3
915.201	21507
919.001	21609.7
922.798	19014.3
926.594	14423.7
930.388	10803.1
934.181	7490.73
937.972	5575.01
941.761	4432.89
945.548	3813.77
949.334	3441.71
953.118	3324.42
956.901	3673.35
960.681	3694.83
964.46	3460.78
968.238	3045.87
972.013	3024.12
975.787	3650.53
979.56	5827.09
983.33	7102.81
987.099	5749.71
990.866	3621.78
994.632	2320.03
998.396	1525.48
1002.16	1041.56
1005.92	672.177
1009.68	453.274
1013.43	436.33
1017.19	631.439
1020.94	920.795
1024.7	1319.67
1028.45	1377.62
1032.19	1557.57
1035.94	2091.32
1039.69	3118.33
1043.43	4194.74
1047.17	4663.75
1050.91	4222.13
1054.65	3333.52
1058.39	2918.35
1062.13	2647.47
1065.86	2295.92
1069.59	2263.43
1073.32	2647.26
1077.05	3999.96
1080.78	6274.35
1084.5	9495.88
1088.23	13522.6
1091.95	14042.5
1095.67	8851.7
1099.39	4252.08
1103.11	2056.99
1106.82	1206.17
1110.54	796.396
1114.25	559.75
1117.96	420.85
1121.67	435.701
1125.38	356.654
1129.08	396.275
1132.79	273.57
1136.49	233.532
1140.19	153.737
1143.89	84.007
1147.59	72.961
1151.28	54.413
1154.98	77.363
1158.67	55.556
1162.36	2.654
1166.05	95.74
1169.74	76.942
1173.43	54.807
1177.11	75.885
1180.79	2.985
1184.47	5.149
1188.15	12.25
1191.83	36.978
1195.51	60.943
1199.18	11.627
1202.86	67.035
1206.53	23.158
1210.2	16.375
1213.87	44.323
1217.54	22.866
1221.2	26.196
1224.86	40.892
1228.53	62.206
1232.19	29.388
1235.85	25.501
1239.5	43.03
1243.16	66.914
1246.81	29.84
1250.46	68.571
1254.12	52.293
1257.76	40.44
1261.41	54.776
1265.06	38.01
1268.7	100.216
1272.34	144.688
1275.99	125.6
1279.62	76.018
1283.26	97.952
1286.9	121.476
1290.53	64.138
1294.17	101.721
1297.8	125.343
1301.43	32.797
1305.06	93.965
1308.68	85.817
1312.31	83.758
1315.93	64.787
1319.56	36.301
1323.18	37.361
1326.8	27.163
1330.41	62.489
1334.03	47.614
1337.64	103.288
1341.26	60.34
1344.87	127.417
1348.47	157.737
1352.08	116.755
1355.69	114.76
1359.29	103.837
1362.9	50.647
1366.5	126.259
1370.1	137.318
1373.7	127.48
1377.29	122.966
1380.89	165.102
1384.48	207.098
1388.08	108.732
1391.67	78.429
1395.26	24.064
1398.84	40.405
1402.43	102.434
1406.01	97.286
1409.6	58.765
1413.18	147.741
1416.76	118.118
1420.34	48.892
1423.91	98.808
1427.49	51.608
1431.06	3.418
1434.63	21.911
1438.2	22.008
1441.77	8.359
1445.34	66.093
1448.9	116.309
1452.47	70.353
1456.03	79.337
1459.59	103.981
1463.15	127.811
1466.71	104.009
1470.27	121.173
1473.82	79.152
1477.37	110.845
1480.93	73.365
1484.48	64.133
1488.03	100.915
1491.57	136.917
1495.12	157.453
1498.66	117.837
1502.2	122.6
1505.75	99.746
1509.29	178.001
1512.82	103.149
1516.36	58.157
1519.89	0.402
