Measurement: Raman, 514 nm, depolarized, Raman Data Processed
Mineral: Epidote
Rruff sample: R050131
Ideal chemistry: Ca_2_Fe^3+^Al_2_(Si_2_O_7_)(SiO_4_)O(OH)
Locality: Calumet mine, Chaffee County, Colorado, USA
Source: Dave Bunk Minerals
Description: Green prismatic crystal
Measured chemistry: Ca_2.00_Al_2.00_(Fe^3+^_0.75_Al_0.25_)(SiO_4_)(Si_2_O_7_)O(OH)
Pin_id: L00140
Orientation: Laser parallel to -a* (-1 0 0). Fiducial mark perpendicular to laser is parallel to b [0 1 0]
Raman shift (cm-1)	intensity
120.855	0
125.036	108.589
129.216	555.508
133.393	902.101
137.568	636.326
141.741	245.651
145.911	581.23
150.08	479.664
154.247	405.574
158.411	1133.41
162.574	3089.94
166.734	5046.53
170.893	4935.52
175.049	3952
179.203	2164.61
183.355	924.156
187.505	492.953
191.653	191.371
195.799	24.817
199.943	30.53
204.084	232.602
208.224	77.51
212.362	111.476
216.497	71.28
220.631	266.092
224.762	881.611
228.891	1827.22
233.018	2520.87
237.144	3067.56
241.267	4695.25
245.388	5691.81
249.507	4032.35
253.624	2247.21
257.739	1366.5
261.852	847.113
265.962	801.5
270.071	1140.16
274.178	1730.26
278.283	1700.57
282.385	1172.07
286.486	1344
290.584	1967.49
294.681	3087.01
298.775	2407.3
302.868	1172.99
306.958	735.888
311.047	715.83
315.133	1085.7
319.217	1204.57
323.299	1579.33
327.38	2162.83
331.458	2706.2
335.534	3022.62
339.608	3321.16
343.681	5115.89
347.751	8569.78
351.819	9565.82
355.885	5930.99
359.949	3031.98
364.011	1768.92
368.071	1284.3
372.129	788.75
376.185	197.676
380.239	69.039
384.291	31.013
388.341	426.667
392.389	633.133
396.435	311.656
400.479	25.754
404.521	193.204
408.561	121.917
412.599	143.24
416.636	624.324
420.67	1427.48
424.702	2832.82
428.732	4103.86
432.76	5762.78
436.786	7705
440.81	7451.43
444.832	7168.12
448.852	10155
452.87	10422.1
456.887	8549.36
460.901	6500.71
464.913	4196.14
468.923	2499.62
472.931	1543.11
476.938	1101.61
480.942	1023.12
484.944	1093.62
488.945	1312.11
492.943	1880.59
496.94	2835.07
500.934	4123.65
504.927	4482.28
508.917	4574.03
512.906	4014.74
516.892	2264.55
520.877	1227.07
524.86	850.464
528.841	505.816
532.82	203.117
536.796	93.456
540.771	37.419
544.744	2.729
548.715	111.635
552.684	370.948
556.652	927.083
560.617	2231.76
564.58	5675.85
568.541	6788.44
572.501	3195.78
576.458	1628.23
580.414	1665.46
584.367	2444.87
588.319	3685.24
592.268	5004.69
596.216	7042.68
600.162	9079.19
604.106	8526.84
608.048	6699.77
611.988	5798.71
615.926	4649.56
619.862	3047.86
623.797	1802.73
627.729	1175.62
631.659	714.253
635.588	492.386
639.515	381.886
643.439	262.041
647.362	247.629
651.283	179.54
655.202	139.198
659.119	150.637
663.034	200.854
666.947	160.846
670.859	124.604
674.768	140.126
678.676	214.415
682.581	319.474
686.485	408.303
690.387	434.898
694.287	326.221
698.185	301.875
702.081	282.432
705.975	220.902
709.868	130.044
713.758	66.473
717.647	5.638
721.533	27.696
725.418	12.248
729.301	18.474
733.182	28.19
737.061	26.436
740.939	14.235
744.814	54.613
748.688	41.659
752.559	40.332
756.429	48.568
760.297	34.393
764.163	0.24
768.027	2.608
771.89	4.917
775.75	20.356
779.609	45.28
783.465	37.901
787.32	43.254
791.173	53.347
795.024	46.198
798.873	75.814
802.721	135.21
806.566	143.4
810.41	181.281
814.252	246.008
818.092	309.501
821.93	359.567
825.766	499.354
829.601	629.056
833.433	752.969
837.264	831.72
841.093	918.314
844.92	1080.76
848.745	1271.06
852.568	1656.25
856.39	2010.34
860.209	2774.32
864.027	3899.97
867.843	4823.55
871.657	5113.9
875.47	6003.59
879.28	7451.59
883.089	8995.08
886.896	10632.2
890.701	11061.1
894.504	8776.32
898.305	6619.12
902.105	6110.04
905.902	6248.55
909.698	7783.79
913.492	9939.15
917.285	11327.4
921.075	9557.06
924.864	6640.74
928.65	4398.85
932.435	2997.51
936.218	2106.77
940	1588.19
943.779	1173
947.557	945.233
951.333	770.835
955.107	718.987
958.879	710.485
962.65	705.14
966.418	646.916
970.185	670.807
973.95	810.811
977.714	1096.91
981.475	1437.11
985.235	1232.41
988.993	839.957
992.749	464.568
996.503	424.983
1000.26	330.926
1004.01	320.52
1007.75	393.676
1011.5	536.991
1015.25	810.279
1018.99	1292.53
1022.73	1465.93
1026.47	1114.5
1030.21	851.23
1033.95	794.605
1037.68	908.906
1041.41	984.533
1045.15	904.578
1048.88	784.781
1052.6	626.648
1056.33	554.533
1060.05	528.664
1063.78	482.066
1067.5	414.729
1071.21	406.618
1074.93	477.686
1078.65	817.541
1082.36	1414.05
1086.07	2386.64
1089.78	2501.1
1093.49	1501.07
1097.2	687.115
1100.9	381.429
1104.6	286.45
1108.3	212.091
1112	153.892
1115.7	102.862
1119.4	124.815
1123.09	164.436
1126.78	78.789
1130.47	43.76
1134.16	11.059
1137.85	47.345
1141.54	19.717
1145.22	9.129
1148.9	41.017
1152.58	12.395
1156.26	17.015
1159.94	5.491
1163.61	2.655
1167.28	22.674
1170.95	3.681
1174.62	39.591
1178.29	32.963
1181.96	10.222
1185.62	28.81
1189.29	2.303
1192.95	7.52
1196.61	46.453
1200.26	24.522
1203.92	23.52
1207.57	37.354
1211.23	29.079
1214.88	29.684
1218.53	7.595
1222.17	2.644
1225.82	23.973
1229.46	57.232
1233.11	8.498
1236.74	35.674
1240.38	4.725
1244.02	28.675
1247.66	13.592
1251.29	9.001
1254.92	68.627
1258.55	40.919
1262.18	15.14
1265.81	13.167
1269.43	31.065
1273.06	48.905
1276.68	27.592
1280.3	51.912
1283.91	24.281
1287.53	22.361
1291.15	50.466
1294.76	42.157
1298.37	21.327
1301.98	37.672
1305.59	11.693
1309.19	1.308
1312.8	30.399
1316.4	26.37
1320	30.507
1323.6	33.224
1327.2	39.643
1330.8	20.668
1334.39	42.017
1337.98	44.376
1341.58	31.618
1345.16	14.476
1348.75	46.416
1352.34	78.297
1355.92	80.071
1359.51	85.034
1363.09	59.569
1366.67	86.881
1370.24	84.919
1373.82	88.141
1377.39	61.263
1380.97	62.536
1384.54	84.925
1388.11	86.099
1391.68	80.902
1395.24	87.468
1398.81	107.138
1402.37	63.595
1405.93	54.274
1409.49	48.372
1413.05	26.242
1416.6	35.736
1420.16	45.297
1423.71	24.594
1427.26	64.687
1430.81	66.749
1434.36	28.959
1437.91	28.743
1441.45	45.828
1444.99	32.826
1448.54	30.324
1452.08	56.819
1455.61	10.49
1459.15	8.656
1462.68	32.001
1466.22	30.217
1469.75	62.537
1473.28	75.724
1476.81	64.969
1480.33	31.279
1483.86	46.66
1487.38	60.218
1490.9	49.797
1494.42	13.696
1497.94	4.199
1501.46	21.638
1504.97	8.201
1508.49	26.49
1512	43.731
1515.51	54.796
