Measurement: Raman, 514 nm, depolarized, Raman Data Processed
Mineral: Epididymite
Rruff sample: R070580
Ideal chemistry: Na_2_Be_2_Si_6_O_15_H_2_O
Locality: Narsarsuk, Narsaq, Kitaa, Greenland
Source: James Shigley
Description: A translucent to white elongated prism.
Measured chemistry: (Na_1.97_K_0.03_)_Σ=2_Be_2_Si_6.00_O_15_·H_2_O; trace amounts of Al; Be and H_2_O assumed by stoichiometry
Pin_id: M01011
Orientation: Laser parallel to c* (0 0 1). Fiducial mark perpendicular to laser is parallel to a [1 0 0]
Raman shift (cm-1)	intensity
111.206	0
116.155	648.04
121.101	2159.67
126.045	2910.97
130.985	4282.66
135.923	3864.62
140.858	690.689
145.79	59.9853
150.719	210.897
155.646	191.557
160.569	83.9941
165.49	172.134
170.408	272.123
175.324	96.8403
180.237	45.001
185.146	180.075
190.053	776.783
194.958	1249.62
199.859	1581.77
204.758	1213
209.654	466.999
214.547	364.93
219.438	294.692
224.326	569.576
229.211	1021.18
234.093	1879.86
238.972	2971.01
243.849	3268.08
248.723	1938.08
253.594	1208.04
258.462	1136.57
263.328	1030.68
268.191	639.87
273.051	331.924
277.908	77.167
282.763	13.8599
287.615	37.0552
292.464	13.1885
297.31	44.706
302.154	8.82861
306.995	14.0312
311.833	90.3945
316.668	302.418
321.501	525.053
326.331	579.18
331.158	1050.47
335.983	1432.62
340.804	1782.65
345.623	2683.39
350.44	1660.25
355.253	832.112
360.064	553.238
364.872	681.063
369.677	1111.96
374.48	2081.89
379.28	3679.82
384.077	3652.84
388.872	2040.07
393.663	1076.36
398.452	1768.68
403.239	3847
408.022	7216.29
412.803	3855.46
417.581	732.523
422.357	197.553
427.129	282.693
431.899	232.38
436.667	393.834
441.431	25.0518
446.193	56.6065
450.952	0.066406
455.709	136.659
460.463	281.871
465.214	528.683
469.962	1149.44
474.708	2144.2
479.451	2403.4
484.191	2162.2
488.929	1806.64
493.663	773.991
498.396	619.308
503.125	1141.68
507.852	2600.02
512.576	7908.89
517.298	17472.8
522.016	20650
526.732	7865.02
531.446	2681.58
536.156	1315.69
540.865	934.421
545.57	404.519
550.273	314.384
554.973	271.388
559.67	278.077
564.364	230.972
569.056	961.762
573.746	2177.97
578.432	1727.42
583.116	2843.37
587.798	2458.03
592.476	834.817
597.152	355.166
601.825	289.151
606.496	261.528
611.164	141.466
615.829	104.224
620.492	31.6904
625.152	334.994
629.809	591.146
634.464	849.311
639.116	299.799
643.765	161.911
648.412	122.158
653.056	77.3096
657.697	72.3799
662.336	38.0762
666.972	116.421
671.605	14.8721
676.236	50.2871
680.864	95.0957
685.49	99.791
690.113	80.2822
694.733	104.134
699.351	14.0195
703.965	68.2246
708.578	2.35254
713.187	31.6406
717.794	30.9609
722.399	159.385
727.001	47.4326
731.6	140.419
736.196	104.876
740.79	92.2305
745.381	153.24
749.97	252.934
754.556	301.775
759.139	264.262
763.72	190.889
768.298	140.978
772.874	5.95703
777.447	100.701
782.017	236.988
786.585	80.5801
791.15	303.923
795.712	166.241
800.272	350.7
804.829	115.106
809.384	107.728
813.936	354.019
818.485	383.143
823.032	201.163
827.576	157.892
832.118	107.939
836.657	262.346
841.193	210.482
845.727	103.476
850.258	118.376
854.787	171.99
859.313	185.427
863.836	242.742
868.357	331.61
872.875	279.974
877.391	325.959
881.904	233.553
886.414	84.1143
890.922	108.152
895.427	155.997
899.93	143.512
904.43	102.597
908.927	142.686
913.422	8.96973
917.914	23.9873
922.404	52.7275
926.891	127.382
931.376	142.269
935.858	7.37695
940.337	55.3897
944.814	55.7685
949.289	99.0713
953.76	2.85352
958.229	15.2891
962.696	4.72754
967.16	7.00684
971.621	95.4932
976.08	25.6318
980.537	84.0117
984.99	137.848
989.442	180.305
993.89	196.035
998.336	261.533
1002.78	311.764
1007.22	228.015
1011.66	414.784
1016.1	249.399
1020.53	284.552
1024.96	343.415
1029.39	643.346
1033.81	802.141
1038.24	1144.75
1042.66	1426.98
1047.07	1353.1
1051.49	1175.26
1055.9	868.841
1060.31	786.419
1064.72	985.828
1069.13	877.513
1073.53	804.541
1077.93	566.843
1082.33	451.595
1086.72	292.685
1091.12	349.195
1095.51	279.24
1099.89	400.632
1104.28	594.528
1108.66	555.309
1113.04	965.53
1117.42	1470.1
1121.79	1832.97
1126.16	2687.42
1130.53	3968.55
1134.9	5374.35
1139.27	5897.83
1143.63	4571.48
1147.99	2614.15
1152.35	1453.58
1156.7	763.16
1161.05	682.787
1165.4	260.506
1169.75	138.273
1174.09	64.6436
1178.44	195.733
1182.78	272.332
1187.11	76.2705
1191.45	222.996
1195.78	47.6592
1200.11	173.647
1204.44	114.452
1208.76	157.699
1213.08	8.22656
1217.4	15.1094
1221.72	101.693
1226.03	57.2539
1230.35	235.435
1234.66	176.047
1238.96	60.4043
1243.27	203.332
1247.57	11.2383
1251.87	99.7344
1256.17	118.209
1260.46	192.807
1264.75	58.2832
1269.04	58.6738
1273.33	277.606
1277.62	134.008
1281.9	110.293
1286.18	183.164
1290.45	356.734
1294.73	329.875
1299	259.258
1303.27	257.565
1307.54	304.537
1311.8	202.035
1316.07	135.047
1320.33	86.6641
1324.58	329.691
1328.84	280.336
1333.09	206.273
1337.34	293.559
1341.59	295.639
1345.83	140.664
1350.08	58.7324
1354.32	237.41
1358.55	63.6016
1362.79	12.6133
1367.02	121.309
1371.25	127.609
1375.48	12.8203
1379.71	224.553
1383.93	56.9902
1388.15	171.975
1392.37	95.1094
1396.58	23.2305
1400.8	69.0566
1405.01	120.738
1409.21	144.346
1413.42	51.7148
1417.62	130.369
1421.83	240.369
1426.02	250.125
1430.22	403.602
1434.41	415.967
1438.61	368.496
1442.79	651.904
1446.98	482.742
1451.16	428.678
1455.35	561.896
1459.52	431.379
1463.7	341.846
1467.87	288.68
1472.05	282.269
1476.21	199.281
1480.38	149.623
1484.55	240.928
1488.71	306.926
1492.87	408.99
1497.03	183.18
1501.18	213.381
1505.33	135.764
1509.48	131.33
1513.63	53.2598
1517.77	168.791
1521.92	310.924
1526.06	265.879
1530.19	12.5664
1534.33	44.7617
1538.46	151.4
1542.59	72.5527
1546.72	3.9707
1550.85	182.35
1554.97	119.191
1559.09	0.708984
