Measurement: Raman, 514 nm, depolarized, Raman Data Processed
Mineral: Epididymite
Rruff sample: R060773
Ideal chemistry: Na_2_Be_2_Si_6_O_15_H_2_O
Locality: unknown
Source: Michael Scott
Description: Colorless platy crystals forming a pseudohexagonal aggregate
Pin_id: M00148
Orientation: Laser parallel to c* (0 0 1). Fiducial mark perpendicular to laser is parallel to a [1 0 0]
Raman shift (cm-1)	intensity
102.116	0
107.047	351.709
111.976	717.168
116.903	1882.82
121.827	4496.04
126.749	6511.21
131.668	14997.1
136.585	7052.15
141.5	1300.37
146.412	449.377
151.321	539.898
156.229	268.799
161.134	334.531
166.036	1259.19
170.936	953.38
175.834	305.226
180.729	256.862
185.622	1009.44
190.512	2204.47
195.4	3580.46
200.286	3372.28
205.169	2052.78
210.049	1085.5
214.928	781.629
219.803	799.02
224.677	1410.36
229.548	2633.25
234.416	4555.49
239.282	7135.12
244.146	6124.19
249.007	3128.31
253.866	1781.48
258.722	1694.88
263.576	778.969
268.427	279.042
273.276	194.944
278.123	149.222
282.967	4.24414
287.809	8.77246
292.648	157.1
297.485	63.1445
302.319	24.1865
307.151	43.4062
311.98	80.0713
316.807	218.877
321.631	864.013
326.454	1191.45
331.273	2043.24
336.09	2349.17
340.905	3702.93
345.717	4753.29
350.527	2503.77
355.334	1940.28
360.139	1880.46
364.941	2028.47
369.741	2956.33
374.538	5044.03
379.333	8190.59
384.126	6905.03
388.916	4058.36
393.703	2528.59
398.488	4214.73
403.271	10997.6
408.051	18049.3
412.828	5634.6
417.603	1392.62
422.376	537.352
427.146	645.481
431.914	1290.76
436.679	1277.84
441.442	196.561
446.202	21.6719
450.96	7.94238
455.715	517.78
460.467	628.834
465.218	890.928
469.965	2619.98
474.711	5044.99
479.454	4472.97
484.194	6475.98
488.932	4063.03
493.667	2097.2
498.4	2383.53
503.13	3498.01
507.858	7393.66
512.583	19863.5
517.306	47173.5
522.026	38607.7
526.744	12486
531.459	4368.58
536.172	2094.32
540.882	1111.24
545.59	688.342
550.295	326.694
554.998	259.463
559.698	176.624
564.396	64.2314
569.091	370.067
573.784	1012.55
578.474	3092.56
583.162	6600.44
587.847	3695.43
592.529	1300.48
597.209	573.537
601.887	583.789
606.562	590.731
611.235	461.993
615.905	427.822
620.572	375.684
625.237	882.51
629.9	1563.98
634.56	1741.9
639.217	882.71
643.872	472.693
648.524	436.269
653.174	299.404
657.821	319.676
662.466	342.899
667.108	293.096
671.748	235.224
676.385	269.279
681.02	276.258
685.652	214.152
690.281	148.824
694.908	62.6865
699.533	67.209
704.155	128.673
708.774	286.025
713.391	46.0352
718.005	39.9072
722.617	115.805
727.226	93.6299
731.833	222.859
736.437	210.746
741.039	124.182
745.638	89.1123
750.234	195.651
754.828	299.835
759.419	315.655
764.008	256.11
768.595	173.185
773.178	271.873
777.759	440.166
782.338	262.124
786.914	331.356
791.488	173.949
796.059	537.716
800.627	373.159
805.193	548.061
809.756	665.445
814.317	1074.47
818.875	1316.61
823.431	866.436
827.984	785.606
832.534	615.908
837.082	535.121
841.627	436.325
846.17	786.304
850.71	1164.62
855.248	2068.32
859.783	2562.57
864.316	1642.04
868.846	1074.09
873.373	815.089
877.898	661.806
882.42	633.715
886.94	399.833
891.457	359.757
895.971	239.493
900.483	137.111
904.993	162.835
909.5	118.148
914.004	255.323
918.505	12.3711
923.004	60.2022
927.501	64.917
931.995	1.21191
936.486	43.835
940.975	16.373
945.461	15.2852
949.945	33.7207
954.426	60.8457
958.904	36.375
963.38	45.0879
967.853	95.5723
972.324	93.0273
976.792	63.0273
981.258	133.721
985.72	346.119
990.181	464.859
994.639	552.928
999.094	721.24
1003.55	1179.64
1008	950.176
1012.44	1029.86
1016.89	1013.69
1021.33	1180.64
1025.77	1497.68
1030.21	1939.84
1034.64	2561.12
1039.07	3314.53
1043.5	3372.07
1047.93	3042.74
1052.35	2803.48
1056.78	2263.85
1061.19	2256.98
1065.61	2123.38
1070.02	1827.57
1074.43	1354.34
1078.84	1179.15
1083.25	883.627
1087.65	1004.77
1092.05	963.131
1096.45	1299.23
1100.85	1356.89
1105.24	1979.23
1109.63	2349.76
1114.02	3111.47
1118.4	4213.34
1122.78	4727.37
1127.16	6281.56
1131.54	9045.91
1135.92	12152.4
1140.29	12048.1
1144.66	8071.88
1149.02	4921.85
1153.39	3051.97
1157.75	1794.24
1162.11	1440.67
1166.46	972.26
1170.82	743.004
1175.17	659.9
1179.52	435.953
1183.86	285.16
1188.21	100.795
1192.55	83.6367
1196.89	83.1543
1201.22	287.16
1205.55	40.4316
1209.88	167.379
1214.21	18.5391
1218.54	53.9883
1222.86	139.551
1227.18	153.15
1231.5	186.297
1235.81	220.174
1240.12	151.523
1244.43	314.668
1248.74	359.94
1253.04	165.371
1257.34	352.975
1261.64	337.685
1265.94	321.494
1270.23	412.408
1274.52	527.426
1278.81	428.543
1283.1	304.758
1287.38	266.225
1291.66	279.783
1295.94	333.426
1300.21	209.168
1304.48	331.998
1308.75	449.881
1313.02	15.8145
1317.29	476.762
1321.55	111.721
1325.81	143.402
1330.06	318.447
1334.32	231.367
1338.57	69.9512
1342.82	198.256
1347.06	38.957
1351.31	99.6035
1355.55	40.666
1359.79	126.461
1364.02	10.459
1368.26	147.707
1372.49	197.141
1376.71	93.2559
1380.94	85.0742
1385.16	287.842
1389.38	268.451
1393.6	108.477
1397.81	241.428
1402.02	275.6
1406.23	130.701
1410.44	102.019
1414.64	136.412
1418.85	341.182
1423.04	221.262
1427.24	302.527
1431.43	517.785
1435.62	846.258
1439.81	1344.72
1444	1597.78
1448.18	1863.48
1452.36	1667.68
1456.54	1793.96
1460.71	1545.42
1464.89	813.457
1469.06	767.773
1473.22	674.822
1477.39	474.553
1481.55	361.717
1485.71	251.732
1489.86	143.844
1494.02	50.2559
1498.17	120.555
1502.32	3.3457
1506.46	46.4844
1510.61	134.106
1514.75	83.1758
1518.88	78.2051
1523.02	198.981
1527.15	313.488
1531.28	207.481
1535.41	297.041
1539.53	200.068
1543.66	297.891
1547.78	15.1289
1551.89	255.613
1556.01	451.014
1560.12	87.0801
1564.23	47.082
1568.33	249.32
