Measurement: Raman, 514 nm, ccw, Raman Data Processed
Mineral: Epidote
Rruff sample: R050191
Ideal chemistry: Ca_2_Fe^3+^Al_2_(Si_2_O_7_)(SiO_4_)O(OH)
Locality: Pampa Blanca, Castrovirreyna Province, Huancavelica Department, Peru
Source: Dave Bunk Minerals
Description: Cluster of green elongated prismatic crystals
Measured chemistry: Ca_2.00_Al_2.00_(Fe^3+^_0.84_Al_0.16_)(SiO_4_)(Si_2_O_7_)O(OH)
Pin_id: L01970
Orientation: Laser parallel to b* (0 1 0). Fiducial mark perpendicular to laser is parallel to c [0 0 1]
Raman shift (cm-1)	intensity
111.976	0
116.903	117.84
121.827	178.217
126.749	1168.89
131.668	2992.3
136.585	1693.01
141.5	1954.6
146.412	3269.02
151.321	3520.89
156.229	6016.13
161.134	13005
166.036	20461.6
170.936	14504.5
175.834	6808.92
180.729	2464.54
185.622	709.743
190.512	300.665
195.4	1217.64
200.286	2783.14
205.169	1736.92
210.049	230.366
214.928	56.666
219.803	200.938
224.677	1471.22
229.548	3797.51
234.416	9978.77
239.282	20308.9
244.146	20314
249.007	11776.4
253.866	4727.56
258.722	2252.74
263.576	1371.49
268.427	1978.89
273.276	2995.46
278.123	3290.4
282.967	4793.73
287.809	10304.8
292.648	15467
297.485	11727.2
302.319	5634.91
307.151	2493.01
311.98	1433.23
316.807	1763.54
321.631	3276.89
326.454	4716.16
331.273	5666.08
336.09	9004.49
340.905	17624.4
345.717	30323.9
350.527	31653.9
355.334	18020.4
360.139	7604.54
364.941	2852.96
369.741	1065.02
374.538	148.447
379.333	283.127
384.126	269.926
388.916	65.3779
393.703	92.5332
398.488	143.725
403.271	138.22
408.051	342.412
412.828	1975.92
417.603	5244.69
422.376	10394.1
427.146	13731.2
431.914	19055.2
436.679	21891.2
441.442	27258.7
446.202	42036.7
450.96	49743.1
455.715	40928.7
460.467	26405.6
465.218	14683.7
469.965	8052.81
474.711	5498.59
479.454	5057.76
484.194	5785.2
488.932	8887.88
493.667	14489.8
498.4	17854.8
503.13	15272.1
507.858	11596.6
512.583	7092.29
517.306	4212.1
522.026	3656.61
526.744	2289.07
531.459	795.985
536.172	300.346
540.882	0.350586
545.59	275.428
550.295	1477.74
554.998	5166.22
559.698	13820.9
564.396	19675.8
569.091	11289.5
573.784	4769.83
578.474	4102.29
583.162	6373.59
587.847	8996.33
592.529	12618.4
597.209	15866.7
601.887	13516.9
606.562	9590.88
611.235	7415.35
615.905	5286.51
620.572	3669.48
625.237	2503.83
629.9	1484.64
634.56	929.885
639.217	894.547
643.872	1017.61
648.524	871.525
653.174	840.788
657.821	368.815
662.466	238.294
667.108	133.217
671.748	317.92
676.385	663.442
681.02	1271.82
685.652	2068.18
690.281	2066.17
694.908	1234.37
699.533	721.75
704.155	162.3
708.774	29.1387
713.391	6.19141
718.005	247.275
722.617	71.4902
727.226	44.79
731.833	176.71
736.437	65.2422
741.039	206.312
745.638	37.1397
750.234	61.0215
754.828	199.63
759.419	551.287
764.008	964.095
768.595	1136.07
773.178	752.244
777.759	559.613
782.338	128.196
786.914	129.94
791.488	261.815
796.059	297.897
800.627	473.215
805.193	652.063
809.756	381.385
814.317	584.459
818.875	682.803
823.431	709.43
827.984	853.341
832.534	1138.56
837.082	1426.11
841.627	1642.12
846.17	1963.76
850.71	2701.64
855.248	3710.36
859.783	5027.04
864.316	6836.52
868.846	9667.29
873.373	12969.9
877.898	13471.6
882.42	10915.5
886.94	7619.68
891.457	5414.21
895.971	4322.44
900.483	4263.45
904.993	4991.89
909.5	6200.11
914.004	6961.13
918.505	5224.06
923.004	3132.71
927.501	1911.17
931.995	1068.07
936.486	801.072
940.975	393.965
945.461	153.294
949.945	162.118
954.426	381.087
958.904	372.643
963.38	505.654
967.853	790.412
972.324	1863.56
976.792	3241.27
981.258	3745.48
985.72	2158.54
990.181	956.764
994.639	499.635
999.094	443.059
1003.55	202.777
1008	31.6895
1012.44	26.7207
1016.89	233.881
1021.33	382.402
1025.77	662.654
1030.21	1040.73
1034.64	1513.47
1039.07	2009.1
1043.5	1884.13
1047.93	1635.57
1052.35	1076.4
1056.78	840.676
1061.19	1275.31
1065.61	1309.53
1070.02	1334.72
1074.43	2139.53
1078.84	4200.43
1083.25	6646.71
1087.65	6062.51
1092.05	3146.67
1096.45	1382.11
1100.85	896.098
1105.24	574.379
1109.63	560.541
1114.02	419.941
1118.4	300.56
1122.78	411.381
1127.16	113.375
1131.54	270.514
1135.92	126.766
1140.29	83.7363
1144.66	75.2031
1149.02	64.794
1153.39	4.50647
1157.75	120.502
1162.11	127.701
1166.46	52.332
1170.82	243.494
1175.17	58.6113
1179.52	168.668
1183.86	196.656
1188.21	127.566
1192.55	26.3848
1196.89	32.1602
1201.22	2.83789
1205.55	19.4453
1209.88	230
1214.21	299.137
1218.54	252.06
1222.86	203.783
1227.18	255.283
1231.5	53.498
1235.81	270.461
1240.12	147.883
1244.43	258.947
1248.74	387.619
1253.04	109.269
1257.34	198.877
1261.64	428.35
1265.94	679.668
1270.23	748.106
1274.52	688.432
1278.81	604.092
1283.1	347.154
1287.38	338.348
1291.66	569.785
1295.94	421.6
1300.21	429.57
1304.48	707.646
1308.75	969.578
1313.02	755.371
1317.29	831.019
1321.55	796.162
1325.81	532.027
1330.06	177.606
1334.32	320.279
1338.57	254.043
1342.82	201.397
1347.06	239.529
1351.31	238.58
1355.55	212.629
1359.79	146.027
1364.02	42.1191
1368.26	139.496
1372.49	229.533
1376.71	315.744
1380.94	283.549
1385.16	278.559
1389.38	250.871
1393.6	229.621
1397.81	76.4453
1402.02	400.859
1406.23	333.935
1410.44	142.174
1414.64	18.6055
1418.85	251.924
1423.04	104.297
1427.24	188.816
1431.43	501.426
1435.62	725.445
1439.81	1123.2
1444	1280.01
1448.18	1565.7
1452.36	1631.17
1456.54	1607.53
1460.71	1431.31
1464.89	1140.41
1469.06	822.953
1473.22	947.773
1477.39	480.062
1481.55	490.369
1485.71	352.127
1489.86	398.873
1494.02	150.228
1498.17	47.707
1502.32	75.8027
1506.46	5.66406
1510.61	203.42
1514.75	193.24
1518.88	110.312
1523.02	315.533
1527.15	180.881
1531.28	367.484
1535.41	385.916
1539.53	315.019
1543.66	443.025
1547.78	360.635
1551.89	277.234
1556.01	421.885
1560.12	133.967
1564.23	307.555
1568.33	101.35
1572.43	0
