Measurement: Raman, 514 nm, depolarized, Raman Data Processed
Mineral: Erionite-Ca
Rruff sample: R060836
Ideal chemistry: Ca_5_(Si_26_Al_10_O_72_)30H_2_O
Locality: Moeraki, Otago, South Island, New Zealand
Source: Michael Scott
Description: Radiating group of colorless acicular hexagonal prisms
Measured chemistry: (Ca_2.08_K_1.21_Na_0.94_Mg_0.77_Fe^3+^_0.41_Cr_0.10_)_Σ=5.51_(Si_26.62_Al_9.38_)O_72_·23.41H_2_O; H_2_O estimated by difference
Pin_id: M00444
Orientation: Laser parallel to c* (0 0 1). Fiducial mark perpendicular to laser is parallel to a [1 0 0]
Raman shift (cm-1)	intensity
227.112	0
230.765	112.773
234.416	102.74
238.066	73.9141
241.714	86.8887
245.361	44.7871
249.007	123.096
252.651	269.82
256.294	480.275
259.936	1005.24
263.576	825.727
267.215	928.588
270.852	819.621
274.488	943.111
278.123	737.764
281.756	618.662
285.388	534.633
289.019	560.262
292.648	604.973
296.276	922.115
299.902	1411.97
303.527	2076.34
307.151	2744.38
310.773	3795.91
314.394	4525.24
318.013	5035.81
321.631	5207.4
325.248	4720.53
328.864	4393.14
332.478	3886.19
336.09	3441.65
339.701	3084.5
343.311	2952.61
346.92	2868.84
350.527	2844.15
354.132	2730.57
357.737	2364.09
361.34	1886.7
364.941	1447.41
368.541	1158.2
372.14	762.455
375.737	307.273
379.333	156.85
382.928	10.127
386.521	100.106
390.113	279.912
393.703	143.135
397.292	174.643
400.88	123.516
404.466	92.3867
408.051	479.316
411.634	1033.48
415.216	1711.7
418.797	2813.91
422.376	4145.04
425.954	5309.05
429.53	5998.13
433.105	5928.27
436.679	5578.43
440.251	5461.74
443.822	6060.12
447.391	7135.47
450.96	8645.4
454.526	10700
458.091	13188
461.655	15523.4
465.218	17308
468.779	18727.6
472.338	20191.3
475.897	22318.1
479.454	25100.9
483.009	27428.7
486.563	28074.5
490.116	26190.3
493.667	22344.1
497.217	17529.8
500.765	12978.6
504.312	9354.26
507.858	6460.92
511.402	4425.54
514.945	3034.77
518.486	2082.53
522.026	1429.8
525.565	1083.06
529.102	821.512
532.638	505.734
536.172	609.689
539.705	560.387
543.236	660.957
546.766	834.164
550.295	1427.77
553.822	2019.99
557.348	2872.34
560.873	3662.11
564.396	4456.95
567.917	4161.1
571.438	3513.64
574.957	2682.88
578.474	1964.7
581.99	1534.43
585.504	1473.58
589.018	1312.26
592.529	1572.99
596.04	1412.78
599.549	1425.77
603.056	1365.71
606.562	1350.5
610.067	1163.03
613.57	1065.46
617.072	979.664
620.572	1617.06
624.071	1353.55
627.569	1063.76
631.065	815.68
634.56	742.301
638.053	714.633
641.545	764.691
645.035	820.549
648.524	1010.32
652.012	849.029
655.498	641.672
658.983	655.139
662.466	439.357
665.948	344.41
669.428	311.465
672.907	177.514
676.385	292.51
679.861	95.4531
683.336	6.76562
686.809	53.5078
690.281	21.0801
693.752	9.6875
697.221	99.2539
700.688	86.9082
704.155	52.5801
707.619	3.32617
711.083	45.0488
714.545	4.89453
718.005	57.1758
721.464	53.709
724.922	126.836
728.378	211.324
731.833	158.201
735.286	72.4688
738.738	76.1016
742.189	114.076
745.638	227.398
749.085	309.68
752.531	405.041
755.976	369.475
759.419	552.398
762.861	578.545
766.302	804.785
769.741	928.785
773.178	1056.7
776.614	1142.61
780.049	1365.48
783.482	1363.3
786.914	1419.66
790.345	1305.72
793.773	1275
797.201	1555.57
800.627	1625.7
804.052	1707.53
807.475	1847.17
810.897	1914.43
814.317	1475.44
817.736	1120.49
821.153	935.033
824.569	738.092
827.984	630.102
831.397	535.963
834.808	644.709
838.219	699.471
841.627	1243.28
845.035	1646.62
848.441	2494.67
851.845	3421.39
855.248	4036.78
858.65	3802.47
862.05	3107.1
865.448	2269.08
868.846	1672.26
872.241	1288.32
875.636	848.01
879.029	598.312
882.42	385.238
885.81	198.553
889.199	136.268
892.586	78.8887
895.971	26.0918
899.356	133.002
902.738	101.434
906.12	38.3965
909.5	182.885
912.878	79.8633
916.255	13.7051
919.63	115.043
923.004	87.3789
926.377	25.6641
929.748	106.125
933.118	150.707
936.486	85.2715
939.853	274.478
943.218	149.647
946.582	0.458984
949.945	139
953.306	305.383
956.665	478.779
960.023	441.158
963.38	545.695
966.735	631.348
970.089	646.068
973.441	701.912
976.792	835.789
980.141	1095.62
983.489	1107.57
986.836	1270.54
990.181	1422.63
993.524	1695.82
996.866	1985.98
1000.21	2290.09
1003.55	2425.14
1006.88	2325.15
1010.22	2192.12
1013.55	2579.1
1016.89	2490.25
1020.22	2541.17
1023.55	2427.3
1026.88	2459.1
1030.21	2475.24
1033.53	2423.46
1036.86	2403.86
1040.18	2276.63
1043.5	2247.18
1046.82	2035.98
1050.14	2157.21
1053.46	1985.23
1056.78	1656.31
1060.09	1616.35
1063.4	1673.73
1066.71	1666.68
1070.02	1784.19
1073.33	1803.77
1076.64	1995.34
1079.94	2145.02
1083.25	2419.88
1086.55	2629.63
1089.85	2907.57
1093.15	3321.06
1096.45	3561.31
1099.75	3845.48
1103.04	4253.69
1106.34	4392.33
1109.63	4739.72
1112.92	4808.31
1116.21	4700.09
1119.5	4395.11
1122.78	4177.37
1126.07	3647.82
1129.35	3355.47
1132.63	3110.31
1135.92	2872.36
1139.19	3039.61
1142.47	3088.07
1145.75	3061.73
1149.02	2970.61
1152.3	3092.71
1155.57	2803.05
1158.84	2810.66
1162.11	2689.54
1165.38	2460.01
1168.64	2268.13
1171.91	2034.81
1175.17	1895.88
1178.43	1637.12
1181.69	1531.88
1184.95	1219.75
1188.21	962.348
1191.46	649.457
1194.72	620.059
1197.97	453.188
1201.22	207.574
1204.47	212.578
1207.72	96.5234
1210.97	92.9414
1214.21	100.762
1217.46	106.793
1220.7	40.6602
1223.94	80.8633
1227.18	8.34375
1230.42	73.2539
1233.65	48.9883
1236.89	172.914
1240.12	236.352
1243.35	145.789
1246.59	103.211
1249.81	289.523
1253.04	134.106
1256.27	348.894
1259.49	582.875
1262.72	418.023
1265.94	450.152
1269.16	451.762
1272.38	616.356
1275.59	673.078
1278.81	516.938
1282.03	229.934
1285.24	328.059
1288.45	306.309
1291.66	116.676
1294.87	232.16
1298.08	130.762
1301.28	17.4883
1304.48	241.312
1307.69	216.223
1310.89	284.231
1314.09	304.316
1317.29	495.481
1320.48	305.703
1323.68	328.977
1326.87	189.297
1330.06	134.648
1333.26	86.8672
1336.44	1.42969
1339.63	17.6289
1342.82	14.1094
1346	85.4531
1349.19	155.934
1352.37	64.543
1355.55	118.996
1358.73	109.394
1361.9	5.01562
1365.08	3.92188
1368.26	9.55469
1371.43	149.356
1374.6	151.023
1377.77	179.66
1380.94	82.625
1384.11	72.6797
1387.27	124.461
1390.43	220.633
1393.6	337.371
1396.76	250.309
1399.92	218.297
1403.08	239.082
1406.23	58.8281
1409.39	165.984
1412.54	233.141
1415.69	339.023
1418.85	291.594
1421.99	452.199
1425.14	748.121
1428.29	1086.44
1431.43	1349.78
1434.58	1831.11
1437.72	2490.09
1440.86	3132.1
1444	3535.99
1447.13	3794.36
1450.27	3834.55
1453.4	3703.13
1456.54	3406.47
1459.67	3060
1462.8	2433.37
1465.93	2089.63
1469.06	1606.97
1472.18	1342.4
1475.31	1046.31
1478.43	931.594
1481.55	614.637
1484.67	560.574
1487.79	462.426
1490.9	335.195
1494.02	55.8555
1497.13	120.41
1500.24	258.805
1503.35	31.0742
1506.46	90.25
1509.57	13.6914
1512.68	119.348
1515.78	81.6641
1518.88	103.773
1521.99	74.2695
1525.09	100.949
1528.18	118.805
1531.28	325.871
1534.38	54.6797
1537.47	284.238
1540.56	263.875
1543.66	216.418
1546.74	208.523
1549.83	108.637
1552.92	126.953
1556.01	515.281
1559.09	165.766
1562.17	163.805
1565.25	0.433594
1568.33	90.6836
1571.41	0
