Measurement: Raman, 514 nm, depolarized, Raman Data Processed
Mineral: Erythrite
Rruff sample: R050073
Ideal chemistry: Co^2+^_3_(As^5+^O_4_)_2_8H_2_O
Locality: Bou Azzer, Morocco
Source: Rock Currier
Description: Crimson flattened crystals
Measured chemistry: (Co_0.65_Mg_0.35_)_3_(As_1.00_O_4_)_2_Â·8H_2_O
Pin_id: M00190
Orientation: Laser parallel to -b* (0 -1 0). Fiducial mark perpendicular to laser is parallel to c [0 0 1]
Raman shift (cm-1)	intensity
52.671	0
57.626	113.504
62.579	24.8194
67.529	625.894
72.477	109.176
77.423	99.9038
82.367	373.691
87.308	576.18
92.246	981.418
97.182	1150.35
102.116	1634.76
107.047	4368.98
111.976	8382.35
116.903	5878.66
121.827	2337.88
126.749	1419.78
131.668	1710.28
136.585	2404.68
141.5	4344.05
146.412	7772.85
151.321	9400.32
156.229	7584.54
161.134	4220.53
166.036	3082.25
170.936	3608.68
175.834	4217.74
180.729	3884.06
185.622	4474.46
190.512	6037.45
195.4	7566.17
200.286	10502.7
205.169	13764.5
210.049	13781.9
214.928	9859.19
219.803	6275.77
224.677	4941.82
229.548	4871.3
234.416	4997.63
239.282	4523.5
244.146	4690.81
249.007	6455.36
253.866	8122.86
258.722	9532.17
263.576	8760.38
268.427	6531.32
273.276	4355.83
278.123	2482.93
282.967	1311.6
287.809	741.742
292.648	241.311
297.485	84.2661
302.319	99.5339
307.151	127.249
311.98	145.062
316.807	40.1487
321.631	98.4561
326.454	374.629
331.273	704.134
336.09	853.127
340.905	781.648
345.717	792.673
350.527	1213.82
355.334	2131.95
360.139	3124.64
364.941	3880.39
369.741	4118.87
374.538	4186.48
379.333	3752.32
384.126	3341.57
388.916	2943.56
393.703	2425.44
398.488	1872.86
403.271	1294.12
408.051	967.742
412.828	827.15
417.603	953.499
422.376	1262.27
427.146	1989.38
431.914	2824.34
436.679	3665.94
441.442	3992.8
446.202	3585.36
450.96	3049.26
455.715	2486.84
460.467	1906
465.218	1302.18
469.965	827.146
474.711	572.451
479.454	339.078
484.194	166.038
488.932	97.2207
493.667	22.6611
498.4	13.9407
503.13	11.8018
507.858	29.8946
512.583	22.2075
517.306	49.9539
522.026	9.73462
526.744	26.9651
531.459	8.71558
536.172	4.02173
540.882	4.0459
545.59	86.1165
550.295	17.9136
554.998	4.84399
559.698	31.7834
564.396	24.9658
569.091	49.606
573.784	69.6052
578.474	32.009
583.162	55.6997
587.847	29.5942
592.529	23.4817
597.209	18.8572
601.887	26.6562
606.562	94.928
611.235	142.671
615.905	210.924
620.572	339.723
625.237	500.11
629.9	568.124
634.56	741.286
639.217	915.753
643.872	1018.63
648.524	1102.58
653.174	1084.25
657.821	947.527
662.466	929.43
667.108	756.845
671.748	729.403
676.385	603.44
681.02	598.573
685.652	596.041
690.281	585.436
694.908	612.506
699.533	740.3
704.155	780.713
708.774	886.16
713.391	967.403
718.005	1071.93
722.617	1181.9
727.226	1363.04
731.833	1462.03
736.437	1633.05
741.039	1942.16
745.638	2236.71
750.234	2744.51
754.828	3410.63
759.419	4320.16
764.008	5776.08
768.595	8046.26
773.178	11860.8
777.759	18252
782.338	29385.8
786.914	44487.3
791.488	56939.5
796.059	58305.3
800.627	47487.7
805.193	32892.6
809.756	21746.1
814.317	14554.1
818.875	9953.5
823.431	7429.39
827.984	5843.9
832.534	4633.91
837.082	3931.47
841.627	3735.6
846.17	4035.12
850.71	5047.72
855.248	5289.98
859.783	4601.26
864.316	3360.92
868.846	2314.36
873.373	1543.12
877.898	1168.28
882.42	1026.73
886.94	951.029
891.457	1015.02
895.971	1132.88
900.483	1135.49
904.993	1156.43
909.5	1076.94
914.004	1024.28
918.505	820.632
923.004	631.281
927.501	527.705
931.995	416.765
936.486	339.09
940.975	231.257
945.461	174.364
949.945	135.069
954.426	173.51
958.904	121.085
963.38	89.6411
967.853	27.4136
972.324	37.8164
976.792	18.8359
981.258	0.977051
985.72	42.4155
990.181	26.1509
994.639	66.8284
999.094	2.56567
1003.55	90.2454
1008	51.0027
1012.44	69.2827
1016.89	46.3154
1021.33	94.0316
1025.77	33.3523
1030.21	49.453
1034.64	20.9999
1039.07	0.662231
1043.5	7.25476
1047.93	16.3955
1052.35	87.2743
1056.78	50.9556
1061.19	74.6851
1065.61	110.077
1070.02	152.224
1074.43	141.605
1078.84	131.758
1083.25	156.969
1087.65	160.035
1092.05	176.187
1096.45	165.939
1100.85	200.958
1105.24	206.318
1109.63	220.835
1114.02	282.125
1118.4	240.837
1122.78	256.08
1127.16	320.083
1131.54	265.967
1135.92	243.355
1140.29	251.64
1144.66	142.959
1149.02	226.274
1153.39	194.693
1157.75	191.383
1162.11	165.849
1166.46	165.816
1170.82	147.599
1175.17	193.46
1179.52	140.464
1183.86	153.856
1188.21	123.103
1192.55	141.205
1196.89	175.575
1201.22	158.677
1205.55	188.943
1209.88	104.855
1214.21	117.534
1218.54	128.789
1222.86	155.325
1227.18	151.951
1231.5	167.881
1235.81	100.526
1240.12	134.966
1244.43	139.367
1248.74	111.86
1253.04	68.2362
1257.34	69.2483
1261.64	122.566
1265.94	107.27
1270.23	99.3151
1274.52	81.9067
1278.81	73.7295
1283.1	69.0801
1287.38	80.3854
1291.66	47.4873
1295.94	54.2492
1300.21	104.506
1304.48	38.3051
1308.75	77.4868
1313.02	53.5962
1317.29	0.640137
1321.55	28.0084
1325.81	6.11206
1330.06	3.50342
1334.32	65.9198
1338.57	62.4612
1342.82	54.7905
1347.06	637.807
1351.31	59.8063
1355.55	46.0354
1359.79	52.4126
1364.02	49.9456
1368.26	0.982666
1372.49	28.7167
1376.71	100.193
1380.94	32.5392
1385.16	40.8546
1389.38	28.4615
1393.6	44.7439
1397.81	41.0841
1402.02	73.2749
1406.23	61.15
1410.44	58.8813
1414.64	19.2445
1418.85	14.7454
1423.04	51.0179
1427.24	1.20874
1431.43	43.0227
1435.62	5.99121
1439.81	70.6146
1444	27.6638
1448.18	20.9681
1452.36	54.2717
1456.54	5.37293
1460.71	50.828
1464.89	2.77307
1469.06	39.8616
1473.22	4.03015
1477.39	14.3245
1481.55	72.9658
1485.71	18.3294
1489.86	9.15393
1494.02	0.158325
1498.17	44.2505
1502.32	39.5123
1506.46	23.2023
1510.61	32.8514
1514.75	39.3409
1518.88	56.8821
1523.02	5.32776
1527.15	52.8872
1531.28	19.8449
1535.41	98.2129
1539.53	40.8402
1543.66	37.8313
1547.78	32.4427
1551.89	132.573
1556.01	158.991
1560.12	43.2258
1564.23	12.1857
1568.33	54.9254
