Measurement: Raman, 514 nm, depolarized, Raman Data Processed
Mineral: Erythrite
Rruff sample: R050073
Ideal chemistry: Co^2+^_3_(As^5+^O_4_)_2_8H_2_O
Locality: Bou Azzer, Morocco
Source: Rock Currier
Description: Crimson flattened crystals
Measured chemistry: (Co_0.65_Mg_0.35_)_3_(As_1.00_O_4_)_2_Â·8H_2_O
Pin_id: M00361
Orientation: Laser parallel to c* (0 0 1). Fiducial mark perpendicular to laser is parallel to -a [-1 0 0]
Raman shift (cm-1)	intensity
93.48	0
98.416	44.4697
103.349	1475.82
108.28	4697.7
113.208	3925.47
118.134	2588.14
123.058	239.17
127.979	104.336
132.898	395.575
137.814	1617.38
142.728	3750.74
147.639	4746.46
152.549	4763.65
157.455	2908.72
162.359	1694.68
167.261	1605.81
172.161	2175.4
177.058	2321.82
181.952	2782.51
186.845	3573.52
191.734	4659.98
196.622	6758.92
201.507	9713.26
206.389	10091
211.269	8663.43
216.147	5872.33
221.022	3804.83
225.895	3251.09
230.765	3312.57
235.633	3142.92
240.498	3029.04
245.361	3821.95
250.222	4991.32
255.08	6305.01
259.936	7139.88
264.789	5741.85
269.64	4098.76
274.488	2321.98
279.334	1209
284.178	701.415
289.019	173.102
293.857	21.0415
298.693	63.958
303.527	146.281
308.358	93.876
313.187	8.70801
318.013	120.397
322.837	138.357
327.659	512.232
332.478	797.89
337.294	748.447
342.108	772.88
346.92	948.031
351.729	1494.22
356.535	2159.29
361.34	2920.56
366.141	3327.16
370.94	3458.33
375.737	3370.17
380.531	3135.94
385.323	2616.01
390.113	2233.21
394.9	1847.68
399.684	1324.41
404.466	1063.04
409.245	847.469
414.022	752.027
418.797	927.727
423.569	1263.23
428.338	1802.57
433.105	2338.26
437.87	2642.99
442.632	2701.27
447.391	2283.53
452.149	1697.25
456.903	1382.95
461.655	900.036
466.405	622.991
471.152	478.123
475.897	285.299
480.639	142.722
485.378	122.357
490.116	79.1289
494.85	93.9365
499.582	6.23144
504.312	62.2856
509.039	63.5684
513.764	18.7436
518.486	90.4556
523.206	60.2402
527.923	96.7754
532.638	57.4268
537.35	10.2339
542.059	123.083
546.766	32.2593
551.471	100.703
556.173	104.466
560.873	50.3281
565.57	28.8535
570.264	34.9531
574.957	58.8408
579.646	11.5342
584.333	84.8418
589.018	116.632
593.7	100.091
598.379	125.218
603.056	60.0542
607.73	46.085
612.402	38.9522
617.072	111.015
621.739	268.944
626.403	211.956
631.065	439.06
635.724	608.443
640.381	691.725
645.035	800.409
649.687	759.11
654.336	719.057
658.983	610.574
663.627	625.534
668.268	392.524
672.907	488.698
677.544	404.835
682.178	360.206
686.809	437.177
691.438	543.247
696.065	453.035
700.688	655.769
705.31	810.11
709.929	762.781
714.545	878.875
719.158	806.288
723.77	1037.15
728.378	1122.8
732.984	1301.58
737.588	1258.9
742.189	1554.68
746.787	1884.91
751.383	2123.74
755.976	2774.68
760.567	3604.74
765.155	5027.02
769.741	7355.4
774.324	11574.8
778.904	18316.5
783.482	29304.6
788.058	40182.9
792.631	44783.3
797.201	39429.9
801.769	28537.4
806.334	18936
810.897	12201.5
815.457	8250.21
820.014	5984.89
824.569	4310.54
829.122	3443.19
833.671	3034.76
838.219	2757.25
842.763	2942.22
847.306	3741.62
851.845	4398.95
856.382	3943.91
860.917	2926.32
865.448	2013.8
869.978	1244.81
874.505	903.937
879.029	749.94
883.55	722.753
888.069	764.216
892.586	858.344
897.1	919.399
901.611	972.493
906.12	1002.28
910.626	972.63
915.129	724.957
919.63	611.293
924.129	556.699
928.625	457.589
933.118	293.315
937.609	239.233
942.097	127.746
946.582	159.498
951.065	10.5185
955.546	143.016
960.023	102.481
964.499	42.8169
968.971	65.8359
973.441	30.3203
977.909	98.0508
982.374	41.4595
986.836	54.6753
991.295	2.3833
995.753	52.8618
1000.21	19.623
1004.66	28.269
1009.11	74.3813
1013.55	44.4956
1018	59.5835
1022.44	1.23242
1026.88	88.4019
1031.32	17.5791
1035.75	20.5474
1040.18	29.9849
1044.61	16.9985
1049.04	0.79248
1053.46	106.59
1057.88	51.5996
1062.3	102.94
1066.71	48.606
1071.13	189.508
1075.54	153.671
1079.94	138.742
1084.35	170.109
1088.75	53.7856
1093.15	244.955
1097.55	207.673
1101.94	158.6
1106.34	166.705
1110.73	249.509
1115.11	104.247
1119.5	334.82
1123.88	337.871
1128.26	328.295
1132.63	216.993
1137.01	191.424
1141.38	15.4863
1145.75	262.812
1150.12	174.324
1154.48	227.894
1158.84	141.943
1163.2	125.091
1167.55	70.7637
1171.91	155.11
1176.26	155.885
1180.61	149.064
1184.95	72.7822
1189.29	91.0806
1193.63	177.8
1197.97	143.103
1202.31	82.4131
1206.64	38.1899
1210.97	111.213
1215.29	212.979
1219.62	114.386
1223.94	97.5386
1228.26	194.046
1232.57	211.68
1236.89	78.5498
1241.2	58.2998
1245.51	131.829
1249.81	199.512
1254.12	217.727
1258.42	133.481
1262.72	166.652
1267.01	131.108
1271.3	139.162
1275.59	212.573
1279.88	154.386
1284.17	72.9644
1288.45	91.1025
1292.73	131.864
1297.01	169.214
1301.28	207.667
1305.55	148.718
1309.82	113.314
1314.09	148.76
1318.35	170.347
1322.61	149.313
1326.87	191.938
1331.13	131.095
1335.38	143.805
1339.63	47.0127
1343.88	159.755
1348.12	154.407
1352.37	178.683
1356.61	104.519
1360.85	101.898
1365.08	136.132
1369.31	191.869
1373.54	101.132
1377.77	76.1602
1381.99	134.307
1386.22	18.543
1390.43	143.453
1394.65	193.803
1398.87	23.5234
1403.08	46.1728
1407.29	139.132
1411.49	20.3115
1415.69	82.125
1419.89	52.415
1424.09	124.657
1428.29	147.278
1432.48	66.5176
1436.67	122.644
1440.86	127.212
1445.04	59.0147
1449.23	13.4912
1453.4	86.6963
1457.58	35.9092
1461.76	52.8438
1465.93	101.632
1470.1	80.3633
1474.26	114.034
1478.43	73.9424
1482.59	95.4912
1486.75	126.714
1490.9	16.3848
1495.06	139.845
1499.21	171.722
1503.35	119.766
1507.5	53.2822
1511.64	110.358
1515.78	135.9
1519.92	234.69
1524.05	120.819
1528.18	154.599
1532.31	0.460938
1536.44	92.1709
1540.56	135.904
1544.69	115.503
1548.8	161.859
1552.92	249.254
1557.03	226.644
1561.14	33.0742
1565.25	226.793
1569.36	81.4678
