Measurement: Raman, 514 nm, depolarized, Raman Data Processed
Mineral: Erythrite
Rruff sample: R050073
Ideal chemistry: Co^2+^_3_(As^5+^O_4_)_2_8H_2_O
Locality: Bou Azzer, Morocco
Source: Rock Currier
Description: Crimson flattened crystals
Measured chemistry: (Co_0.65_Mg_0.35_)_3_(As_1.00_O_4_)_2_Â·8H_2_O
Pin_id: M00408
Orientation: Laser parallel to a* (1 0 0). Fiducial mark perpendicular to laser is parallel to b [0 1 0]
Raman shift (cm-1)	intensity
97.182	0
102.116	6.28027
107.047	1966.7
111.976	1480.62
116.903	2736.85
121.827	900.084
126.749	28.2227
131.668	355.728
136.585	740.604
141.5	1185.64
146.412	2138.55
151.321	3362.08
156.229	3996.13
161.134	2162
166.036	1469.52
170.936	1168.73
175.834	1346.8
180.729	1555.75
185.622	2362.4
190.512	3954.05
195.4	5313.82
200.286	6540.74
205.169	5629.31
210.049	5103.47
214.928	4716.65
219.803	3411.05
224.677	3391.29
229.548	4442.68
234.416	6768.53
239.282	8188.08
244.146	8782.46
249.007	8401.76
253.866	10460
258.722	14407.4
263.576	15271.5
268.427	13232.6
273.276	9284.31
278.123	5630.05
282.967	3231.53
287.809	1753.54
292.648	838.889
297.485	344.517
302.319	253.363
307.151	86.3809
311.98	90.5947
316.807	38.7666
321.631	198.329
326.454	177.852
331.273	56.9551
336.09	23.4951
340.905	721.477
345.717	1173
350.527	2336
355.334	4025.26
360.139	6345.8
364.941	7958.63
369.741	8479.88
374.538	7046.31
379.333	5996.39
384.126	5205.6
388.916	4654.66
393.703	4740.34
398.488	4431.72
403.271	4035.8
408.051	3384.67
412.828	3162.12
417.603	3413.48
422.376	4250.46
427.146	6054.12
431.914	8359.9
436.679	10370.5
441.442	11228.8
446.202	10293.1
450.96	7728.11
455.715	5511.62
460.467	4098.85
465.218	2595.53
469.965	1441.33
474.711	876.371
479.454	586.21
484.194	444.804
488.932	208.731
493.667	258.563
498.4	118.505
503.13	57.5498
507.858	101.511
512.583	110.863
517.306	131.346
522.026	374.027
526.744	155.222
531.459	171.181
536.172	102.423
540.882	175
545.59	57.9014
550.295	129.995
554.998	308.024
559.698	114.738
564.396	353.286
569.091	424.736
573.784	171.088
578.474	84.3311
583.162	103.278
587.847	12.7695
592.529	38.4434
597.209	3.5293
601.887	102.037
606.562	132.09
611.235	5.78418
615.905	99.3516
620.572	111.394
625.237	44.5586
629.9	108.277
634.56	32.123
639.217	127.832
643.872	128.917
648.524	30.125
653.174	154.669
657.821	140.429
662.466	124.879
667.108	49.8213
671.748	6.91406
676.385	69.2061
681.02	122.35
685.652	38.1572
690.281	12.7246
694.908	160.37
699.533	106.184
704.155	312.234
708.774	350.521
713.391	507.762
718.005	633.489
722.617	701.335
727.226	1017.79
731.833	1166.41
736.437	1196.04
741.039	1562.04
745.638	1712.32
750.234	2007.89
754.828	2617.53
759.419	3390.23
764.008	4453.23
768.595	5926.99
773.178	8249.46
777.759	12343.3
782.338	19466.9
786.914	29332.5
791.488	41572.8
796.059	48287.2
800.627	47606
805.193	40471.2
809.756	31555.9
814.317	23535
818.875	17050
823.431	12602.4
827.984	9941.74
832.534	8311
837.082	7415.08
841.627	7406.01
846.17	8682.78
850.71	12026.4
855.248	17305.9
859.783	22136.3
864.316	22614.8
868.846	18320
873.373	12518
877.898	7617.53
882.42	4911.67
886.94	3668.68
891.457	2743.5
895.971	2541.02
900.483	1952.73
904.993	1772.34
909.5	1376.17
914.004	1208.41
918.505	900.906
923.004	815.955
927.501	376.264
931.995	580.998
936.486	309.941
940.975	359.81
945.461	396.674
949.945	274.752
954.426	421.717
958.904	321.211
963.38	357.264
967.853	343.262
972.324	380.785
976.792	375.603
981.258	183.049
985.72	249.176
990.181	174.478
994.639	220.943
999.094	850.551
1003.55	22.7617
1008	73.291
1012.44	157.057
1016.89	32.4492
1021.33	43.2754
1025.77	18.1172
1030.21	80.9824
1034.64	143.769
1039.07	64.1777
1043.5	203.336
1047.93	143
1052.35	34.7832
1056.78	84.4785
1061.19	118.211
1065.61	78.4238
1070.02	126.387
1074.43	73.9394
1078.84	159.67
1083.25	130.227
1087.65	86.6191
1092.05	98.0957
1096.45	196.301
1100.85	164.512
1105.24	140.76
1109.63	178.385
1114.02	359.49
1118.4	661.475
1122.78	771.148
1127.16	839.979
1131.54	319.496
1135.92	209.984
1140.29	310.824
1144.66	256.51
1149.02	143.672
1153.39	53.041
1157.75	212.541
1162.11	112.545
1166.46	67.0273
1170.82	196.719
1175.17	2.40234
1179.52	112.357
1183.86	233.529
1188.21	112.477
1192.55	177.807
1196.89	284.772
1201.22	49.5371
1205.55	154.359
1209.88	251.969
1214.21	152.986
1218.54	216.625
1222.86	289.041
1227.18	57.8281
1231.5	298.848
1235.81	173.338
1240.12	167.201
1244.43	144.082
1248.74	433.383
1253.04	132.029
1257.34	121.08
1261.64	177.117
1265.94	266.471
1270.23	201.967
1274.52	291.934
1278.81	350.717
1283.1	282.074
1287.38	328.676
1291.66	229.096
1295.94	132.043
1300.21	281.297
1304.48	181.31
1308.75	415.066
1313.02	1208.35
1317.29	655.797
1321.55	248.867
1325.81	189.397
1330.06	226.973
1334.32	285.373
1338.57	78.2363
1342.82	185.285
1347.06	330.631
1351.31	251.42
1355.55	251.713
1359.79	242.367
1364.02	137.568
1368.26	236.779
1372.49	205.752
1376.71	257.42
1380.94	208.113
1385.16	88.2812
1389.38	324.861
1393.6	197.031
1397.81	64.2559
1402.02	60.6152
1406.23	411.67
1410.44	650.752
1414.64	104.922
1418.85	73.668
1423.04	1.36328
1427.24	76.6621
1431.43	5.30469
1435.62	86.6211
1439.81	128.727
1444	276.42
1448.18	321.303
1452.36	268.342
1456.54	155.74
1460.71	66.8789
1464.89	181.678
1469.06	352.416
1473.22	131.67
1477.39	76.1523
1481.55	317.967
1485.71	449.328
1489.86	232.31
1494.02	315.988
1498.17	156.85
1502.32	254.141
1506.46	165.352
1510.61	124.062
1514.75	220.656
1518.88	411.418
1523.02	54.9922
1527.15	81.1699
1531.28	207.44
1535.41	275.404
1539.53	3.97852
1543.66	11.4844
1547.78	0
