Measurement: Raman, 514 nm, depolarized, Raman Data Processed
Mineral: Erythrite
Rruff sample: R050073
Ideal chemistry: Co^2+^_3_(As^5+^O_4_)_2_8H_2_O
Locality: Bou Azzer, Morocco
Source: Rock Currier
Description: Crimson flattened crystals
Measured chemistry: (Co_0.65_Mg_0.35_)_3_(As_1.00_O_4_)_2_Â·8H_2_O
Pin_id: M00098
Orientation: Laser parallel to (1 0 1). Fiducial mark perpendicular to laser is parallel to b [0 1 0]
Raman shift (cm-1)	intensity
93.48	0
98.416	14.7046
103.349	509.789
108.28	2628.66
113.208	2014.83
118.134	2215.33
123.058	429.506
127.979	122.949
132.898	423.147
137.814	1989.58
142.728	4752.86
147.639	6527.39
152.549	8465.19
157.455	5308.81
162.359	2933.84
167.261	1831.42
172.161	1807.63
177.058	1867.75
181.952	1643.27
186.845	1748.36
191.734	2415.14
196.622	3784.4
201.507	5712.65
206.389	6257.16
211.269	6575.41
216.147	5049.83
221.022	3195.1
225.895	2684.12
230.765	2869.85
235.633	2801.54
240.498	2513.88
245.361	2477.89
250.222	3148
255.08	4591.62
259.936	5387.86
264.789	4976.6
269.64	3819.46
274.488	2348.96
279.334	1234.46
284.178	491.563
289.019	195.177
293.857	121.249
298.693	103.835
303.527	86.0884
308.358	17.8374
313.187	104.291
318.013	258.517
322.837	47.9502
327.659	294.582
332.478	437.194
337.294	636.862
342.108	725.546
346.92	697.198
351.729	883.246
356.535	1437.77
361.34	2157.13
366.141	2449.2
370.94	2747.88
375.737	2471.27
380.531	2119.67
385.323	1810.53
390.113	1615.95
394.9	1257.22
399.684	970.085
404.466	864.281
409.245	1005.68
414.022	1129.04
418.797	1585.62
423.569	2472.89
428.338	3618.13
433.105	5037.18
437.87	6144.42
442.632	6242.18
447.391	5684.96
452.149	5053.11
456.903	4513.7
461.655	3921.22
466.405	2732.2
471.152	1697.87
475.897	1112.76
480.639	705.034
485.378	438.783
490.116	332.007
494.85	240.71
499.582	147.888
504.312	65.5049
509.039	173.46
513.764	7.3291
518.486	96.6924
523.206	52.8613
527.923	41.9302
532.638	79.4194
537.35	23.0752
542.059	126.185
546.766	81.7803
551.471	87.8603
556.173	122.33
560.873	170.134
565.57	151.805
570.264	57.8179
574.957	75.3691
579.646	33.6157
584.333	72.5894
589.018	112.116
593.7	60.2534
598.379	90.4365
603.056	2.48633
607.73	4.80127
612.402	0.588379
617.072	60.1963
621.739	145.511
626.403	243.137
631.065	251.571
635.724	389.84
640.381	409.347
645.035	441.422
649.687	544.454
654.336	502.563
658.983	471.062
663.627	481.961
668.268	351.09
672.907	254.273
677.544	354.633
682.178	288.575
686.809	389.599
691.438	361.788
696.065	436.94
700.688	584.789
705.31	588.938
709.929	774.452
714.545	795.384
719.158	920.644
723.77	1003.83
728.378	1141.47
732.984	1238.92
737.588	1379.07
742.189	1677.45
746.787	2057
751.383	2514.76
755.976	3115.67
760.567	4068.43
765.155	5564.94
769.741	8047.23
774.324	12489.3
778.904	19942.1
783.482	31795.8
788.058	46112.3
792.631	55424.8
797.201	53121
801.769	41293.9
806.334	26949.7
810.897	17309.3
815.457	11280.6
820.014	8006.64
824.569	6083.41
829.122	4721.92
833.671	3866.85
838.219	3244.84
842.763	3046.82
847.306	3300.25
851.845	3602.32
856.382	3715.34
860.917	3070
865.448	2061.03
869.978	1277.76
874.505	949.671
879.029	761.929
883.55	641.89
888.069	556.547
892.586	608.284
897.1	730.309
901.611	553.117
906.12	635.023
910.626	560.907
915.129	444.498
919.63	430.964
924.129	244.116
928.625	196.258
933.118	241.125
937.609	112.052
942.097	146.227
946.582	108.291
951.065	67.6973
955.546	68.1773
960.023	76.8032
964.499	80.2822
968.971	87.396
973.441	117.633
977.909	65.7437
982.374	7.82959
986.836	2.94092
991.295	22.2046
995.753	53.8115
1000.21	67.6255
1004.66	8.09961
1009.11	18.9395
1013.55	5.30469
1018	45.7998
1022.44	63.4243
1026.88	32.4707
1031.32	56.2002
1035.75	8.68701
1040.18	9.2876
1044.61	18.0625
1049.04	52.5195
1053.46	102.356
1057.88	79.9204
1062.3	97.835
1066.71	187.383
1071.13	124.409
1075.54	181.082
1079.94	99.6372
1084.35	136.945
1088.75	181.55
1093.15	190.676
1097.55	120.442
1101.94	129.298
1106.34	286.238
1110.73	237.787
1115.11	317.233
1119.5	306.181
1123.88	227.176
1128.26	285.386
1132.63	173.293
1137.01	149.473
1141.38	126.949
1145.75	90.5723
1150.12	145.468
1154.48	158.406
1158.84	106.523
1163.2	157.717
1167.55	112.043
1171.91	75.9727
1176.26	46.8501
1180.61	32.6431
1184.95	67.9868
1189.29	40.9697
1193.63	144.399
1197.97	60.0723
1202.31	103.768
1206.64	71.7798
1210.97	103.629
1215.29	72.2358
1219.62	172.631
1223.94	83.0459
1228.26	116.372
1232.57	88.2602
1236.89	111.867
1241.2	153.056
1245.51	124.152
1249.81	99.833
1254.12	36.5469
1258.42	98.6807
1262.72	115.469
1267.01	114.04
1271.3	152.963
1275.59	189.906
1279.88	64.1587
1284.17	28.2617
1288.45	49.4199
1292.73	64.4849
1297.01	137.298
1301.28	1.72461
1305.55	150.247
1309.82	91.3989
1314.09	69.0327
1318.35	72.394
1322.61	4.61914
1326.87	97.8506
1331.13	77.5415
1335.38	160.685
1339.63	108.587
1343.88	126.768
1348.12	57.4307
1352.37	117.071
1356.61	105.339
1360.85	23.2871
1365.08	153.163
1369.31	162.499
1373.54	136.628
1377.77	131.001
1381.99	37.2573
1386.22	99.0195
1390.43	70.3774
1394.65	54.3262
1398.87	64.77
1403.08	143.113
1407.29	198.154
1411.49	122.606
1415.69	116.128
1419.89	68.1191
1424.09	48.8726
1428.29	79.9746
1432.48	52.6357
1436.67	48.6465
1440.86	114.144
1445.04	171.062
1449.23	73.4487
1453.4	46.3076
1457.58	81.4224
1461.76	51.8345
1465.93	84.4844
1470.1	59.4219
1474.26	42.7959
1478.43	72.6489
1482.59	47.5327
1486.75	82.8081
1490.9	77.1231
1495.06	129.107
1499.21	140.464
1503.35	54.7324
1507.5	116.778
1511.64	90.8438
1515.78	175.589
1519.92	27.4243
1524.05	150.316
1528.18	92.2353
1532.31	105.359
1536.44	43.8648
1540.56	115.276
1544.69	64.9912
1548.8	89.4048
1552.92	286.743
1557.03	143.569
1561.14	52.249
1565.25	46.3975
1569.36	35.877
