Measurement: Raman, 514 nm, depolarized, Raman Data Processed
Mineral: Euclase
Rruff sample: R050032
Ideal chemistry: BeAlSiO_4_(OH)
Locality: Minas Gerais, Brazil
Source: University of Arizona Mineral Museum
Description: Colorless crystal fragments
Measured chemistry: Be_1.00_Al_1.00_Si_1.00_O_4_(OH)
Pin_id: L00185
Orientation: Laser parallel to -c* (0 0 -1). Fiducial mark perpendicular to laser is parallel to a [1 0 0]
Raman shift (cm-1)	intensity
80.602	0
84.784	64.598
88.964	4.114
93.142	54.217
97.318	66.894
101.492	31.043
105.664	96.243
109.834	443.364
114.002	1015.44
118.168	227.178
122.332	102.576
126.495	106.351
130.655	23.377
134.813	73.34
138.97	354.46
143.124	1942.47
147.277	1531.06
151.427	302.607
155.576	135.731
159.723	36.687
163.867	46.477
168.01	19.39
172.151	221.226
176.29	1300.56
180.427	1656.12
184.562	167.777
188.696	81.147
192.827	430.061
196.956	1659.86
201.084	530.913
205.209	52.661
209.333	98.382
213.454	2.637
217.574	16.968
221.692	57.181
225.808	190.634
229.922	1411.12
234.034	4174.05
238.144	1921.83
242.252	874.614
246.359	1494.86
250.463	5001.19
254.566	25762.6
258.666	29495.1
262.765	5614.79
266.862	1640.2
270.957	996.915
275.05	1251.45
279.141	2831.52
283.23	13288.9
287.317	16751
291.403	3823.64
295.486	1277.56
299.568	672.027
303.647	1045.28
307.725	1205.4
311.801	480.903
315.875	274.164
319.947	227.609
324.018	296.419
328.086	966.664
332.153	1535.89
336.217	1888.69
340.28	740.262
344.341	143.461
348.4	75.754
352.457	205.17
356.512	118.684
360.566	65.617
364.617	36.576
368.667	189.142
372.715	467.407
376.761	1609.46
380.805	1696.05
384.847	1596.8
388.887	5367.88
392.926	22532.2
396.962	11212.6
400.997	2504.95
405.03	1015.41
409.061	563.902
413.09	379.202
417.117	713.304
421.143	2019.2
425.166	1233.91
429.188	454.449
433.208	331.847
437.226	985.108
441.242	2997.23
445.256	1084.23
449.269	1229.12
453.28	771.938
457.288	662.721
461.295	213.555
465.3	34.452
469.304	34.033
473.305	3.419
477.305	23.113
481.303	42.192
485.298	43.381
489.293	15.481
493.285	38.28
497.275	45.066
501.264	155.755
505.251	490.096
509.236	754.098
513.219	375.576
517.2	158.118
521.18	128.087
525.157	200.597
529.133	271.965
533.107	497.635
537.079	1654.48
541.05	5196.5
545.018	2836
548.985	892.234
552.95	419.799
556.913	414.689
560.875	522.256
564.834	994.628
568.792	2976.58
572.748	5681.97
576.702	2931.07
580.654	3089.91
584.605	2138.59
588.553	787.112
592.5	498.488
596.445	934.714
600.389	2045.79
604.33	1267.72
608.27	480.506
612.208	245.144
616.144	213.636
620.078	151.982
624.011	171.68
627.941	126.457
631.87	199.938
635.798	464.025
639.723	825.072
643.647	1404.72
647.568	1102.03
651.488	742.822
655.407	521.694
659.323	353.686
663.238	355.557
667.151	224.321
671.062	115.972
674.971	92.499
678.879	35.835
682.785	62.093
686.689	43.3
690.591	21.178
694.491	0.369
698.39	31.855
702.287	76.492
706.182	69.497
710.076	73.157
713.968	6.373
717.857	45.173
721.746	4.304
725.632	43.642
729.517	62.816
733.4	109.16
737.281	164.431
741.16	348.638
745.038	760.786
748.913	782.882
752.788	1140.93
756.66	1479.94
760.531	641.908
764.399	228.847
768.267	91.761
772.132	162.654
775.996	155.445
779.857	243.125
783.718	430.915
787.576	1007.82
791.433	1328.77
795.288	1035.82
799.141	957.943
802.992	931.171
806.842	736.468
810.69	497.815
814.536	342.203
818.381	277.634
822.223	67.11
826.065	94.612
829.904	84.134
833.741	159.152
837.577	158.362
841.412	232.545
845.244	255.899
849.075	223.646
852.904	415.017
856.731	640.796
860.556	915.896
864.38	1361.31
868.202	2299.29
872.023	4775.75
875.842	12335.4
879.658	27861.5
883.474	16899.9
887.287	7440.27
891.099	5178.02
894.909	4748.99
898.718	6841.21
902.524	14194.7
906.329	27836.4
910.133	23538.4
913.934	11760.6
917.734	5882.05
921.532	3420.74
925.329	2377.67
929.124	1623.85
932.917	1242.28
936.708	766.993
940.498	615.935
944.286	514.104
948.072	466.531
951.857	474.189
955.64	406.078
959.421	428.197
963.201	721.561
966.979	1602.16
970.755	3857.99
974.529	3502.04
978.302	1799.32
982.073	687.823
985.843	277.612
989.611	62.702
993.377	7.119
997.141	62.818
1000.9	70.824
1004.66	24.186
1008.42	37.104
1012.18	32.925
1015.94	238.257
1019.69	809.85
1023.45	888.757
1027.2	458.275
1030.95	202.104
1034.69	194.792
1038.44	320.844
1042.18	582.359
1045.93	967.615
1049.67	1808.26
1053.41	3377.98
1057.14	6197.75
1060.88	6573.31
1064.62	3630.57
1068.35	1798.61
1072.08	1081.68
1075.81	669.602
1079.54	432.328
1083.26	373.731
1086.99	273.047
1090.71	328.209
1094.43	391.427
1098.15	539.758
1101.87	723.715
1105.59	909.968
1109.3	1141.65
1113.01	1405.01
1116.72	1833.91
1120.43	2059.68
1124.14	2220.52
1127.85	1749.59
1131.55	1379.76
1135.26	937.093
1138.96	551.691
1142.66	426.703
1146.36	272.927
1150.05	282.987
1153.75	244.521
1157.44	181.758
1161.13	128.295
1164.82	55.599
1168.51	18.266
1172.2	15.282
1175.88	42.638
1179.57	94.626
1183.25	75.357
1186.93	80.611
1190.61	1.81
1194.28	62.867
1197.96	25.126
1201.63	9.851
1205.31	15.11
1208.98	26.207
1212.64	40.946
1216.31	100.025
1219.98	40.587
1223.64	39.959
1227.31	67.68
1230.97	46.57
1234.62	54.17
1238.28	122.042
1241.94	141.58
1245.59	88.917
1249.25	86.103
1252.9	27.392
1256.55	11.192
1260.2	16.51
1263.84	37.785
1267.49	87.147
1271.13	183.401
1274.77	202.423
1278.41	210.361
1282.05	213.457
1285.69	55.058
1289.32	68.463
1292.96	71.971
1296.59	75.122
1300.22	123.117
1303.85	190.989
1307.48	180.788
1311.1	133.304
1314.72	188.67
1318.35	90.854
1321.97	47.581
1325.59	51.977
1329.21	88.61
1332.82	99.873
1336.44	137.313
1340.05	187.801
1343.66	170.755
1347.27	196.725
1350.88	87.453
1354.49	72.389
1358.09	28.538
1361.7	50.924
1365.3	94.449
1368.9	159.95
1372.5	153.103
1376.1	111.395
1379.69	147.417
1383.29	154.169
1386.88	120.3
1390.47	41.824
1394.06	6.203
1397.65	7.467
1401.23	50.643
1404.82	106.934
1408.4	137.823
1411.98	176.508
1415.56	154.861
1419.14	172.072
1422.72	144.274
1426.3	119.271
1429.87	91.113
1433.44	23.474
1437.01	66.608
1440.58	122.408
1444.15	177.381
1447.71	297.823
1451.28	268.601
1454.84	229.779
1458.4	261.43
1461.96	251.926
1465.52	122.143
1469.08	85.979
1472.64	101.869
1476.19	42.596
1479.74	4.762
1483.29	87.35
1486.84	136.854
1490.39	178.69
1493.94	162.439
1497.48	234.112
1501.02	188.633
1504.57	154.29
1508.11	130.315
1511.64	39.701
1515.18	72.429
1518.72	1.866
1522.25	0
