Measurement: Raman, 514 nm, depolarized, Raman Data Processed
Mineral: Euclase
Rruff sample: R050032
Ideal chemistry: BeAlSiO_4_(OH)
Locality: Minas Gerais, Brazil
Source: University of Arizona Mineral Museum
Description: Colorless crystal fragments
Measured chemistry: Be_1.00_Al_1.00_Si_1.00_O_4_(OH)
Pin_id: L00259
Orientation: Laser parallel to a* (1 0 0). Fiducial mark perpendicular to laser is parallel to -b [0 -1 0]
Raman shift (cm-1)	intensity
51.274	0
55.47	121.452
59.664	333.545
63.855	595.629
68.045	608.548
72.233	1316.55
76.418	1813.8
80.602	2024.92
84.784	1797.8
88.964	1082.47
93.142	884.71
97.318	544.83
101.492	274.446
105.664	393.644
109.834	550.234
114.002	480.045
118.168	197.294
122.332	97.088
126.495	11.367
130.655	1.567
134.813	64.836
138.97	353.634
143.124	1548.75
147.277	1310.9
151.427	175.181
155.576	19.839
159.723	92.812
163.867	2.396
168.01	165.814
172.151	2488.31
176.29	9262.37
180.427	3558.28
184.562	414.028
188.696	13.486
192.827	365.517
196.956	1370.29
201.084	574.161
205.209	29.579
209.333	89.629
213.454	99.508
217.574	31.908
221.692	61.901
225.808	440.998
229.922	2848.69
234.034	8897.62
238.144	4658.01
242.252	1627.38
246.359	2301.67
250.463	7159.3
254.566	30293
258.666	33075.2
262.765	7593.73
266.862	2645.55
270.957	2593.68
275.05	3352.19
279.141	3468.71
283.23	12308.2
287.317	16582.7
291.403	4727.78
295.486	1670.97
299.568	847.118
303.647	586.565
307.725	472.502
311.801	443.777
315.875	431.492
319.947	275.528
324.018	280.441
328.086	333.87
332.153	613.111
336.217	1325.09
340.28	633.246
344.341	125.181
348.4	17.32
352.457	103.088
356.512	161.765
360.566	204.889
364.617	240.692
368.667	482.567
372.715	939.904
376.761	2317.35
380.805	2991.92
384.847	2709.04
388.887	6777.44
392.926	22855.9
396.962	15274.9
400.997	3781.3
405.03	1339.28
409.061	646.917
413.09	476.22
417.117	740.19
421.143	1742.86
425.166	1227.27
429.188	463.47
433.208	613.518
437.226	2571.45
441.242	7762.02
445.256	4585.06
449.269	2808.86
453.28	2865.76
457.288	3094.11
461.295	1713.2
465.3	644.254
469.304	355.471
473.305	238.969
477.305	156.004
481.303	62.127
485.298	86.075
489.293	185.615
493.285	148.391
497.275	105.727
501.264	238.982
505.251	634.102
509.236	911.603
513.219	379.795
517.2	41.092
521.18	78.094
525.157	29.448
529.133	99.613
533.107	298.898
537.079	1098.64
541.05	3425.64
545.018	2526.08
548.985	840.078
552.95	362.689
556.913	406.034
560.875	689.805
564.834	1349.15
568.792	3172.24
572.748	5266.06
576.702	2760.66
580.654	1813.73
584.605	1294.71
588.553	551.584
592.5	500.364
596.445	1088.05
600.389	2787.63
604.33	2262.12
608.27	764.513
612.208	231.804
616.144	119.989
620.078	92.675
624.011	36.613
627.941	92.354
631.87	236.98
635.798	745.427
639.723	1493.17
643.647	1258.12
647.568	643.427
651.488	479.623
655.407	360.483
659.323	286.715
663.238	404.547
667.151	219.76
671.062	65.873
674.971	79.803
678.879	0.52
682.785	63.707
686.689	107.24
690.591	1.709
694.491	37.431
698.39	0.377
702.287	27.286
706.182	27.346
710.076	11.324
713.968	32.802
717.857	9.95
721.746	88.98
725.632	40.382
729.517	24.976
733.4	70.186
737.281	159.267
741.16	311.252
745.038	710.146
748.913	737.953
752.788	834.678
756.66	896.623
760.531	524.897
764.399	156.4
768.267	26.839
772.132	13.916
775.996	46.315
779.857	27.483
783.718	30.294
787.576	134.377
791.433	295.48
795.288	239.56
799.141	180.619
802.992	152.66
806.842	104.682
810.69	72.696
814.536	78.698
818.381	110.69
822.223	33.673
826.065	53.639
829.904	58.925
833.741	65.201
837.577	163.753
841.412	210.779
845.244	215.4
849.075	200.275
852.904	338.636
856.731	572.962
860.556	811.485
864.38	1265.62
868.202	1990.42
872.023	3879.74
875.842	8821.43
879.658	17885.3
883.474	12353.7
887.287	6321.21
891.099	5178.31
894.909	5369.66
898.718	8523.24
902.524	17344
906.329	34745
910.133	34446.2
913.934	18837.7
917.734	9489.38
921.532	5602.26
925.329	4031.36
929.124	3286.07
932.917	2639.65
936.708	1733.53
940.498	1198.61
944.286	916.904
948.072	877.405
951.857	764.15
955.64	709.114
959.421	618.293
963.201	839.687
966.979	1414.01
970.755	2976.84
974.529	3994.44
978.302	4227.7
982.073	2386.22
985.843	1078.06
989.611	570.541
993.377	386.23
997.141	395.43
1000.9	436.589
1004.66	525.523
1008.42	729.94
1012.18	1028.16
1015.94	1772.59
1019.69	3979.47
1023.45	5282.98
1027.2	3341.54
1030.95	1933.82
1034.69	1560.57
1038.44	1428.98
1042.18	1757.09
1045.93	2496.39
1049.67	3861.13
1053.41	6901.84
1057.14	12463.2
1060.88	15787.7
1064.62	10315.7
1068.35	5368.55
1072.08	3168.07
1075.81	2057.43
1079.54	1319.74
1083.26	939.812
1086.99	575.878
1090.71	498.724
1094.43	387.618
1098.15	371.917
1101.87	358.531
1105.59	362.993
1109.3	249.883
1113.01	184.235
1116.72	135.42
1120.43	164.373
1124.14	264.483
1127.85	244.528
1131.55	184.402
1135.26	146.918
1138.96	90.174
1142.66	3.844
1146.36	25.687
1150.05	13.648
1153.75	22.596
1157.44	82.942
1161.13	26.776
1164.82	1.344
1168.51	69.838
1172.2	82.13
1175.88	12.9
1179.57	17.229
1183.25	60.094
1186.93	63.856
1190.61	12.244
1194.28	6.738
1197.96	61.928
1201.63	14.927
1205.31	19.487
1208.98	26.103
1212.64	100.981
1216.31	100.472
1219.98	40.535
1223.64	8.456
1227.31	20.979
1230.97	1.072
1234.62	35.904
1238.28	88.69
1241.94	124.85
1245.59	137.285
1249.25	105.969
1252.9	94.153
1256.55	43.327
1260.2	23.262
1263.84	88.3
1267.49	102.877
1271.13	148.064
1274.77	209.02
1278.41	277.491
1282.05	262.723
1285.69	99.873
1289.32	44.01
1292.96	124.408
1296.59	2.916
1300.22	110.779
1303.85	137.064
1307.48	182.662
1311.1	143.977
1314.72	183.113
1318.35	170.584
1321.97	98.182
1325.59	80.965
1329.21	70.392
1332.82	45.116
1336.44	78.112
1340.05	122.696
1343.66	143.634
1347.27	124.473
1350.88	175.091
1354.49	89.135
1358.09	18.831
1361.7	32.013
1365.3	27.845
1368.9	93.504
1372.5	62.351
1376.1	27.419
1379.69	162.898
1383.29	159.649
1386.88	172.443
1390.47	109.759
1394.06	41.655
1397.65	25.011
1401.23	30.252
1404.82	16.397
1408.4	151.48
1411.98	81.49
1415.56	172.72
1419.14	240.643
1422.72	154.471
1426.3	136.563
1429.87	61.226
1433.44	17.937
1437.01	46.069
1440.58	44.592
1444.15	140.581
1447.71	108.038
1451.28	179.074
1454.84	113
1458.4	274.94
1461.96	230.761
1465.52	222.556
1469.08	115.322
1472.64	77.828
1476.19	13.073
1479.74	6.685
1483.29	1.353
1486.84	26.849
1490.39	135.95
1493.94	122.155
1497.48	180.247
1501.02	155.381
1504.57	138.13
1508.11	118.681
1511.64	124.806
1515.18	88.675
1518.72	11.05
1522.25	0
