Measurement: Raman, 514 nm, depolarized, Raman Data Processed
Mineral: Euclase
Rruff sample: R050032
Ideal chemistry: BeAlSiO_4_(OH)
Locality: Minas Gerais, Brazil
Source: University of Arizona Mineral Museum
Description: Colorless crystal fragments
Measured chemistry: Be_1.00_Al_1.00_Si_1.00_O_4_(OH)
Pin_id: L00411
Orientation: Laser parallel to (-1 0 -1). Fiducial mark perpendicular to laser is parallel to -b [0 -1 0]
Raman shift (cm-1)	intensity
93.142	0
97.318	54.202
101.492	4.464
105.664	12.504
109.834	221.998
114.002	266.41
118.168	231.434
122.332	45.759
126.495	45.08
130.655	68.714
134.813	170.171
138.97	232.422
143.124	1328.5
147.277	2238.59
151.427	444.291
155.576	156.912
159.723	52.171
163.867	25.278
168.01	33.365
172.151	824.997
176.29	3539.3
180.427	2570.09
184.562	317.199
188.696	50.964
192.827	552.799
196.956	2091.19
201.084	1483.21
205.209	243.402
209.333	44.918
213.454	119.116
217.574	634.099
221.692	33.003
225.808	61.383
229.922	1254.77
234.034	7631.85
238.144	5016.09
242.252	1190.63
246.359	1080.83
250.463	3257.97
254.566	16569
258.666	32394.3
262.765	8476.83
266.862	2058.27
270.957	1370.6
275.05	1987.66
279.141	2165.16
283.23	8843.34
287.317	18535.8
291.403	5713.4
295.486	1515.73
299.568	709.973
303.647	583.933
307.725	806.039
311.801	415.41
315.875	203.268
319.947	129.384
324.018	147.009
328.086	602.039
332.153	1239.05
336.217	1422.21
340.28	909.408
344.341	232.208
348.4	390.493
352.457	1124.33
356.512	505.584
360.566	165.588
364.617	144.22
368.667	170.859
372.715	362.249
376.761	890.305
380.805	1825.58
384.847	1864.7
388.887	4645.21
392.926	17987.7
396.962	18181.8
400.997	4211.98
405.03	1211.11
409.061	580.196
413.09	388.239
417.117	529.196
421.143	1209.01
425.166	1233.41
429.188	499.41
433.208	508.056
437.226	1863.39
441.242	9469.43
445.256	4641.21
449.269	1130.76
453.28	481.162
457.288	293.423
461.295	205.615
465.3	346.923
469.304	394.029
473.305	83.383
477.305	17.35
481.303	35.848
485.298	71.945
489.293	0.142
493.285	29.328
497.275	62.657
501.264	105.785
505.251	433.419
509.236	606.277
513.219	438.476
517.2	184.118
521.18	83.222
525.157	104.198
529.133	175.825
533.107	372.803
537.079	1050.03
541.05	3430.12
545.018	3322.7
548.985	1200.51
552.95	517.467
556.913	394.024
560.875	536.472
564.834	835.26
568.792	1778.65
572.748	2845.7
576.702	2145.61
580.654	2472.31
584.605	2622.79
588.553	1202.07
592.5	736.172
596.445	1085.08
600.389	2691.81
604.33	2704.36
608.27	1111.73
612.208	445.917
616.144	274.931
620.078	197.671
624.011	172.499
627.941	207.289
631.87	219.801
635.798	512.408
639.723	1198.98
643.647	1595.48
647.568	1222.67
651.488	799.205
655.407	594.347
659.323	318.109
663.238	207.217
667.151	79.3
671.062	32.235
674.971	69.994
678.879	23.914
682.785	22.339
686.689	6.765
690.591	83.912
694.491	67.491
698.39	11.492
702.287	10.913
706.182	9.733
710.076	57.88
713.968	40.373
717.857	30.834
721.746	23.801
725.632	9.548
729.517	59.126
733.4	51.6
737.281	178.98
741.16	510.274
745.038	1115.49
748.913	1088.62
752.788	835.69
756.66	1050.69
760.531	683.632
764.399	315.517
768.267	133.352
772.132	70.142
775.996	42.825
779.857	102.134
783.718	141.601
787.576	170.308
791.433	256.108
795.288	372.942
799.141	528.868
802.992	788.855
806.842	740.877
810.69	457.934
814.536	320.018
818.381	273.117
822.223	207.973
826.065	158.439
829.904	159.766
833.741	143.393
837.577	178.187
841.412	266.209
845.244	447.415
849.075	427.545
852.904	515.896
856.731	737.659
860.556	999.798
864.38	1668.63
868.202	2821.91
872.023	5236.39
875.842	12155.2
879.658	29500.1
883.474	25078.9
887.287	11208.4
891.099	7268.21
894.909	5639.16
898.718	6620.3
902.524	11938.7
906.329	25609.2
910.133	28970
913.934	16240.9
917.734	8052.05
921.532	4459.38
925.329	2861.86
929.124	2171.52
932.917	1668.36
936.708	1212.36
940.498	887.536
944.286	631.889
948.072	527.42
951.857	426.123
955.64	418.995
959.421	502.053
963.201	539.286
966.979	882.684
970.755	1944.25
974.529	2389.99
978.302	1545.89
982.073	800.978
985.843	317.273
989.611	54.821
993.377	13.218
997.141	52.306
1000.9	61.949
1004.66	31.653
1008.42	64.528
1012.18	39.698
1015.94	104.153
1019.69	382.601
1023.45	698.458
1027.2	488.643
1030.95	277.062
1034.69	180.866
1038.44	195.55
1042.18	300.949
1045.93	487.027
1049.67	934.676
1053.41	1912.41
1057.14	3752.18
1060.88	5052.65
1064.62	3206.58
1068.35	1479.43
1072.08	828.286
1075.81	555.417
1079.54	420.092
1083.26	364.28
1086.99	211.462
1090.71	236.927
1094.43	256.205
1098.15	260.773
1101.87	426.992
1105.59	603.773
1109.3	888.624
1113.01	1074.35
1116.72	1320.1
1120.43	1444.31
1124.14	1517.16
1127.85	1375.29
1131.55	1053.35
1135.26	794.836
1138.96	562.712
1142.66	369.306
1146.36	195.402
1150.05	102.468
1153.75	113.469
1157.44	91.917
1161.13	70.819
1164.82	108.359
1168.51	92.55
1172.2	10.454
1175.88	11.35
1179.57	65.654
1183.25	32.89
1186.93	22.553
1190.61	47.654
1194.28	67.416
1197.96	12.85
1201.63	2.91
1205.31	28.388
1208.98	33.739
1212.64	1.379
1216.31	23.811
1219.98	58.865
1223.64	114.761
1227.31	23.654
1230.97	36.812
1234.62	2.165
1238.28	6.882
1241.94	5.177
1245.59	26.05
1249.25	96.145
1252.9	161.916
1256.55	150.991
1260.2	54.244
1263.84	33.199
1267.49	40.227
1271.13	48.269
1274.77	91.894
1278.41	108.419
1282.05	215.519
1285.69	195.498
1289.32	177.27
1292.96	137.998
1296.59	65.342
1300.22	60.708
1303.85	6.833
1307.48	33.784
1311.1	36.416
1314.72	134.146
1318.35	112.852
1321.97	102.697
1325.59	113.297
1329.21	55.624
1332.82	32.579
1336.44	52.145
1340.05	94.175
1343.66	87.473
1347.27	92.407
1350.88	153.613
1354.49	153.064
1358.09	75.041
1361.7	127.191
1365.3	37.368
1368.9	22.361
1372.5	35.402
1376.1	16.043
1379.69	79.825
1383.29	116.712
1386.88	155.604
1390.47	152.187
1394.06	172.42
1397.65	150.508
1401.23	85.922
1404.82	5.165
1408.4	58.787
1411.98	25.083
1415.56	107.928
1419.14	110.807
1422.72	173.456
1426.3	201.2
1429.87	183.632
1433.44	121.618
1437.01	147.386
1440.58	78.848
1444.15	52.212
1447.71	43.421
1451.28	72.244
1454.84	56.1
1458.4	160.463
1461.96	153.312
1465.52	179.473
1469.08	183.074
1472.64	221.792
1476.19	181.363
1479.74	82.311
1483.29	138.509
1486.84	28.044
1490.39	92.225
1493.94	42.116
1497.48	78.417
1501.02	141.397
1504.57	183.423
1508.11	223.887
1511.64	238.588
1515.18	203.023
1518.72	158.57
