Measurement: Raman, 785 nm, depolarized, Raman Data Processed
Mineral: Euclase
Rruff sample: R050032
Ideal chemistry: BeAlSiO_4_(OH)
Locality: Minas Gerais, Brazil
Source: University of Arizona Mineral Museum
Description: Colorless crystal fragments
Measured chemistry: Be_1.00_Al_1.00_Si_1.00_O_4_(OH)
Pin_id: L00356
Orientation: Laser parallel to b* (0 1 0). Fiducial mark perpendicular to laser is parallel to c [0 0 1]
Raman shift (cm-1)	intensity
90.357	0
94.534	159.965
98.709	61.096
102.883	30.233
107.054	55.226
111.223	252.704
115.391	439.759
119.556	197.932
123.72	200.077
127.882	39.077
132.041	200.192
136.199	186.372
140.355	310.965
144.509	1494.39
148.66	608.819
152.81	347.528
156.958	230.925
161.105	158.655
165.249	73.191
169.391	53.27
173.531	110.171
177.669	1593.83
181.806	2460.5
185.94	72.427
190.073	27.177
194.204	39.587
198.332	46.898
202.459	31.062
206.584	79.857
210.707	11.465
214.828	16.792
218.947	9.745
223.064	68.167
227.179	360.265
231.293	1921.76
235.404	15850.5
239.514	1927.07
243.621	841.963
247.727	1136.64
251.831	3073.2
255.933	24699
260.033	18689.9
264.131	2612.1
268.227	838.852
272.321	570.768
276.413	537.115
280.504	968.498
284.592	5797.43
288.679	5533.52
292.764	1150.75
296.847	548.944
300.928	346.144
305.007	371.583
309.084	328.865
313.159	228.958
317.233	216.214
321.304	263.342
325.374	232.157
329.442	146.544
333.508	404.346
337.572	252.397
341.634	218.35
345.694	231.967
349.753	1009.04
353.809	1799.08
357.864	494.383
361.916	293.434
365.967	231.919
370.016	377.169
374.064	921.174
378.109	3120.88
382.152	3913.84
386.194	1345.66
390.233	2308.48
394.271	11935.4
398.307	3492.41
402.341	826.745
406.374	351.57
410.404	187.363
414.433	175.077
418.459	372.585
422.484	821.302
426.507	313.23
430.528	193.47
434.547	513.266
438.565	2575.47
442.58	5262.63
446.594	2222
450.606	2253.79
454.616	2043.29
458.624	999.226
462.631	459.177
466.635	278.739
470.638	231.785
474.639	147.555
478.638	40.948
482.635	45.425
486.63	98.583
490.624	131.396
494.615	138.007
498.605	208.981
502.593	538.515
506.579	1287.21
510.564	1484.7
514.546	504.164
518.527	131.48
522.506	80.587
526.483	29.794
530.458	21.299
534.431	51.027
538.403	192.247
542.373	647.074
546.341	167.113
550.307	51.4
554.271	30.333
558.234	97.498
562.195	253.878
566.154	451.335
570.111	1830.79
574.066	2988.53
578.019	1560.53
581.971	2459.24
585.921	1534.78
589.869	614.398
593.815	535.627
597.76	897.729
601.703	1722.7
605.644	776.53
609.583	279.228
613.52	160.796
617.455	153.236
621.389	79.573
625.321	62.82
629.251	142.895
633.18	186.193
637.106	250.888
641.031	567.272
644.954	1053.75
648.875	737.459
652.795	483.515
656.712	227.254
660.628	97.93
664.542	27.544
668.455	54.048
672.365	35.407
676.274	32.526
680.181	34.241
684.086	63.088
687.99	15.087
691.891	21.229
695.791	24.426
699.689	11.599
703.586	24.463
707.48	2.311
711.373	43.874
715.264	53.37
719.154	30.608
723.041	63.924
726.927	8.471
730.811	31.674
734.693	87.705
738.574	499.628
742.453	89.472
746.33	282.249
750.205	706.961
754.079	1795.61
757.95	2126.19
761.82	822.717
765.689	382.189
769.555	265.61
773.42	255.797
777.283	226.596
781.144	262.385
785.004	591.513
788.862	1336.63
792.718	1201.84
796.572	536.049
800.425	225.25
804.276	139.445
808.125	107.635
811.972	81.81
815.818	109.914
819.662	78.698
823.504	87.637
827.345	74.869
831.183	136.493
835.02	171.104
838.856	192.999
842.689	207.997
846.521	238.729
850.351	347.901
854.18	550.549
858.006	678.555
861.831	941.357
865.655	1366.8
869.476	2397.76
873.296	5230.38
877.114	14847.5
880.93	29598.7
884.745	13149.1
888.558	4714.15
892.369	2794.83
896.179	2749.66
899.987	4183.63
903.793	8460.75
907.597	15106
911.4	10971.5
915.201	5388.06
919.001	2995.77
922.798	1901.62
926.594	1222.62
930.388	863.787
934.181	587.114
937.972	423.59
941.761	390.212
945.548	341.002
949.334	315.947
953.118	180.042
956.901	94.288
960.681	115.697
964.46	275.266
968.238	635.988
972.013	1338.88
975.787	921.948
979.56	363.186
983.33	175.619
987.099	93.623
990.866	112.494
994.632	98.537
998.396	155.6
1002.16	204.933
1005.92	295.165
1009.68	481.303
1013.43	1106.85
1017.19	2693.07
1020.94	5854.21
1024.7	5558.41
1028.45	2853.88
1032.19	1660.2
1035.94	1399.45
1039.69	1442.08
1043.43	1744.33
1047.17	2308.7
1050.91	3547.02
1054.65	6453.18
1058.39	11540.6
1062.13	10693.6
1065.86	5777.63
1069.59	3021.72
1073.32	1753.7
1077.05	1051.22
1080.78	641.199
1084.5	459.691
1088.23	329.271
1091.95	331.138
1095.67	316.585
1099.39	256.57
1103.11	190.407
1106.82	96.466
1110.54	12.719
1114.25	67.948
1117.96	79.063
1121.67	171.878
1125.38	268.068
1129.08	49.62
1132.79	15.834
1136.49	24.259
1140.19	6.439
1143.89	26.075
1147.59	2.647
1151.28	77.125
1154.98	67.776
1158.67	23.984
1162.36	33.625
1166.05	24.187
1169.74	45.189
1173.43	6.713
1177.11	32.167
1180.79	119.856
1184.47	45.62
1188.15	28.444
1191.83	10.058
1195.51	25.293
1199.18	19.593
1202.86	25.373
1206.53	97.476
1210.2	72.355
1213.87	68.724
1217.54	43.308
1221.2	24.761
1224.86	23.914
1228.53	55.17
1232.19	57.57
1235.85	104.934
1239.5	105.968
1243.16	97.635
1246.81	58.549
1250.46	46.086
1254.12	5.562
1257.76	35.994
1261.41	46.217
1265.06	73.363
1268.7	133.483
1272.34	142.312
1275.99	114.887
1279.62	79.045
1283.26	72.846
1286.9	48.759
1290.53	22.88
1294.17	105.898
1297.8	109.881
1301.43	94.919
1305.06	97.119
1308.68	38.416
1312.31	3.915
1315.93	64.301
1319.56	15.386
1323.18	5.823
1326.8	39.465
1330.41	7.803
1334.03	115.658
1337.64	67.505
1341.26	76.195
1344.87	76.947
1348.47	44.573
1352.08	22.366
1355.69	17.557
1359.29	27.434
1362.9	45.356
1366.5	108.447
1370.1	153.428
1373.7	76.184
1377.29	57.085
1380.89	94.34
1384.48	60.656
1388.08	11.807
1391.67	46.262
1395.26	54.931
1398.84	46.582
1402.43	100.175
1406.01	105.947
1409.6	118.145
1413.18	170.286
1416.76	147.295
1420.34	73.298
1423.91	8.031
1427.49	71.61
1431.06	61.133
1434.63	85.266
1438.2	61.218
1441.77	111.047
1445.34	170.144
1448.9	182.608
1452.47	298.588
1456.03	222.321
1459.59	98.246
1463.15	69.506
1466.71	36.978
1470.27	57.811
1473.82	78.277
1477.37	66.867
1480.93	86.826
1484.48	107.321
1488.03	159.5
1491.57	126.917
1495.12	98.625
1498.66	126.956
1502.2	63.386
1505.75	8.167
1509.29	40.403
1512.82	37.246
1516.36	21.091
1519.89	0.53
