Measurement: Raman, 514 nm, depolarized, Raman Data Processed
Mineral: Eudialyte
Rruff sample: R050230
Ideal chemistry: Na_15_Ca_6_Fe^2+^_3_Zr^4+^_3_Si(Si_25_O_73_)(O,OH,H_2_O)_3_(Cl,OH)_2_
Locality: Kipawa alkaline complex, near Sheffield Lake, Villedieu Township, Temiscamingue County, Quebec, Canada
Source: Marcus Origlieri
Description: Massive aggregate of red crystals
Measured chemistry: (Na_14.50_K_0.35_Ca_0.15_)_Σ=15_Ca_6.00_(Fe_1.86_Mn_1.01_Mg_0.13_)_Σ=3_(Zr_2.91_Ti_0.09_)_3_(Si_0.94_Nb_0.06_)_Σ=1.00_(Si_25.00_O_73_)(OH)_1.10_(H_2_O)_1.90_)_Σ=3_(Cl_1.17_(OH)_0.83_)_Σ=2_
Pin_id: M00176
Orientation: Laser parallel to a* (1 0 0). Fiducial mark perpendicular to laser is parallel to c [0 0 1]
Raman shift (cm-1)	intensity
118.134	0
123.058	40.8809
127.979	405.445
132.898	1688.82
137.814	2985.14
142.728	3575.34
147.639	3396.99
152.549	2417.96
157.455	1461.89
162.359	1340.78
167.261	975.686
172.161	290.562
177.058	186.91
181.952	595.061
186.845	1401.22
191.734	2643.96
196.622	3739.76
201.507	4736.1
206.389	5179.15
211.269	5532.55
216.147	5155.79
221.022	4037.81
225.895	2636.14
230.765	1206.66
235.633	535.031
240.498	340.826
245.361	575.779
250.222	1032.73
255.08	1571.63
259.936	2136.41
264.789	2315.33
269.64	2771.19
274.488	3496.36
279.334	4725.89
284.178	4953.1
289.019	5327.89
293.857	5735.49
298.693	5704.92
303.527	5627.42
308.358	5967.77
313.187	6124.77
318.013	6857.68
322.837	7310.86
327.659	7821.18
332.478	8842.7
337.294	10122.2
342.108	10362.6
346.92	9050.9
351.729	7848.62
356.535	6890.23
361.34	5745.25
366.141	4958.16
370.94	3811.67
375.737	3208.49
380.531	2643.42
385.323	2659.36
390.113	2893.32
394.9	3280.28
399.684	3502.26
404.466	3713.26
409.245	3310.35
414.022	3008.18
418.797	2837.79
423.569	2370.38
428.338	1742.75
433.105	1365.97
437.87	866.625
442.632	695.652
447.391	130.875
452.149	189.991
456.903	122.497
461.655	164.138
466.405	225.059
471.152	540.062
475.897	430.313
480.639	439.552
485.378	176.965
490.116	168.023
494.85	278.721
499.582	763.069
504.312	1303.4
509.039	1798.91
513.764	2029.63
518.486	2166.56
523.206	2364.71
527.923	2897.08
532.638	3210.69
537.35	4127.55
542.059	5584.75
546.766	7751.39
551.471	10875
556.173	14512.8
560.873	18021.5
565.57	20412.5
570.264	20598.6
574.957	16577.1
579.646	10393.6
584.333	6746.67
589.018	5580.31
593.7	6068.02
598.379	7135.61
603.056	8320.58
607.73	8328.29
612.402	7078.7
617.072	5358.04
621.739	4265.19
626.403	3876.61
631.065	3757.29
635.724	3311.61
640.381	3181.58
645.035	3307.21
649.687	3822.47
654.336	4705.62
658.983	5515.24
663.627	7002.43
668.268	8032.7
672.907	9968.37
677.544	11157.4
682.178	12821.3
686.809	14393
691.438	16133.5
696.065	17744.7
700.688	18824.4
705.31	18137.4
709.929	15469.3
714.545	11850.3
719.158	9707.19
723.77	9479.27
728.378	9980.25
732.984	11168.2
737.588	12136.7
742.189	12906.5
746.787	12864.3
751.383	11659.5
755.976	10567.5
760.567	9810.64
765.155	8743.4
769.741	7786.51
774.324	6821.04
778.904	5751.3
783.482	5049.12
788.058	4172.43
792.631	3262.22
797.201	2541.51
801.769	1991.3
806.334	1633.6
810.897	1219.43
815.457	829.773
820.014	700.49
824.569	352.287
829.122	13.2266
833.671	29.4551
838.219	138.848
842.763	460.998
847.306	497.234
851.845	504.072
856.382	493.6
860.917	419.297
865.448	446.316
869.978	263.732
874.505	173.992
879.029	19.4141
883.55	73.8184
888.069	192.191
892.586	436.01
897.1	1302.77
901.611	2000.58
906.12	2854.56
910.626	3398.86
915.129	4143.62
919.63	5132.02
924.129	6202.22
928.625	6431.4
933.118	6451.72
937.609	6294.38
942.097	6438.53
946.582	6941.15
951.065	6878.04
955.546	7088.72
960.023	6443.36
964.499	5604.16
968.971	5257.38
973.441	5156.94
977.909	4783.91
982.374	5251.71
986.836	5469.09
991.295	5948.81
995.753	6768.65
1000.21	7391.79
1004.66	6832.89
1009.11	6008.31
1013.55	5339.25
1018	5209.68
1022.44	5076.15
1026.88	4943.17
1031.32	5387.95
1035.75	5491.69
1040.18	6047.63
1044.61	6688.01
1049.04	7919.01
1053.46	9588.72
1057.88	12102.2
1062.3	14897.7
1066.71	17164.1
1071.13	17031.7
1075.54	17798.5
1079.94	18848.7
1084.35	19845.5
1088.75	19686
1093.15	16665.8
1097.55	13442.7
1101.94	9987.17
1106.34	7768.09
1110.73	6118.25
1115.11	5052.46
1119.5	4652.77
1123.88	4705.2
1128.26	4732.48
1132.63	3899.23
1137.01	2015.38
1141.38	593.547
1145.75	343.115
1150.12	312.215
1154.48	1420.63
1158.84	3626.98
1163.2	6236.19
1167.55	9100.61
1171.91	10455.6
1176.26	10584.7
1180.61	10101.2
1184.95	9300.59
1189.29	8806.46
1193.63	7914.18
1197.97	6334.85
1202.31	4958.95
1206.64	3310.04
1210.97	2028.34
1215.29	1345.69
1219.62	889.387
1223.94	1098.51
1228.26	1179.65
1232.57	1352.03
1236.89	1438.49
1241.2	1532.16
1245.51	1203.38
1249.81	909.773
1254.12	743.238
1258.42	924.539
1262.72	1147.84
1267.01	1515.5
1271.3	1337.23
1275.59	1156.15
1279.88	812.26
1284.17	573.668
1288.45	227.162
1292.73	86.9023
1297.01	70.9043
1301.28	63.8516
1305.55	20.5625
1309.82	55.0078
1314.09	16.9453
1318.35	68.0195
1322.61	42.4434
1326.87	140.92
1331.13	123.674
1335.38	110.852
1339.63	69.1641
1343.88	9.71484
1348.12	40.3047
1352.37	138.844
1356.61	192.57
1360.85	281.394
1365.08	24.666
1369.31	150.772
1373.54	36.5059
1377.77	88.8769
1381.99	45.0547
1386.22	65.3691
1390.43	16.2734
1394.65	86.7266
1398.87	102.846
1403.08	168.949
1407.29	199.795
1411.49	453.717
1415.69	901.42
1419.89	1331.9
1424.09	1408.68
1428.29	1828.12
1432.48	2507.5
1436.67	3290.47
1440.86	4007.36
1445.04	4541.09
1449.23	5300.71
1453.4	5882.74
1457.58	6545.28
1461.76	6640.56
1465.93	6988.94
1470.1	6825.48
1474.26	6560.25
1478.43	6432.87
1482.59	6360.58
1486.75	6239.18
1490.9	6089.91
1495.06	6031.9
1499.21	6026.1
1503.35	6834.43
1507.5	6610.38
1511.64	6646.66
1515.78	7185.39
1519.92	6682.17
1524.05	5732.07
1528.18	5464.18
1532.31	4598.14
1536.44	3754.06
1540.56	2768.81
1544.69	1919.21
1548.8	907.91
1552.92	349.516
1557.03	243.977
1561.14	318.453
1565.25	42.5547
1569.36	69.7734
