Measurement: Raman, 514 nm, depolarized, Raman Data Processed
Mineral: Eudialyte
Rruff sample: R060206
Ideal chemistry: Na_15_Ca_6_Fe^2+^_3_Zr^4+^_3_Si(Si_25_O_73_)(O,OH,H_2_O)_3_(Cl,OH)_2_
Locality: Desourdy Quarry, Mont Saint-Hilaire, Rouville County, Quebec, Canada
Source: Royal Ontario Museum
Description: Yellowish-brown gemmy fragment
Measured chemistry: (Na_13.12_Ca_1.62_K_0.26_)_Σ=15_(Ca_4.47_Mn_1.00_Ce_0.32_La_0.21_)_Σ=6_(Fe_2.91_Mn_0.09_)_Σ=3_Zr_3.00_(Si_0.85_Nb_0.15_)_Σ=1_Si_25.00_O_73_((OH)_2.70_O_0.30_)_Σ=3_(Cl_1.20_(OH)_0.80_)_Σ=2_
Pin_id: M00448
Orientation: Laser parallel to -a* (-1 0 0). Fiducial mark perpendicular to laser is parallel to c [0 0 1]
Raman shift (cm-1)	intensity
121.827	0
126.749	497.756
131.668	2997.44
136.585	5723.11
141.5	7705.49
146.412	7308.81
151.321	3307.02
156.229	649.707
161.134	109.553
166.036	106.857
170.936	68.6797
175.834	271.102
180.729	1600.65
185.622	3561.18
190.512	5968.73
195.4	8260.14
200.286	10054.3
205.169	8604.52
210.049	6316.94
214.928	4865.6
219.803	2870.74
224.677	1759.51
229.548	685.615
234.416	46.8652
239.282	434.027
244.146	64.3203
249.007	125.184
253.866	399.818
258.722	1321.9
263.576	1379.31
268.427	1977.12
273.276	2812.4
278.123	3424.1
282.967	4252.99
287.809	4654.2
292.648	4937.87
297.485	4838.12
302.319	5480.31
307.151	5631.91
311.98	5188.08
316.807	5035.87
321.631	5043.32
326.454	5683.88
331.273	7246.63
336.09	8064.27
340.905	8515.32
345.717	8841.07
350.527	9045.34
355.334	8768.55
360.139	8206.34
364.941	7062.88
369.741	6359.19
374.538	6132.9
379.333	6333.25
384.126	7501.45
388.916	8352.77
393.703	8295.78
398.488	6701.81
403.271	5205.34
408.051	4105.21
412.828	2944.93
417.603	2168.04
422.376	1369.35
427.146	649.684
431.914	125.685
436.679	118.781
441.442	293.97
446.202	131.732
450.96	123.09
455.715	130.253
460.467	144.893
465.218	82.1269
469.965	166.973
474.711	375.813
479.454	319.697
484.194	231.56
488.932	207.209
493.667	405.694
498.4	1201.27
503.13	2013.59
507.858	2248.2
512.583	2451.07
517.306	2673.27
522.026	3253.46
526.744	3990.9
531.459	4556.56
536.172	4747.41
540.882	5829.07
545.59	7923.22
550.295	12187.3
554.998	18857.9
559.698	24094.8
564.396	30077.5
569.091	29995.5
573.784	15345
578.474	6632.46
583.162	3101.45
587.847	2038.69
592.529	2224.05
597.209	3487.98
601.887	6065.45
606.562	8358.62
611.235	8738.16
615.905	6694.81
620.572	4386.77
625.237	3274.71
629.9	2514.94
634.56	1231.94
639.217	335.593
643.872	89.5576
648.524	148.431
653.174	304.988
657.821	955.84
662.466	1855.16
667.108	2661.97
671.748	3836.3
676.385	5631.17
681.02	7980.59
685.652	10655.6
690.281	13296.2
694.908	15934.4
699.533	19648.3
704.155	24442.8
708.774	25495.3
713.391	19803.9
718.005	14155.9
722.617	12582.3
727.226	14784.4
731.833	17565.6
736.437	20861.2
741.039	22572.7
745.638	21784.2
750.234	19165.2
754.828	17708
759.419	15970.8
764.008	13953.6
768.595	11873.1
773.178	9542.64
777.759	7167.15
782.338	5114.39
786.914	3822.8
791.488	2844.55
796.059	1998.03
800.627	1595.24
805.193	1543.17
809.756	1696.85
814.317	2234.28
818.875	2416.49
823.431	2190.5
827.984	1924.33
832.534	2378
837.082	2977.52
841.627	879.89
846.17	426.109
850.71	1093.17
855.248	175.051
859.783	151.293
864.316	744.445
868.846	766.936
873.373	877.914
877.898	778.475
882.42	323.488
886.94	302.609
891.457	1222.09
895.971	2568.35
900.483	4240.38
904.993	7093.2
909.5	15456.8
914.004	16763.3
918.505	12399.8
923.004	18556.1
927.501	26171.5
931.995	21844
936.486	25124.8
940.975	20889.2
945.461	29982.8
949.945	29970.8
954.426	15066.5
958.904	11662.9
963.38	10514.9
967.853	10368.1
972.324	10660.1
976.792	11453.6
981.258	11805.5
985.72	12862.8
990.181	15727.3
994.639	17827.4
999.094	19427.3
1003.55	18715.4
1008	17088.5
1012.44	15610.1
1016.89	14721.1
1021.33	14691.6
1025.77	14493.1
1030.21	14614.4
1034.64	13951.5
1039.07	12462.4
1043.5	11289.3
1047.93	10746
1052.35	11066.6
1056.78	13076.1
1061.19	16857.6
1065.61	23183.2
1070.02	27686.1
1074.43	27574.4
1078.84	23764.9
1083.25	20230.7
1087.65	19000.3
1092.05	18143.7
1096.45	16500.3
1100.85	12990.6
1105.24	8618.89
1109.63	5465.7
1114.02	3794.74
1118.4	3024.79
1122.78	2769.73
1127.16	2449.97
1131.54	2343.53
1135.92	2404.31
1140.29	2202.35
1144.66	2120.69
1149.02	1838.35
1153.39	1616.01
1157.75	1338.3
1162.11	1162.79
1166.46	1056.77
1170.82	1057.89
1175.17	1054.71
1179.52	666.289
1183.86	424.559
1188.21	114.328
1192.55	78.5
1196.89	152.191
1201.22	48.7695
1205.55	279.504
1209.88	442.273
1214.21	215.539
1218.54	326.322
1222.86	251
1227.18	84.2031
1231.5	47.791
1235.81	240.801
1240.12	307.5
1244.43	573.805
1248.74	617.584
1253.04	775.768
1257.34	923.289
1261.64	1122.06
1265.94	1070.99
1270.23	1074.93
1274.52	1227.77
1278.81	1128.53
1283.1	1273.1
1287.38	1178.23
1291.66	1466.63
1295.94	1503.1
1300.21	1535.79
1304.48	1791.08
1308.75	1432.83
1313.02	1412.98
1317.29	1449.91
1321.55	1339.92
1325.81	1297.33
1330.06	1166.64
1334.32	1230.96
1338.57	1110.98
1342.82	1379.64
1347.06	1655.75
1351.31	2333.08
1355.55	4864.27
1359.79	9191.69
1364.02	6921.71
1368.26	2713.14
1372.49	1760.94
1376.71	1825.3
1380.94	1706.43
1385.16	1280.72
1389.38	2285.65
1393.6	4949.25
1397.81	4534.34
1402.02	1479.91
1406.23	8.94531
1410.44	122.551
1414.64	220.234
1418.85	38.168
1423.04	716.342
1427.24	1982.89
1431.43	488.234
1435.62	793.283
1439.81	1207.44
1444	2170.9
1448.18	2022.06
1452.36	1658.24
1456.54	1850.88
1460.71	2322.23
1464.89	2321.8
1469.06	1810.31
1473.22	1532.02
1477.39	1470.31
1481.55	1461.46
1485.71	1512.63
1489.86	1428.35
1494.02	968.916
1498.17	746.055
1502.32	734.049
1506.46	548.57
1510.61	575.334
1514.75	425.633
1518.88	350.242
1523.02	387.984
1527.15	188.16
1531.28	90.8379
1535.41	272.188
1539.53	123.607
1543.66	136.66
1547.78	283.291
1551.89	217.832
1556.01	337.815
1560.12	116.346
1564.23	216.629
1568.33	75.9707
