Measurement: Raman, 514 nm, depolarized, Raman Data Processed
Mineral: Eudialyte
Rruff sample: R060035
Ideal chemistry: Na_15_Ca_6_Fe^2+^_3_Zr^4+^_3_Si(Si_25_O_73_)(O,OH,H_2_O)_3_(Cl,OH)_2_
Locality: Chibini, Kola Peninsula, Russia
Source: University of Arizona Mineral Museum
Description: Deep pink coarsely crystalline
Measured chemistry: (Na_14.86_K_0.14_)_Σ=15_Ca_6.00_(Fe_1.52_Mn_1.48_)_Σ=3_(Zr_2.82_Ti_0.18_)_Σ=3_(Si_0.93_Nb_0.07_)_Σ=1_(Si_25.00_O_73_)((OH)_1.01_(H_2_O)_1.99_)_Σ=3_(Cl_1.65_(OH)_0.35_)_Σ=2_
Pin_id: M00465
Orientation: Laser parallel to a* (1 0 0). Fiducial mark perpendicular to laser is parallel to c [0 0 1]
Raman shift (cm-1)	intensity
118.134	0
123.058	21.3203
127.979	251.416
132.898	972.394
137.814	2678.11
142.728	3582.39
147.639	2977.11
152.549	1825.91
157.455	667.646
162.359	434.287
167.261	523.555
172.161	303.394
177.058	615.309
181.952	877.709
186.845	2047.23
191.734	3118.09
196.622	4276.51
201.507	4776.59
206.389	4328.52
211.269	3618.7
216.147	2524.87
221.022	1322.4
225.895	758.625
230.765	210.477
235.633	48.0488
240.498	210.818
245.361	167.871
250.222	231.106
255.08	307.66
259.936	946.635
264.789	819.309
269.64	1020.47
274.488	1137.8
279.334	1539.9
284.178	1816.77
289.019	1933.33
293.857	2020.39
298.693	2113.4
303.527	2767.21
308.358	3002.85
313.187	2641.2
318.013	2793.38
322.837	2533.48
327.659	3016.25
332.478	3775.63
337.294	4112.33
342.108	4392.34
346.92	4074.42
351.729	3655.77
356.535	3243.22
361.34	2936.24
366.141	2199.99
370.94	2040.39
375.737	1721.29
380.531	1472.6
385.323	1724.29
390.113	2099.41
394.9	2646.95
399.684	2747.92
404.466	2244.35
409.245	1455.27
414.022	869.047
418.797	667.684
423.569	311.1
428.338	147.34
433.105	153.576
437.87	266.84
442.632	418.394
447.391	629.535
452.149	607.242
456.903	253.488
461.655	104.188
466.405	155.019
471.152	141.346
475.897	317.191
480.639	228.664
485.378	245.143
490.116	313.834
494.85	620.918
499.582	1169.43
504.312	1328.37
509.039	1652.72
513.764	1848.5
518.486	1583.69
523.206	1484.37
527.923	1761.68
532.638	2119.09
537.35	3161.63
542.059	4895.67
546.766	7020.16
551.471	10214
556.173	13944
560.873	16744
565.57	19615.8
570.264	14130.5
574.957	7251.03
579.646	3537.14
584.333	2525.8
589.018	2873.03
593.7	3414.62
598.379	4096.14
603.056	5017.24
607.73	4647.88
612.402	3902.28
617.072	2671.84
621.739	1973.33
626.403	1614.31
631.065	1162.6
635.724	1253.26
640.381	590.539
645.035	518.383
649.687	471.785
654.336	632.144
658.983	921.832
663.627	1091.91
668.268	1659.32
672.907	2059.02
677.544	3678.27
682.178	3618.44
686.809	5180.77
691.438	7187.56
696.065	9329.53
700.688	11471.9
705.31	12938.3
709.929	10956.9
714.545	7381.34
719.158	4684.74
723.77	2918.37
728.378	2582.84
732.984	3054.16
737.588	4001.36
742.189	5032.5
746.787	4963.85
751.383	4234.62
755.976	3468.77
760.567	2791.25
765.155	2452.49
769.741	2389.77
774.324	2190.94
778.904	1911.98
783.482	1756.9
788.058	1466.7
792.631	906.394
797.201	552.957
801.769	225.266
806.334	125.926
810.897	193.629
815.457	120.941
820.014	128.519
824.569	22.1523
829.122	137.414
833.671	266.664
838.219	174.199
842.763	61.7812
847.306	39.9492
851.845	146.371
856.382	242.656
860.917	309.871
865.448	450.215
869.978	701.832
874.505	1089.76
879.029	1243.04
883.55	1326.71
888.069	1512.8
892.586	2145.32
897.1	3070.29
901.611	4026.73
906.12	4824.68
910.626	5463.16
915.129	6352.24
919.63	6719.98
924.129	6550.67
928.625	6086.13
933.118	5405.68
937.609	4815.27
942.097	5274.55
946.582	4979.86
951.065	5217.01
955.546	5039.76
960.023	4165.15
964.499	4003.71
968.971	3766.91
973.441	3831.85
977.909	4143.98
982.374	4802.25
986.836	5514.25
991.295	6606.48
995.753	6690.17
1000.21	6301.48
1004.66	5161.68
1009.11	4127.8
1013.55	3391.96
1018	2911.66
1022.44	2911.64
1026.88	2781.73
1031.32	3354.76
1035.75	3366.78
1040.18	3795.55
1044.61	3963.23
1049.04	3911.14
1053.46	4308.99
1057.88	4897.85
1062.3	5830.56
1066.71	6681.97
1071.13	7384.78
1075.54	8210.06
1079.94	8863.35
1084.35	10107.1
1088.75	10789.1
1093.15	10747.3
1097.55	9074.77
1101.94	6764.71
1106.34	4420.67
1110.73	3295.78
1115.11	2669.6
1119.5	2362.99
1123.88	2358.98
1128.26	2340.88
1132.63	2121.65
1137.01	2329.02
1141.38	1680.31
1145.75	862.406
1150.12	542.832
1154.48	357.125
1158.84	440.957
1163.2	518.367
1167.55	266.941
1171.91	155.695
1176.26	115.211
1180.61	164.762
1184.95	297.106
1189.29	0.78125
1193.63	43.6406
1197.97	66.3945
1202.31	57.6094
1206.64	266.754
1210.97	33.8594
1215.29	43.543
1219.62	308.012
1223.94	169.414
1228.26	39.8359
1232.57	124.356
1236.89	40.3086
1241.2	146.891
1245.51	70.1328
1249.81	136.981
1254.12	204.207
1258.42	149.371
1262.72	295.391
1267.01	434.668
1271.3	354.09
1275.59	18.7266
1279.88	28.7656
1284.17	374.848
1288.45	574.66
1292.73	368.07
1297.01	335.891
1301.28	162.059
1305.55	117.152
1309.82	493.723
1314.09	353.801
1318.35	612.133
1322.61	426.863
1326.87	435.887
1331.13	597.539
1335.38	184.531
1339.63	466.41
1343.88	425.094
1348.12	269.152
1352.37	699.18
1356.61	667.094
1360.85	408.199
1365.08	377.793
1369.31	177.797
1373.54	122.316
1377.77	422.551
1381.99	473.957
1386.22	313.754
1390.43	196.106
1394.65	309.414
1398.87	234.312
1403.08	206.203
1407.29	383.992
1411.49	62.1094
1415.69	276.668
1419.89	283.59
1424.09	175.57
1428.29	411.199
1432.48	570.16
1436.67	748.371
1440.86	515.387
1445.04	813.492
1449.23	1154.92
1453.4	880.676
1457.58	1089.94
1461.76	840.195
1465.93	989.648
1470.1	851.977
1474.26	464.438
1478.43	583
1482.59	829.176
1486.75	949.125
1490.9	726.742
1495.06	838
1499.21	1070.25
1503.35	1091.29
1507.5	1046.82
1511.64	792.769
1515.78	884.133
1519.92	768.121
1524.05	602.426
1528.18	627.543
1532.31	473.512
1536.44	490.887
1540.56	326.379
1544.69	442.633
1548.8	257.406
1552.92	338.109
1557.03	315.738
1561.14	140.394
1565.25	224.379
1569.36	137.133
