Measurement: Raman, 514 nm, depolarized, Raman Data Processed
Mineral: Eudialyte
Rruff sample: R060206
Ideal chemistry: Na_15_Ca_6_Fe^2+^_3_Zr^4+^_3_Si(Si_25_O_73_)(O,OH,H_2_O)_3_(Cl,OH)_2_
Locality: Desourdy Quarry, Mont Saint-Hilaire, Rouville County, Quebec, Canada
Source: Royal Ontario Museum
Description: Yellowish-brown gemmy fragment
Measured chemistry: (Na_13.12_Ca_1.62_K_0.26_)_Σ=15_(Ca_4.47_Mn_1.00_Ce_0.32_La_0.21_)_Σ=6_(Fe_2.91_Mn_0.09_)_Σ=3_Zr_3.00_(Si_0.85_Nb_0.15_)_Σ=1_Si_25.00_O_73_((OH)_2.70_O_0.30_)_Σ=3_(Cl_1.20_(OH)_0.80_)_Σ=2_
Pin_id: M00202
Orientation: Laser parallel to -c* (0 0 -1). Fiducial mark perpendicular to laser is parallel to a [1 0 0]
Raman shift (cm-1)	intensity
116.903	0
121.827	15.9004
126.749	280.322
131.668	1807.44
136.585	3579.38
141.5	3979.15
146.412	2905.3
151.321	1486.17
156.229	665.168
161.134	919.254
166.036	1645.88
170.936	2635.23
175.834	4732.75
180.729	7879.11
185.622	12681.6
190.512	18887.2
195.4	25742.8
200.286	31028.7
205.169	31330.7
210.049	25980
214.928	18559
219.803	12212.8
224.677	7389.33
229.548	4315.88
234.416	2425.72
239.282	792.104
244.146	86.4219
249.007	475.385
253.866	217.852
258.722	528.97
263.576	1548.28
268.427	3566.14
273.276	5179.52
278.123	5820.79
282.967	6084.23
287.809	6852.91
292.648	7296.59
297.485	7570.54
302.319	7618.94
307.151	7584.18
311.98	6416.01
316.807	5380.82
321.631	5257.25
326.454	6313.63
331.273	8177.64
336.09	8781.73
340.905	7971.62
345.717	7223.33
350.527	7364.19
355.334	7499.85
360.139	7162.41
364.941	6389.62
369.741	5739.58
374.538	5586.93
379.333	6055.49
384.126	7471.1
388.916	9218.71
393.703	9791.24
398.488	8339.45
403.271	6621.89
408.051	5215.47
412.828	4626.3
417.603	4041.66
422.376	3042.45
427.146	1882.62
431.914	1248.96
436.679	1168.13
441.442	1356.12
446.202	801.08
450.96	382.783
455.715	9.60547
460.467	119.952
465.218	266.08
469.965	311.61
474.711	309.636
479.454	341.901
484.194	601.482
488.932	479.06
493.667	286.009
498.4	5.48633
503.13	628.977
507.858	1371.37
512.583	2368.43
517.306	3598.12
522.026	5415.98
526.744	6428.11
531.459	7816.74
536.172	10391.3
540.882	13716.6
545.59	16943.7
550.295	23255.8
554.998	33737.9
559.698	39264.2
564.396	42358.7
569.091	40481.1
573.784	20756.6
578.474	9271.22
583.162	4441.61
587.847	2681.05
592.529	2874.29
597.209	4436.86
601.887	7498.81
606.562	10800.8
611.235	11568.8
615.905	9346.96
620.572	7645.21
625.237	7769.88
629.9	7013.32
634.56	4511.71
639.217	2739.93
643.872	1849.43
648.524	1651.16
653.174	1742.97
657.821	2347.44
662.466	2902.61
667.108	4050.57
671.748	5547.37
676.385	7853.05
681.02	10530.6
685.652	13230.2
690.281	16509.7
694.908	20457.2
699.533	25526.8
704.155	31243.6
708.774	32936.5
713.391	27809.4
718.005	23889.4
722.617	25903.4
727.226	32259.3
731.833	39912.1
736.437	46262.8
741.039	48994.9
745.638	47231.2
750.234	43436.9
754.828	40967
759.419	39325.2
764.008	34750.4
768.595	29193
773.178	23469.8
777.759	17850
782.338	13804.2
786.914	10888.6
791.488	8312.09
796.059	6372.54
800.627	4987.95
805.193	5071.3
809.756	5539.55
814.317	7056.68
818.875	7966.68
823.431	6857.51
827.984	4974.15
832.534	3528.56
837.082	2616.71
841.627	1603.55
846.17	537.031
850.71	242.974
855.248	617.7
859.783	644.13
864.316	972.094
868.846	766.106
873.373	476.511
877.898	347.155
882.42	12.1582
886.94	795.855
891.457	1509.38
895.971	2489.99
900.483	3295.65
904.993	4343.27
909.5	5443.81
914.004	6413.23
918.505	7936.55
923.004	10590.9
927.501	13970.2
931.995	16610.5
936.486	17155.2
940.975	15173.4
945.461	12659.4
949.945	10118.2
954.426	7880.94
958.904	6544.36
963.38	6061.18
967.853	6415.06
972.324	7001.77
976.792	7733.25
981.258	8614.46
985.72	9425.51
990.181	11569.5
994.639	13778.5
999.094	15188.2
1003.55	15865.3
1008	15394.1
1012.44	15113.6
1016.89	14477.5
1021.33	13843.1
1025.77	13043.1
1030.21	12566.2
1034.64	11168.1
1039.07	9911.77
1043.5	8856.37
1047.93	8942.74
1052.35	10117.9
1056.78	12335
1061.19	16480.5
1065.61	23363.4
1070.02	27718.3
1074.43	25552.8
1078.84	21812.6
1083.25	18365.7
1087.65	16768.3
1092.05	15623.9
1096.45	14186.9
1100.85	11308.6
1105.24	7627.78
1109.63	5048.92
1114.02	3450.93
1118.4	2858.52
1122.78	2566.53
1127.16	2221.55
1131.54	1770.57
1135.92	1554.84
1140.29	1254.93
1144.66	861.369
1149.02	355.217
1153.39	285.573
1157.75	258.794
1162.11	25.7217
1166.46	57.1895
1170.82	136.078
1175.17	41.6191
1179.52	0.834961
1183.86	33.6435
1188.21	102.05
1192.55	331.786
1196.89	67.9531
1201.22	178.718
1205.55	115.908
1209.88	87.7773
1214.21	251.068
1218.54	104.473
1222.86	53.2256
1227.18	92.9336
1231.5	151.403
1235.81	265.556
1240.12	233.424
1244.43	194.318
1248.74	189.52
1253.04	208.87
1257.34	217.769
1261.64	331.81
1265.94	411.699
1270.23	353.653
1274.52	363.38
1278.81	288.586
1283.1	271.17
1287.38	324.162
1291.66	391.559
1295.94	501.471
1300.21	489.18
1304.48	401.821
1308.75	372.532
1313.02	558.191
1317.29	442.583
1321.55	333.606
1325.81	415.551
1330.06	275.261
1334.32	231.784
1338.57	156.86
1342.82	96.085
1347.06	245.699
1351.31	152.503
1355.55	298.469
1359.79	259.493
1364.02	433.484
1368.26	195.04
1372.49	112.329
1376.71	158
1380.94	192.891
1385.16	187.817
1389.38	17.1611
1393.6	279.182
1397.81	42.7031
1402.02	96.4912
1406.23	75.1904
1410.44	12.043
1414.64	103.676
1418.85	25.7871
1423.04	104.318
1427.24	180.996
1431.43	7.97266
1435.62	112.755
1439.81	155.966
1444	339.714
1448.18	361.163
1452.36	456.129
1456.54	357.238
1460.71	530.526
1464.89	380.142
1469.06	451.072
1473.22	361.122
1477.39	264.808
1481.55	268.726
1485.71	269.588
1489.86	445.325
1494.02	271.31
1498.17	242.472
1502.32	123.195
1506.46	378.056
1510.61	357.368
1514.75	219.963
1518.88	217.457
1523.02	342.981
1527.15	255.298
1531.28	182.185
1535.41	195.332
1539.53	96.4199
1543.66	103.478
1547.78	68.1494
1551.89	170.815
1556.01	231.642
1560.12	172.365
1564.23	48.3721
1568.33	194.232
