Measurement: Raman, 514 nm, depolarized, Raman Data Processed
Mineral: Eudialyte
Rruff sample: R060035
Ideal chemistry: Na_15_Ca_6_Fe^2+^_3_Zr^4+^_3_Si(Si_25_O_73_)(O,OH,H_2_O)_3_(Cl,OH)_2_
Locality: Chibini, Kola Peninsula, Russia
Source: University of Arizona Mineral Museum
Description: Deep pink coarsely crystalline
Measured chemistry: (Na_14.86_K_0.14_)_Σ=15_Ca_6.00_(Fe_1.52_Mn_1.48_)_Σ=3_(Zr_2.82_Ti_0.18_)_Σ=3_(Si_0.93_Nb_0.07_)_Σ=1_(Si_25.00_O_73_)((OH)_1.01_(H_2_O)_1.99_)_Σ=3_(Cl_1.65_(OH)_0.35_)_Σ=2_
Pin_id: M00150
Orientation: Laser parallel to c* (0 0 1). Fiducial mark perpendicular to laser is parallel to b [0 1 0]
Raman shift (cm-1)	intensity
118.134	0
123.058	25.7539
127.979	457.955
132.898	762.879
137.814	1628.17
142.728	1996.83
147.639	1384.36
152.549	944.588
157.455	354.371
162.359	418.359
167.261	667.963
172.161	926.525
177.058	1196.89
181.952	2434.51
186.845	4076.96
191.734	6308.91
196.622	9285.9
201.507	10755.5
206.389	10478.5
211.269	8877.24
216.147	7040.51
221.022	4870.47
225.895	3278.3
230.765	1916.18
235.633	829.076
240.498	179.062
245.361	202.527
250.222	115.316
255.08	175.539
259.936	1051.83
264.789	1162.42
269.64	1453.93
274.488	1901.21
279.334	1495.61
284.178	1409.45
289.019	1531.66
293.857	1831.26
298.693	2176.89
303.527	2511.92
308.358	2885.97
313.187	2609.92
318.013	2423.79
322.837	2691.95
327.659	2708.36
332.478	3197.72
337.294	3480.75
342.108	3365.2
346.92	3022.05
351.729	3113.47
356.535	3009.44
361.34	2689.01
366.141	2121.36
370.94	1782.4
375.737	1660.91
380.531	1290.73
385.323	1524.82
390.113	2134.44
394.9	2873.62
399.684	3003.49
404.466	2433.75
409.245	1811.36
414.022	1081.7
418.797	841.812
423.569	592.625
428.338	158.053
433.105	195.973
437.87	531.336
442.632	842.178
447.391	931.481
452.149	965.217
456.903	904.354
461.655	310.861
466.405	8.48828
471.152	486.297
475.897	275.125
480.639	607.084
485.378	19.0371
490.116	27.2344
494.85	432.871
499.582	826.131
504.312	973.619
509.039	1585.36
513.764	1715.34
518.486	2015.57
523.206	2223.05
527.923	2930.9
532.638	3458.53
537.35	5312.06
542.059	8444.73
546.766	12402.5
551.471	16961.5
556.173	22233.5
560.873	23426.1
565.57	24305
570.264	17431.2
574.957	8742.03
579.646	4316.94
584.333	2811.66
589.018	2901.69
593.7	3653.97
598.379	4558.42
603.056	5328.02
607.73	5611.11
612.402	4814.13
617.072	3335.95
621.739	2820.64
626.403	2743.7
631.065	2420.76
635.724	1729.49
640.381	881.854
645.035	593.383
649.687	445.5
654.336	694.199
658.983	985.475
663.627	1156.25
668.268	1993.2
672.907	2332.51
677.544	3121.38
682.178	4345.06
686.809	5922.16
691.438	8161.15
696.065	10261.2
700.688	12757.1
705.31	14009.9
709.929	12252.6
714.545	8239.6
719.158	5021.98
723.77	3349.96
728.378	2930.72
732.984	3556.91
737.588	4914.74
742.189	6065.6
746.787	6514.69
751.383	5773.03
755.976	5053.68
760.567	4744.61
765.155	4290.35
769.741	3887.82
774.324	3896.6
778.904	3626.45
783.482	3289.31
788.058	2650.38
792.631	1431.07
797.201	736.785
801.769	117.883
806.334	59.7676
810.897	11.0234
815.457	108.619
820.014	221.736
824.569	100.561
829.122	84.1367
833.671	166.383
838.219	235.078
842.763	87.8223
847.306	150.334
851.845	49.5547
856.382	16.5078
860.917	94.2148
865.448	277.008
869.978	648.021
874.505	854.352
879.029	1190.02
883.55	1465.06
888.069	1522.48
892.586	2147.29
897.1	3021.48
901.611	4242.03
906.12	5377.98
910.626	6583.32
915.129	7415.09
919.63	8828.38
924.129	8896.27
928.625	7724.02
933.118	6294.92
937.609	5361.07
942.097	4928.64
946.582	4466.29
951.065	4224.08
955.546	3758.47
960.023	3196.5
964.499	2933.41
968.971	2782.43
973.441	2981.88
977.909	3238.77
982.374	3857.98
986.836	4305.73
991.295	5091.73
995.753	5360.18
1000.21	5224.79
1004.66	4214
1009.11	3616.62
1013.55	2947.93
1018	2530.18
1022.44	2614.11
1026.88	2708.62
1031.32	2601.91
1035.75	2612.91
1040.18	2853.53
1044.61	2655.73
1049.04	2547.59
1053.46	2777.21
1057.88	3357.54
1062.3	3948.51
1066.71	4781.94
1071.13	5594.45
1075.54	6264.03
1079.94	6944.45
1084.35	8433.1
1088.75	9327.47
1093.15	9399.02
1097.55	8341.06
1101.94	6433.87
1106.34	4349.95
1110.73	3139.61
1115.11	2869.41
1119.5	2453.05
1123.88	2585.65
1128.26	2197.64
1132.63	2060.48
1137.01	1548.94
1141.38	940.781
1145.75	693.609
1150.12	462.598
1154.48	226.207
1158.84	621.539
1163.2	402.512
1167.55	413.594
1171.91	122.57
1176.26	85.6406
1180.61	72.7188
1184.95	30.9961
1189.29	106.961
1193.63	23.8203
1197.97	24.9375
1202.31	97.9219
1206.64	97.7969
1210.97	156.074
1215.29	245.035
1219.62	156.551
1223.94	241.789
1228.26	260.266
1232.57	116.195
1236.89	88.0078
1241.2	192.258
1245.51	332.449
1249.81	56.5898
1254.12	278.578
1258.42	201.684
1262.72	532.199
1267.01	602.66
1271.3	87.3906
1275.59	100.367
1279.88	53.1172
1284.17	306.91
1288.45	216.519
1292.73	43.1523
1297.01	283.504
1301.28	202.457
1305.55	478.606
1309.82	75.9297
1314.09	114.981
1318.35	277.992
1322.61	178.129
1326.87	172.59
1331.13	380.871
1335.38	181.269
1339.63	218.535
1343.88	318.438
1348.12	115.582
1352.37	221.488
1356.61	551.473
1360.85	295.008
1365.08	40.5781
1369.31	278.324
1373.54	251.93
1377.77	208.672
1381.99	185.023
1386.22	154.137
1390.43	139.109
1394.65	106.734
1398.87	327.078
1403.08	373.152
1407.29	216.098
1411.49	239.883
1415.69	37.5352
1419.89	456.152
1424.09	32.1875
1428.29	109.363
1432.48	375.496
1436.67	579.777
1440.86	455.406
1445.04	885.711
1449.23	286.711
1453.4	505.051
1457.58	435.953
1461.76	393.398
1465.93	257.312
1470.1	465.301
1474.26	282.125
1478.43	62.0352
1482.59	302.977
1486.75	282.606
1490.9	362.996
1495.06	206.633
1499.21	304.996
1503.35	343.227
1507.5	455.547
1511.64	275.867
1515.78	228.231
1519.92	251.453
1524.05	138.898
1528.18	102.656
1532.31	152.699
1536.44	484.852
1540.56	327.852
1544.69	336.07
1548.8	138.027
1552.92	414.336
1557.03	341.613
1561.14	727.504
1565.25	302.613
1569.36	452.898
