Measurement: Raman, 514 nm, depolarized, Raman Data Processed
Mineral: Eudialyte
Rruff sample: R050230
Ideal chemistry: Na_15_Ca_6_Fe^2+^_3_Zr^4+^_3_Si(Si_25_O_73_)(O,OH,H_2_O)_3_(Cl,OH)_2_
Locality: Kipawa alkaline complex, near Sheffield Lake, Villedieu Township, Temiscamingue County, Quebec, Canada
Source: Marcus Origlieri
Description: Massive aggregate of red crystals
Measured chemistry: (Na_14.50_K_0.35_Ca_0.15_)_Σ=15_Ca_6.00_(Fe_1.86_Mn_1.01_Mg_0.13_)_Σ=3_(Zr_2.91_Ti_0.09_)_3_(Si_0.94_Nb_0.06_)_Σ=1.00_(Si_25.00_O_73_)(OH)_1.10_(H_2_O)_1.90_)_Σ=3_(Cl_1.17_(OH)_0.83_)_Σ=2_
Pin_id: M00392
Orientation: Laser parallel to c* (0 0 1). Fiducial mark perpendicular to laser is parallel to -a [-1 0 0]
Raman shift (cm-1)	intensity
118.134	0
123.058	176.902
127.979	79.0078
132.898	785.082
137.814	2444.88
142.728	3099.99
147.639	2914.17
152.549	2873.92
157.455	3954.59
162.359	5119.45
167.261	4556.34
172.161	2864.39
177.058	2285.4
181.952	3839.4
186.845	6980.03
191.734	11604.5
196.622	16898
201.507	22488.5
206.389	25914.1
211.269	26020
216.147	23060.7
221.022	17714.1
225.895	11112.8
230.765	5970.17
235.633	2764.92
240.498	1898.38
245.361	2527.13
250.222	4090.53
255.08	5220.97
259.936	6117.26
264.789	5624.78
269.64	6066.31
274.488	7260.9
279.334	8405.42
284.178	9528.98
289.019	11014.9
293.857	12401.3
298.693	13720.6
303.527	14716
308.358	16168.5
313.187	18925.8
318.013	20763.9
322.837	20820.5
327.659	21497.8
332.478	24929.4
337.294	27027.8
342.108	23197
346.92	17625.4
351.729	14189.8
356.535	12737
361.34	11266.3
366.141	9327.41
370.94	7662.02
375.737	6502.52
380.531	5721.41
385.323	5816.4
390.113	6422.47
394.9	6895.61
399.684	6933.85
404.466	6746.17
409.245	6089.73
414.022	5653.93
418.797	4686.94
423.569	4013.37
428.338	3079.92
433.105	2655.41
437.87	2298.17
442.632	1567.66
447.391	927.848
452.149	420.805
456.903	9.10156
461.655	739.398
466.405	971.909
471.152	1038.55
475.897	1012.17
480.639	817.749
485.378	652.908
490.116	273.821
494.85	84.6768
499.582	1024.95
504.312	2067.65
509.039	2991.47
513.764	4288.8
518.486	5480.69
523.206	6366.19
527.923	7534.35
532.638	9504.22
537.35	13082.9
542.059	18392.3
546.766	24097.6
551.471	31950
556.173	38295.7
560.873	40334.2
565.57	44068.4
570.264	43395.6
574.957	31957.8
579.646	19462.8
584.333	12140.4
589.018	9252.77
593.7	9753.97
598.379	12179.5
603.056	14066.1
607.73	13890
612.402	11867
617.072	9439.61
621.739	9005.52
626.403	9769.36
631.065	9322.68
635.724	8385.69
640.381	7988.69
645.035	8081.92
649.687	9013.71
654.336	10580.1
658.983	12763.7
663.627	15234.3
668.268	18045.9
672.907	20598.6
677.544	22958.2
682.178	25799.8
686.809	28084.6
691.438	30338.6
696.065	32865.1
700.688	34724.4
705.31	32987.4
709.929	27658.7
714.545	21975.4
719.158	18789.3
723.77	18768.1
728.378	20804.2
732.984	23846.5
737.588	26410.4
742.189	27903.1
746.787	27189.3
751.383	24963.9
755.976	22874.1
760.567	21066.4
765.155	19376.9
769.741	17319.3
774.324	15338.9
778.904	13856.5
783.482	12221.1
788.058	9995.43
792.631	7889.08
797.201	5881
801.769	4299.2
806.334	3382.01
810.897	2624.44
815.457	2349.51
820.014	1858.23
824.569	1134.57
829.122	792.301
833.671	372.911
838.219	173.124
842.763	259.794
847.306	386.344
851.845	631.207
856.382	832.807
860.917	886.063
865.448	1046.84
869.978	875.159
874.505	900.676
879.029	519.764
883.55	754.731
888.069	192.988
892.586	500.516
897.1	1712.26
901.611	2643.41
906.12	4332.11
910.626	5871.56
915.129	7704.96
919.63	10085.6
924.129	12179.2
928.625	12451.5
933.118	11296.4
937.609	9122.62
942.097	7500.43
946.582	6362.15
951.065	5897.1
955.546	5071.53
960.023	4246.14
964.499	3792.51
968.971	3673.22
973.441	3834.78
977.909	4683.14
982.374	5506.27
986.836	6406.56
991.295	7193.68
995.753	7445.03
1000.21	7098.53
1004.66	6321.38
1009.11	5085.77
1013.55	4491.27
1018	4051.37
1022.44	4051.23
1026.88	4102.48
1031.32	4589.23
1035.75	5209.71
1040.18	6225.29
1044.61	7518.34
1049.04	9359.16
1053.46	11714
1057.88	15918.1
1062.3	22956.1
1066.71	26997.9
1071.13	25703.1
1075.54	27231.1
1079.94	31087.4
1084.35	34150.3
1088.75	34522.5
1093.15	34179.3
1097.55	31404.9
1101.94	27908.2
1106.34	24723.7
1110.73	21791.6
1115.11	19545.4
1119.5	17972.9
1123.88	17454.9
1128.26	17423.7
1132.63	14558.8
1137.01	9874.88
1141.38	5261.61
1145.75	2868.53
1150.12	2720.95
1154.48	4595.15
1158.84	7610.32
1163.2	11141.2
1167.55	14044.8
1171.91	15778.4
1176.26	14480.4
1180.61	11778.1
1184.95	9734.13
1189.29	7541.15
1193.63	6229.36
1197.97	4655.21
1202.31	3239.97
1206.64	1759.25
1210.97	1413.33
1215.29	1907.52
1219.62	3162.75
1223.94	4902.28
1228.26	7003.24
1232.57	8263.76
1236.89	8360.85
1241.2	7752.08
1245.51	6697.61
1249.81	5758.79
1254.12	5611.46
1258.42	6174.48
1262.72	6808.13
1267.01	6652.66
1271.3	5977.79
1275.59	4691.13
1279.88	3662.65
1284.17	2501.2
1288.45	2000.65
1292.73	1248.21
1297.01	845.604
1301.28	312.324
1305.55	125.227
1309.82	162.531
1314.09	145.076
1318.35	344.086
1322.61	248.377
1326.87	467.611
1331.13	313.381
1335.38	309.633
1339.63	349.242
1343.88	359.002
1348.12	384.555
1352.37	282.928
1356.61	308.041
1360.85	416.318
1365.08	192.326
1369.31	72.0469
1373.54	44.2715
1377.77	4.84766
1381.99	326.184
1386.22	39.0195
1390.43	69.7559
1394.65	92.7891
1398.87	230.359
1403.08	637.447
1407.29	640.453
1411.49	1189.82
1415.69	1330.88
1419.89	1959.27
1424.09	2677.2
1428.29	3417.25
1432.48	4130.67
1436.67	5125.55
1440.86	5883.98
1445.04	7088.88
1449.23	7559.33
1453.4	8592.37
1457.58	9306.77
1461.76	9875.54
1465.93	9686.01
1470.1	9507.64
1474.26	8984.07
1478.43	8600.16
1482.59	8001.61
1486.75	8238.46
1490.9	8375.52
1495.06	7967.91
1499.21	8416.58
1503.35	8677.81
1507.5	8529.95
1511.64	8386.86
1515.78	8206.17
1519.92	7451.75
1524.05	6782.18
1528.18	5961.3
1532.31	4925.22
1536.44	4233.23
1540.56	2974.24
1544.69	2157.45
1548.8	1196.76
1552.92	1231.66
1557.03	1089.83
1561.14	1069.24
1565.25	547.449
1569.36	14.6719
