Measurement: Raman, 514 nm, depolarized, Raman Data Processed
Mineral: Fayalite
Rruff sample: R070293
Ideal chemistry: Fe^2+^_2_SiO_4_
Locality: Pike's Peak, Teller County, Colorado, USA
Source: Michael Scott
Description: Black single crystal fragment with internal hints of red and green
Measured chemistry: (Fe^2+^_1.87_Mn^2+^_0.13_)_Î£=2_Si_1.00_O_4_ ; trace amounts of Mg
Pin_id: L00446
Orientation: Laser parallel to b* (0 1 0). Fiducial mark perpendicular to laser is parallel to c [0 0 1]
Raman shift (cm-1)	intensity
59.137	0
64.077	46.52
69.015	109.63
73.951	243.718
78.885	99.2727
83.816	103.359
88.745	27.5269
93.672	149.868
98.597	222.429
103.52	312.014
108.441	589.76
113.359	368.338
118.275	598.283
123.189	559.507
128.101	71.0706
133.01	8.59253
137.918	117.341
142.823	127.286
147.726	386.358
152.627	1048.48
157.525	1081.77
162.422	821.156
167.316	1727.59
172.208	3668.79
177.097	1274.74
181.985	275.729
186.87	106.939
191.753	211.363
196.633	297.921
201.512	163.545
206.388	45.6135
211.262	81.3166
216.134	21.2793
221.003	138.515
225.87	347.544
230.735	855.996
235.598	1857.26
240.458	2613.72
245.316	1760.23
250.172	924.164
255.026	648.85
259.877	596.345
264.726	542.673
269.573	632.85
274.417	910.241
279.259	1508.73
284.099	2361.27
288.937	3561.46
293.772	3140.82
298.605	2039.67
303.436	1573.22
308.264	1334.35
313.09	1033.38
317.914	636.21
322.735	388.411
327.554	302.043
332.371	246.932
337.185	164.362
341.997	245.416
346.807	320.528
351.615	435.987
356.42	707.178
361.222	1095.7
366.023	1418.6
370.821	1680.59
375.617	1526.6
380.41	1326.67
385.201	1093.85
389.99	836.984
394.776	712.696
399.56	544.889
404.342	475.622
409.121	451.176
413.898	284.546
418.672	208.734
423.444	167.477
428.214	53.7369
432.981	60.532
437.746	17.1219
442.509	20.4733
447.269	48.4303
452.027	8.27197
456.782	35.6974
461.535	46.7427
466.286	13.4286
471.034	12.2063
475.78	27.2502
480.523	19.3011
485.265	81.8839
490.003	99.25
494.739	123.651
499.473	184.176
504.204	228.363
508.933	269.347
513.66	271.174
518.384	231.171
523.106	216.505
527.825	235.413
532.542	240.026
537.256	309.486
541.968	425.931
546.677	638.716
551.384	843.093
556.089	789.269
560.791	820.977
565.491	717.483
570.188	615.166
574.883	571.005
579.575	442.005
584.265	445.424
588.952	339.869
593.637	361.081
598.32	353.357
603	221.374
607.677	119.474
612.352	59.9177
617.025	59.1134
621.695	40.1499
626.363	28.3717
631.028	0.115601
635.691	0.301758
640.351	19.5585
645.008	1.08398
649.664	27.7206
654.316	60.9821
658.966	34.7839
663.614	64.7224
668.259	23.7164
672.902	16.2554
677.542	23.5114
682.18	7.49402
686.815	20.2956
691.448	13.9458
696.078	40.4514
700.705	4.17481
705.33	38.0731
709.953	51.5763
714.573	67.2711
719.19	31.2601
723.805	76.2
728.418	75.1221
733.028	86.0745
737.635	112.023
742.24	147.038
746.842	130.097
751.442	199.617
756.039	167.959
760.634	330.062
765.226	336.648
769.815	385.063
774.402	544.587
778.987	618.913
783.569	952.345
788.148	1380.86
792.725	1938.18
797.299	3193.95
801.871	5754.73
806.44	10886
811.006	18990
815.57	21799.1
820.131	17621
824.69	14248.5
829.246	13259.3
833.8	13967.2
838.351	14518.4
842.899	13368.9
847.445	10873.6
851.988	8225.58
856.529	5931.82
861.067	4470.32
865.603	3485.07
870.135	2705.09
874.666	2183.38
879.193	1912.93
883.718	1696.71
888.241	1598.98
892.761	1520.17
897.278	1765.6
901.792	1739.62
906.304	1702.67
910.814	1595.26
915.321	1538.26
919.825	1490.19
924.326	1528.99
928.825	1340.23
933.322	1130.81
937.815	882.769
942.306	758.582
946.795	600.356
951.28	511.442
955.763	396.836
960.244	385.491
964.722	312.381
969.197	243.482
973.67	234.83
978.139	204.369
982.607	195.124
987.071	125.111
991.533	77.2839
995.993	150.611
1000.45	70.0979
1004.9	13.7361
1009.36	39.5044
1013.8	49.3957
1018.25	29.6245
1022.69	37.7095
1027.13	72.9202
1031.57	27.2161
1036.01	39.5459
1040.44	16.0281
1044.87	5.41138
1049.3	1.72363
1053.72	5.73853
1058.14	15.1448
1062.56	10.4104
1066.98	31.8872
1071.39	45.1435
1075.8	82.8096
1080.21	63.8473
1084.62	44.2406
1089.02	91.7991
1093.42	95.9947
1097.82	143.632
1102.21	151.403
1106.61	174.722
1111	153.673
1115.38	201.157
1119.77	221.198
1124.15	283.37
1128.53	274.635
1132.9	318.605
1137.28	228.889
1141.65	260.057
1146.02	265.106
1150.38	269.897
1154.74	182.024
1159.11	139.846
1163.46	139.049
1167.82	130.711
1172.17	106.334
1176.52	107.163
1180.86	74.3785
1185.21	34.0548
1189.55	54.8784
1193.89	2.54272
1198.22	19.964
1202.55	26.4034
1206.88	14.2471
1211.21	32.246
1215.54	5.95862
1219.86	40.6006
1224.18	14.9419
1228.49	16.9255
1232.81	7.12671
1237.12	50.937
1241.42	9.39465
1245.73	52.9116
1250.03	13.3148
1254.33	46.4254
1258.63	24.4379
1262.92	65.316
1267.21	60.0904
1271.5	35.7781
1275.79	76.3826
1280.07	64.9358
1284.35	25.5145
1288.63	71.1303
1292.9	100.752
1297.17	82.3827
1301.44	56.0166
1305.71	113.646
1309.97	140.097
1314.23	162.639
1318.49	100.35
1322.75	81.0496
1327	116.375
1331.25	101.105
1335.5	90.0603
1339.74	81.0554
1343.98	150.214
1348.22	106.478
1352.46	147.657
1356.69	114.7
1360.92	147.111
1365.15	120.581
1369.37	97.7908
1373.6	104.905
1377.82	99.79
1382.03	120.177
1386.24	136.736
1390.45	154.797
1394.66	94.4526
1398.87	91.156
1403.07	74.9148
1407.27	85.7363
1411.47	116.627
1415.66	87.6856
1419.85	149.734
1424.04	94.875
1428.22	134.121
1432.41	49.4861
1436.59	85.9829
1440.76	138.64
1444.94	137.308
1449.11	89.4805
1453.28	151.053
1457.44	185.558
1461.61	126.303
1465.77	120.314
1469.92	99.5193
1474.08	76.9409
1478.23	82.6687
1482.38	63.5928
1486.52	90.7056
1490.67	136.945
1494.81	43.3176
1498.94	28.8232
1503.08	45.6697
1507.21	17.2424
1511.34	32.1252
1515.46	36.054
1519.59	45.2305
1523.71	62.7371
1527.83	57.574
1531.94	42.7349
1536.05	26.2417
1540.16	103.143
1544.27	35.5139
1548.37	75.4907
1552.47	73.2134
1556.57	92.8413
1560.66	37.9426
1564.75	6.15137
1568.84	27.6956
1572.93	4.36572
