Measurement: Raman, 514 nm, ccw, Raman Data Processed
Mineral: Fayalite
Rruff sample: R070157
Ideal chemistry: Fe^2+^_2_SiO_4_
Locality: Coso Hot Springs, Inyo County, California, USA
Source: James Shigley
Description: Brown transparent tabular crystals associated with fine grained quartz
Measured chemistry: (Fe^2+^_1.88_Mn_0.11_Zn_0.01_)_Î£=2_Si_1.00_O_4_ ; trace amounts of Mg
Pin_id: M01904
Orientation: Laser parallel to a* (1 0 0). Fiducial mark perpendicular to laser is parallel to b [0 1 0]
Raman shift (cm-1)	intensity
140.092	0
145.019	17.3535
149.944	241.549
154.866	445.582
159.785	317.234
164.702	830.981
169.616	1988.84
174.528	2683.85
179.437	910.316
184.343	463.676
189.247	522.904
194.148	483.988
199.046	639.613
203.942	73.0117
208.835	11.7773
213.726	74.3672
218.614	284.473
223.5	1087.09
228.382	1861.55
233.263	3199.18
238.14	5213.72
243.015	4224.77
247.888	2573.92
252.758	1626.03
257.625	1247.37
262.49	875.566
267.352	832.098
272.211	930.441
277.068	1304.61
281.922	2041.68
286.773	2793.35
291.622	3133.8
296.469	3487.54
301.312	2168.01
306.154	2242.78
310.992	2733.37
315.828	2357.6
320.661	2004.48
325.492	2029.51
330.32	1883.88
335.145	1947.12
339.968	2502.64
344.789	3273.35
349.606	4273.84
354.421	5564.55
359.234	7503.77
364.043	10124.2
368.851	11388.2
373.655	10601
378.457	7729.66
383.256	4941.01
388.053	3394.08
392.847	2200.88
397.639	1941.44
402.428	1995.78
407.214	2017.97
411.998	2112.4
416.779	1631.07
421.557	723.785
426.333	681.269
431.106	345.234
435.877	448.301
440.645	150.606
445.41	206.281
450.173	179.033
454.933	61.4316
459.691	107.783
464.446	172.332
469.198	135.93
473.948	317.748
478.695	602.822
483.439	1057.22
488.181	1656.92
492.92	3082.9
497.657	5917.44
502.391	10077.7
507.122	12833.2
511.851	9814.89
516.577	6285.75
521.301	4063.75
526.022	3348.88
530.74	2542.12
535.456	2437.8
540.169	2696.91
544.879	2897.26
549.587	3796.86
554.292	4863.27
558.995	6014.91
563.695	6400.57
568.392	6344.13
573.087	5353.67
577.779	3791.05
582.469	2808.43
587.156	2264.18
591.84	1934.85
596.522	1826.57
601.201	1650.06
605.877	1544.94
610.551	1417.44
615.222	1267.14
619.891	1666.34
624.557	1892.72
629.22	1742.81
633.881	1165.64
638.539	1044.23
643.195	1432.57
647.848	1613.7
652.498	1561.63
657.145	711.963
661.791	684.039
666.433	967.246
671.073	340.969
675.71	312.309
680.345	686.555
684.977	76.7246
689.606	192.492
694.233	330.092
698.857	163.92
703.478	150.426
708.097	382.502
712.714	214.481
717.327	149.748
721.938	54.1211
726.547	54.6172
731.153	351.658
735.756	591.006
740.356	795.934
744.954	949.047
749.55	791.078
754.142	696.055
758.733	610.994
763.32	978.936
767.905	1210.97
772.487	1573.2
777.067	2116.84
781.644	2860.88
786.218	4565.34
790.79	7095.41
795.359	11885.1
799.926	21779.5
804.49	43912.6
809.051	84198.2
813.61	123132
818.166	119122
822.72	93865.7
827.271	76818.8
831.819	69920.7
836.365	65681.9
840.908	58302.8
845.448	45091.9
849.986	30244.5
854.521	18992.2
859.054	11794.8
863.584	7174.45
868.111	3915.3
872.636	2344.27
877.158	1665.42
881.677	1627.75
886.194	1922.31
890.709	2566.16
895.22	3681.34
899.729	4909.12
904.236	5014.97
908.74	3649.34
913.241	2959.84
917.739	3593.7
922.235	4898.52
926.729	5863.26
931.219	7003.98
935.708	7263.17
940.193	6491.66
944.676	6119.77
949.156	5404.82
953.634	4943.89
958.109	3983.89
962.582	3746.28
967.051	2995.77
971.519	2825.26
975.983	2417.62
980.445	2020.96
984.905	1823.57
989.362	1715.73
993.816	1545.82
998.267	1603.71
1002.72	2822.94
1007.16	1256.46
1011.61	497.742
1016.05	565.164
1020.49	561.266
1024.92	418.203
1029.36	162.918
1033.79	122.363
1038.21	147.688
1042.64	153.59
1047.06	76.9414
1051.48	248.664
1055.9	379.672
1060.32	6.01562
1064.73	112.648
1069.14	328.844
1073.55	41.9727
1077.95	629.195
1082.35	514.887
1086.75	366.481
1091.15	363.012
1095.54	233.844
1099.93	21.7969
1104.32	130.809
1108.71	426.356
1113.09	97.4258
1117.47	528.941
1121.85	221.82
1126.23	581.988
1130.6	515.383
1134.97	397.953
1139.34	392.644
1143.7	610.402
1148.07	367.168
1152.43	449.906
1156.79	263.527
1161.14	141.949
1165.49	80.1523
1169.84	264.309
1174.19	76.1953
1178.54	385.5
1182.88	119.691
1187.22	145.269
1191.55	181.539
1195.89	203.715
1200.22	26.418
1204.55	98.0625
1208.87	64.1953
1213.2	110.441
1217.52	262.086
1221.84	246.875
1226.15	93.4141
1230.47	315.32
1234.78	674.586
1239.09	824.574
1243.39	823.957
1247.69	1191.73
1251.99	921.981
1256.29	1224.83
1260.59	1487.09
1264.88	1594.75
1269.17	2197.8
1273.46	2593.27
1277.74	2295.16
1282.02	2016.48
1286.3	2381.53
1290.58	2759.31
1294.86	2976.39
1299.13	3045.04
1303.39	3413.97
1307.66	3461.36
1311.93	3762.64
1316.19	4145.06
1320.45	4072.8
1324.7	3676.3
1328.96	3387.78
1333.21	3006.23
1337.45	2636.7
1341.7	2663.52
1345.94	2194.04
1350.18	2101.22
1354.42	2129.39
1358.66	1765.52
1362.89	1594.07
1367.12	1306.77
1371.35	1490.62
1375.57	1451.68
1379.8	1346.13
1384.02	1346.98
1388.23	1283.89
1392.45	984.141
1396.66	865.785
1400.87	839.867
1405.08	956.457
1409.28	958.598
1413.48	715.383
1417.68	688.641
1421.88	714.016
1426.07	718.262
1430.26	808.566
1434.45	1132.9
1438.64	1825.35
1442.82	2226.44
1447	2546.39
1451.18	2908.06
1455.35	2876.89
1459.53	2476.62
1463.7	2304.05
1467.87	1618.07
1472.03	1090.23
1476.19	1217.38
1480.35	987.344
1484.51	920.938
1488.67	618.719
1492.82	432.785
1496.97	357.211
1501.12	33.918
1505.26	119.477
1509.4	360.434
1513.54	50.6523
1517.68	143.445
1521.81	100.676
1525.94	219.512
1530.07	288.789
1534.2	130.859
1538.32	595.07
1542.44	210.941
1546.56	113.242
1550.68	602.07
1554.79	1046.73
1558.9	100.898
1563.01	230.117
1567.12	171.582
1571.22	184.039
1575.32	107.199
