Measurement: Raman, 514 nm, ccw, Raman Data Processed
Mineral: Fayalite
Rruff sample: R070157
Ideal chemistry: Fe^2+^_2_SiO_4_
Locality: Coso Hot Springs, Inyo County, California, USA
Source: James Shigley
Description: Brown transparent tabular crystals associated with fine grained quartz
Measured chemistry: (Fe^2+^_1.88_Mn_0.11_Zn_0.01_)_Î£=2_Si_1.00_O_4_ ; trace amounts of Mg
Pin_id: M01904
Orientation: Laser parallel to a* (1 0 0). Fiducial mark perpendicular to laser is parallel to b [0 1 0]
Raman shift (cm-1)	intensity
140.092	0
145.019	24.5352
149.944	488.807
154.866	1768.24
159.785	6142.47
164.702	16606.6
169.616	39422.6
174.528	50055.5
179.437	14822.7
184.343	2779.03
189.247	631.604
194.148	207.232
199.046	31.0195
203.942	111.053
208.835	63.8398
213.726	922.328
218.614	3000.18
223.5	6687.35
228.382	13171.5
233.263	24358.1
238.14	37220.9
243.015	35583.4
247.888	21843
252.758	12466.9
257.625	8401.5
262.49	5296.58
267.352	3858.84
272.211	3395.24
277.068	3745.81
281.922	4339.69
286.773	4357.24
291.622	3632.78
296.469	2252.32
301.312	1150.39
306.154	770.842
310.992	636.768
315.828	150.918
320.661	16.9258
325.492	225.238
330.32	147.4
335.145	53.5898
339.968	159.932
344.789	295.643
349.606	231.16
354.421	436.568
359.234	1125.92
364.043	1872.73
368.851	2312.93
373.655	2499.43
378.457	2438.91
383.256	1722.92
388.053	1636.76
392.847	1569.56
397.639	1754.41
402.428	2295.62
407.214	2821.46
411.998	2880.64
416.779	2298.64
421.557	1586.92
426.333	1188.88
431.106	407.867
435.877	61.6133
440.645	139.398
445.41	111.287
450.173	57.043
454.933	45.4531
459.691	152.6
464.446	226.453
469.198	14.3809
473.948	285.147
478.695	540.254
483.439	329.629
488.181	744.279
492.92	1346.31
497.657	2374.53
502.391	3426.02
507.122	3797.91
511.851	3084.2
516.577	2395.44
521.301	1747.99
526.022	1529.54
530.74	1284.59
535.456	1312.13
540.169	1055.17
544.879	1262.71
549.587	1455.59
554.292	1694.6
558.995	2272.79
563.695	1979
568.392	2184.84
573.087	2568.61
577.779	2584.07
582.469	2093.38
587.156	2006.49
591.84	1958.61
596.522	2099.67
601.201	2210.7
605.877	2086.16
610.551	1605.55
615.222	1672.74
619.891	2078.36
624.557	2275.52
629.22	1949.16
633.881	1402.32
638.539	1218.89
643.195	1525.86
647.848	1769.24
652.498	1939.05
657.145	1689.32
661.791	1358.05
666.433	1148.28
671.073	804.016
675.71	677.281
680.345	469.094
684.977	259.473
689.606	98.793
694.233	110.394
698.857	139.647
703.478	361.469
708.097	69.2617
712.714	401.219
717.327	279.014
721.938	37.5938
726.547	287.822
731.153	418.318
735.756	1149.2
740.356	1491.38
744.954	1878
749.55	1532.31
754.142	923.768
758.733	789.312
763.32	869.943
767.905	930.045
772.487	1297.12
777.067	1556.03
781.644	2387.57
786.218	3120.63
790.79	4832.05
795.359	7434.83
799.926	12597
804.49	22533.5
809.051	42045.4
813.61	64246.9
818.166	68087.8
822.72	63618.3
827.271	65016.3
831.819	75448
836.365	90516.7
840.908	100976
845.448	96407.2
849.986	80188.1
854.521	62073.9
859.054	47223.1
863.584	36869.8
868.111	29461.6
872.636	24579.8
877.158	21544.6
881.677	20059.4
886.194	19365.1
890.709	18952.2
895.22	20816.6
899.729	22163.8
904.236	23211.6
908.74	21916.1
913.241	21616
917.739	21510
922.235	20859
926.729	19247.3
931.219	15910.9
935.708	12380.7
940.193	9034.46
944.676	6349.85
949.156	4941.99
953.634	3722.76
958.109	2930.93
962.582	2081.59
967.051	1622.58
971.519	1026.74
975.983	686.541
980.445	514.83
984.905	552.481
989.362	640.385
993.816	159.26
998.267	669.785
1002.72	1685.85
1007.16	536.977
1011.61	136.115
1016.05	220.533
1020.49	209.91
1024.92	276.568
1029.36	97.0254
1033.79	70.7285
1038.21	124.764
1042.64	169.619
1047.06	38.8359
1051.48	70.2559
1055.9	10.2129
1060.32	2.0293
1064.73	245.205
1069.14	497.102
1073.55	482.504
1077.95	939.709
1082.35	1110.97
1086.75	1275.06
1091.15	1111.24
1095.54	1061.93
1099.93	1412.95
1104.32	1339.55
1108.71	1250.46
1113.09	1229.62
1117.47	1263.67
1121.85	937.562
1126.23	1204.27
1130.6	1342.74
1134.97	1370.97
1139.34	1361.94
1143.7	873.606
1148.07	833.639
1152.43	843.791
1156.79	664.68
1161.14	504.291
1165.49	583.955
1169.84	728.115
1174.19	373.758
1178.54	247.125
1182.88	381.168
1187.22	262.57
1191.55	117.957
1195.89	66.9746
1200.22	79.3106
1204.55	75.7891
1208.87	65.459
1213.2	128.91
1217.52	171.154
1221.84	60.8066
1226.15	318.922
1230.47	257.764
1234.78	419.426
1239.09	874.941
1243.39	750.314
1247.69	890.568
1251.99	1028.87
1256.29	965.551
1260.59	1265.15
1264.88	1631.28
1269.17	1880.39
1273.46	2115.57
1277.74	2308.48
1282.02	2353.65
1286.3	2217.88
1290.58	2506.16
1294.86	2869.58
1299.13	3120.86
1303.39	3681.97
1307.66	3585.79
1311.93	4057.7
1316.19	4139.37
1320.45	4309.98
1324.7	4046.37
1328.96	3847.17
1333.21	3369.44
1337.45	3142.1
1341.7	2591.47
1345.94	2348.06
1350.18	2049.23
1354.42	1933.14
1358.66	1608.34
1362.89	1673.89
1367.12	1258.94
1371.35	1221.54
1375.57	1074.71
1379.8	906.396
1384.02	1133.44
1388.23	934.451
1392.45	814.805
1396.66	706.033
1400.87	482.139
1405.08	627.012
1409.28	722.691
1413.48	632.217
1417.68	421.547
1421.88	569.195
1426.07	758.676
1430.26	526.072
1434.45	805.451
1438.64	1417.23
1442.82	1963.02
1447	2315.47
1451.18	2591.82
1455.35	2775.86
1459.53	2632.94
1463.7	2001.05
1467.87	1481.03
1472.03	1311.31
1476.19	1236.75
1480.35	1055.27
1484.51	829.6
1488.67	624.088
1492.82	332.801
1496.97	462.772
1501.12	243.022
1505.26	48.3926
1509.4	70.5019
1513.54	94.5078
1517.68	141.609
1521.81	70.8223
1525.94	422.285
1530.07	326.057
1534.2	318.379
1538.32	433.512
1542.44	335.527
1546.56	408.598
1550.68	524.795
1554.79	874.033
1558.9	9.6582
1563.01	6.00781
1567.12	358.123
1571.22	339.537
1575.32	106.891
