Measurement: Raman, 514 nm, depolarized, Raman Data Processed
Mineral: Fayalite
Rruff sample: R070157
Ideal chemistry: Fe^2+^_2_SiO_4_
Locality: Coso Hot Springs, Inyo County, California, USA
Source: James Shigley
Description: Brown transparent tabular crystals associated with fine grained quartz
Measured chemistry: (Fe^2+^_1.88_Mn_0.11_Zn_0.01_)_Î£=2_Si_1.00_O_4_ ; trace amounts of Mg
Pin_id: M01877
Orientation: Laser parallel to c* (0 0 1). Fiducial mark perpendicular to laser is parallel to a [1 0 0]
Raman shift (cm-1)	intensity
96.869	0
101.819	201.286
106.766	1641.62
111.711	776.146
116.653	2563.5
121.592	2514.38
126.529	420.215
131.464	119.724
136.395	351.078
141.324	1657.82
146.251	4775.59
151.175	14129.7
156.096	17345.4
161.015	7394.85
165.931	2563.77
170.844	2423.34
175.755	1386.56
180.663	682.968
185.569	946.938
190.472	2492.39
195.373	3763.65
200.27	2156.37
205.166	245.364
210.058	295.001
214.948	223.895
219.836	56.417
224.721	47.9053
229.603	624.739
234.482	1465.36
239.359	1632.05
244.234	1285.34
249.106	960.87
253.975	784.763
258.841	1461.1
263.705	1635.7
268.567	2383.95
273.425	3977.92
278.281	6694.86
283.135	10770.2
287.986	15000.9
292.834	14939.3
297.68	11159.5
302.523	8685.85
307.363	8017.59
312.201	7823.38
317.037	6047.95
321.869	4538.62
326.699	3217.1
331.527	2778.87
336.351	2829.58
341.174	2963.45
345.993	3644.34
350.81	5050.8
355.625	6482.16
360.436	9252.14
365.245	12723.8
370.052	15118.9
374.856	15638.9
379.657	14520.1
384.456	12578.8
389.252	10025.8
394.045	7271.3
398.836	4927.11
403.625	3316.23
408.41	2161.41
413.193	1282.62
417.974	839.878
422.751	492.201
427.527	233.552
432.299	40.8086
437.069	108.822
441.836	17.4668
446.601	236.904
451.363	27.0781
456.123	79.0596
460.88	41.8789
465.634	82.4902
470.386	317.789
475.135	45.8652
479.881	308.572
484.625	646.531
489.366	1021.4
494.105	1772.44
498.84	3324.43
503.574	5214.27
508.305	5999.99
513.033	4565.63
517.758	3094.48
522.481	2352.09
527.201	2175.7
531.919	2107.62
536.634	2281.76
541.346	2670.03
546.056	3408
550.763	4049.77
555.468	5287.39
560.17	6245.69
564.869	7099.92
569.566	6269.21
574.26	5286.67
578.952	4014.6
583.641	3137.34
588.327	2612.7
593.011	2079.69
597.692	1542.52
602.37	1403.95
607.046	778.333
611.719	535.804
616.39	302.983
621.058	198.368
625.723	67.6963
630.386	89.4424
635.046	43.0371
639.703	96.126
644.358	1.81348
649.01	85.0361
653.66	175.804
658.307	167.945
662.951	12.5977
667.593	290.918
672.232	217.641
676.869	98.1963
681.503	190.113
686.134	252.623
690.763	309.782
695.389	177.674
700.013	69.585
704.633	240.698
709.252	446.01
713.867	554.704
718.48	724.091
723.091	755.318
727.698	1107.96
732.304	1702.14
736.906	1850.9
741.506	2155.45
746.103	2392.42
750.698	2037.25
755.29	1747.96
759.88	1919.16
764.467	2399.06
769.051	2856.9
773.632	3408.76
778.211	4485
782.788	6261.13
787.362	8784.82
791.933	12850.6
796.501	21040
801.067	36456.8
805.631	68172.5
810.191	118472
814.749	144287
819.305	121872
823.858	93370.8
828.408	79987.4
832.956	76617.3
837.501	76546.8
842.043	70485.1
846.583	55295.3
851.12	38051.9
855.654	24284.1
860.186	15455.8
864.716	9673.86
869.242	6199.28
873.766	4099.07
878.288	2794.28
882.807	2092.07
887.323	1513.72
891.837	1282.51
896.348	825.75
900.856	944.49
905.362	569.01
909.865	874.914
914.366	1006.06
918.864	1965.8
923.359	3069.7
927.852	4002.14
932.342	4657.06
936.829	4704.13
941.314	4341.35
945.796	3961.69
950.276	3728.42
954.753	3145.67
959.228	2721.78
963.699	2644.44
968.169	2231.97
972.635	2135.28
977.099	1795.51
981.56	1663.05
986.019	1306.6
990.475	1246.39
994.929	1111.21
999.38	845.275
1003.83	884.141
1008.27	510.727
1012.72	334.953
1017.16	117.723
1021.6	27.3379
1026.03	53.0684
1030.46	186.131
1034.89	201.135
1039.32	108.117
1043.74	84.6191
1048.17	30.5547
1052.59	9.93359
1057	227.445
1061.42	17.6445
1065.83	42.8477
1070.24	303.785
1074.65	309.912
1079.05	315.793
1083.45	255.703
1087.85	119.356
1092.25	360.051
1096.64	502.621
1101.03	263.228
1105.42	317.316
1109.8	447.022
1114.19	620.488
1118.57	323.098
1122.95	755.598
1127.32	866.551
1131.69	1048.15
1136.06	1158.69
1140.43	1368.3
1144.8	1085.46
1149.16	964.84
1153.52	1208.71
1157.87	1022.57
1162.23	834.773
1166.58	653.805
1170.93	604.053
1175.28	523.856
1179.62	453.543
1183.96	373.731
1188.3	180.894
1192.64	107.467
1196.97	64.7207
1201.3	4.9707
1205.63	238.027
1209.95	121.906
1214.28	7.13672
1218.6	60.543
1222.92	27.4922
1227.23	168.859
1231.55	303.283
1235.86	263.137
1240.16	263.848
1244.47	109.086
1248.77	206.934
1253.07	457.555
1257.37	176.113
1261.66	462.16
1265.95	503.481
1270.24	454.703
1274.53	729.539
1278.81	783.066
1283.09	512.312
1287.37	558.637
1291.65	751.883
1295.92	430.941
1300.19	552.047
1304.46	683.117
1308.73	555.406
1312.99	615.727
1317.25	453.328
1321.51	767.539
1325.77	809.894
1330.02	600.758
1334.27	863.703
1338.52	744.891
1342.76	531.223
1347	530.812
1351.24	577.281
1355.48	482.606
1359.72	519.883
1363.95	650.383
1368.18	241.992
1372.4	482.656
1376.63	175.762
1380.85	218.648
1385.07	12.1484
1389.29	57.5703
1393.5	46.5781
1397.71	187.547
1401.92	220.68
1406.13	590.633
1410.33	347.684
1414.53	258.332
1418.73	432.793
1422.92	378.121
1427.12	221.938
1431.31	164.516
1435.5	142.055
1439.68	380.793
1443.87	69.8438
1448.05	314.215
1452.22	304.344
1456.4	149.629
1460.57	482.738
1464.74	316.496
1468.91	563.59
1473.07	617.582
1477.23	406.43
1481.39	482.652
1485.55	231.246
1489.7	533.012
1493.86	109.473
1498.01	532.711
1502.15	240.211
1506.3	131.926
1510.44	423.922
1514.58	618.445
1518.71	927.191
1522.85	541.066
1526.98	507.402
1531.11	455.07
1535.23	539.465
1539.35	613.359
1543.47	370.699
1547.59	648.066
1551.71	784.176
1555.82	567.231
1559.93	134.559
1564.04	335.402
1568.14	382.93
1572.25	155.133
1576.35	212.445
