Measurement: Raman, 514 nm, ccw, Raman Data Processed
Mineral: Fayalite
Rruff sample: R070157
Ideal chemistry: Fe^2+^_2_SiO_4_
Locality: Coso Hot Springs, Inyo County, California, USA
Source: James Shigley
Description: Brown transparent tabular crystals associated with fine grained quartz
Measured chemistry: (Fe^2+^_1.88_Mn_0.11_Zn_0.01_)_Î£=2_Si_1.00_O_4_ ; trace amounts of Mg
Pin_id: M01877
Orientation: Laser parallel to c* (0 0 1). Fiducial mark perpendicular to laser is parallel to a [1 0 0]
Raman shift (cm-1)	intensity
96.869	0
101.819	42.7227
106.766	1882.74
111.711	883.907
116.653	2392.13
121.592	2243.27
126.529	979.537
131.464	1103.06
136.395	1434.69
141.324	3696.63
146.251	10289.4
151.175	27369.7
156.096	32303.6
161.015	12393.7
165.931	3590.94
170.844	2331.59
175.755	1310.93
180.663	1255.98
185.569	1864.27
190.472	4698.11
195.373	6660.84
200.27	3579
205.166	625.884
210.058	9.08691
214.948	365.305
219.836	326.445
224.721	61.3154
229.603	253.324
234.482	793.254
239.359	975.394
244.234	792.859
249.106	473.072
253.975	697.956
258.841	1299.17
263.705	1377.51
268.567	2260.3
273.425	3390.36
278.281	5666.79
283.135	8862.4
287.986	12357.8
292.834	12832.2
297.68	10868
302.523	9882.98
307.363	11005
312.201	11110
317.037	8835.18
321.869	6018.21
326.699	3942.81
331.527	2876.95
336.351	2593.08
341.174	2745.84
345.993	3275.08
350.81	4441.15
355.625	6007.86
360.436	8354.92
365.245	11387.3
370.052	14519.9
374.856	16834
379.657	17463.2
384.456	16389.5
389.252	13787
394.045	10398.1
398.836	7167.25
403.625	4856.24
408.41	3250.97
413.193	2156.41
417.974	1476.55
422.751	1011.4
427.527	690.95
432.299	358.166
437.069	202.026
441.836	338.517
446.601	110.632
451.363	33.5986
456.123	57.1728
460.88	44.8818
465.634	52.4609
470.386	67.4756
475.135	57.1982
479.881	13.8565
484.625	445.697
489.366	644.391
494.105	1266.06
498.84	2137.71
503.574	3489.42
508.305	3886.77
513.033	3018.3
517.758	2269.12
522.481	2000.79
527.201	1594.22
531.919	1787.17
536.634	2000.66
541.346	2193.39
546.056	2684.9
550.763	3257.79
555.468	4165.95
560.17	4959.41
564.869	5493.77
569.566	5210.07
574.26	4528.39
578.952	3820.25
583.641	3126.63
588.327	2471.34
593.011	1805.21
597.692	1478.81
602.37	1038.05
607.046	749.908
611.719	314.609
616.39	241.205
621.058	73.6904
625.723	63.3272
630.386	8.1582
635.046	30.4199
639.703	97.5449
644.358	177.68
649.01	124.27
653.66	75.3994
658.307	114.924
662.951	176.959
667.593	132.23
672.232	108.611
676.869	151.94
681.503	363.726
686.134	232.057
690.763	301.988
695.389	216.583
700.013	104.844
704.633	163.797
709.252	310.51
713.867	541.099
718.48	549.616
723.091	762.106
727.698	904.614
732.304	1182.23
736.906	1229.99
741.506	1853.95
746.103	1844.17
750.698	1609.46
755.29	1489
759.88	1437.99
764.467	1740.96
769.051	2144.74
773.632	2513.51
778.211	3449.89
782.788	4730.53
787.362	6608.08
791.933	10265
796.501	16264.9
801.067	27950
805.631	52357.8
810.191	90679.9
814.749	109245
819.305	93024.3
823.858	71505.4
828.408	61337.4
832.956	58841.4
837.501	58737.5
842.043	54155.6
846.583	42537.5
851.12	29196
855.654	19082.3
860.186	12203.5
864.716	7781.62
869.242	5079.65
873.766	3443.63
878.288	2514.58
882.807	1727.54
887.323	1368.55
891.837	1184.86
896.348	1037.97
900.856	947.8
905.362	802.068
909.865	799.161
914.366	809.733
918.864	1627.76
923.359	2341.19
927.852	3106.57
932.342	3537.56
936.829	3454.08
941.314	3184.78
945.796	2809.74
950.276	2591.29
954.753	2358.19
959.228	2107.42
963.699	1977.17
968.169	1560.2
972.635	1549.36
977.099	1304.61
981.56	1133.89
986.019	1184.14
990.475	875.314
994.929	847.305
999.38	699.043
1003.83	642.557
1008.27	327.756
1012.72	195.565
1017.16	174.014
1021.6	85.0234
1026.03	27.4805
1030.46	163.615
1034.89	206.834
1039.32	17.2949
1043.74	153.074
1048.17	70.7754
1052.59	53.3027
1057	84.0352
1061.42	3.26758
1065.83	73.8731
1070.24	123.348
1074.65	6.20898
1079.05	273.648
1083.45	71.6289
1087.85	140.379
1092.25	300.367
1096.64	332.504
1101.03	237.924
1105.42	361.769
1109.8	483.576
1114.19	505.467
1118.57	494.502
1122.95	669.949
1127.32	796.141
1131.69	948.203
1136.06	941.877
1140.43	845.055
1144.8	974.928
1149.16	820.877
1153.52	672.129
1157.87	697.842
1162.23	639.672
1166.58	452.022
1170.93	465.211
1175.28	304.029
1179.62	233.975
1183.96	203.555
1188.3	56.9395
1192.64	32.7637
1196.97	92.875
1201.3	151.598
1205.63	118.135
1209.95	36.4512
1214.28	32.9141
1218.6	186.582
1222.92	39.2969
1227.23	30.543
1231.55	14.4062
1235.86	50.4043
1240.16	107.871
1244.47	68.1309
1248.77	307.945
1253.07	139.211
1257.37	237.465
1261.66	101.977
1265.95	292.967
1270.24	291.809
1274.53	145.85
1278.81	120.295
1283.09	305.559
1287.37	329.531
1291.65	277.688
1295.92	254.951
1300.19	375.852
1304.46	208.559
1308.73	565.479
1312.99	295.457
1317.25	333.625
1321.51	275.719
1325.77	446.723
1330.02	362.445
1334.27	387.109
1338.52	284.137
1342.76	308.023
1347	253.65
1351.24	300.002
1355.48	211.065
1359.72	318.141
1363.95	356.426
1368.18	145.129
1372.4	389
1376.63	275.603
1380.85	328.625
1385.07	381.545
1389.29	439.147
1393.5	354.568
1397.71	255.393
1401.92	351.037
1406.13	132.084
1410.33	91.1758
1414.53	230.312
1418.73	167.945
1422.92	307.629
1427.12	222.035
1431.31	180.732
1435.5	91.084
1439.68	187.908
1443.87	294.488
1448.05	57.2344
1452.22	433.875
1456.4	312.414
1460.57	179.285
1464.74	258.736
1468.91	186.877
1473.07	331.096
1477.23	379.512
1481.39	282.482
1485.55	106.332
1489.7	126.756
1493.86	140.277
1498.01	141.356
1502.15	68.5508
1506.3	5.60742
1510.44	266.373
1514.58	82.7422
1518.71	102.41
1522.85	66.4551
1526.98	140.545
1531.11	134.951
1535.23	276.316
1539.35	365.736
1543.47	104.295
1547.59	367.525
1551.71	505.846
1555.82	394.127
1559.93	312.467
1564.04	250.084
1568.14	343.826
1572.25	192.965
1576.35	0.296875
