Measurement: Raman, 514 nm, depolarized, Raman Data Processed
Mineral: Fayalite
Rruff sample: R070374
Ideal chemistry: Fe^2+^_2_SiO_4_
Locality: Little Lake, Lake County, California, USA
Source: Michael Scott
Description: Large dark brown crystal fragment
Measured chemistry: (Fe^2+^_1.89_Mn^2+^_0.11_)_Î£=2_Si_1.00_O_4_ ; trace amounts of Mg
Pin_id: M01077
Orientation: Laser parallel to a* (1 0 0). Fiducial mark perpendicular to laser is parallel to b [0 1 0]
Raman shift (cm-1)	intensity
88.2	0
93.155	56.8467
98.106	33.0271
103.056	77.9312
108.002	372.605
112.946	443.423
117.888	586.432
122.827	514.202
127.763	50.1016
132.697	19.0476
137.628	31.8689
142.556	123.456
147.482	435.475
152.405	936.119
157.326	962.536
162.244	1153.76
167.159	2370.39
172.072	4341.57
176.982	1468.13
181.89	372.069
186.795	238.238
191.697	242.553
196.597	259.046
201.494	48.7954
206.389	37.3669
211.281	0.519287
216.17	15.8159
221.057	286.383
225.941	736.209
230.823	1494.53
235.702	2844.94
240.578	3437.68
245.452	2041.49
250.323	1037.97
255.192	708.022
260.058	429.426
264.921	422.752
269.782	516.321
274.64	879.4
279.495	1266.3
284.348	1404.18
289.198	1253.39
294.046	978.165
298.891	659.232
303.733	609.896
308.573	596.87
313.41	498.318
318.245	392.084
323.077	263.683
327.906	232.755
332.733	195.595
337.557	273.68
342.379	314.981
347.198	404.005
352.014	649.614
356.828	864.905
361.639	1246.05
366.447	1534.35
371.253	1652.06
376.056	1360.6
380.857	1099.97
385.655	879.079
390.451	575.971
395.243	417.627
400.034	245.03
404.821	212.199
409.606	139.121
414.389	130.7
419.168	26.9246
423.945	7.82861
428.72	60.3867
433.492	0.574951
438.261	36.3308
443.028	3.28027
447.792	55.3176
452.553	12.0547
457.312	8.93481
462.068	16.3225
466.822	63.1614
471.573	32.3945
476.321	66
481.067	123.769
485.81	215.897
490.551	325.239
495.289	497.335
500.024	932.012
504.757	1382.3
509.487	1245.62
514.214	752.348
518.939	429.782
523.661	416.763
528.381	369.563
533.098	357.034
537.812	434.484
542.524	449.245
547.233	489.711
551.94	583.852
556.644	551.247
561.345	678.918
566.044	553.336
570.74	510.891
575.433	447.865
580.124	453.348
584.812	448.461
589.498	396.088
594.181	390.435
598.861	340.239
603.539	200.255
608.214	149.099
612.887	112.26
617.557	96.4548
622.224	9.74194
626.889	43.0835
631.551	21.1921
636.21	59.8928
640.867	32.0715
645.521	17.3814
650.173	14.4346
654.822	33.9624
659.468	24.9014
664.112	16.0681
668.753	18.6177
673.392	36.8196
678.028	37.7261
682.661	8.84009
687.292	22.9273
691.92	4.51123
696.545	13.5818
701.168	21.6787
705.788	27.6375
710.406	32.302
715.021	11.4746
719.633	23.9722
724.243	37.2554
728.85	51.3315
733.455	52.7105
738.056	67.3345
742.656	103.257
747.252	117.08
751.846	170.938
756.438	145.99
761.027	218.178
765.613	208.917
770.196	296.648
774.777	340.548
779.356	564.945
783.932	651.69
788.505	982.602
793.075	1601.65
797.643	2747.46
802.208	5139.38
806.771	10599.5
811.331	18217.6
815.888	20756.4
820.443	17159.3
824.995	14398.7
829.545	13764.1
834.092	14416.9
838.636	14065.2
843.178	12766.6
847.717	10187.4
852.254	7502.6
856.788	5343.65
861.319	3928.43
865.848	3055.89
870.374	2447.73
874.897	1996.97
879.418	1882.61
883.936	1838.66
888.452	2043.35
892.965	2382.28
897.475	3233.68
901.983	3725.19
906.488	3002.99
910.99	2419.72
915.49	2085.46
919.988	2075.51
924.482	2102.56
928.974	1912.7
933.464	1642.9
937.951	1421.75
942.435	1150.65
946.917	957.216
951.396	938.479
955.872	811.374
960.346	658.934
964.817	597.125
969.285	547.926
973.751	439.269
978.215	421.158
982.675	355.522
987.134	239.482
991.589	250.949
996.042	203.942
1000.49	114.348
1004.94	89.1528
1009.38	141.342
1013.83	81.9146
1018.27	52.8603
1022.7	56.1582
1027.14	0.198242
1031.57	9.27173
1036	16.8931
1040.43	30.3438
1044.85	49.6838
1049.27	3.99487
1053.69	29.3076
1058.11	10.2693
1062.52	5.50391
1066.93	50.396
1071.34	19.9316
1075.75	78.3845
1080.15	83.0925
1084.55	107.818
1088.95	46.0735
1093.35	113.897
1097.74	68.104
1102.13	147.63
1106.52	33.6841
1110.9	143.639
1115.28	133.669
1119.66	141.901
1124.04	165.178
1128.41	239.184
1132.79	207.468
1137.16	236.594
1141.52	196.682
1145.89	192.973
1150.25	182.234
1154.61	210.997
1158.96	189.543
1163.32	135.85
1167.67	86.8411
1172.02	31.8594
1176.36	73.5845
1180.71	111.853
1185.05	115.912
1189.38	1.89795
1193.72	26.8125
1198.05	62.6003
1202.38	90.0623
1206.71	26.208
1211.04	29.8479
1215.36	23.032
1219.68	12.3865
1224	23.7744
1228.31	32.5994
1232.62	77.0608
1236.93	52.2942
1241.24	39.3452
1245.54	9.85474
1249.84	10.446
1254.14	52.7043
1258.44	55.6755
1262.73	44.4612
1267.03	128.14
1271.31	32.4758
1275.6	34.7
1279.88	85.7344
1284.16	70.5979
1288.44	85.2903
1292.72	110.862
1296.99	177.303
1301.26	172.363
1305.53	184.483
1309.79	147.669
1314.06	204.319
1318.32	160.749
1322.57	211.071
1326.83	126.715
1331.08	174.491
1335.33	113.283
1339.58	142.706
1343.82	111.109
1348.06	168.711
1352.3	125.185
1356.54	165.756
1360.77	108.235
1365.01	147.669
1369.23	142.091
1373.46	87.7104
1377.68	156.043
1381.9	150.533
1386.12	45.1096
1390.34	117.159
1394.55	118.814
1398.76	83.6372
1402.97	126.811
1407.18	157.421
1411.38	150.79
1415.58	136.547
1419.78	186.356
1423.97	129.232
1428.17	122.194
1432.36	107.263
1436.54	105.46
1440.73	166.535
1444.91	106.573
1449.09	163.573
1453.27	157.623
1457.44	178.559
1461.61	145.875
1465.78	138.586
1469.95	95.71
1474.11	169.995
1478.27	93.6035
1482.43	68.4734
1486.59	21.4685
1490.74	49.6162
1494.89	72.9399
1499.04	72.4204
1503.19	92.0569
1507.33	34.8518
1511.47	64.7539
1515.61	79.7373
1519.75	116.036
1523.88	120.727
1528.01	63.7883
1532.14	92.2178
1536.26	97.0491
1540.38	90.2922
1544.51	83.1174
1548.62	31.6396
1552.74	93.0039
1556.85	82.3843
1560.96	134.102
1565.07	3.37622
1569.17	31.7041
1573.27	124.096
