Measurement: Raman, 514 nm, depolarized, Raman Data Processed
Mineral: Fayalite
Rruff sample: R070293
Ideal chemistry: Fe^2+^_2_SiO_4_
Locality: Pike's Peak, Teller County, Colorado, USA
Source: Michael Scott
Description: Black single crystal fragment with internal hints of red and green
Measured chemistry: (Fe^2+^_1.87_Mn^2+^_0.13_)_Î£=2_Si_1.00_O_4_ ; trace amounts of Mg
Pin_id: L01546
Orientation: Laser parallel to c* (0 0 1). Fiducial mark perpendicular to laser is parallel to a [1 0 0]
Raman shift (cm-1)	intensity
99.344	0
104.293	133.23
109.239	341.654
114.182	326.587
119.123	258.271
124.061	419.627
128.997	157.614
133.93	135.773
138.86	213.728
143.788	356.488
148.713	805.602
153.636	1540.2
158.556	933.489
163.473	491.935
168.388	402.735
173.3	331.366
178.21	148.879
183.117	339.705
188.021	392.942
192.923	352.208
197.822	540.724
202.718	264.63
207.612	72.2481
212.504	83.9258
217.392	109.878
222.279	111.91
227.162	93.9531
232.043	12.2412
236.921	55.4414
241.797	252.536
246.67	174.626
251.54	62.3213
256.408	4.06445
261.274	191.397
266.136	212.243
270.996	367.709
275.854	454.128
280.709	803.818
285.561	1236.95
290.41	1580.49
295.257	1320.8
300.102	900.859
304.944	705.969
309.783	774.655
314.619	881.554
319.453	686.342
324.285	549.504
329.113	449.292
333.939	181.655
338.763	295.288
343.584	407.014
348.402	503.406
353.218	646.25
358.031	847.519
362.841	1154.17
367.649	1404.85
372.454	1542.9
377.257	1489.62
382.057	1250.59
386.854	990.829
391.649	791.372
396.441	543.861
401.231	196.738
406.018	179.116
410.802	213.034
415.584	259.789
420.363	44.3574
425.139	138.558
429.913	112.47
434.684	160.09
439.453	41.7471
444.219	118.809
448.982	141.875
453.743	64.3984
458.501	133.351
463.257	36.7637
468.01	69.3096
472.76	73.0352
477.508	94.1035
482.253	19.5752
486.996	94.2334
491.736	164.875
496.473	327.764
501.207	626.428
505.94	717.223
510.669	498.284
515.396	457.598
520.12	282.893
524.842	208.717
529.561	279.333
534.277	202.516
538.991	269.603
543.702	357.93
548.41	564.86
553.116	773.031
557.819	880.924
562.52	1245.68
567.218	1250.36
571.913	1181.52
576.606	809.773
581.296	800.27
585.984	708.344
590.669	547.133
595.351	523.223
600.031	298.844
604.708	263.269
609.383	207.168
614.055	207.609
618.724	101.603
623.391	112.106
628.055	106.81
632.716	121.151
637.375	190.848
642.031	68.0703
646.685	210.986
651.335	119.606
655.984	36.8525
660.63	28.2559
665.273	37.9297
669.913	67.6162
674.551	55.5947
679.186	118.959
683.819	128.054
688.449	95.876
693.076	25.4023
697.701	55.5879
702.323	59.5566
706.943	124.127
711.56	3.72363
716.174	66.1621
720.786	6.5459
725.395	40.6016
730.001	29.6045
734.605	29.501
739.206	29.3115
743.805	156.055
748.401	40.6631
752.995	179.106
757.585	36.4727
762.173	94.4277
766.759	238.598
771.342	257.667
775.922	248.267
780.5	377.307
785.075	632.667
789.648	1080.97
794.217	1722.62
798.785	2712.83
803.349	5541.3
807.911	10235.5
812.471	14406.3
817.027	14016.7
821.582	10552.9
826.133	8546.06
830.682	7668.9
835.228	7371.94
839.772	6822.86
844.313	5212.38
848.852	3990.03
853.387	2433.49
857.921	1655.17
862.451	1068.33
866.979	541.384
871.505	553.42
876.028	420.202
880.548	258.425
885.065	211.203
889.58	269.441
894.093	235.909
898.602	332.857
903.109	367.322
907.614	326.199
912.116	345.363
916.615	260.31
921.112	396.891
925.606	701.664
930.097	557.816
934.586	517.201
939.072	486.051
943.556	614.629
948.037	478.068
952.515	337.633
956.991	624.342
961.464	429.435
965.934	503.326
970.402	254.35
974.867	40.541
979.33	297.695
983.79	347.385
988.248	340.131
992.702	239.918
997.155	166.766
1001.6	274.658
1006.05	178.596
1010.5	221.584
1014.94	94.8516
1019.38	158.641
1023.81	25.5
1028.25	4.3125
1032.68	32.793
1037.11	215.633
1041.53	89.2988
1045.96	114.787
1050.38	133.648
1054.8	93.3398
1059.21	51.5215
1063.62	20.5312
1068.04	72.7402
1072.44	170.369
1076.85	34.2188
1081.25	80.2148
1085.65	294.322
1090.05	5.94922
1094.44	87.5898
1098.84	178.803
1103.22	210.568
1107.61	138.701
1112	1.30078
1116.38	221.393
1120.76	99.1621
1125.13	184.435
1129.51	216.56
1133.88	136.539
1138.25	126.353
1142.61	221.025
1146.98	208.549
1151.34	28.9121
1155.7	205.203
1160.05	271.088
1164.4	198.941
1168.76	172.053
1173.1	175.623
1177.45	90.9356
1181.79	207.111
1186.13	153.857
1190.47	128.402
1194.8	132.459
1199.14	61.3926
1203.46	145.791
1207.79	229.586
1212.12	99.7012
1216.44	103.67
1220.76	209.201
1225.08	75.7695
1229.39	302.81
1233.7	75.7246
1238.01	79.5059
1242.32	229.685
1246.62	31.0723
1250.92	125.393
1255.22	196.799
1259.51	78.1387
1263.81	50.4141
1268.1	189.572
1272.38	174.662
1276.67	287.764
1280.95	179.115
1285.23	261.227
1289.51	33.043
1293.79	158.863
1298.06	152.842
1302.33	259.812
1306.6	53.7988
1310.86	44.7227
1315.12	451.717
1319.38	259.6
1323.64	237.553
1327.89	326.117
1332.14	174.309
1336.39	243.508
1340.64	123.418
1344.88	122.635
1349.12	499.096
1353.36	248.625
1357.6	339.397
1361.83	308.732
1366.06	253.25
1370.29	226.969
1374.52	269.43
1378.74	177.353
1382.96	46.6406
1387.18	370.699
1391.39	210.836
1395.61	161.656
1399.82	160.732
1404.02	194.135
1408.23	127.647
1412.43	208.154
1416.63	33.8594
1420.83	280.623
1425.02	188.516
1429.21	41.2891
1433.4	253.088
1437.59	255.357
1441.77	256.473
1445.95	220.92
1450.13	165.568
1454.31	139.772
1458.48	327.951
1462.65	195.625
1466.82	66.1191
1470.99	230.188
1475.15	140.607
1479.31	81.6445
1483.47	177.815
1487.63	177.19
1491.78	216.611
1495.93	120.398
1500.08	84.0664
1504.22	28.2168
1508.37	66.8359
1512.51	277.15
1516.64	129.658
1520.78	467.514
1524.91	109.533
1529.04	277.006
1533.17	163.809
1537.29	300.24
1541.41	352.148
1545.53	279.846
1549.65	179.662
1553.77	283.949
1557.88	65.625
1561.99	49.4902
1566.09	10.3789
1570.2	205.738
1574.3	5.00586
