Measurement: Raman, 514 nm, depolarized, Raman Data Processed
Mineral: Fayalite
Rruff sample: R070293
Ideal chemistry: Fe^2+^_2_SiO_4_
Locality: Pike's Peak, Teller County, Colorado, USA
Source: Michael Scott
Description: Black single crystal fragment with internal hints of red and green
Measured chemistry: (Fe^2+^_1.87_Mn^2+^_0.13_)_Î£=2_Si_1.00_O_4_ ; trace amounts of Mg
Pin_id: L01491
Orientation: Laser parallel to a* (1 0 0). Fiducial mark perpendicular to laser is parallel to b [0 1 0]
Raman shift (cm-1)	intensity
125.645	0
130.556	57.8259
135.464	16.0402
140.371	40.9582
145.275	179.67
150.177	445.271
155.076	705.467
159.974	653.228
164.869	1486.77
169.762	2163.92
174.653	2491.63
179.541	557.989
184.427	245.956
189.311	252.214
194.193	290.133
199.073	303.249
203.95	34.7673
208.825	24.4103
213.698	40.0157
218.569	153.97
223.437	338.187
228.303	839.521
233.167	1694.91
238.028	2464.34
242.888	2282.39
247.745	1310.44
252.599	763.6
257.452	546.873
262.302	496.264
267.15	555.771
271.995	813.313
276.839	1221.1
281.68	1619.54
286.518	1827.96
291.355	1609.57
296.189	1258.24
301.02	949.554
305.85	900.555
310.677	831.516
315.502	515.678
320.325	393.329
325.145	252.538
329.963	225.558
334.778	248.531
339.592	213.448
344.403	331.438
349.211	374.443
354.017	500.728
358.821	725.199
363.623	901.429
368.422	1056.56
373.219	892.262
378.014	763.824
382.806	572.497
387.596	475.248
392.383	348.085
397.168	246.99
401.951	218.929
406.732	211.834
411.51	137.728
416.285	117.595
421.059	13.4493
425.829	6.75256
430.598	3.95252
435.364	19.4919
440.128	4.89392
444.889	27.0436
449.648	24.9813
454.405	10.2452
459.159	9.32178
463.911	13.694
468.66	47.8981
473.407	37.9946
478.152	83.1824
482.894	110.847
487.634	194.101
492.372	355.543
497.106	611.331
501.839	920.169
506.569	1125.7
511.297	822.045
516.022	539.425
520.745	408.516
525.466	355.984
530.184	301.168
534.899	396.39
539.612	411.896
544.323	537.968
549.031	620.431
553.737	684.232
558.44	631.544
563.141	592.292
567.84	556.279
572.536	415.82
577.229	405.577
581.92	461.115
586.609	394.009
591.295	358.011
595.979	329.966
600.66	292.93
605.339	151.579
610.015	133.56
614.689	77.2896
619.36	16.9793
624.029	20.2763
628.696	22.1873
633.36	22.6544
638.021	35.3617
642.68	15.3331
647.336	19.5496
651.99	39.7053
656.642	5.57996
661.291	21.9365
665.937	2.85828
670.581	14.7307
675.222	23.1648
679.861	11.4644
684.498	34.7294
689.132	36.2826
693.763	5.65674
698.392	13.3304
703.018	8.60107
707.642	7.70508
712.263	21.192
716.882	14.8729
721.498	11.2048
726.112	27.1748
730.723	70.9924
735.332	55.7035
739.938	82.3539
744.541	124.941
749.142	141.464
753.741	110.702
758.337	229.806
762.93	263.412
767.521	220.185
772.109	295.55
776.695	367.871
781.278	488.295
785.859	817.617
790.437	1167.51
795.012	1901.79
799.585	3416.14
804.155	6807.23
808.723	12952.1
813.288	18061.9
817.851	16978.5
822.411	13865.5
826.968	12549
831.523	12489
836.076	12985
840.625	12340.7
845.172	10424.4
849.717	7913.82
854.259	5731.65
858.798	4228.65
863.335	3193.18
867.869	2439.83
872.401	1971
876.93	1658.54
881.456	1549.44
885.98	1540.73
890.501	1586.39
895.02	2123.97
899.536	2713.47
904.049	2576.46
908.56	1964.34
913.068	1640.77
917.573	1617.28
922.076	1399.43
926.576	1489.29
931.074	1371.72
935.569	1197.02
940.061	1012.2
944.551	836.97
949.038	778.311
953.522	585.231
958.004	597.73
962.483	585.379
966.96	489.915
971.434	398.929
975.905	436.479
980.373	297.464
984.839	257.878
989.303	174.797
993.763	185.196
998.221	186.049
1002.68	153.312
1007.13	154.947
1011.58	100.941
1016.03	46.2812
1020.47	35.9675
1024.91	38.9895
1029.35	9.32275
1033.79	1.94922
1038.22	33.8723
1042.65	72.9473
1047.08	63.5205
1051.51	23.4582
1055.93	9.2666
1060.35	21.5461
1064.77	37.8772
1069.19	31.8586
1073.6	39.5913
1078.01	30.6975
1082.42	93.1779
1086.82	62.2438
1091.22	31.7958
1095.62	39.0919
1100.02	46.8552
1104.41	74.7501
1108.8	36.5383
1113.19	77.5183
1117.58	111.447
1121.96	107.201
1126.34	119.933
1130.72	161.541
1135.09	196.171
1139.46	195.717
1143.83	174.978
1148.2	214.952
1152.56	148.984
1156.92	160.112
1161.28	151.794
1165.64	72.8478
1169.99	66.7383
1174.34	89.5378
1178.69	16.3472
1183.04	45.3701
1187.38	41.291
1191.72	27.4492
1196.05	10.5431
1200.39	3.91846
1204.72	12.7571
1209.05	8.97058
1213.37	9.58874
1217.7	20.6924
1222.02	0.205322
1226.33	4.47412
1230.65	32.4987
1234.96	17.3152
1239.27	24.9064
1243.58	24.2958
1247.88	16.4667
1252.18	22.3345
1256.48	16.9695
1260.78	48.3555
1265.07	31.5593
1269.36	57.5684
1273.64	28.4106
1277.93	98.0787
1282.21	112.566
1286.49	61.8993
1290.77	128.093
1295.04	66.1421
1299.31	101.035
1303.58	39.7933
1307.84	130.018
1312.11	125.298
1316.37	127.599
1320.62	140.478
1324.88	112.497
1329.13	90.7067
1333.38	125.371
1337.62	81.3046
1341.86	105.001
1346.1	158.487
1350.34	90.1986
1354.58	103.836
1358.81	138.148
1363.04	116.257
1367.26	83.9766
1371.48	144.291
1375.7	107.462
1379.92	108.242
1384.14	154.574
1388.35	119.799
1392.56	96.0065
1396.77	115.171
1400.97	108.769
1405.17	64.41
1409.37	127.613
1413.56	125.796
1417.76	126.195
1421.94	109.956
1426.13	94.2164
1430.32	167.037
1434.5	96.9337
1438.68	103.807
1442.85	108.786
1447.02	118.862
1451.19	91.2734
1455.36	91.86
1459.53	150.544
1463.69	82.385
1467.85	69.4993
1472	160.767
1476.15	96.1162
1480.3	93.543
1484.45	130.944
1488.6	105.414
1492.74	19.0963
1496.88	34.0519
1501.01	66.305
1505.14	41.8544
1509.27	43.7206
1513.4	49.9205
1517.53	32.548
1521.65	61.7604
1525.77	56.6903
1529.88	103.525
1533.99	14.3851
1538.11	75.5372
1542.21	22.7553
1546.32	16.1457
