Measurement: Raman, 514 nm, depolarized, Raman Data Processed
Mineral: Fayalite
Rruff sample: R070374
Ideal chemistry: Fe^2+^_2_SiO_4_
Locality: Little Lake, Lake County, California, USA
Source: Michael Scott
Description: Large dark brown crystal fragment
Measured chemistry: (Fe^2+^_1.89_Mn^2+^_0.11_)_Î£=2_Si_1.00_O_4_ ; trace amounts of Mg
Pin_id: M01315
Orientation: Laser parallel to c* (0 0 1). Fiducial mark perpendicular to laser is parallel to a [1 0 0]
Raman shift (cm-1)	intensity
74.562	0
79.523	1305.09
84.483	909.715
89.439	1272.35
94.393	1491.74
99.344	72.0312
104.293	782.379
109.239	2821.57
114.182	3263.6
119.123	1422.58
124.061	2532.92
128.997	147.42
133.93	891.207
138.86	664.258
143.788	776.283
148.713	889.822
153.636	4060.26
158.556	2616.97
163.473	1859.08
168.388	1172.93
173.3	726.057
178.21	1083.95
183.117	1529.82
188.021	905.121
192.923	1348.82
197.822	1780.21
202.718	448.065
207.612	96.3398
212.504	73.4981
217.392	191.611
222.279	423.635
227.162	478.047
232.043	650.086
236.921	1081.21
241.797	976.377
246.67	272.156
251.54	687.541
256.408	236.084
261.274	500.107
266.136	619.168
270.996	732.264
275.854	547.57
280.709	936.756
285.561	2480.8
290.41	2913.14
295.257	2629.11
300.102	1698.09
304.944	1208.57
309.783	1150.12
314.619	1004.75
319.453	868.069
324.285	234.728
329.113	119.752
333.939	602.934
338.763	421.602
343.584	465.784
348.402	870.698
353.218	840.565
358.031	1553.7
362.841	1986.65
367.649	2455.73
372.454	3044.03
377.257	2765.02
382.057	2151.01
386.854	1570.12
391.649	1343.05
396.441	1020.83
401.231	408.65
406.018	45.582
410.802	237.201
415.584	225.799
420.363	306.804
425.139	691.579
429.913	274.925
434.684	206.245
439.453	196.85
444.219	95.4883
448.982	223.556
453.743	544.974
458.501	169.673
463.257	32.5391
468.01	131.391
472.76	16.7939
477.508	201.817
482.253	47.9951
486.996	491.212
491.736	428.503
496.473	1003.6
501.207	1376.51
505.94	1727.82
510.669	1263.52
515.396	1131.67
520.12	976.765
524.842	1027.59
529.561	1290.09
534.277	1079.1
538.991	1048.99
543.702	1140
548.41	1441.97
553.116	1505.6
557.819	1734.14
562.52	2034.57
567.218	1965.24
571.913	1666.33
576.606	1357.38
581.296	907.214
585.984	768.075
590.669	543.549
595.351	251.569
600.031	352.96
604.708	203.336
609.383	103.561
614.055	25.3345
618.724	3.17188
623.391	19.9072
628.055	15.1089
632.716	68.7104
637.375	242.632
642.031	39.8184
646.685	25.5542
651.335	0.003418
655.984	3.29541
660.63	76.3643
665.273	52.5962
669.913	11.8687
674.551	85.3975
679.186	40.2173
683.819	47.7002
688.449	92.9307
693.076	28.9033
697.701	58.2256
702.323	155.578
706.943	9.86328
711.56	109.777
716.174	134.849
720.786	126.14
725.395	80.6831
730.001	321.675
734.605	174.906
739.206	230.469
743.805	246.972
748.401	300.946
752.995	346.881
757.585	486.97
762.173	618.916
766.759	491.992
771.342	536.956
775.922	713.643
780.5	926.66
785.075	1148.77
789.648	1719.2
794.217	2617.08
798.785	4410.79
803.349	8409.81
807.911	16410.3
812.471	27835.6
817.027	28792.3
821.582	21622.4
826.133	17090.8
830.682	15181.9
835.228	14266.1
839.772	13085.8
844.313	10656
848.852	7468.17
853.387	5018.31
857.921	3143.9
862.451	1980.7
866.979	1260.54
871.505	819.494
876.028	561.463
880.548	293.993
885.065	202.121
889.58	215.126
894.093	187.772
898.602	68.1948
903.109	148.161
907.614	93.5166
912.116	158.2
916.615	292.851
921.112	313.049
925.606	576.055
930.097	864.443
934.586	830.668
939.072	883.351
943.556	781.312
948.037	720.21
952.515	758.805
956.991	589.047
961.464	586.957
965.934	591.837
970.402	494.468
974.867	355.315
979.33	427.675
983.79	386.78
988.248	315.416
992.702	422.276
997.155	311.343
1001.6	71.6606
1006.05	213.186
1010.5	92.8613
1014.94	183.67
1019.38	47.5962
1023.81	140.637
1028.25	68.2749
1032.68	73.7896
1037.11	135.475
1041.53	11.9375
1045.96	48.2935
1050.38	113.295
1054.8	21.7056
1059.21	105.72
1063.62	59.8315
1068.04	162.962
1072.44	3.77441
1076.85	62.4077
1081.25	103.52
1085.65	62.0029
1090.05	21.793
1094.44	167.169
1098.84	35.0605
1103.22	102.012
1107.61	30.9082
1112	16.6372
1116.38	247.792
1120.76	93.9663
1125.13	182.988
1129.51	181.023
1133.88	179.606
1138.25	238.869
1142.61	227.854
1146.98	268.694
1151.34	232.917
1155.7	125.263
1160.05	168.105
1164.4	44.1309
1168.76	110.622
1173.1	107.859
1177.45	13.8667
1181.79	80.2349
1186.13	0.155762
1190.47	80.332
1194.8	121.074
1199.14	117.641
1203.46	70.4619
1207.79	15.8257
1212.12	53.2495
1216.44	2.8169
1220.76	8.30762
1225.08	18.2847
1229.39	123.702
1233.7	22.0308
1238.01	116.899
1242.32	104.159
1246.62	104.48
1250.92	2.77441
1255.22	103.866
1259.51	3.26367
1263.81	43.2217
1268.1	212.457
1272.38	137.501
1276.67	103.349
1280.95	127.013
1285.23	118.494
1289.51	75.854
1293.79	131.545
1298.06	106.598
1302.33	81.2388
1306.6	105.04
1310.86	157.652
1315.12	52.3594
1319.38	148.463
1323.64	103.593
1327.89	175.939
1332.14	141.953
1336.39	148.491
1340.64	158.7
1344.88	171.032
1349.12	119.123
1353.36	152.187
1357.6	136.844
1361.83	88.9121
1366.06	166.555
1370.29	156.962
1374.52	195.681
1378.74	135.19
1382.96	151.056
1387.18	170.299
1391.39	151.935
1395.61	212.958
1399.82	214.865
1404.02	73.7446
1408.23	152.695
1412.43	148.753
1416.63	75.9048
1420.83	225.797
1425.02	79.1001
1429.21	12.8213
1433.4	202.067
1437.59	69.5693
1441.77	130.449
1445.95	229.211
1450.13	168.064
1454.31	197.449
1458.48	112.548
1462.65	237.655
1466.82	162.119
1470.99	152.97
1475.15	246.039
1479.31	12.2241
1483.47	167.496
1487.63	106.152
1491.78	142.952
1495.93	37.9263
1500.08	40.0796
1504.22	15.5825
1508.37	114.952
1512.51	11.6724
1516.64	96.5884
1520.78	79.8887
1524.91	54.602
1529.04	35.727
1533.17	79.8521
1537.29	122.395
1541.41	69.3125
1545.53	49.6084
1549.65	76.3144
1553.77	130.18
1557.88	97.8999
1561.99	57.4766
1566.09	146.698
1570.2	86.5498
1574.3	0.62793
