Measurement: Raman, 514 nm, ccw, Raman Data Processed
Mineral: Fayalite
Rruff sample: R070157
Ideal chemistry: Fe^2+^_2_SiO_4_
Locality: Coso Hot Springs, Inyo County, California, USA
Source: James Shigley
Description: Brown transparent tabular crystals associated with fine grained quartz
Measured chemistry: (Fe^2+^_1.88_Mn_0.11_Zn_0.01_)_Î£=2_Si_1.00_O_4_ ; trace amounts of Mg
Pin_id: M00908
Orientation: Laser parallel to -b* (0 -1 0). Fiducial mark perpendicular to laser is parallel to c [0 0 1]
Raman shift (cm-1)	intensity
142.556	0
147.482	27.8145
152.405	733.918
157.326	2984.18
162.244	11176.4
167.159	32353.8
172.072	49812.9
176.982	26823
181.89	5012.19
186.795	1094.78
191.697	65.5977
196.597	171.835
201.494	209.435
206.389	175.116
211.281	819.914
216.17	2301.9
221.057	4608.42
225.941	9778.09
230.823	20109.9
235.702	33625
240.578	37673.8
245.452	26160.8
250.323	14996.4
255.192	9379.57
260.058	6597.83
264.921	4778.03
269.782	3877.89
274.64	3823.34
279.495	4037.45
284.348	4718.67
289.198	4444.64
294.046	3148.7
298.891	1787.08
303.733	942.653
308.573	738.27
313.41	360.386
318.245	17.8457
323.077	7.46777
327.906	49.1572
332.733	155.819
337.557	26.1133
342.379	88.3564
347.198	268.068
352.014	417.215
356.828	1108.77
361.639	1692.96
366.447	2532.75
371.253	3150.19
376.056	2630.2
380.857	2074.03
385.655	1549.35
390.451	1135.74
395.243	1035.06
400.034	672.263
404.821	581.389
409.606	458.492
414.389	385.606
419.168	371.981
423.945	64.3955
428.72	87.5518
433.492	55.0547
438.261	0.758789
443.028	173.322
447.792	3.27246
452.553	130.905
457.312	237.974
462.068	330.008
466.822	513.153
471.573	353.458
476.321	412.459
481.067	665.371
485.81	846
490.551	864.041
495.289	1352.26
500.024	2428.04
504.757	3049.71
509.487	2997
514.214	1969.42
518.939	1547.19
523.661	1209.6
528.381	1050.04
533.098	1014.51
537.812	1167.13
542.524	1324.78
547.233	1428.11
551.94	1511.47
556.644	1652.06
561.345	1308.76
566.044	1381.85
570.74	1317.27
575.433	1367.85
580.124	1353.29
584.812	1368.76
589.498	1367.4
594.181	1510.07
598.861	1339.42
603.539	1204.48
608.214	749.927
612.887	437.652
617.557	278.501
622.224	223.026
626.889	190.834
631.551	178.379
636.21	223.435
640.867	43.0303
645.521	135.981
650.173	84.4443
654.822	12.4473
659.468	107.975
664.112	61.6992
668.753	196.095
673.392	99.4043
678.028	54.0674
682.661	147.931
687.292	76.7978
691.92	131.416
696.545	119.042
701.168	242.984
705.788	103.834
710.406	93.04
715.021	126.824
719.633	168.065
724.243	422.065
728.85	704.877
733.455	1108.53
738.056	1782.02
742.656	2126.39
747.252	2048.76
751.846	1450.28
756.438	1079.23
761.027	1006.08
765.613	1318.89
770.196	1249.58
774.777	1636.62
779.356	2255.52
783.932	2996.34
788.505	4554.36
793.075	6472.15
797.643	9999.53
802.208	17596.8
806.771	33466.2
811.331	57639.9
815.888	69685.1
820.443	65413.5
824.995	63714.7
829.545	71019.8
834.092	86135.6
838.636	100785
843.178	102434
847.717	88624.8
852.254	69816.8
856.788	53191.1
861.319	40712
865.848	31975.4
870.374	26149.2
874.897	22229.8
879.418	19892.1
883.936	18392.3
888.452	17941.8
892.965	17745.6
897.475	17807.8
901.983	18061.6
906.488	19088.5
910.99	19829.9
915.49	20743.7
919.988	20877.6
924.482	20057.9
928.974	17196
933.464	13534.7
937.951	9900.21
942.435	7264.71
946.917	5363.23
951.396	4013.03
955.872	3210.97
960.346	2530.17
964.817	2009.62
969.285	1461.42
973.751	1281.87
978.215	1011.5
982.675	935.18
987.134	859.984
991.589	589.893
996.042	436.585
1000.49	109.026
1004.94	165.877
1009.38	182.462
1013.83	99.1807
1018.27	158.227
1022.7	76.2168
1027.14	9.65625
1031.57	77.5684
1036	212.465
1040.43	99.6924
1044.85	42.915
1049.27	28.0283
1053.69	122.489
1058.11	117.512
1062.52	64.6328
1066.93	421.687
1071.34	491.62
1075.75	487.026
1080.15	508.136
1084.55	704.186
1088.95	802.429
1093.35	736.243
1097.74	889.825
1102.13	919.047
1106.52	1014.95
1110.9	1049.09
1115.28	1034.11
1119.66	1074.67
1124.04	1211.13
1128.41	1334.97
1132.79	1186.71
1137.16	1512.81
1141.52	1403.19
1145.89	1396.65
1150.25	1209.35
1154.61	1084.6
1158.96	968.711
1163.32	972.473
1167.67	667.037
1172.02	419.769
1176.36	313.363
1180.71	289.981
1185.05	262.892
1189.38	213.715
1193.72	70.5732
1198.05	1.92383
1202.38	60.4395
1206.71	9.12695
1211.04	17.1865
1215.36	6.58984
1219.68	86.8262
1224	0.256836
1228.31	109.596
1232.62	24.2197
1236.93	179.709
1241.24	6.61816
1245.54	56.4277
1249.84	104.225
1254.14	14.0166
1258.44	66.6943
1262.73	32.6699
1267.03	115.862
1271.31	40.3154
1275.6	65.1602
1279.88	211.594
1284.16	219.798
1288.44	194.703
1292.72	349.327
1296.99	295.039
1301.26	280.813
1305.53	421.515
1309.79	481.06
1314.06	406.278
1318.32	520.296
1322.57	442.76
1326.83	562.849
1331.08	496.763
1335.33	475.513
1339.58	449.653
1343.82	403.209
1348.06	465.098
1352.3	343.558
1356.54	407.913
1360.77	310.19
1365.01	302.944
1369.23	240.83
1373.46	201.85
1377.68	236.598
1381.9	227.268
1386.12	480.086
1390.34	263.606
1394.55	364.483
1398.76	486.144
1402.97	415.864
1407.18	434.903
1411.38	639.123
1415.58	434.567
1419.78	600.282
1423.97	522.319
1428.17	552.741
1432.36	464.634
1436.54	594.102
1440.73	555.049
1444.91	563.106
1449.09	691.092
1453.27	691.34
1457.44	530.46
1461.61	585.306
1465.78	631.066
1469.95	469.809
1474.11	466.881
1478.27	573.182
1482.43	504.828
1486.59	567.468
1490.74	505.698
1494.89	323.202
1499.04	259.985
1503.19	291.387
1507.33	477.413
1511.47	302.947
1515.61	408.693
1519.75	343.276
1523.88	330.554
1528.01	419.597
1532.14	350.39
1536.26	381.977
1540.38	293.589
1544.51	233.645
1548.62	154.858
1552.74	335.158
1556.85	239.466
1560.96	180.415
1565.07	258.8
1569.17	220.474
1573.27	135.972
1577.37	0
