Measurement: Raman, 514 nm, ccw, Raman Data Processed
Mineral: Fayalite
Rruff sample: R070157
Ideal chemistry: Fe^2+^_2_SiO_4_
Locality: Coso Hot Springs, Inyo County, California, USA
Source: James Shigley
Description: Brown transparent tabular crystals associated with fine grained quartz
Measured chemistry: (Fe^2+^_1.88_Mn_0.11_Zn_0.01_)_Î£=2_Si_1.00_O_4_ ; trace amounts of Mg
Pin_id: M01904
Orientation: Laser parallel to a* (1 0 0). Fiducial mark perpendicular to laser is parallel to b [0 1 0]
Raman shift (cm-1)	intensity
140.092	0
145.019	13.0859
149.944	328.156
154.866	664.492
159.785	1827.95
164.702	4915.25
169.616	10538.6
174.528	13591.2
179.437	5341.21
184.343	2257.77
189.247	1773.36
194.148	1329.17
199.046	1051.66
203.942	506.863
208.835	275.242
213.726	101.41
218.614	643.848
223.5	1599.98
228.382	3579.72
233.263	6226.02
238.14	10036.5
243.015	9431.55
247.888	5713.21
252.758	3070.78
257.625	2651.88
262.49	2126.45
267.352	2311.46
272.211	4221.86
277.068	7057.67
281.922	9265.88
286.773	9001.44
291.622	6405.73
296.469	3563.9
301.312	2548.26
306.154	1518.88
310.992	1331.9
315.828	1399.44
320.661	883.559
325.492	425.945
330.32	164.129
335.145	436.406
339.968	466.047
344.789	354.922
349.606	952.125
354.421	2101.24
359.234	1574.34
364.043	2256
368.851	2941.41
373.655	2777.97
378.457	2350.61
383.256	1166.08
388.053	808.531
392.847	1013.05
397.639	593.797
402.428	1402.81
407.214	1608.09
411.998	1843.63
416.779	1344.77
421.557	662.894
426.333	964.656
431.106	99.6719
435.877	52.8594
440.645	184.32
445.41	192.781
450.173	2.45703
454.933	146.184
459.691	49.6055
464.446	126.375
469.198	11.4844
473.948	433.512
478.695	439.465
483.439	365.496
488.181	976.379
492.92	1839.39
497.657	3026.64
502.391	4350.83
507.122	5393.8
511.851	4448.95
516.577	3556.24
521.301	3034.65
526.022	2571.19
530.74	2432.87
535.456	2249.68
540.169	2516.62
544.879	2518.7
549.587	3215.91
554.292	4135.88
558.995	4069.57
563.695	4185.39
568.392	4328.12
573.087	4106.85
577.779	3346.41
582.469	2316.97
587.156	1586.37
591.84	1488.66
596.522	1563.53
601.201	1617.26
605.877	1421.45
610.551	1516.66
615.222	1435.64
619.891	1583.06
624.557	1892.52
629.22	1654.08
633.881	1478.71
638.539	1336.39
643.195	1282.13
647.848	1779.89
652.498	1782.71
657.145	1536.58
661.791	1332.52
666.433	727.547
671.073	840.672
675.71	647.906
680.345	595.266
684.977	322.758
689.606	304.402
694.233	124.852
698.857	110.988
703.478	19.6719
708.097	195.262
712.714	128.656
717.327	55.0078
721.938	116.383
726.547	287.824
731.153	285.539
735.756	563.449
740.356	726.016
744.954	793.195
749.55	312.266
754.142	314.945
758.733	341.055
763.32	445.625
767.905	495.684
772.487	694.481
777.067	823.219
781.644	963.793
786.218	2273.03
790.79	3214.02
795.359	5457.82
799.926	9511.34
804.49	18243.8
809.051	35045.1
813.61	53219.1
818.166	54169.8
822.72	45639.2
827.271	40447.4
831.819	40856.2
836.365	43965.7
840.908	44515.6
845.448	39899.8
849.986	31375.3
854.521	22746.7
859.054	17047
863.584	13031.2
868.111	10031
872.636	8236.86
877.158	7179.89
881.677	7520.85
886.194	8148.09
890.709	10274.5
895.22	14323
899.729	20392.8
904.236	22069.3
908.74	16265.9
913.241	10785.2
917.739	8998.32
922.235	8032.02
926.729	7422.03
931.219	6735.93
935.708	5880.83
940.193	4544.43
944.676	3849.7
949.156	3275.36
953.634	3322.36
958.109	2301.39
962.582	1807.34
967.051	1488.23
971.519	1046.62
975.983	976.441
980.445	861.551
984.905	613.984
989.362	618.977
993.816	452.973
998.267	682.035
1002.72	1685.86
1007.16	752.656
1011.61	126.918
1016.05	96.5078
1020.49	88.6914
1024.92	557.297
1029.36	127.203
1033.79	194.269
1038.21	213.906
1042.64	102.031
1047.06	117.68
1051.48	104.676
1055.9	147.367
1060.32	7.04688
1064.73	57.5586
1069.14	211.981
1073.55	352.012
1077.95	373.832
1082.35	727.883
1086.75	733.316
1091.15	685.098
1095.54	477.141
1099.93	511.102
1104.32	164.949
1108.71	313.66
1113.09	335.203
1117.47	859.984
1121.85	466.289
1126.23	529.434
1130.6	758.137
1134.97	462.133
1139.34	676.074
1143.7	548.844
1148.07	278.363
1152.43	188.844
1156.79	536.269
1161.14	10.0742
1165.49	188.246
1169.84	524.648
1174.19	226.109
1178.54	79.8594
1182.88	110.305
1187.22	114.023
1191.55	72.7305
1195.89	253.582
1200.22	16.8945
1204.55	11.3203
1208.87	67.0977
1213.2	97.8477
1217.52	8.12109
1221.84	344.41
1226.15	122.66
1230.47	207.68
1234.78	345.484
1239.09	766.09
1243.39	726.504
1247.69	597.746
1251.99	992.832
1256.29	845.856
1260.59	1070.82
1264.88	1073.68
1269.17	1462.48
1273.46	1746.21
1277.74	1759.99
1282.02	1820.92
1286.3	1728.71
1290.58	1928.99
1294.86	2353.04
1299.13	2337.2
1303.39	2561.51
1307.66	2968.28
1311.93	3194.66
1316.19	3322.55
1320.45	3358.99
1324.7	3028.01
1328.96	3041.75
1333.21	2637.01
1337.45	2477.67
1341.7	2230.52
1345.94	2179.02
1350.18	1969.82
1354.42	1934.68
1358.66	1509.57
1362.89	1315.55
1367.12	1455.11
1371.35	1385.95
1375.57	1270.35
1379.8	1322.35
1384.02	1209.09
1388.23	869.023
1392.45	955.144
1396.66	805.394
1400.87	921.188
1405.08	698.215
1409.28	570.184
1413.48	889.09
1417.68	586.074
1421.88	491.644
1426.07	492.168
1430.26	804.629
1434.45	1080.14
1438.64	1840.96
1442.82	2159.32
1447	2837.48
1451.18	2793.09
1455.35	2783.68
1459.53	2574.54
1463.7	2244.7
1467.87	1880.27
1472.03	1364
1476.19	1177.85
1480.35	858.172
1484.51	833.332
1488.67	500.773
1492.82	436.496
1496.97	315.238
1501.12	241.988
1505.26	80.8086
1509.4	287.961
1513.54	113.973
1517.68	71.9102
1521.81	338.039
1525.94	71.3047
1530.07	71
1534.2	398.094
1538.32	530.316
1542.44	303.742
1546.56	412.84
1550.68	1104.93
1554.79	774.168
1558.9	635.832
1563.01	29.5039
1567.12	293.113
1571.22	94.7305
1575.32	122.297
