Measurement: Raman, 514 nm, ccw, Raman Data Processed
Mineral: Fayalite
Rruff sample: R070157
Ideal chemistry: Fe^2+^_2_SiO_4_
Locality: Coso Hot Springs, Inyo County, California, USA
Source: James Shigley
Description: Brown transparent tabular crystals associated with fine grained quartz
Measured chemistry: (Fe^2+^_1.88_Mn_0.11_Zn_0.01_)_Î£=2_Si_1.00_O_4_ ; trace amounts of Mg
Pin_id: M00908
Orientation: Laser parallel to -b* (0 -1 0). Fiducial mark perpendicular to laser is parallel to c [0 0 1]
Raman shift (cm-1)	intensity
142.556	0
147.482	253.129
152.405	978.635
157.326	898.934
162.244	422.818
167.159	303.268
172.072	1071.06
176.982	1303.05
181.89	458.457
186.795	1254.25
191.697	1207.89
196.597	833.123
201.494	348.092
206.389	81.9707
211.281	37.8379
216.17	661.844
221.057	121.697
225.941	17.75
230.823	364.982
235.702	371.559
240.578	62.0234
245.452	782.107
250.323	651.158
255.192	1292.82
260.058	2060.56
264.921	2883
269.782	4647.79
274.64	8331.2
279.495	14924.1
284.348	24276.9
289.198	32854.2
294.046	29159.8
298.891	17948.6
303.733	9873.3
308.573	6076.51
313.41	4243.94
318.245	2730.25
323.077	2039.67
327.906	1466.6
332.733	1278.47
337.557	1612.89
342.379	2024.22
347.198	2902.25
352.014	4657.92
356.828	7188.37
361.639	11119.2
366.447	15596.9
371.253	17237.2
376.056	15447.2
380.857	12027.3
385.655	8579.92
390.451	6216.16
395.243	4301.23
400.034	3140.11
404.821	2249.45
409.606	1512.2
414.389	1055.31
419.168	765.744
423.945	459.435
428.72	56.3125
433.492	206.045
438.261	10.1367
443.028	225.453
447.792	74.9492
452.553	182.615
457.312	4.49219
462.068	305.611
466.822	372.879
471.573	61.8984
476.321	262.772
481.067	337.807
485.81	414.014
490.551	673.137
495.289	815.371
500.024	883.561
504.757	1176.01
509.487	1341.32
514.214	1390.99
518.939	1511
523.661	1474.14
528.381	1640.66
533.098	1951.06
537.812	2112.87
542.524	3084.13
547.233	4198.22
551.94	5893.07
556.644	8240.67
561.345	9734.57
566.044	9882.53
570.74	8331.86
575.433	6007.81
580.124	4360.95
584.812	2910.57
589.498	2154.54
594.181	1652.89
598.861	1327.01
603.539	719.281
608.214	580.756
612.887	253.951
617.557	66.6719
622.224	4.63672
626.889	178.353
631.551	173.256
636.21	19.4473
640.867	15.2422
645.521	69.4219
650.173	131.611
654.822	201.832
659.468	125.482
664.112	60.1523
668.753	66.9766
673.392	282.207
678.028	384.119
682.661	719.973
687.292	874.285
691.92	889.137
696.545	763.582
701.168	847.67
705.788	874.467
710.406	1173.07
715.021	1435.65
719.633	1865.65
724.243	2248.81
728.85	2650.55
733.455	3629.51
738.056	4597.74
742.656	5384.96
747.252	5203.76
751.846	4292.09
756.438	3941.04
761.027	4174.26
765.613	4672.39
770.196	5108.52
774.777	6431.06
779.356	8377.22
783.932	10997.7
788.505	15827.4
793.075	23222.8
797.643	36675.1
802.208	64277.3
806.771	118660
811.331	185473
815.888	198644
820.443	154265
824.995	117928
829.545	103617
834.092	102846
838.636	103403
843.178	92528.6
847.717	70679.8
852.254	48815.8
856.788	32515.7
861.319	21434.3
865.848	14425.7
870.374	9354.02
874.897	6622.16
879.418	4783.18
883.936	3429.71
888.452	2459.94
892.965	1801.21
897.475	1353.36
901.983	510.965
906.488	399.422
910.99	240.805
915.49	408.519
919.988	873.432
924.482	1686.07
928.974	2284.62
933.464	2779.27
937.951	2789.83
942.435	2801.53
946.917	2680.92
951.396	2451.64
955.872	2110.79
960.346	1978.95
964.817	1627.32
969.285	1438.53
973.751	1073.27
978.215	1264.08
982.675	1116.9
987.134	840.652
991.589	818.297
996.042	703.801
1000.49	396.213
1004.94	518.391
1009.38	327.299
1013.83	163.889
1018.27	40.0215
1022.7	195.002
1027.14	74.2656
1031.57	123.129
1036	312.277
1040.43	128.557
1044.85	32.4785
1049.27	8.96484
1053.69	66.6992
1058.11	110.281
1062.52	35.3184
1066.93	115.715
1071.34	259.832
1075.75	321.164
1080.15	467.381
1084.55	299.582
1088.95	556.117
1093.35	588.059
1097.74	638.482
1102.13	744.17
1106.52	857.557
1110.9	876.799
1115.28	1057.02
1119.66	1133.97
1124.04	1224.65
1128.41	1735.29
1132.79	1633.41
1137.16	1510.23
1141.52	1669.76
1145.89	1786.97
1150.25	1418.15
1154.61	1264.38
1158.96	1084.45
1163.32	1008.39
1167.67	1088.72
1172.02	808.586
1176.36	533.631
1180.71	625.238
1185.05	380.871
1189.38	175.381
1193.72	263.141
1198.05	12.6641
1202.38	140.809
1206.71	79.9668
1211.04	69.7617
1215.36	4.50195
1219.68	4.02734
1224	90.9102
1228.31	40.1914
1232.62	32.9512
1236.93	32.6523
1241.24	91.7852
1245.54	232.43
1249.84	317.672
1254.14	258.539
1258.44	107.019
1262.73	144.051
1267.03	451.828
1271.31	69.375
1275.6	138.742
1279.88	258.106
1284.16	484.785
1288.44	615
1292.72	296.93
1296.99	422.356
1301.26	435.723
1305.53	361.211
1309.79	392.789
1314.06	560.203
1318.32	855.438
1322.57	796.406
1326.83	651.566
1331.08	816.856
1335.33	682.281
1339.58	751.453
1343.82	1108.27
1348.06	1360.39
1352.3	1074.11
1356.54	583.519
1360.77	824.406
1365.01	635.906
1369.23	839.879
1373.46	768.234
1377.68	313.246
1381.9	864.004
1386.12	757.199
1390.34	833.387
1394.55	757.356
1398.76	655.137
1402.97	760.805
1407.18	958.133
1411.38	729.035
1415.58	808.297
1419.78	789.703
1423.97	932.547
1428.17	843.894
1432.36	658.695
1436.54	925.129
1440.73	921.441
1444.91	788.992
1449.09	934.004
1453.27	936.766
1457.44	977.606
1461.61	718.129
1465.78	713.969
1469.95	598.199
1474.11	495.051
1478.27	805.344
1482.43	651.062
1486.59	745.465
1490.74	383.375
1494.89	457.848
1499.04	511.887
1503.19	524.481
1507.33	584.555
1511.47	227.945
1515.61	357.043
1519.75	517.477
1523.88	439.977
1528.01	350.559
1532.14	171.43
1536.26	604.894
1540.38	606.367
1544.51	358.297
1548.62	477.242
1552.74	484.738
1556.85	253.555
1560.96	184.613
1565.07	378.898
1569.17	587.031
1573.27	386.547
1577.37	0
