Measurement: Raman, 514 nm, ccw, Raman Data Processed
Mineral: Fayalite
Rruff sample: R070157
Ideal chemistry: Fe^2+^_2_SiO_4_
Locality: Coso Hot Springs, Inyo County, California, USA
Source: James Shigley
Description: Brown transparent tabular crystals associated with fine grained quartz
Measured chemistry: (Fe^2+^_1.88_Mn_0.11_Zn_0.01_)_Î£=2_Si_1.00_O_4_ ; trace amounts of Mg
Pin_id: M01877
Orientation: Laser parallel to c* (0 0 1). Fiducial mark perpendicular to laser is parallel to a [1 0 0]
Raman shift (cm-1)	intensity
96.869	0
101.819	110.298
106.766	1603.08
111.711	536.408
116.653	1326.56
121.592	941.337
126.529	103.194
131.464	164.003
136.395	69.73
141.324	399.95
146.251	375.606
151.175	2244.94
156.096	2350.75
161.015	796.617
165.931	1078.43
170.844	2805.52
175.755	1971.14
180.663	569.532
185.569	53.1098
190.472	569.75
195.373	680.358
200.27	474.678
205.166	82.2147
210.058	97.9099
214.948	108.647
219.836	323.531
224.721	619.429
229.603	2210.26
234.482	4185.41
239.359	4973.34
244.234	3719.83
249.106	2088.22
253.975	970.233
258.841	941.949
263.705	548.355
268.567	467.781
273.425	688.699
278.281	1330.22
283.135	2337.05
287.986	2732.95
292.834	2818.76
297.68	2426.72
302.523	2228.35
307.363	2324.99
312.201	2379.22
317.037	2206.87
321.869	2111.16
326.699	2267.65
331.527	2339.31
336.351	2687.41
341.174	3436.15
345.993	4243.69
350.81	5499.89
355.625	7451.01
360.436	10156.8
365.245	12821.3
370.052	13862.9
374.856	12167.1
379.657	8973.82
384.456	6088.07
389.252	3957.61
394.045	2508.85
398.836	1200.57
403.625	766.415
408.41	269.023
413.193	46.4061
417.974	86.0448
422.751	83.6639
427.527	52.8189
432.299	48.2097
437.069	7.26131
441.836	60.1879
446.601	271.915
451.363	23.4297
456.123	256.233
460.88	250.186
465.634	442.468
470.386	658.963
475.135	812.218
479.881	1082.02
484.625	1868.4
489.366	2833.55
494.105	4478.48
498.84	7957.06
503.574	13297
508.305	14640.1
513.033	10972.5
517.758	7410.76
522.481	5518.23
527.201	4655.76
531.919	4112.53
536.634	4090.53
541.346	4395.95
546.056	4762.07
550.763	5375.19
555.468	6403.72
560.17	6859.74
564.869	6791.37
569.566	5828.44
574.26	4718.76
578.952	3635.64
583.641	2921.62
588.327	2300.88
593.011	1843.23
597.692	1727.17
602.37	1417.99
607.046	1065.55
611.719	792.387
616.39	433.239
621.058	282.387
625.723	272.173
630.386	315.2
635.046	109.667
639.703	5.41794
644.358	96.1269
649.01	17.4011
653.66	140.159
658.307	92.2054
662.951	59.9707
667.593	42.5438
672.232	51.2427
676.869	30.7116
681.503	4.37476
686.134	24.3235
690.763	89.6028
695.389	52.3767
700.013	67.0067
704.633	77.8742
709.252	136.735
713.867	22.3853
718.48	154.674
723.091	133.011
727.698	197.584
732.304	374.336
736.906	675.337
741.506	1056.65
746.103	1137.35
750.698	919.5
755.29	819.628
759.88	867.172
764.467	1070.91
769.051	1395.65
773.632	1953.95
778.211	2634.46
782.788	3989.47
787.362	6138.2
791.933	10111.2
796.501	16980.7
801.067	31773.8
805.631	64430.5
810.191	118784
814.749	150109
819.305	131143
823.858	102609
828.408	87590.8
832.956	82408.9
837.501	79020.3
842.043	69003.7
846.583	51957.8
851.12	33264.4
855.654	20196.5
860.186	11585.3
864.716	6491.8
869.242	3458.11
873.766	1673.28
878.288	863.373
882.807	217.462
887.323	113.627
891.837	150.993
896.348	173.226
900.856	468.356
905.362	627.206
909.865	857.679
914.366	1843.6
918.864	3407.57
923.359	5503.76
927.852	7434.79
932.342	8238.08
936.829	8231.21
941.314	7609.49
945.796	6769.17
950.276	5823.75
954.753	5399.3
959.228	4711.84
963.699	4127.63
968.169	3453.55
972.635	3188.26
977.099	2880.65
981.56	2320.47
986.019	2125.12
990.475	1904.98
994.929	1533.98
999.38	1486.1
1003.83	1176.16
1008.27	860.1
1012.72	526.897
1017.16	470.392
1021.6	261.357
1026.03	67.9982
1030.46	83.1013
1034.89	40.8808
1039.32	121.908
1043.74	104.133
1048.17	123.173
1052.59	9.60182
1057	16.3078
1061.42	12.7775
1065.83	49.6396
1070.24	177.653
1074.65	24.792
1079.05	65.3191
1083.45	68.4223
1087.85	97.9153
1092.25	113.878
1096.64	57.0525
1101.03	106.735
1105.42	326.675
1109.8	275.957
1114.19	237.496
1118.57	467.277
1122.95	461.879
1127.32	736.09
1131.69	950.068
1136.06	993.337
1140.43	875.18
1144.8	974.054
1149.16	974.078
1153.52	924.792
1157.87	844.392
1162.23	347.53
1166.58	477.31
1170.93	228.984
1175.28	203.984
1179.62	17.76
1183.96	176.544
1188.3	5.97332
1192.64	105.977
1196.97	100.505
1201.3	124.848
1205.63	41.6654
1209.95	9.83719
1214.28	10.5071
1218.6	58.3764
1222.92	56.8277
1227.23	89.8635
1231.55	542.86
1235.86	115.729
1240.16	20.9989
1244.47	30.8398
1248.77	114.693
1253.07	17.8721
1257.37	118.18
1261.66	177.739
1265.95	278.7
1270.24	266.049
1274.53	255.797
1278.81	347.139
1283.09	216.441
1287.37	265.618
1291.65	391.908
1295.92	222.977
1300.19	399.896
1304.46	429.897
1308.73	432.495
1312.99	567.72
1317.25	620.191
1321.51	382.084
1325.77	428.963
1330.02	500.566
1334.27	559.126
1338.52	454.992
1342.76	561.583
1347	449.085
1351.24	285.372
1355.48	482.728
1359.72	467.215
1363.95	531.107
1368.18	441.039
1372.4	420.54
1376.63	357.654
1380.85	294.476
1385.07	466.943
1389.29	397.619
1393.5	474.651
1397.71	636.42
1401.92	359.017
1406.13	476.232
1410.33	463.895
1414.53	511.724
1418.73	555.729
1422.92	540.882
1427.12	228.453
1431.31	220.867
1435.5	621.808
1439.68	406.691
1443.87	427.214
1448.05	388.343
1452.22	289.6
1456.4	207.816
1460.57	212.602
1464.74	421.216
1468.91	308.24
1473.07	200.14
1477.23	385.642
1481.39	62.5371
1485.55	270.108
1489.7	434.849
1493.86	179.644
1498.01	19.5796
1502.15	180.721
1506.3	165.199
1510.44	9.77603
1514.58	106.234
1518.71	339.794
1522.85	89.8798
1526.98	142.556
1531.11	328.798
1535.23	276.219
1539.35	152.711
1543.47	447.935
1547.59	192.709
1551.71	276.409
1555.82	329.788
1559.93	14.5804
1564.04	14.1077
1568.14	422.427
1572.25	328.165
1576.35	0.255758
