Measurement: Raman, 514 nm, depolarized, Raman Data Processed
Mineral: Fayalite
Rruff sample: R070374
Ideal chemistry: Fe^2+^_2_SiO_4_
Locality: Little Lake, Lake County, California, USA
Source: Michael Scott
Description: Large dark brown crystal fragment
Measured chemistry: (Fe^2+^_1.89_Mn^2+^_0.11_)_Î£=2_Si_1.00_O_4_ ; trace amounts of Mg
Pin_id: M01107
Orientation: Laser parallel to b* (0 1 0). Fiducial mark perpendicular to laser is parallel to c [0 0 1]
Raman shift (cm-1)	intensity
94.393	0
99.344	1.55737
104.293	110.679
109.239	294.411
114.182	360.152
119.123	92.6218
124.061	170.878
128.997	82.5708
133.93	52.6558
138.86	157.608
143.788	8.06152
148.713	23.8105
153.636	31.3931
158.556	161.083
163.473	194.19
168.388	340.195
173.3	581.404
178.21	220.979
183.117	153.842
188.021	204.895
192.923	234.22
197.822	384.069
202.718	319.026
207.612	0.25415
212.504	30.6331
217.392	17.001
222.279	71.8301
227.162	48.2891
232.043	54.4072
236.921	224.238
241.797	282.659
246.67	152.135
251.54	90.3203
256.408	20.3164
261.274	35.7761
266.136	32.7246
270.996	34.0092
275.854	26.7924
280.709	68.0261
285.561	198.826
290.41	174.93
295.257	187.269
300.102	131.462
304.944	127.499
309.783	90.0405
314.619	92.9429
319.453	69.8518
324.285	68.5679
329.113	13.0897
333.939	18.8409
338.763	56.4772
343.584	28.9481
348.402	89.2234
353.218	35.6508
358.031	68.8622
362.841	68.6101
367.649	68.1553
372.454	43.7435
377.257	79.2174
382.057	89.9638
386.854	71.8417
391.649	62.5254
396.441	97.6692
401.231	108.506
406.018	94.2944
410.802	88.8997
415.584	62.3516
420.363	38.5173
425.139	18.5955
429.913	39.6625
434.684	18.7361
439.453	9.66858
444.219	27.5265
448.982	35.0416
453.743	8.42273
458.501	17.6996
463.257	28.5146
468.01	7.9856
472.76	2.80579
477.508	1.44714
482.253	9.34705
486.996	37.0292
491.736	29.001
496.473	60.1212
501.207	52.3687
505.94	47.7826
510.669	60.6754
515.396	51.6733
520.12	63.7631
524.842	100.568
529.561	101.221
534.277	60.0898
538.991	85.9391
543.702	108.707
548.41	158.372
553.116	181.984
557.819	178.675
562.52	133.625
567.218	194.906
571.913	151.642
576.606	154.965
581.296	141.338
585.984	116.06
590.669	89.1278
595.351	102.369
600.031	114.784
604.708	134.29
609.383	126.998
614.055	129.173
618.724	126.603
623.391	93.817
628.055	120.446
632.716	145.501
637.375	107.041
642.031	134.386
646.685	99.8813
651.335	118.597
655.984	166.334
660.63	110.9
665.273	159.44
669.913	96.9545
674.551	118.443
679.186	151.903
683.819	116.335
688.449	137.741
693.076	82.1222
697.701	163.476
702.323	59.8099
706.943	97.1237
711.56	73.4519
716.174	77.7871
720.786	70.1154
725.395	52.4313
730.001	53.7498
734.605	34.0446
739.206	9.31287
743.805	23.5503
748.401	2.22681
752.995	5.94995
757.585	0.968262
762.173	60.0363
766.759	5.10083
771.342	16.6099
775.922	2.25049
780.5	6.26172
785.075	61.0395
789.648	11.2996
794.217	38.5253
798.785	197.73
803.349	224.903
807.911	604.043
812.471	1026.15
817.027	1012.23
821.582	820.29
826.133	712.305
830.682	735.318
835.228	909.279
839.772	984.21
844.313	864.112
848.852	768.261
853.387	576.119
857.921	387
862.451	337.051
866.979	226.84
871.505	198.573
876.028	159.117
880.548	185.633
885.065	135.214
889.58	140.304
894.093	125.251
898.602	104.205
903.109	119.496
907.614	140.143
912.116	96.411
916.615	164.623
921.112	120.545
925.606	126.966
930.097	96.4785
934.586	103.065
939.072	96.6445
943.556	36.2173
948.037	44.7835
952.515	52.3434
956.991	14.9102
961.464	49.4711
965.934	51.3503
970.402	37.9154
974.867	29.4711
979.33	13.0212
983.79	41.4066
988.248	1.00134
992.702	19.5281
997.155	86.4464
1001.6	76.9755
1006.05	63.527
1010.5	2.20019
1014.94	36.3525
1019.38	34.8935
1023.81	40.6022
1028.25	12.3398
1032.68	37.9841
1037.11	79.6317
1041.53	31.3141
1045.96	50.0498
1050.38	5.45898
1054.8	9.0293
1059.21	28.2834
1063.62	45.0049
1068.04	51.6982
1072.44	47.4097
1076.85	46.146
1081.25	31.8605
1085.65	42.2583
1090.05	51.938
1094.44	77.5604
1098.84	14.1408
1103.22	45.4948
1107.61	77.0637
1112	9.66614
1116.38	3.91504
1120.76	49.8315
1125.13	70.3087
1129.51	53.5024
1133.88	51.103
1138.25	13.7474
1142.61	98.0192
1146.98	68.3675
1151.34	99.4164
1155.7	3.26709
1160.05	30.5857
1164.4	43.8224
1168.76	32.1295
1173.1	23.2877
1177.45	33.9564
1181.79	61.1967
1186.13	35.5679
1190.47	24.5745
1194.8	51.5743
1199.14	16.526
1203.46	11.4548
1207.79	65.3593
1212.12	67.2441
1216.44	68.1239
1220.76	43.9558
1225.08	18.7965
1229.39	11.2518
1233.7	62.1823
1238.01	67.7211
1242.32	21.3861
1246.62	66.2003
1250.92	70.8521
1255.22	61.4868
1259.51	19.2916
1263.81	15.1453
1268.1	39.5897
1272.38	59.363
1276.67	70.8007
1280.95	49.1228
1285.23	93.8805
1289.51	43.6354
1293.79	4.96887
1298.06	102.363
1302.33	76.744
1306.6	63.0823
1310.86	87.7195
1315.12	73.3817
1319.38	64.2745
1323.64	62.8551
1327.89	46.2277
1332.14	61.5604
1336.39	58.0588
1340.64	41.3751
1344.88	18.1163
1349.12	26.4217
1353.36	75.8248
1357.6	58.1462
1361.83	52.7375
1366.06	47.0549
1370.29	71.3455
1374.52	48.6716
1378.74	67.5308
1382.96	69.3023
1387.18	51.3237
1391.39	65.8081
1395.61	40.9421
1399.82	62.2585
1404.02	43.5735
1408.23	41.8904
1412.43	8.40894
1416.63	49.7454
1420.83	17.0964
1425.02	48.4834
1429.21	6.94141
1433.4	47.3264
1437.59	88.7961
1441.77	6.2417
1445.95	82.238
1450.13	14.3438
1454.31	37.8999
1458.48	44.4395
1462.65	26.9683
1466.82	10.4529
1470.99	25.166
1475.15	55.8125
1479.31	11.4829
1483.47	42.6243
1487.63	58.3889
1491.78	54.7668
1495.93	24.5183
1500.08	44.792
1504.22	8.88574
1508.37	48.938
1512.51	34.4158
1516.64	52.2976
1520.78	65.4556
1524.91	18.8296
1529.04	70.5015
1533.17	38.3994
1537.29	60.4551
1541.41	2.77783
1545.53	7.68115
1549.65	35.3967
1553.77	38.5796
1557.88	47.4104
1561.99	66.281
1566.09	21.0386
1570.2	31.4062
