Measurement: Raman, 514 nm, depolarized, Raman Data Processed
Mineral: Fayalite
Rruff sample: R070157
Ideal chemistry: Fe^2+^_2_SiO_4_
Locality: Coso Hot Springs, Inyo County, California, USA
Source: James Shigley
Description: Brown transparent tabular crystals associated with fine grained quartz
Measured chemistry: (Fe^2+^_1.88_Mn_0.11_Zn_0.01_)_Î£=2_Si_1.00_O_4_ ; trace amounts of Mg
Pin_id: M01904
Orientation: Laser parallel to a* (1 0 0). Fiducial mark perpendicular to laser is parallel to b [0 1 0]
Raman shift (cm-1)	intensity
140.092	0
145.019	19.4219
149.944	180.912
154.866	939.668
159.785	2433.49
164.702	7082.53
169.616	16003
174.528	22379
179.437	7413.87
184.343	1988.9
189.247	978.609
194.148	877.721
199.046	437.023
203.942	102.418
208.835	186.586
213.726	293.713
218.614	1245.51
223.5	2841.84
228.382	5864.27
233.263	10533
238.14	16527.3
243.015	16207
247.888	10078.3
252.758	5814.84
257.625	4002.47
262.49	2722.65
267.352	2459.06
272.211	3494.63
277.068	5019.91
281.922	6898.95
286.773	7014.64
291.622	5451.38
296.469	3612.68
301.312	2439.07
306.154	1940.23
310.992	1698.25
315.828	1467.96
320.661	1084.41
325.492	865.08
330.32	616.262
335.145	873.459
339.968	977.184
344.789	1195.13
349.606	1776.85
354.421	2337.97
359.234	3167.22
364.043	4509.24
368.851	5113.62
373.655	5020.73
378.457	3901.83
383.256	2631.72
388.053	2011.52
392.847	1464.88
397.639	1340.85
402.428	1716.46
407.214	2357.72
411.998	2374.11
416.779	1715.74
421.557	1207.2
426.333	789.471
431.106	488.713
435.877	203.832
440.645	139.008
445.41	31.7441
450.173	184.508
454.933	165.863
459.691	26.0664
464.446	54.9551
469.198	21.8008
473.948	511.67
478.695	321.844
483.439	718.432
488.181	809.57
492.92	1588.43
497.657	2970.5
502.391	5327.88
507.122	6634.26
511.851	5651.27
516.577	3750.21
521.301	2582.3
526.022	2007.53
530.74	1712.9
535.456	1534.39
540.169	1934.24
544.879	1823.52
549.587	2172.25
554.292	2737.35
558.995	3366.12
563.695	3840.9
568.392	3826.38
573.087	3409.82
577.779	2999.28
582.469	2248.03
587.156	1927.92
591.84	1792.77
596.522	1888.95
601.201	1812.44
605.877	1495.86
610.551	1643.35
615.222	1508.34
619.891	1696.19
624.557	2169.2
629.22	1743
633.881	1430.8
638.539	1034.81
643.195	1343.37
647.848	1833.97
652.498	1520.64
657.145	1586.39
661.791	1059.26
666.433	943.285
671.073	723.481
675.71	564.877
680.345	390.498
684.977	243.356
689.606	94.6856
694.233	229.406
698.857	202.93
703.478	210.275
708.097	297.84
712.714	271.074
717.327	11.7051
721.938	39.3203
726.547	102.502
731.153	548.607
735.756	600.359
740.356	934.766
744.954	1171.69
749.55	936.865
754.142	666.238
758.733	451.652
763.32	895.537
767.905	675.981
772.487	784.086
777.067	1461.74
781.644	1888.15
786.218	2959.07
790.79	4749.65
795.359	7632.88
799.926	13457.7
804.49	25404.1
809.051	49164
813.61	75759.5
818.166	78388.4
822.72	66281.3
827.271	58886.7
831.819	60236.9
836.365	64430.5
840.908	67016
845.448	59846.9
849.986	47295.2
854.521	35056.5
859.054	25629.4
863.584	19141.3
868.111	14777.8
872.636	11804.8
877.158	10546.5
881.677	9893.65
886.194	10169.5
890.709	11005.8
895.22	14053.8
899.729	18267.5
904.236	19641.7
908.74	15588.3
913.241	12415.1
917.739	11352
922.235	11424.6
926.729	10968.6
931.219	9866.71
935.708	8059.12
940.193	6382.32
944.676	5222.89
949.156	4318.37
953.634	3554.32
958.109	2899.3
962.582	2242.22
967.051	2097.61
971.519	1656.57
975.983	1272.64
980.445	1032.32
984.905	974.256
989.362	900.936
993.816	628.873
998.267	926.398
1002.72	1919.39
1007.16	729.76
1011.61	268.481
1016.05	247.516
1020.49	160.834
1024.92	467.397
1029.36	196.168
1033.79	104.014
1038.21	81.5019
1042.64	90.2949
1047.06	67.9453
1051.48	80.5039
1055.9	75.4316
1060.32	1.91992
1064.73	5.64648
1069.14	14.998
1073.55	98.418
1077.95	475.127
1082.35	694.979
1086.75	710.486
1091.15	684.637
1095.54	327.912
1099.93	498.07
1104.32	1327.5
1108.71	1563.99
1113.09	899.924
1117.47	729.945
1121.85	971.4
1126.23	638.316
1130.6	875.215
1134.97	694.062
1139.34	599.826
1143.7	730.481
1148.07	597.992
1152.43	420.336
1156.79	455.481
1161.14	269.4
1165.49	263.275
1169.84	364.861
1174.19	166.434
1178.54	137.709
1182.88	26.9512
1187.22	70.1289
1191.55	186.227
1195.89	130.953
1200.22	229.85
1204.55	152.244
1208.87	45.0234
1213.2	51.4492
1217.52	48.0508
1221.84	74.8516
1226.15	141.641
1230.47	164.414
1234.78	328.705
1239.09	608.227
1243.39	513.424
1247.69	803.301
1251.99	753.867
1256.29	1022.17
1260.59	1311.27
1264.88	1455.11
1269.17	1611.69
1273.46	2061.02
1277.74	2021.09
1282.02	2146.93
1286.3	2080.54
1290.58	2073.95
1294.86	2888.3
1299.13	2807.66
1303.39	3101.28
1307.66	3443.03
1311.93	3832.52
1316.19	3776.86
1320.45	3704.78
1324.7	3712
1328.96	3424.7
1333.21	2733.48
1337.45	2644.69
1341.7	2488.21
1345.94	2366.45
1350.18	2001.58
1354.42	1810.74
1358.66	1652.56
1362.89	1335.56
1367.12	1330.82
1371.35	1203.38
1375.57	1102.27
1379.8	1324.52
1384.02	1064.59
1388.23	981.727
1392.45	951.084
1396.66	834.004
1400.87	835.475
1405.08	537.436
1409.28	811.982
1413.48	626.16
1417.68	683.023
1421.88	337.154
1426.07	621.814
1430.26	537.188
1434.45	995.385
1438.64	1398
1442.82	2032.5
1447	2233.92
1451.18	2835.59
1455.35	2719.62
1459.53	2560.69
1463.7	2161.76
1467.87	1549.75
1472.03	1457.02
1476.19	1088.19
1480.35	844.293
1484.51	888.051
1488.67	383.672
1492.82	365.322
1496.97	214.053
1501.12	45.8867
1505.26	75.8965
1509.4	103.039
1513.54	215.106
1517.68	116.125
1521.81	4.9082
1525.94	161.002
1530.07	350.873
1534.2	418.102
1538.32	365.496
1542.44	239.494
1546.56	243.326
1550.68	486.25
1554.79	1054.62
1558.9	180.291
1563.01	25.502
1567.12	279.215
1571.22	157.998
1575.32	54.0645
