Measurement: Raman, 514 nm, depolarized, Raman Data Processed
Mineral: Fayalite
Rruff sample: R070157
Ideal chemistry: Fe^2+^_2_SiO_4_
Locality: Coso Hot Springs, Inyo County, California, USA
Source: James Shigley
Description: Brown transparent tabular crystals associated with fine grained quartz
Measured chemistry: (Fe^2+^_1.88_Mn_0.11_Zn_0.01_)_Î£=2_Si_1.00_O_4_ ; trace amounts of Mg
Pin_id: M00908
Orientation: Laser parallel to -b* (0 -1 0). Fiducial mark perpendicular to laser is parallel to c [0 0 1]
Raman shift (cm-1)	intensity
142.556	0
147.482	323.022
152.405	410.426
157.326	1924.27
162.244	4621.25
167.159	14124.6
172.072	20228.6
176.982	12836.5
181.89	3103.19
186.795	1439.85
191.697	538.481
196.597	990.894
201.494	759.096
206.389	439.185
211.281	94.0996
216.17	1189.33
221.057	1964.64
225.941	3279.91
230.823	7163.74
235.702	12957.1
240.578	14814.9
245.452	10618
250.323	6382.44
255.192	3802.55
260.058	3693.9
264.921	3238.68
269.782	3731.7
274.64	5562.87
279.495	9055.4
284.348	14681.9
289.198	19067.6
294.046	17655
298.891	11351.6
303.733	7856.18
308.573	6324.29
313.41	4074.3
318.245	2565.92
323.077	1453.96
327.906	696.894
332.733	441.565
337.557	68.8574
342.379	248.75
347.198	180.725
352.014	1218.51
356.828	2689.7
361.639	4102.37
366.447	6048.11
371.253	7200.49
376.056	6257.56
380.857	4769.97
385.655	3500.85
390.451	2556.9
395.243	2336.01
400.034	2269.35
404.821	2149.68
409.606	1817.95
414.389	1238.16
419.168	980.289
423.945	628.243
428.72	122.778
433.492	168.228
438.261	62.4639
443.028	7.69727
447.792	97.2822
452.553	77.4873
457.312	323.191
462.068	14.0479
466.822	61.1641
471.573	337.488
476.321	454.475
481.067	350.381
485.81	432.264
490.551	817.997
495.289	909.931
500.024	1628.59
504.757	1997.72
509.487	2045.85
514.214	1856.7
518.939	1820.09
523.661	1742.11
528.381	2009.59
533.098	1955.84
537.812	2601.02
542.524	3176.59
547.233	4500.69
551.94	5481.56
556.644	6127.05
561.345	5648.96
566.044	5563.4
570.74	4516.38
575.433	3730.09
580.124	2553.48
584.812	2030.6
589.498	1563.92
594.181	1301.55
598.861	1048.21
603.539	765.987
608.214	504.6
612.887	260.394
617.557	16.1172
622.224	79.4053
626.889	72.7129
631.551	43.0547
636.21	62.0664
640.867	59.2461
645.521	53.9082
650.173	69.1787
654.822	178.99
659.468	75.415
664.112	95.7891
668.753	118.117
673.392	184.642
678.028	105.673
682.661	151.122
687.292	262.042
691.92	191.541
696.545	54.3496
701.168	1.59082
705.788	149.986
710.406	220.648
715.021	509.692
719.633	667.316
724.243	729.768
728.85	1161.03
733.455	1772.31
738.056	2403.42
742.656	2801.71
747.252	2752.49
751.846	2093.7
756.438	1783.34
761.027	1775.59
765.613	2022.01
770.196	2381.05
774.777	3017.21
779.356	4080.33
783.932	5327.9
788.505	7773.12
793.075	11406.3
797.643	18390.9
802.208	31980.8
806.771	59952.7
811.331	97118.8
815.888	107618
820.443	88732.1
824.995	72621.8
829.545	70093.8
834.092	75815.3
838.636	82642.9
843.178	78913.3
847.717	65307
852.254	48769.7
856.788	35590.9
861.319	26493.7
865.848	20085.1
870.374	15248.7
874.897	12331.7
879.418	10222.8
883.936	9169.5
888.452	8378.04
892.965	8146.47
897.475	7875.34
901.983	7775.51
906.488	7986.32
910.99	8211.86
915.49	8986.6
919.988	9182.42
924.482	8844.85
928.974	8007.77
933.464	6926.2
937.951	5489.29
942.435	3957.9
946.917	3191.77
951.396	2712.39
955.872	2186.2
960.346	1819.34
964.817	1303.78
969.285	1255.27
973.751	1009.91
978.215	856.568
982.675	880.076
987.134	605.186
991.589	613.053
996.042	403.465
1000.49	242.754
1004.94	211.852
1009.38	160.734
1013.83	39.9766
1018.27	10.334
1022.7	190.473
1027.14	54.207
1031.57	161.57
1036	175.736
1040.43	131.059
1044.85	3.30664
1049.27	5.11328
1053.69	63.5762
1058.11	146.557
1062.52	234.117
1066.93	180.533
1071.34	272.242
1075.75	509.477
1080.15	275.135
1084.55	697.961
1088.95	530.527
1093.35	884.268
1097.74	768.012
1102.13	886.014
1106.52	879.766
1110.9	955.143
1115.28	919.898
1119.66	899.533
1124.04	1136.2
1128.41	1370.18
1132.79	1315.09
1137.16	1370.55
1141.52	1296.17
1145.89	1295.83
1150.25	1383.3
1154.61	1092.21
1158.96	858.848
1163.32	816.062
1167.67	517.859
1172.02	446.301
1176.36	425.744
1180.71	451.303
1185.05	342
1189.38	202.053
1193.72	125.738
1198.05	64.9531
1202.38	47.1582
1206.71	131.621
1211.04	2.16797
1215.36	51.8965
1219.68	146.051
1224	4.72852
1228.31	28.3105
1232.62	89.9238
1236.93	45.1855
1241.24	103.848
1245.54	84.8731
1249.84	214.326
1254.14	36.748
1258.44	192.283
1262.73	100.377
1267.03	274.732
1271.31	35.6484
1275.6	268.191
1279.88	316.754
1284.16	459.75
1288.44	282.254
1292.72	398.894
1296.99	469.744
1301.26	262.037
1305.53	485.736
1309.79	507.623
1314.06	502.775
1318.32	589.066
1322.57	394.043
1326.83	444.172
1331.08	385.361
1335.33	435.795
1339.58	307.697
1343.82	519.295
1348.06	520.959
1352.3	355.801
1356.54	350.918
1360.77	407.168
1365.01	335.44
1369.23	356.877
1373.46	417.627
1377.68	240.188
1381.9	449.871
1386.12	333.238
1390.34	640.951
1394.55	405.643
1398.76	575.578
1402.97	595.742
1407.18	765.684
1411.38	529.463
1415.58	480.781
1419.78	586.688
1423.97	822.234
1428.17	567.5
1432.36	566.57
1436.54	499.562
1440.73	440.676
1444.91	460.068
1449.09	582.144
1453.27	614.732
1457.44	602.519
1461.61	538.66
1465.78	550.34
1469.95	573.074
1474.11	581.523
1478.27	424.195
1482.43	521.736
1486.59	471.172
1490.74	240.492
1494.89	394.719
1499.04	263.867
1503.19	223.947
1507.33	131.943
1511.47	84.7598
1515.61	305.092
1519.75	311.283
1523.88	126.57
1528.01	571.877
1532.14	480.225
1536.26	485.82
1540.38	436.961
1544.51	270.996
1548.62	312.848
1552.74	392.496
1556.85	305.027
1560.96	56.2695
1565.07	352.303
1569.17	259.32
1573.27	32.1465
1577.37	0
