Measurement: Raman, 514 nm, ccw, Raman Data Processed
Mineral: Fayalite
Rruff sample: R070157
Ideal chemistry: Fe^2+^_2_SiO_4_
Locality: Coso Hot Springs, Inyo County, California, USA
Source: James Shigley
Description: Brown transparent tabular crystals associated with fine grained quartz
Measured chemistry: (Fe^2+^_1.88_Mn_0.11_Zn_0.01_)_Î£=2_Si_1.00_O_4_ ; trace amounts of Mg
Pin_id: M00908
Orientation: Laser parallel to -b* (0 -1 0). Fiducial mark perpendicular to laser is parallel to c [0 0 1]
Raman shift (cm-1)	intensity
142.556	0
147.482	148.976
152.405	554.277
157.326	989.731
162.244	3382.23
167.159	7853.18
172.072	11509.4
176.982	6381.05
181.89	1411.14
186.795	389.588
191.697	419.123
196.597	224.89
201.494	111.758
206.389	254.594
211.281	15.7393
216.17	330.662
221.057	1011.83
225.941	2104.04
230.823	4196.55
235.702	7313.48
240.578	8229.13
245.452	5959.81
250.323	3855.39
255.192	3218.03
260.058	3073.56
264.921	3496.99
269.782	4437.32
274.64	6651.48
279.495	10906.4
284.348	16852.9
289.198	22084.9
294.046	21200.9
298.891	14967.3
303.733	11361.1
308.573	10174.5
313.41	7586.7
318.245	4695.38
323.077	2616.39
327.906	1488.24
332.733	885.358
337.557	497.226
342.379	324.232
347.198	692.843
352.014	1184.24
356.828	2089.41
361.639	3407.17
366.447	4893.41
371.253	5708.4
376.056	5128.94
380.857	4135.17
385.655	2937
390.451	2480.26
395.243	2584.74
400.034	3035.21
404.821	3268.53
409.606	2891.63
414.389	2208.43
419.168	1385.89
423.945	888.541
428.72	614.606
433.492	246.754
438.261	119.232
443.028	11.0977
447.792	67.4922
452.553	26.9814
457.312	69.5059
462.068	39.4277
466.822	63.0527
471.573	179.276
476.321	206.272
481.067	316.717
485.81	348.138
490.551	601.812
495.289	927.604
500.024	1135.6
504.757	1365.5
509.487	1561.23
514.214	1427.09
518.939	1460.34
523.661	1661.48
528.381	1696.01
533.098	2044.33
537.812	2740.32
542.524	3803.94
547.233	5368.04
551.94	6846.48
556.644	6642.73
561.345	5737.31
566.044	5052.56
570.74	3938.58
575.433	3137.72
580.124	2216.07
584.812	1626.42
589.498	1128.95
594.181	1072.95
598.861	876.737
603.539	562.415
608.214	230.344
612.887	187.747
617.557	78.1289
622.224	3.97559
626.889	105.986
631.551	2.33301
636.21	59.9609
640.867	50.3477
645.521	76.167
650.173	78.6816
654.822	2.99902
659.468	149.916
664.112	157.852
668.753	213.538
673.392	43.709
678.028	167.161
682.661	10.5771
687.292	246.662
691.92	246.541
696.545	188.282
701.168	101.934
705.788	145.536
710.406	250.079
715.021	410.828
719.633	513.688
724.243	817.789
728.85	1047.33
733.455	1410.31
738.056	1805.73
742.656	2260.1
747.252	1997.69
751.846	1719.93
756.438	1434.01
761.027	1436.24
765.613	1469.35
770.196	1959.17
774.777	2445.31
779.356	3046.45
783.932	4305.32
788.505	6172.91
793.075	9211.21
797.643	14697.2
802.208	25875.2
806.771	48552.7
811.331	77492.6
815.888	84276.8
820.443	67883.4
824.995	55109.2
829.545	52522.6
834.092	56499
838.636	60037.1
843.178	57235
847.717	46664.4
852.254	34931.3
856.788	25622.1
861.319	19691.6
865.848	14990
870.374	11312.3
874.897	8765.38
879.418	7127.37
883.936	6227.11
888.452	5548.89
892.965	5336.15
897.475	5380.76
901.983	4941.15
906.488	5153.91
910.99	5338.57
915.49	5526.38
919.988	5860.81
924.482	5750.97
928.974	5472.53
933.464	4579.85
937.951	3697.97
942.435	3041.74
946.917	2404.72
951.396	1808.62
955.872	1702.26
960.346	1359.82
964.817	1161.37
969.285	1086.75
973.751	907.59
978.215	557.857
982.675	894.51
987.134	500.488
991.589	484.76
996.042	267.295
1000.49	353.062
1004.94	257.162
1009.38	358.43
1013.83	108.168
1018.27	29.1797
1022.7	204.496
1027.14	127.875
1031.57	70.2109
1036	238.488
1040.43	121.26
1044.85	144.508
1049.27	106.627
1053.69	29.2266
1058.11	101.33
1062.52	38.9609
1066.93	334.057
1071.34	349.043
1075.75	299.791
1080.15	320.873
1084.55	378.613
1088.95	472.041
1093.35	532.836
1097.74	606.518
1102.13	757.818
1106.52	542.67
1110.9	759.068
1115.28	846.709
1119.66	730.644
1124.04	996.863
1128.41	895.352
1132.79	1161.48
1137.16	1104.48
1141.52	1094.7
1145.89	929.328
1150.25	1134
1154.61	924.227
1158.96	777.188
1163.32	1077.21
1167.67	684.496
1172.02	511.967
1176.36	337.469
1180.71	507.041
1185.05	44.3457
1189.38	219.973
1193.72	21.082
1198.05	163.502
1202.38	45.7266
1206.71	112.842
1211.04	10.9238
1215.36	87.6699
1219.68	118.824
1224	78.7715
1228.31	20.0762
1232.62	8.91016
1236.93	283.629
1241.24	94.7871
1245.54	203.654
1249.84	125.045
1254.14	209.184
1258.44	71.0254
1262.73	152.523
1267.03	117.57
1271.31	222.387
1275.6	37.0137
1279.88	130.516
1284.16	382.975
1288.44	197.697
1292.72	231.809
1296.99	466.33
1301.26	254.481
1305.53	509.315
1309.79	345.803
1314.06	242.065
1318.32	574.494
1322.57	573.85
1326.83	508.734
1331.08	358.51
1335.33	365.373
1339.58	515.051
1343.82	396.473
1348.06	185.535
1352.3	640.367
1356.54	257.797
1360.77	357.902
1365.01	508.998
1369.23	253.41
1373.46	401.209
1377.68	542.354
1381.9	455.865
1386.12	455.768
1390.34	545.686
1394.55	466.418
1398.76	461.121
1402.97	466.297
1407.18	588.514
1411.38	675.271
1415.58	473.695
1419.78	565.734
1423.97	323.461
1428.17	903.934
1432.36	753.231
1436.54	585.432
1440.73	665.918
1444.91	480.01
1449.09	628.824
1453.27	496.94
1457.44	542.488
1461.61	749.539
1465.78	1025.95
1469.95	757.883
1474.11	798.205
1478.27	545.223
1482.43	547.615
1486.59	430.035
1490.74	501.451
1494.89	380.76
1499.04	310.969
1503.19	102.074
1507.33	335.035
1511.47	432.719
1515.61	259.014
1519.75	324.818
1523.88	483.481
1528.01	407.367
1532.14	510.914
1536.26	298.492
1540.38	236.316
1544.51	386.728
1548.62	187.381
1552.74	541.131
1556.85	45.8184
1560.96	162.812
1565.07	214.377
1569.17	1.95898
1573.27	97.6094
1577.37	0
