Measurement: Raman, 514 nm, ccw, Raman Data Processed
Mineral: Fayalite
Rruff sample: R070157
Ideal chemistry: Fe^2+^_2_SiO_4_
Locality: Coso Hot Springs, Inyo County, California, USA
Source: James Shigley
Description: Brown transparent tabular crystals associated with fine grained quartz
Measured chemistry: (Fe^2+^_1.88_Mn_0.11_Zn_0.01_)_Î£=2_Si_1.00_O_4_ ; trace amounts of Mg
Pin_id: M01877
Orientation: Laser parallel to c* (0 0 1). Fiducial mark perpendicular to laser is parallel to a [1 0 0]
Raman shift (cm-1)	intensity
96.869	0
101.819	147.065
106.766	1548.34
111.711	2290.48
116.653	6358.99
121.592	6565.39
126.529	2256.18
131.464	337.494
136.395	98.3125
141.324	457.277
146.251	1096.81
151.175	3245.68
156.096	3865.43
161.015	1904
165.931	1484.89
170.844	1628.56
175.755	923.858
180.663	368.451
185.569	535.127
190.472	674.719
195.373	794.025
200.27	531.697
205.166	35.668
210.058	166.582
214.948	178.163
219.836	202.977
224.721	75.707
229.603	111.462
234.482	43.8691
239.359	403.938
244.234	776.148
249.106	1269.16
253.975	2011.39
258.841	3213.93
263.705	3976.23
268.567	5923.95
273.425	9477.32
278.281	15896.9
283.135	26320.5
287.986	37257
292.834	36286.7
297.68	25591.2
302.523	14959.5
307.363	9670.58
312.201	6814.73
317.037	5050.23
321.869	3874.93
326.699	2993.16
331.527	2943.64
336.351	2766.15
341.174	3222.57
345.993	4183.69
350.81	5735.25
355.625	7982.35
360.436	11877.8
365.245	16370.5
370.052	19400.1
374.856	19286.5
379.657	15894.7
384.456	11964.7
389.252	8575.17
394.045	6253.87
398.836	4462.71
403.625	3298.57
408.41	2297.45
413.193	1659.87
417.974	952.348
422.751	797.399
427.527	637.584
432.299	506.978
437.069	455.514
441.836	541.188
446.601	413.05
451.363	456.197
456.123	528.679
460.88	415.495
465.634	607.608
470.386	491.011
475.135	497.67
479.881	464.64
484.625	815.369
489.366	835.896
494.105	815.454
498.84	1133.46
503.574	1267.13
508.305	1341.9
513.033	1479.14
517.758	1415.73
522.481	1547.65
527.201	1617.77
531.919	1986.87
536.634	2119.36
541.346	2849.38
546.056	4131.07
550.763	5730.74
555.468	7943.35
560.17	10216.9
564.869	11098.4
569.566	10105.8
574.26	8197.03
578.952	5994.05
583.641	4259.16
588.327	3238.85
593.011	2605.68
597.692	2214.17
602.37	1743.46
607.046	1007.55
611.719	510.414
616.39	99.0342
621.058	18.1738
625.723	24.7705
630.386	167.159
635.046	91.5498
639.703	164.282
644.358	56.9385
649.01	256.216
653.66	352.241
658.307	360.376
662.951	279.772
667.593	133.078
672.232	124.773
676.869	282.093
681.503	468.821
686.134	631.669
690.763	692.532
695.389	546.501
700.013	670.619
704.633	693.93
709.252	1112.47
713.867	1468.3
718.48	1741.45
723.091	1983.97
727.698	2685.91
732.304	3000.31
736.906	3812.23
741.506	4904.7
746.103	5107.78
750.698	4685.51
755.29	4345.36
759.88	4327.32
764.467	5168.7
769.051	5982.19
773.632	7175.65
778.211	9393.02
782.788	12274.7
787.362	17031.8
791.933	24603.5
796.501	38406.5
801.067	63409.8
805.631	116021
810.191	192927
814.749	223589
819.305	183020
823.858	138367
828.408	118991
832.956	117120
837.501	120454
842.043	114104
846.583	92036.7
851.12	65133.1
855.654	43339.8
860.186	28354.6
864.716	18976.7
869.242	12696.6
873.766	8673.76
878.288	6228.68
882.807	4459.87
887.323	3520.38
891.837	2738.83
896.348	2053.78
900.856	1468.41
905.362	887.551
909.865	681.234
914.366	871.381
918.864	1101.94
923.359	1954.97
927.852	3018.6
932.342	3490.3
936.829	3669.76
941.314	3331.36
945.796	3293.59
950.276	3182.31
954.753	2978.67
959.228	2546.05
963.699	2224.54
968.169	2035.07
972.635	2061.64
977.099	1656.54
981.56	1554.78
986.019	1348.33
990.475	1031.18
994.929	1152.77
999.38	943.072
1003.83	597.025
1008.27	688.826
1012.72	165.397
1017.16	167.631
1021.6	79.5508
1026.03	118.742
1030.46	276.789
1034.89	266.738
1039.32	115.635
1043.74	261.625
1048.17	157.478
1052.59	3.57031
1057	34.9141
1061.42	79.168
1065.83	122.978
1070.24	90.9492
1074.65	231.174
1079.05	391.768
1083.45	534.195
1087.85	695.231
1092.25	708.07
1096.64	522.057
1101.03	924.932
1105.42	1053.19
1109.8	940.824
1114.19	996.523
1118.57	1166.33
1122.95	1552.54
1127.32	1809.23
1131.69	1697.54
1136.06	1887.5
1140.43	1958.56
1144.8	1982.76
1149.16	1870.86
1153.52	1711.14
1157.87	1673.09
1162.23	1186.54
1166.58	1020.72
1170.93	1193.22
1175.28	778.271
1179.62	726.086
1183.96	493.875
1188.3	515.777
1192.64	229.353
1196.97	182.185
1201.3	14.3574
1205.63	180.988
1209.95	366.488
1214.28	16.5117
1218.6	119.316
1222.92	8.9082
1227.23	11.9004
1231.55	250.394
1235.86	33.2285
1240.16	229.996
1244.47	167.719
1248.77	191.432
1253.07	221.664
1257.37	4.99414
1261.66	241.1
1265.95	376.691
1270.24	198.988
1274.53	500.893
1278.81	453.342
1283.09	386.873
1287.37	640.941
1291.65	576.629
1295.92	555.549
1300.19	565.826
1304.46	752.297
1308.73	698.762
1312.99	492.894
1317.25	693.783
1321.51	462.545
1325.77	476.644
1330.02	576.527
1334.27	611.527
1338.52	515.736
1342.76	584.506
1347	403.299
1351.24	273.764
1355.48	356.543
1359.72	321.801
1363.95	179.688
1368.18	551.471
1372.4	245.904
1376.63	123.268
1380.85	314.906
1385.07	186.502
1389.29	356.078
1393.5	378.275
1397.71	261.938
1401.92	335.648
1406.13	341.639
1410.33	565.703
1414.53	61.793
1418.73	309.148
1422.92	362.941
1427.12	493.793
1431.31	340.238
1435.5	288.262
1439.68	333.055
1443.87	293.672
1448.05	288.414
1452.22	375.652
1456.4	118.547
1460.57	490.254
1464.74	443.91
1468.91	376.914
1473.07	267.562
1477.23	247.207
1481.39	393.617
1485.55	173.762
1489.7	309.371
1493.86	93.9297
1498.01	22.7383
1502.15	39.582
1506.3	16.7852
1510.44	121.215
1514.58	14.7148
1518.71	298.426
1522.85	467.07
1526.98	50.875
1531.11	350.394
1535.23	354.57
1539.35	325.519
1543.47	704.668
1547.59	455.211
1551.71	76.2539
1555.82	563.531
1559.93	170.621
1564.04	275.621
1568.14	144.398
1572.25	441.461
1576.35	0.433594
