Measurement: Raman, 514 nm, depolarized, Raman Data Processed
Mineral: Ferberite
Rruff sample: R050632
Ideal chemistry: Fe^2+^W^6+^O_4_
Locality: Chance mine, Boulder, Colorado, USA
Source: University of Arizona Mineral Museum
Description: Dark brown rectangular prismatic crystals
Measured chemistry: Fe^2+^_1.00_WO_4_
Pin_id: L00968
Orientation: Laser parallel to c* (0 0 1). Fiducial mark perpendicular to laser is parallel to a [1 0 0]
Raman shift (cm-1)	intensity
159.908	0
164.811	387.542
169.711	781.467
174.61	1193.18
179.505	1825.25
184.399	2428.67
189.29	3172.99
194.178	4150.07
199.064	5343.69
203.948	8289.4
208.829	1707.74
213.708	1802.66
218.585	857.571
223.459	655.708
228.33	194.381
233.199	15.6074
238.066	69.917
242.93	71.4131
247.792	112.106
252.651	125.438
257.508	115.595
262.363	450.032
267.215	685.654
272.064	500.112
276.912	794.495
281.756	304.675
286.598	330.896
291.438	260.446
296.276	216.446
301.111	81.5508
305.943	164.034
310.773	254.393
315.601	171.471
320.426	490.406
325.248	676.089
330.068	930.769
334.886	783.065
339.701	728.368
344.514	542.087
349.324	405.747
354.132	339.065
358.938	365.315
363.741	290.466
368.541	240.455
373.339	178.383
378.135	100.503
382.928	188.56
387.718	176.056
392.506	117.677
397.292	365.368
402.075	650.507
406.856	396.718
411.634	164.349
416.41	41.3467
421.183	6.71973
425.954	120.981
430.722	146.804
435.488	197.208
440.251	89.1611
445.012	209.657
449.77	127.402
454.526	42.1602
459.28	34.3467
464.03	227.435
468.779	36.4883
473.525	37.25
478.268	204.56
483.009	274
487.747	375.779
492.483	306.178
497.217	460.717
501.948	520.608
506.676	704.626
511.402	735.907
516.125	651.059
520.846	728.062
525.565	670.968
530.281	716.615
534.994	832.016
539.705	730.369
544.413	758.038
549.119	862.471
553.822	680.276
558.523	679.044
563.222	598.788
567.917	628.038
572.611	656.518
577.302	281.72
581.99	255.928
586.676	350.133
591.359	118.847
596.04	103.103
600.718	101.627
605.394	123.986
610.067	35.2441
614.737	32.1777
619.406	9.32715
624.071	21.5996
628.734	49.7334
633.395	30.3652
638.053	9.15234
642.708	31.6035
647.361	64.7607
652.012	264.672
656.66	322.768
661.305	313.655
665.948	491.983
670.588	602.106
675.226	892.025
679.861	1030.67
684.494	1368.2
689.124	1746.28
693.752	1790.92
698.377	1340.65
702.999	913.182
707.619	752.519
712.237	542.678
716.852	258.642
721.464	296.42
726.074	234.023
730.681	34.6728
735.286	174.567
739.888	71.0244
744.488	90.6045
749.085	78.7373
753.68	3.61328
758.272	96.3926
762.861	229.548
767.448	172.597
772.033	248.16
776.614	217.616
781.194	181.126
785.77	68.6152
790.345	55.4053
794.916	27.251
799.485	150.843
804.052	57.8047
808.616	294.595
813.177	36.0889
817.736	52.5781
822.292	28.918
826.846	42.9014
831.397	154.074
835.945	233.465
840.491	449.087
845.035	621.052
849.576	1055.01
854.114	1477.64
858.65	2395.55
863.183	3807.75
867.713	5953.48
872.241	9066.65
876.767	11693.7
881.29	9721.67
885.81	6443.29
890.328	3363.31
894.843	1812.44
899.356	972.673
903.866	465.226
908.373	289.357
912.878	40.9443
917.38	143
921.88	104.513
926.377	57.3272
930.872	100.503
935.364	45.9228
939.853	162.94
944.34	0.652344
948.824	205.811
953.306	128.713
957.785	190.055
962.261	205.412
966.735	323.545
971.207	288.21
975.675	337.338
980.141	563.519
984.605	656.203
989.066	730.566
993.524	804.163
997.98	862.372
1002.43	929.235
1006.88	849.513
1011.33	699.961
1015.78	743.477
1020.22	714.972
1024.66	697.565
1029.1	707.623
1033.53	982.144
1037.97	886.094
1042.4	942.038
1046.82	942.198
1051.25	862.335
1055.67	1032.85
1060.09	1144.64
1064.51	1010.79
1068.92	1067.99
1073.33	1013.54
1077.74	1094.42
1082.15	852.523
1086.55	1015.26
1090.95	832.135
1095.35	681.758
1099.75	930.744
1104.14	745.007
1108.53	689.56
1112.92	602.906
1117.31	449.856
1121.69	485.891
1126.07	445.194
1130.45	412.7
1134.82	192.086
1139.19	27.8564
1143.57	140.807
1147.93	51.8018
1152.3	343.771
1156.66	177.779
1161.02	224.334
1165.38	265.84
1169.73	125.879
1174.08	231.754
1178.43	213.286
1182.78	69.4062
1187.12	128.647
1191.46	92.3301
1195.8	48.1602
1200.14	27.5762
1204.47	33.6504
1208.8	50.6533
1213.13	73.8242
1217.46	88.7607
1221.78	5.23633
1226.1	7.84961
1230.42	52.1152
1234.73	14.8398
1239.04	48.2783
1243.35	175.484
1247.66	85.4346
1251.97	178.102
1256.27	166.266
1260.57	83.9199
1264.86	193.739
1269.16	227.219
1273.45	268.253
1277.74	120.593
1282.03	285.176
1286.31	177.421
1290.59	222.455
1294.87	227.768
1299.14	122.043
1303.42	127.63
1307.69	284.849
1311.95	363.315
1316.22	600.204
1320.48	333.228
1324.74	412.103
1329	397.481
1333.26	451.744
1337.51	452.748
1341.76	448.194
1346	222.299
1350.25	222.935
1354.49	324.224
1358.73	328.174
1362.96	358.843
1367.2	230.625
1371.43	334.31
1375.66	185.453
1379.88	222.781
1384.11	221.06
1388.33	188.242
1392.54	249.07
1396.76	240.478
1400.97	221.41
1405.18	218.932
1409.39	382.931
1413.59	120.375
1417.8	87.6055
1421.99	163.286
1426.19	119.806
1430.38	248.315
1434.58	44.9697
1438.77	202.589
1442.95	42.5205
1447.13	222.098
1451.32	38.915
1455.49	54.4219
1459.67	75.4941
1463.84	41.5791
1468.01	69.5674
1472.18	261.497
1476.35	5.91504
1480.51	130.323
1484.67	105.005
1488.83	265.999
1492.98	69.6992
1497.13	62.6465
1501.28	162.684
1505.43	74.8125
1509.57	103.587
1513.71	94.6787
1517.85	193.811
1521.99	130.968
1526.12	176.929
1530.25	79.835
1534.38	151.758
1538.5	8.48535
1542.62	162.633
1546.74	26.2891
1550.86	24.1855
1554.98	41.5166
1559.09	0
