Measurement: Raman, 514 nm, depolarized, Raman Data Processed
Mineral: Ferberite
Rruff sample: R050090
Ideal chemistry: Fe^2+^W^6+^O_4_
Locality: Yaogangxian mine, Cheng Zhu City, South Hunan, China
Source: Rock Currier
Description: Dark gray tabular crystal
Measured chemistry: (Fe^2+^_0.56_Mn_0.44_)W_1.00_O_4_
Pin_id: L01753
Orientation: Laser parallel to a* (1 0 0). Fiducial mark perpendicular to laser is parallel to b [0 1 0]
Raman shift (cm-1)	intensity
98.416	0
103.349	10.6685
108.28	463.007
113.208	1056.62
118.134	2668.07
123.058	4894.92
127.979	4499.75
132.898	1966.68
137.814	745.163
142.728	225.305
147.639	40.8125
152.549	277.804
157.455	5.17822
162.359	58.749
167.261	496.902
172.161	691.061
177.058	538.262
181.952	570.919
186.845	899.769
191.734	1270.68
196.622	2168.16
201.507	3237.76
206.389	2277.44
211.269	941.244
216.147	449.017
221.022	136.785
225.895	72.4062
230.765	49.6865
235.633	8.04785
240.498	48.855
245.361	0.324707
250.222	117.246
255.08	335.75
259.936	659.98
264.789	366.685
269.64	352.512
274.488	119.142
279.334	34.979
284.178	253.501
289.019	372.508
293.857	437.157
298.693	510.769
303.527	706.203
308.358	1064.2
313.187	2007.77
318.013	2703.96
322.837	3154.55
327.659	2918.24
332.478	2142.1
337.294	1555.99
342.108	1018.88
346.92	885.757
351.729	612.606
356.535	487.418
361.34	383.192
366.141	386.654
370.94	241.77
375.737	184.538
380.531	292.455
385.323	265.767
390.113	762.481
394.9	985.439
399.684	750.434
404.466	351.664
409.245	243.763
414.022	60.7363
418.797	59.3359
423.569	49.2222
428.338	32.4351
433.105	23.8686
437.87	90.1382
442.632	41.4575
447.391	118.326
452.149	34.4692
456.903	201.555
461.655	164.616
466.405	196.954
471.152	272.356
475.897	342.701
480.639	304.174
485.378	289.897
490.116	394.136
494.85	533.268
499.582	571.293
504.312	667.212
509.039	713.025
513.764	645.75
518.486	810.5
523.206	765.483
527.923	946.668
532.638	979.137
537.35	918.742
542.059	888.277
546.766	641.716
551.471	567.06
556.173	324.303
560.873	309.094
565.57	142.036
570.264	229.789
574.957	183.574
579.646	223.352
584.333	8.15527
589.018	79.667
593.7	76.7866
598.379	36.3648
603.056	19.4492
607.73	18.1421
612.402	113.262
617.072	86.5957
621.739	25.6123
626.403	40.0698
631.065	120.731
635.724	147.383
640.381	200.029
645.035	56.6748
649.687	252.325
654.336	304.985
658.983	360.659
663.627	339.346
668.268	603.047
672.907	852.759
677.544	1074.94
682.178	1225.22
686.809	1526.98
691.438	1604.76
696.065	1337.58
700.688	1202.5
705.31	841.615
709.929	765.927
714.545	357.325
719.158	283.018
723.77	145.456
728.378	148.905
732.984	111.1
737.588	110.741
742.189	69.834
746.787	24.0469
751.383	231.203
755.976	197.046
760.567	259.166
765.155	321.092
769.741	455.562
774.324	348.193
778.904	338.992
783.482	320.961
788.058	326.101
792.631	327.41
797.201	235.894
801.769	269.551
806.334	403.38
810.897	304.386
815.457	311.565
820.014	485.922
824.569	501.458
829.122	685.171
833.671	793.712
838.219	1028.46
842.763	1535.4
847.306	1930.81
851.845	2654.55
856.382	3972.25
860.917	5863.22
865.448	9245.07
869.978	13856.7
874.505	20464.6
879.029	23381.4
883.55	19493.9
888.069	12388.2
892.586	6978.27
897.1	3999.89
901.611	2467.23
906.12	1628.7
910.626	1229.36
915.129	931.102
919.63	606.988
924.129	463.94
928.625	380.946
933.118	225.999
937.609	180.092
942.097	201.255
946.582	123.449
951.065	94.666
955.546	80.2217
960.023	32.54
964.499	61.8945
968.971	18.2129
973.441	27.6709
977.909	8.09277
982.374	50.9971
986.836	7.82227
991.295	119.876
995.753	39.166
1000.21	24.6514
1004.66	26.3867
1009.11	47.4502
1013.55	57.7607
1018	78.1836
1022.44	118.975
1026.88	36.7891
1031.32	116.441
1035.75	55.5244
1040.18	70.8623
1044.61	101.46
1049.04	278.412
1053.46	267.778
1057.88	179.07
1062.3	169.889
1066.71	189.82
1071.13	212.262
1075.54	459.739
1079.94	192.289
1084.35	249.266
1088.75	186.9
1093.15	252.064
1097.55	167.326
1101.94	143.493
1106.34	184.774
1110.73	204.118
1115.11	70
1119.5	142.591
1123.88	213.776
1128.26	109.274
1132.63	244.944
1137.01	258.986
1141.38	44.8887
1145.75	3.88769
1150.12	26.9463
1154.48	51.6846
1158.84	100.346
1163.2	65.1689
1167.55	126.795
1171.91	10.1777
1176.26	55.2012
1180.61	117.939
1184.95	32.3926
1189.29	41.6611
1193.63	30.7637
1197.97	121.723
1202.31	32.4707
1206.64	36.1309
1210.97	162.645
1215.29	57.8838
1219.62	99.0879
1223.94	179.168
1228.26	104.096
1232.57	135.951
1236.89	134.934
1241.2	181.004
1245.51	117.533
1249.81	245.351
1254.12	51.4785
1258.42	218.453
1262.72	103.492
1267.01	245.956
1271.3	134.786
1275.59	446.331
1279.88	255.659
1284.17	301.267
1288.45	201.237
1292.73	348.569
1297.01	446.978
1301.28	358.836
1305.55	473.559
1309.82	190.572
1314.09	312.966
1318.35	415.223
1322.61	395.744
1326.87	439.213
1331.13	387.394
1335.38	411.552
1339.63	428.463
1343.88	408.267
1348.12	554.609
1352.37	346.409
1356.61	391.308
1360.85	452.531
1365.08	338.466
1369.31	521.566
1373.54	393.006
1377.77	408.973
1381.99	466.932
1386.22	314.781
1390.43	321.353
1394.65	363.282
1398.87	259.844
1403.08	224.45
1407.29	221.731
1411.49	198.149
1415.69	181.685
1419.89	360.618
1424.09	157.806
1428.29	137.922
1432.48	173.173
1436.67	211.232
1440.86	193.723
1445.04	110.533
1449.23	62.6631
1453.4	55.9756
1457.58	30.9229
1461.76	11.1709
1465.93	7.54883
1470.1	1.60254
1474.26	127.279
1478.43	144.448
1482.59	3.53906
1486.75	58.4541
1490.9	112.192
1495.06	116.906
1499.21	137.685
1503.35	91.3086
1507.5	124.893
1511.64	240.715
1515.78	206.857
1519.92	23.6953
1524.05	283.056
1528.18	90.9316
1532.31	258.402
1536.44	219.263
1540.56	194.535
1544.69	211.799
1548.8	93.0625
1552.92	112.53
1557.03	89.0879
1561.14	168.395
1565.25	33.2842
1569.36	186.68
