Measurement: Raman, , ccw, Raman Data Processed
Mineral: Ferberite
Rruff sample: R040044
Ideal chemistry: Fe^2+^W^6+^O_4_
Locality: Chocote, Bolivia
Source: University of Arizona Mineral Museum
Description: Black tabular single crystal
Measured chemistry: (Fe_0.82_Mn_0.08_Mg_0.07_Pb_0.03_)_Î£=1_W_1.00_O_4_
Pin_id: M00030
Orientation: Laser parallel to -c* (0 0 -1). Fiducial mark perpendicular to laser is parallel to a [1 0 0]
Raman shift (cm-1)	intensity
164.811	0
169.711	479.797
174.61	263.086
179.505	10.459
184.399	630.666
189.29	1199.72
194.178	2365.27
199.064	2922.36
203.948	2628.58
208.829	1670.2
213.708	1545.36
218.585	883.738
223.459	470.924
228.33	138.475
233.199	513.938
238.066	41.4395
242.93	58.9199
247.792	15.2168
252.651	337.398
257.508	358.143
262.363	465.801
267.215	459.174
272.064	127.527
276.912	193.697
281.756	132.315
286.598	59.1914
291.438	387.688
296.276	94.7109
301.111	367.59
305.943	693.957
310.773	1125.81
315.601	1730.77
320.426	3002.97
325.248	3460.59
330.068	3439.31
334.886	2680.86
339.701	1846.11
344.514	1504.02
349.324	1153.89
354.132	752.32
358.938	649.398
363.741	648.801
368.541	490.773
373.339	727.547
378.135	732.535
382.928	931.25
387.718	1489.64
392.506	2559.32
397.292	3344.28
402.075	2192.34
406.856	1405.76
411.634	692.086
416.41	355.676
421.183	383.078
425.954	328.988
430.722	494.871
435.488	450.43
440.251	531.586
445.012	277.398
449.77	309.973
454.526	490.789
459.28	499.848
464.03	738.418
468.779	563.938
473.525	589.312
478.268	1046.61
483.009	775.715
487.747	1305.28
492.483	1314.36
497.217	1402.84
501.948	1587.7
506.676	2016.25
511.402	2073.46
516.125	2433.08
520.846	2660.35
525.565	2993.3
530.281	2967.45
534.994	3042.48
539.705	2793.68
544.413	2685.11
549.119	3006.92
553.822	2184.76
558.523	1647.08
563.222	1601.9
567.917	1423.2
572.611	1399.21
577.302	1092.87
581.99	505.269
586.676	369.621
591.359	119.832
596.04	99.625
600.718	92.3555
605.394	36.3281
610.067	188.356
614.737	23.9102
619.406	32.5508
624.071	93.1758
628.734	88.125
633.395	384.137
638.053	42.6602
642.708	223.613
647.361	90.0938
652.012	115.633
656.66	205.418
661.305	163.957
665.948	245.676
670.588	138.324
675.226	296.078
679.861	533.965
684.494	997.004
689.124	1266.17
693.752	1201.46
698.377	705.918
702.999	841.5
707.619	324.207
712.237	83.0117
716.852	154.898
721.464	80.8203
726.074	88.6289
730.681	156.09
735.286	56.0742
739.888	109.16
744.488	141.484
749.085	34.7266
753.68	78.0547
758.272	166.762
762.861	99.4492
767.448	456.16
772.033	537.801
776.614	994.43
781.194	318.691
785.77	380.559
790.345	289.059
794.916	335.832
799.485	277.402
804.052	186.144
808.616	264.953
813.177	770.086
817.736	803.434
822.292	702.453
826.846	769.32
831.397	1138.56
835.945	1125.63
840.491	1812.93
845.035	2074.27
849.576	3223.32
854.114	4379.75
858.65	6449.09
863.183	9634.18
867.713	15099.3
872.241	20981
876.767	23048.2
881.29	20131.9
885.81	14806
890.328	9629.96
894.843	5740.88
899.356	3476.3
903.866	1765.34
908.373	1057.95
912.878	590.117
917.38	366.938
921.88	256.504
926.377	217.879
930.872	77.8984
935.364	27.5234
939.853	217.793
944.34	38.8672
948.824	217.555
953.306	97.1484
957.785	263.672
962.261	0.664063
966.735	79.8477
971.207	29.7148
975.675	287.84
980.141	222.57
984.605	41.0781
989.066	135.234
993.524	271.074
997.98	388.867
1002.43	221.848
1006.88	169.047
1011.33	320.125
1015.78	288.289
1020.22	259.41
1024.66	325.465
1029.1	332.234
1033.53	491.691
1037.97	557.887
1042.4	534.523
1046.82	780.199
1051.25	1045.69
1055.67	922.606
1060.09	757.332
1064.51	920.371
1068.92	946.688
1073.33	975.008
1077.74	920.676
1082.15	1091.05
1086.55	1054.48
1090.95	808.875
1095.35	1087.17
1099.75	937.539
1104.14	992.398
1108.53	1141.93
1112.92	677.797
1117.31	991.016
1121.69	751.543
1126.07	558.215
1130.45	496.398
1134.82	181.227
1139.19	582.402
1143.57	402.035
1147.93	279.293
1152.3	261.102
1156.66	177.019
1161.02	117.848
1165.38	149.492
1169.73	143.438
1174.08	202.793
1178.43	332.109
1182.78	6.04297
1187.12	176.434
1191.46	418.887
1195.8	175.102
1200.14	103.352
1204.47	176.91
1208.8	165.617
1213.13	249.852
1217.46	259.019
1221.78	16.8516
1226.1	175.152
1230.42	199.465
1234.73	145.031
1239.04	441.398
1243.35	217.672
1247.66	142.84
1251.97	186.992
1256.27	105.969
1260.57	146.484
1264.86	690.41
1269.16	76.3633
1273.45	116.91
1277.74	77.5117
1282.03	107.668
1286.31	255.269
1290.59	49.7109
1294.87	271.945
1299.14	333.977
1303.42	270.164
1307.69	59.0039
1311.95	302.644
1316.22	396.731
1320.48	156.566
1324.74	263.629
1329	200.746
1333.26	380.141
1337.51	260.164
1341.76	320.18
1346	287.027
1350.25	404.215
1354.49	214.594
1358.73	52.7656
1362.96	279.062
1367.2	472.504
1371.43	139.348
1375.66	243.414
1379.88	217.75
1384.11	170.762
1388.33	335.965
1392.54	372.703
1396.76	374.125
1400.97	178.727
1405.18	149.086
1409.39	282.023
1413.59	305.106
1417.8	404.047
1421.99	306.898
1426.19	356.441
1430.38	62.2891
1434.58	211.203
1438.77	25.8086
1442.95	111.699
1447.13	298.621
1451.32	144.781
1455.49	282.812
1459.67	471.769
1463.84	314.777
1468.01	262.043
1472.18	230.258
1476.35	241.957
1480.51	205.109
1484.67	121.731
1488.83	218.094
1492.98	403.711
1497.13	60.6484
1501.28	89.4883
1505.43	220.629
1509.57	570.352
1513.71	336.555
1517.85	241.523
1521.99	118.379
1526.12	241.273
1530.25	196.051
1534.38	170.742
1538.5	29.5664
1542.62	234.621
1546.74	216.922
1550.86	126.023
1554.98	210.594
1559.09	210.949
1563.2	222.644
1567.31	56.5195
1571.41	32.2656
