Measurement: Raman, 514 nm, depolarized, Raman Data Processed
Mineral: Ferberite
Rruff sample: R050090
Ideal chemistry: Fe^2+^W^6+^O_4_
Locality: Yaogangxian mine, Cheng Zhu City, South Hunan, China
Source: Rock Currier
Description: Dark gray tabular crystal
Measured chemistry: (Fe^2+^_0.56_Mn_0.44_)W_1.00_O_4_
Pin_id: L01590
Orientation: Laser parallel to (1 0 1). Fiducial mark perpendicular to laser is parallel to b [0 1 0]
Raman shift (cm-1)	intensity
98.416	0
103.349	23.4541
108.28	1901.43
113.208	1132.49
118.134	1164.08
123.058	2025.5
127.979	6300.54
132.898	5087.27
137.814	1279.6
142.728	729.516
147.639	812.231
152.549	1200.86
157.455	552.613
162.359	508.088
167.261	1141.32
172.161	1571.65
177.058	1066.17
181.952	863.091
186.845	1073.13
191.734	1465.74
196.622	1837.27
201.507	2798.68
206.389	1499.68
211.269	900.811
216.147	215.831
221.022	60.6958
225.895	41.5923
230.765	32.0342
235.633	84.749
240.498	62.3921
245.361	89.3506
250.222	10.9941
255.08	302.692
259.936	365.598
264.789	359.488
269.64	438.414
274.488	306.096
279.334	246.619
284.178	89.6773
289.019	148.304
293.857	175.611
298.693	369.434
303.527	250.75
308.358	327.892
313.187	539.03
318.013	939.183
322.837	1463.36
327.659	1601.97
332.478	1210.69
337.294	924.224
342.108	683.727
346.92	641.095
351.729	623.356
356.535	489.502
361.34	477.528
366.141	417.196
370.94	318.59
375.737	347.577
380.531	411.04
385.323	495.172
390.113	896.491
394.9	1741.16
399.684	2044.02
404.466	1066.15
409.245	460.984
414.022	326.912
418.797	196.526
423.569	93.9624
428.338	47.8355
433.105	75.3252
437.87	74.9834
442.632	9.9917
447.391	15.938
452.149	0.958984
456.903	114.119
461.655	76.5718
466.405	74.1489
471.152	127.705
475.897	124.197
480.639	111.612
485.378	99.9482
490.116	167.209
494.85	230.395
499.582	216.509
504.312	393.552
509.039	365.528
513.764	403.549
518.486	359.688
523.206	484.055
527.923	612.799
532.638	650.903
537.35	757.363
542.059	738.95
546.766	510.497
551.471	473.991
556.173	209.439
560.873	225.841
565.57	50.2041
570.264	124.463
574.957	82.5171
579.646	82.6289
584.333	28.0254
589.018	38.876
593.7	145.042
598.379	8.23145
603.056	81.7334
607.73	164.012
612.402	216.118
617.072	160.33
621.739	158.727
626.403	99.0259
631.065	175.368
635.724	211.714
640.381	118.066
645.035	209.428
649.687	130.804
654.336	200.192
658.983	331.985
663.627	448.013
668.268	546.438
672.907	727.87
677.544	801.188
682.178	1027.76
686.809	1094.26
691.438	1160.78
696.065	970.318
700.688	679.911
705.31	609.608
709.929	366.351
714.545	222.233
719.158	129.349
723.77	25.7236
728.378	11.0518
732.984	18.6797
737.588	61.3169
742.189	107.592
746.787	35.8154
751.383	248.16
755.976	3.73828
760.567	572.247
765.155	862.876
769.741	979.589
774.324	909.387
778.904	925.28
783.482	793.266
788.058	570.35
792.631	605.536
797.201	569.201
801.769	407.554
806.334	376.745
810.897	302.377
815.457	293.606
820.014	397.931
824.569	426.752
829.122	529.87
833.671	740.093
838.219	938.252
842.763	1253.88
847.306	1774.62
851.845	2424.38
856.382	3662.26
860.917	5424.67
865.448	8623.32
869.978	13451.1
874.505	21211
879.029	28332.5
883.55	25596.8
888.069	16254.8
892.586	8466.79
897.1	4710.56
901.611	2753.63
906.12	1753.78
910.626	1241.23
915.129	821.863
919.63	559.7
924.129	394.775
928.625	273.081
933.118	262.589
937.609	81.2822
942.097	133.139
946.582	102.179
951.065	14.3984
955.546	87.6973
960.023	8.10938
964.499	31.7012
968.971	20.4976
973.441	107.645
977.909	121.157
982.374	127.088
986.836	82.1479
991.295	138.362
995.753	126.728
1000.21	83.2759
1004.66	62.0586
1009.11	68.0854
1013.55	165.972
1018	47.5596
1022.44	67.0908
1026.88	83.6938
1031.32	48.272
1035.75	74.2588
1040.18	178.685
1044.61	211.38
1049.04	129.294
1053.46	144.099
1057.88	180.916
1062.3	169.283
1066.71	160.135
1071.13	300.783
1075.54	281.243
1079.94	245.233
1084.35	212.782
1088.75	231.729
1093.15	185.368
1097.55	159.409
1101.94	111.289
1106.34	215.858
1110.73	108.956
1115.11	135.638
1119.5	121.036
1123.88	208.716
1128.26	138.474
1132.63	174.765
1137.01	78.1411
1141.38	91.0112
1145.75	48.187
1150.12	66.9717
1154.48	17.083
1158.84	74.3877
1163.2	36.5972
1167.55	12.3696
1171.91	1.47461
1176.26	53.1543
1180.61	6.45947
1184.95	58.6973
1189.29	32.2578
1193.63	49.5464
1197.97	53.2476
1202.31	88.4688
1206.64	39.3955
1210.97	86.9702
1215.29	88.4307
1219.62	43.8301
1223.94	6.11035
1228.26	11.1694
1232.57	126.04
1236.89	116.853
1241.2	59.602
1245.51	20.2871
1249.81	105.79
1254.12	180.567
1258.42	132.871
1262.72	114.277
1267.01	189.561
1271.3	113.371
1275.59	89.8696
1279.88	151.487
1284.17	115.501
1288.45	103.31
1292.73	163.701
1297.01	146.548
1301.28	197.877
1305.55	207.204
1309.82	101.181
1314.09	277.61
1318.35	138.683
1322.61	212.638
1326.87	140.435
1331.13	257.125
1335.38	193.435
1339.63	87.3848
1343.88	232.444
1348.12	240.612
1352.37	157.07
1356.61	153.251
1360.85	199.338
1365.08	260.997
1369.31	180.885
1373.54	106.418
1377.77	238.775
1381.99	186.088
1386.22	112.251
1390.43	190.861
1394.65	178.377
1398.87	89.5244
1403.08	144.144
1407.29	226.507
1411.49	57.8823
1415.69	110.511
1419.89	14.6548
1424.09	69.3657
1428.29	167.412
1432.48	134.039
1436.67	13.9697
1440.86	123.454
1445.04	80.4409
1449.23	54.0747
1453.4	27.4546
1457.58	14.2398
1461.76	22.7905
1465.93	10.1816
1470.1	25.458
1474.26	99.4995
1478.43	76.8081
1482.59	117.761
1486.75	129.647
1490.9	85.2954
1495.06	169.903
1499.21	112.682
1503.35	154.973
1507.5	172.626
1511.64	72.5625
1515.78	154.971
1519.92	122.233
1524.05	66.25
1528.18	92.4121
1532.31	134.941
1536.44	48.1475
1540.56	90.3169
1544.69	79.9375
1548.8	183.65
1552.92	110.659
1557.03	139.673
1561.14	45.977
1565.25	51.8784
1569.36	128.767
