Measurement: Raman, 514 nm, depolarized, Raman Data Processed
Mineral: Ferberite
Rruff sample: R040044
Ideal chemistry: Fe^2+^W^6+^O_4_
Locality: Chocote, Bolivia
Source: University of Arizona Mineral Museum
Description: Black tabular single crystal
Measured chemistry: (Fe_0.82_Mn_0.08_Mg_0.07_Pb_0.03_)_Î£=1_W_1.00_O_4_
Pin_id: M00030
Orientation: Laser parallel to -c* (0 0 -1). Fiducial mark perpendicular to laser is parallel to a [1 0 0]
Raman shift (cm-1)	intensity
164.811	0
169.711	193.691
174.61	544.648
179.505	948.793
184.399	870.144
189.29	696.606
194.178	1752.94
199.064	2182.81
203.948	2045.38
208.829	1113.76
213.708	871.781
218.585	307.371
223.459	365.875
228.33	342.156
233.199	202.992
238.066	158.711
242.93	422.703
247.792	31.6016
252.651	363.562
257.508	38.3945
262.363	821.266
267.215	748.773
272.064	284.711
276.912	636.902
281.756	72.6719
286.598	257.488
291.438	152.203
296.276	194.375
301.111	595.723
305.943	313.356
310.773	315.586
315.601	654.348
320.426	1000.75
325.248	1526.62
330.068	1900.47
334.886	1684.6
339.701	1483.85
344.514	1450.69
349.324	1040.41
354.132	1052.8
358.938	659.445
363.741	815.699
368.541	557.949
373.339	574.215
378.135	703.238
382.928	358.957
387.718	593.766
392.506	967.586
397.292	1627.52
402.075	1984
406.856	1282.28
411.634	817.867
416.41	728.266
421.183	333.059
425.954	347.117
430.722	467.758
435.488	345.941
440.251	151.769
445.012	245.109
449.77	163.961
454.526	345.387
459.28	263.051
464.03	337.531
468.779	656.191
473.525	415.844
478.268	547.699
483.009	822.723
487.747	565.82
492.483	848.125
497.217	914.184
501.948	872.219
506.676	1162.39
511.402	1249.45
516.125	1382.14
520.846	1348.49
525.565	1350.58
530.281	1562.38
534.994	1287.71
539.705	1410.12
544.413	1507.52
549.119	1485.43
553.822	1183.76
558.523	1137.49
563.222	1235.64
567.917	1281.22
572.611	1006.28
577.302	557.848
581.99	224.281
586.676	30.7812
591.359	42.4414
596.04	29.4961
600.718	34.4766
605.394	72.2773
610.067	187.984
614.737	17.0898
619.406	260.469
624.071	150.863
628.734	166.438
633.395	68.7812
638.053	370.039
642.708	82.0586
647.361	219.254
652.012	183.613
656.66	246.152
661.305	490.871
665.948	597.766
670.588	379.816
675.226	1012.02
679.861	1547.37
684.494	1408.91
689.124	1647.57
693.752	1600.36
698.377	1534.25
702.999	1089.25
707.619	924.344
712.237	531.547
716.852	322.844
721.464	307.117
726.074	167.961
730.681	28.3164
735.286	92.4531
739.888	14.8398
744.488	83.9648
749.085	193.023
753.68	47.3906
758.272	133.051
762.861	275.582
767.448	481.176
772.033	672.836
776.614	584.984
781.194	269.348
785.77	441.301
790.345	528.148
794.916	741.375
799.485	492.762
804.052	454.844
808.616	231.809
813.177	368.262
817.736	440.379
822.292	321.137
826.846	250.059
831.397	273.648
835.945	415.598
840.491	703.914
845.035	1109.61
849.576	1707.7
854.114	2468.19
858.65	3596.13
863.183	5468.48
867.713	8692.96
872.241	13563
876.767	18102.8
881.29	18296.8
885.81	14655
890.328	10509.4
894.843	6688.58
899.356	4078.48
903.866	2303.64
908.373	1759.8
912.878	777.699
917.38	521.746
921.88	515.816
926.377	156.625
930.872	202.59
935.364	34.0547
939.853	338.234
944.34	205.246
948.824	54.0156
953.306	96.5859
957.785	79.5625
962.261	228.137
966.735	76.6016
971.207	147.801
975.675	339.731
980.141	90.3984
984.605	534.797
989.066	461.945
993.524	327
997.98	389.902
1002.43	542.664
1006.88	273.484
1011.33	309.43
1015.78	693.715
1020.22	302.227
1024.66	465.727
1029.1	554.031
1033.53	645
1037.97	741.637
1042.4	805.504
1046.82	1028.21
1051.25	880.125
1055.67	941.621
1060.09	989.508
1064.51	1057.13
1068.92	1197.49
1073.33	1101.92
1077.74	1192.41
1082.15	878.922
1086.55	1056.35
1090.95	1214.46
1095.35	1306.15
1099.75	973.164
1104.14	896.59
1108.53	1027.91
1112.92	973.508
1117.31	1390.96
1121.69	1615.73
1126.07	1986.64
1130.45	841.434
1134.82	310.863
1139.19	367.398
1143.57	199.004
1147.93	642.965
1152.3	426.699
1156.66	292.168
1161.02	443.754
1165.38	438.434
1169.73	208.727
1174.08	424.231
1178.43	186.449
1182.78	70.6836
1187.12	306.293
1191.46	192.707
1195.8	4.90625
1200.14	444.75
1204.47	344.348
1208.8	38.8594
1213.13	137.156
1217.46	80.4844
1221.78	47.7227
1226.1	112.023
1230.42	267.957
1234.73	257.746
1239.04	278.324
1243.35	237.039
1247.66	209.316
1251.97	21.4805
1256.27	0.710938
1260.57	165.711
1264.86	295.918
1269.16	249.856
1273.45	298.688
1277.74	123.16
1282.03	279.527
1286.31	438.418
1290.59	374.043
1294.87	365.426
1299.14	418.762
1303.42	413.574
1307.69	197.527
1311.95	440.316
1316.22	45.8945
1320.48	200.387
1324.74	197.508
1329	325.621
1333.26	271.582
1337.51	27.1211
1341.76	494.098
1346	495.269
1350.25	258.973
1354.49	151.691
1358.73	246.195
1362.96	25.6484
1367.2	277.328
1371.43	150.141
1375.66	464.867
1379.88	257.394
1384.11	400.781
1388.33	205.769
1392.54	501.242
1396.76	338.168
1400.97	142.551
1405.18	96.2305
1409.39	299.812
1413.59	220.469
1417.8	238.481
1421.99	355.965
1426.19	3.71875
1430.38	370.617
1434.58	405.133
1438.77	347.68
1442.95	509.461
1447.13	281.574
1451.32	479.527
1455.49	234.254
1459.67	488.754
1463.84	217.121
1468.01	138.16
1472.18	171.34
1476.35	112.039
1480.51	150.656
1484.67	278.422
1488.83	200.914
1492.98	211.762
1497.13	429.402
1501.28	39.1719
1505.43	153.75
1509.57	272.293
1513.71	383.238
1517.85	194.106
1521.99	437.453
1526.12	299.051
1530.25	433
1534.38	270.094
1538.5	238.758
1542.62	7.53906
1546.74	69.9805
1550.86	513.59
1554.98	541.941
1559.09	662.371
1563.2	612.504
1567.31	287.617
1571.41	12.5469
