Measurement: Raman, 514 nm, depolarized, Raman Data Processed
Mineral: Ferberite
Rruff sample: R050090
Ideal chemistry: Fe^2+^W^6+^O_4_
Locality: Yaogangxian mine, Cheng Zhu City, South Hunan, China
Source: Rock Currier
Description: Dark gray tabular crystal
Measured chemistry: (Fe^2+^_0.56_Mn_0.44_)W_1.00_O_4_
Pin_id: L01369
Orientation: Laser parallel to c* (0 0 1). Fiducial mark perpendicular to laser is parallel to -a [-1 0 0]
Raman shift (cm-1)	intensity
98.416	0
103.349	4.71143
108.28	1852.49
113.208	554.689
118.134	1690.42
123.058	3465.12
127.979	11076.6
132.898	9054.32
137.814	7199.46
142.728	11752.5
147.639	10632.6
152.549	4929.56
157.455	2243.54
162.359	1160.23
167.261	1919.45
172.161	2004.42
177.058	1271.84
181.952	1006.04
186.845	928.463
191.734	1377.16
196.622	2054.17
201.507	2920.46
206.389	2315.23
211.269	1000.96
216.147	386.356
221.022	25.5561
225.895	89.7563
230.765	125.225
235.633	97.6958
240.498	76.9023
245.361	76.0791
250.222	55.0537
255.08	212.369
259.936	755.067
264.789	962.57
269.64	897.598
274.488	585.036
279.334	517.571
284.178	364.672
289.019	341.032
293.857	468.725
298.693	479.756
303.527	487.101
308.358	652.109
313.187	1045.45
318.013	1833.33
322.837	3041.43
327.659	3252.04
332.478	2421.64
337.294	1590.18
342.108	1355.61
346.92	1107.94
351.729	1067.16
356.535	861.26
361.34	843.099
366.141	825.538
370.94	767.48
375.737	753.975
380.531	898.525
385.323	1167.18
390.113	2035.98
394.9	3562.51
399.684	3650.15
404.466	2065.84
409.245	1260.54
414.022	564.965
418.797	302.124
423.569	94.0288
428.338	192.936
433.105	23.1309
437.87	142.981
442.632	34.0518
447.391	197.001
452.149	195.841
456.903	140.419
461.655	107.968
466.405	118.652
471.152	144.277
475.897	189.844
480.639	253.357
485.378	279.817
490.116	296.228
494.85	422.59
499.582	571.908
504.312	900.186
509.039	1027.52
513.764	1008.34
518.486	1015.78
523.206	926.851
527.923	953.674
532.638	1229.2
537.35	1182.29
542.059	1069.71
546.766	793.143
551.471	702.569
556.173	373.994
560.873	241.423
565.57	6.86182
570.264	8.2915
574.957	89.8687
579.646	21.8809
584.333	123.312
589.018	161.744
593.7	45.6904
598.379	19.8325
603.056	84.9644
607.73	266.84
612.402	293.945
617.072	406.116
621.739	632.359
626.403	941.683
631.065	1055.09
635.724	1150.6
640.381	1093.2
645.035	827.915
649.687	692.739
654.336	623.672
658.983	741.71
663.627	834.845
668.268	1049.27
672.907	1178.38
677.544	1452.77
682.178	1720.23
686.809	1902.76
691.438	1709.38
696.065	1759.09
700.688	1307.88
705.31	975.418
709.929	676.099
714.545	593.354
719.158	220.595
723.77	134.628
728.378	62.189
732.984	108.429
737.588	143.157
742.189	16.4033
746.787	81.5039
751.383	413.926
755.976	689.707
760.567	1040.81
765.155	1468.24
769.741	1745.05
774.324	1609.15
778.904	1453.55
783.482	1240.2
788.058	1006.11
792.631	914.286
797.201	801.719
801.769	625.411
806.334	515.366
810.897	599.583
815.457	699.064
820.014	817.81
824.569	733.822
829.122	1021.1
833.671	1201.64
838.219	1420.34
842.763	2074.03
847.306	2827.38
851.845	4014.99
856.382	5902.88
860.917	9149.32
865.448	13880.1
869.978	22353.6
874.505	36571.3
879.029	49553.8
883.55	46129.9
888.069	29270.1
892.586	15293.6
897.1	8278.65
901.611	4818.77
906.12	3086.79
910.626	2061.91
915.129	1360.72
919.63	1081.52
924.129	755.555
928.625	579.773
933.118	473.126
937.609	271.612
942.097	314.247
946.582	180.015
951.065	227.916
955.546	110.946
960.023	144.068
964.499	96.2759
968.971	208.563
973.441	68.2837
977.909	155.134
982.374	161.404
986.836	314.768
991.295	40.8789
995.753	138.352
1000.21	59.5464
1004.66	6.39307
1009.11	67.6943
1013.55	17.7607
1018	28.0205
1022.44	67.3862
1026.88	24.0825
1031.32	1.76709
1035.75	29.3193
1040.18	197.622
1044.61	78.0727
1049.04	65.73
1053.46	155.232
1057.88	230.186
1062.3	212.165
1066.71	161.029
1071.13	160.257
1075.54	173.669
1079.94	277.857
1084.35	283.075
1088.75	310.5
1093.15	182.785
1097.55	281.946
1101.94	254.363
1106.34	155.48
1110.73	144.945
1115.11	134.256
1119.5	200.417
1123.88	248.983
1128.26	249.539
1132.63	158.244
1137.01	45.9214
1141.38	92.833
1145.75	261.964
1150.12	127.887
1154.48	166.579
1158.84	129.825
1163.2	27.0977
1167.55	63.2266
1171.91	72.6826
1176.26	86.2051
1180.61	0.861328
1184.95	6.29492
1189.29	75.4893
1193.63	186.982
1197.97	58.581
1202.31	41.7432
1206.64	105.836
1210.97	135.668
1215.29	117.426
1219.62	134.993
1223.94	87.3848
1228.26	118.719
1232.57	299.878
1236.89	126.959
1241.2	202.052
1245.51	166.285
1249.81	278.478
1254.12	133.454
1258.42	67.2412
1262.72	43.0068
1267.01	203.703
1271.3	84.124
1275.59	26.4082
1279.88	24.4678
1284.17	167.802
1288.45	162.977
1292.73	196.005
1297.01	125.689
1301.28	222.11
1305.55	119.718
1309.82	208.227
1314.09	172.308
1318.35	46.8125
1322.61	43.0185
1326.87	67.4424
1331.13	152.88
1335.38	185.194
1339.63	74.4746
1343.88	79.7627
1348.12	213.728
1352.37	56.5781
1356.61	132.403
1360.85	92.8828
1365.08	91.1035
1369.31	124.686
1373.54	97.0713
1377.77	133.962
1381.99	71.5147
1386.22	231.02
1390.43	123.105
1394.65	48.1807
1398.87	68.8809
1403.08	8.3916
1407.29	130.383
1411.49	142.422
1415.69	144.079
1419.89	64.6338
1424.09	133.059
1428.29	104.799
1432.48	93.7832
1436.67	82.7627
1440.86	71.0205
1445.04	104.992
1449.23	21.0752
1453.4	122.322
1457.58	83.6748
1461.76	84.9941
1465.93	67.3838
1470.1	87.7988
1474.26	133.28
1478.43	155.185
1482.59	221.32
1486.75	252.081
1490.9	162.282
1495.06	174.994
1499.21	16.8506
1503.35	158.208
1507.5	141.847
1511.64	176.004
1515.78	117.341
1519.92	187.114
1524.05	83.6113
1528.18	82.6787
1532.31	120.886
1536.44	219.968
1540.56	29.4678
1544.69	16.3701
1548.8	156.696
1552.92	194.881
1557.03	209.628
1561.14	91.3926
1565.25	186.419
1569.36	73.9424
