Measurement: Raman, 514 nm, depolarized, Raman Data Processed
Mineral: Ferberite
Rruff sample: R040044
Ideal chemistry: Fe^2+^W^6+^O_4_
Locality: Chocote, Bolivia
Source: University of Arizona Mineral Museum
Description: Black tabular single crystal
Measured chemistry: (Fe_0.82_Mn_0.08_Mg_0.07_Pb_0.03_)_Î£=1_W_1.00_O_4_
Pin_id: M00266
Orientation: Laser parallel to a [1 0 0]. Fiducial mark perpendicular to laser is parallel to b* (0 1 0)
Raman shift (cm-1)	intensity
151.711	0
155.863	227.629
160.013	10.869
164.161	297.002
168.308	89.098
172.452	257.729
176.594	134.039
180.734	293.693
184.872	297.52
189.008	358.209
193.143	894.137
197.275	1605.22
201.405	2748.39
205.534	3493.2
209.66	3508.88
213.784	2218.52
217.907	1415.09
222.027	891.57
226.146	510.277
230.263	259.516
234.377	149.615
238.49	183.484
242.601	42.041
246.709	58.496
250.816	8.75
254.921	41.893
259.024	312.133
263.125	188.426
267.224	351.305
271.321	444.035
275.416	264.088
279.51	126.129
283.601	21.973
287.69	43.193
291.778	39.021
295.863	208.016
299.947	374.02
304.029	519.859
308.108	755.799
312.186	1159.11
316.262	1830.08
320.336	2791.33
324.408	3816.83
328.478	4230.69
332.546	4006.01
336.612	3315.36
340.677	2656.82
344.739	2118.62
348.799	1491.26
352.858	1279.35
356.915	1097.96
360.969	977.525
365.022	931.779
369.073	814.441
373.122	597.373
377.169	670.818
381.215	538.639
385.258	688.67
389.299	739.455
393.339	1051.63
397.376	1407.14
401.412	1496.26
405.446	1270.03
409.478	1002.55
413.508	636.078
417.536	296.592
421.562	152.504
425.586	169.266
429.609	79.162
433.629	190.078
437.648	111.777
441.665	53.568
445.68	61.02
449.693	194.619
453.704	217.736
457.713	292.518
461.721	202.014
465.726	193.859
469.73	309.857
473.731	254.088
477.731	248.105
481.729	447.311
485.725	357.27
489.72	512.078
493.712	548.07
497.703	764.273
501.691	942.727
505.678	1161.47
509.663	1250.54
513.646	1359.95
517.627	1320.73
521.607	1302.91
525.584	1487.51
529.56	1471.39
533.534	1532.23
537.506	1566.01
541.476	1370.66
545.444	1084.78
549.41	1090.19
553.375	831.75
557.337	652.078
561.298	555.18
565.257	436.172
569.214	397.131
573.17	300.779
577.123	212.359
581.075	130.658
585.024	9.98
588.972	111.697
592.918	85.758
596.863	24.939
600.805	63.633
604.746	189.318
608.685	89.738
612.621	12.893
616.557	30.016
620.49	37.711
624.421	0.447
628.351	21.123
632.279	114.334
636.205	149.947
640.129	64.15
644.051	62.377
647.972	500.467
651.89	616.836
655.807	685.107
659.722	377.301
663.636	578.424
667.547	540.014
671.457	672.52
675.365	1154.56
679.271	1361.64
683.175	1819.74
687.077	1913.88
690.978	1979.05
694.877	2015.26
698.774	1799.55
702.669	1236.91
706.562	1028.39
710.454	635.943
714.344	526.564
718.232	402.262
722.118	308.045
726.002	149.914
729.885	140.881
733.766	3.5
737.645	77.025
741.522	165.619
745.397	47.594
749.271	198.734
753.143	47.291
757.013	168.668
760.881	213.83
764.748	443.787
768.613	54.076
772.476	226.09
776.337	151.752
780.196	173.338
784.054	182.402
787.91	74.795
791.764	194.412
795.616	184.295
799.467	230.16
803.316	132.561
807.163	325.213
811.008	218.125
814.851	260.299
818.693	458.744
822.533	522.457
826.371	568.307
830.208	820.482
834.042	1088.27
837.875	1479.68
841.706	1618.86
845.536	1913.4
849.363	2719.27
853.189	4223.66
857.013	5393.22
860.836	7932.18
864.656	10012.5
868.475	14299
872.292	19621.9
876.108	23355.2
879.922	24147.8
883.733	20560.8
887.544	16032.1
891.352	11282.6
895.159	7770.64
898.964	5408.99
902.767	3846.67
906.568	2810.7
910.368	1939.15
914.166	1671.01
917.962	1153.35
921.757	906.162
925.55	747.438
929.341	557.215
933.13	517.301
936.918	575.846
940.703	334.713
944.488	289.883
948.27	289.342
952.051	324.139
955.83	247.254
959.607	203.643
963.383	186.301
967.156	134.23
970.928	129.434
974.699	106.906
978.468	16.396
982.234	98.938
986	61.453
989.763	38.711
993.525	50.203
997.285	90.26
1001.04	89.088
1004.8	85.146
1008.55	106.309
1012.31	188.35
1016.06	316.066
1019.81	21.34
1023.56	112.176
1027.31	219.004
1031.05	187.852
1034.79	264.631
1038.53	298.6
1042.27	340.232
1046.01	347.686
1049.75	445.008
1053.48	410.145
1057.22	329.887
1060.95	287.021
1064.68	428.537
1068.4	300.746
1072.13	447.865
1075.86	467.102
1079.58	432.506
1083.3	472.16
1087.02	368.521
1090.74	372.588
1094.45	164.168
1098.17	182.502
1101.88	191.457
1105.59	227.529
1109.3	236.363
1113.01	281.627
1116.71	269.324
1120.42	318.309
1124.12	218.215
1127.82	60.877
1131.52	155.641
1135.22	159.406
1138.91	22.303
1142.61	57.137
1146.3	64.967
1149.99	626.865
1153.68	42.719
1157.37	93.486
1161.06	35.805
1164.74	55.564
1168.42	24.783
1172.1	76.504
1175.78	123.326
1179.46	132.477
1183.14	150.496
1186.81	334.061
1190.48	117.281
1194.15	240.467
1197.83	193.078
1201.49	323.334
1205.16	132.156
1208.82	208.75
1212.49	183.9
1216.15	269.207
1219.81	242.93
1223.46	189.723
1227.12	249.578
1230.78	215.592
1234.43	432.627
1238.08	259.938
1241.73	241.84
1245.38	218.443
1249.03	377.746
1252.67	334.729
1256.31	318.404
1259.95	293.889
1263.6	320.141
1267.23	314.084
1270.87	326.297
1274.51	295.541
1278.14	316.65
1281.77	228.639
1285.4	273.584
1289.03	267.137
1292.66	246.592
1296.28	247.861
1299.91	299.059
1303.53	480.09
1307.15	121.787
1310.77	187.193
1314.38	38.852
1318	203.096
1321.61	48.799
1325.23	198.713
1328.84	114.906
1332.45	331.707
1336.06	122.115
1339.66	154.99
1343.27	182.281
1346.87	229.596
1350.47	273.496
1354.07	379.354
1357.67	197.115
1361.26	237.5
1364.86	297.049
1368.45	260.377
1372.04	423.641
1375.63	362.336
1379.22	362.77
1382.81	428.031
1386.39	472.822
1389.98	405.348
1393.56	447.51
1397.14	511.479
1400.72	455.213
1404.3	295.42
1407.87	282.473
1411.45	380.023
1415.02	489.572
1418.59	439.354
1422.16	255.232
1425.73	301.242
1429.29	150.115
1432.86	214.578
1436.42	265.352
1439.98	335.688
1443.54	313.127
1447.1	281.539
1450.66	322.416
1454.21	386.473
1457.77	322.535
1461.32	444.189
1464.87	285.627
1468.42	436.828
1471.96	151.367
1475.51	240.988
1479.06	160.516
1482.6	131.656
1486.14	154.594
1489.68	185.57
1493.22	71.662
1496.75	190.076
1500.29	198.518
1503.82	160.25
1507.35	284.715
1510.88	246.129
1514.41	160.844
1517.94	56.932
