Measurement: Raman, 514 nm, ccw, Raman Data Processed
Mineral: Ferberite
Rruff sample: R040044
Ideal chemistry: Fe^2+^W^6+^O_4_
Locality: Chocote, Bolivia
Source: University of Arizona Mineral Museum
Description: Black tabular single crystal
Measured chemistry: (Fe_0.82_Mn_0.08_Mg_0.07_Pb_0.03_)_Î£=1_W_1.00_O_4_
Pin_id: M00030
Orientation: Laser parallel to -c* (0 0 -1). Fiducial mark perpendicular to laser is parallel to a [1 0 0]
Raman shift (cm-1)	intensity
164.811	0
169.711	383.969
174.61	1604.44
179.505	2147.12
184.399	1044.55
189.29	924.582
194.178	1282.86
199.064	2257.22
203.948	1491.17
208.829	602.981
213.708	1773.36
218.585	716.273
223.459	393.992
228.33	373.539
233.199	206.289
238.066	203.938
242.93	19.2852
247.792	92.8711
252.651	14.8828
257.508	84.2148
262.363	43.9961
267.215	166.508
272.064	118.695
276.912	297.125
281.756	356.383
286.598	295.68
291.438	446.777
296.276	1176.71
301.111	985.902
305.943	648.644
310.773	662.082
315.601	455.754
320.426	844.082
325.248	1422.01
330.068	1456.12
334.886	1340.51
339.701	1306.39
344.514	1205.43
349.324	1044.43
354.132	960.391
358.938	776.797
363.741	919.719
368.541	583.234
373.339	629.023
378.135	600.312
382.928	759.481
387.718	809.414
392.506	458.078
397.292	553.051
402.075	660.18
406.856	548.363
411.634	194.746
416.41	461.926
421.183	414.644
425.954	485.43
430.722	617.469
435.488	482.559
440.251	390.434
445.012	425.316
449.77	517.758
454.526	332.859
459.28	663.441
464.03	448.672
468.779	137.742
473.525	332.227
478.268	903.738
483.009	834.84
487.747	969.137
492.483	1017.98
497.217	941.711
501.948	1170.79
506.676	1133.93
511.402	1449.88
516.125	1271.41
520.846	1350.71
525.565	1351.67
530.281	1146.3
534.994	1147.04
539.705	1356.2
544.413	1456.52
549.119	1259.77
553.822	1410.7
558.523	1416.19
563.222	1453.21
567.917	1218.94
572.611	1303.68
577.302	746.074
581.99	347.856
586.676	45.2852
591.359	37.8984
596.04	63.4883
600.718	310.812
605.394	186.695
610.067	237.246
614.737	60.6953
619.406	111.356
624.071	237.555
628.734	56.2969
633.395	246.867
638.053	196.301
642.708	164.996
647.361	315.894
652.012	131.934
656.66	395.231
661.305	508.769
665.948	631.551
670.588	916.621
675.226	884.941
679.861	1251.65
684.494	1620.58
689.124	1624.68
693.752	1973.96
698.377	1457.36
702.999	972.648
707.619	685.703
712.237	394.242
716.852	248.039
721.464	107.352
726.074	75.9805
730.681	51.1914
735.286	192.223
739.888	39.0781
744.488	32.4727
749.085	159.269
753.68	83.3398
758.272	241.559
762.861	599.938
767.448	755.57
772.033	842.109
776.614	1127.91
781.194	1204
785.77	636.672
790.345	864.328
794.916	592.293
799.485	544.566
804.052	665.891
808.616	501.875
813.177	608.098
817.736	138.602
822.292	404.551
826.846	338.094
831.397	265.676
835.945	843.711
840.491	760.148
845.035	1453.08
849.576	1415.48
854.114	2571.12
858.65	3583.19
863.183	5727.8
867.713	8979.51
872.241	13548.8
876.767	18078.1
881.29	18713
885.81	15146.6
890.328	10365.6
894.843	6511.45
899.356	4134.03
903.866	2676.43
908.373	1762.59
912.878	832.473
917.38	429.039
921.88	453.324
926.377	408.359
930.872	261.254
935.364	121.938
939.853	233.344
944.34	93.3594
948.824	133.059
953.306	78.9688
957.785	117.785
962.261	14.4258
966.735	136.516
971.207	85.4727
975.675	94.1758
980.141	414.523
984.605	230.598
989.066	199.367
993.524	545.848
997.98	363.231
1002.43	333.668
1006.88	399.285
1011.33	351.043
1015.78	303.867
1020.22	498.141
1024.66	545.41
1029.1	175.492
1033.53	423.246
1037.97	1194.66
1042.4	452.465
1046.82	639.277
1051.25	707.555
1055.67	1126.42
1060.09	877.172
1064.51	991.898
1068.92	946.945
1073.33	1031.26
1077.74	1147.75
1082.15	1231.18
1086.55	1188
1090.95	1128.63
1095.35	920.715
1099.75	830.152
1104.14	883.246
1108.53	656.031
1112.92	772.121
1117.31	1522.51
1121.69	1492.44
1126.07	1437.63
1130.45	589.695
1134.82	295.223
1139.19	579.711
1143.57	121.102
1147.93	254.195
1152.3	289.707
1156.66	265.383
1161.02	279.148
1165.38	145.973
1169.73	342.543
1174.08	13.168
1178.43	152.098
1182.78	330.406
1187.12	21.8594
1191.46	302.019
1195.8	99.8516
1200.14	252.488
1204.47	282.004
1208.8	187.043
1213.13	17.5781
1217.46	15.0586
1221.78	388.363
1226.1	172.414
1230.42	16.6172
1234.73	127.781
1239.04	258.617
1243.35	153.988
1247.66	205.402
1251.97	229.688
1256.27	247.047
1260.57	53.5859
1264.86	36.3906
1269.16	191.16
1273.45	159.688
1277.74	55.25
1282.03	257.93
1286.31	69.7656
1290.59	336.883
1294.87	94.7969
1299.14	197.883
1303.42	214.914
1307.69	473.449
1311.95	135.074
1316.22	226.352
1320.48	417.973
1324.74	142.793
1329	496.856
1333.26	201.894
1337.51	138.988
1341.76	304.016
1346	231.586
1350.25	226.504
1354.49	492.16
1358.73	78.2148
1362.96	319.301
1367.2	182.129
1371.43	181.723
1375.66	252.141
1379.88	513.094
1384.11	471.766
1388.33	484.356
1392.54	196.719
1396.76	251.812
1400.97	392.191
1405.18	318.746
1409.39	382.523
1413.59	467.859
1417.8	354.164
1421.99	61.2148
1426.19	244.129
1430.38	232.863
1434.58	151.805
1438.77	179.734
1442.95	358.16
1447.13	177.84
1451.32	325.594
1455.49	123.285
1459.67	31.8164
1463.84	192.742
1468.01	285.5
1472.18	197.707
1476.35	162.676
1480.51	188.66
1484.67	458.121
1488.83	241.863
1492.98	430.43
1497.13	216.504
1501.28	421.176
1505.43	120.644
1509.57	406.035
1513.71	572.805
1517.85	107.648
1521.99	257.184
1526.12	299.008
1530.25	213.316
1534.38	439.793
1538.5	103.402
1542.62	12.9805
1546.74	503.648
1550.86	581.473
1554.98	767.277
1559.09	214.625
1563.2	192.234
1567.31	91.1523
1571.41	390.496
