Measurement: Raman, 514 nm, ccw, Raman Data Processed
Mineral: Ferberite
Rruff sample: R040044
Ideal chemistry: Fe^2+^W^6+^O_4_
Locality: Chocote, Bolivia
Source: University of Arizona Mineral Museum
Description: Black tabular single crystal
Measured chemistry: (Fe_0.82_Mn_0.08_Mg_0.07_Pb_0.03_)_Î£=1_W_1.00_O_4_
Pin_id: M00030
Orientation: Laser parallel to -c* (0 0 -1). Fiducial mark perpendicular to laser is parallel to a [1 0 0]
Raman shift (cm-1)	intensity
164.811	0
169.711	454.539
174.61	111.293
179.505	31.1992
184.399	441.938
189.29	1326.32
194.178	1510.67
199.064	2390.53
203.948	1472.58
208.829	408.176
213.708	1343.34
218.585	478.418
223.459	125.535
228.33	229.766
233.199	341.367
238.066	391.758
242.93	26.8477
247.792	302.668
252.651	145.883
257.508	363.828
262.363	293.535
267.215	696.125
272.064	727.809
276.912	807.188
281.756	205.707
286.598	262.547
291.438	58.6211
296.276	218.406
301.111	146.797
305.943	41.3438
310.773	41.9844
315.601	111.859
320.426	266.539
325.248	490.391
330.068	341.328
334.886	398.082
339.701	675.098
344.514	600.352
349.324	885.797
354.132	430.492
358.938	665.023
363.741	614.742
368.541	547.152
373.339	710.898
378.135	796.481
382.928	529.789
387.718	959.391
392.506	1356.01
397.292	2244.86
402.075	2898.03
406.856	2325.44
411.634	1450.13
416.41	1165.04
421.183	1075.18
425.954	715.426
430.722	867.398
435.488	153.883
440.251	765.91
445.012	226.086
449.77	586.473
454.526	581.102
459.28	736.738
464.03	652.473
468.779	541.906
473.525	672.734
478.268	784.477
483.009	801.117
487.747	670.137
492.483	721.731
497.217	713.519
501.948	1051.39
506.676	963.246
511.402	959.25
516.125	1038.78
520.846	1302.85
525.565	1231.16
530.281	1608.66
534.994	1432.84
539.705	1181.02
544.413	1373
549.119	1268.48
553.822	1387.43
558.523	1482.74
563.222	1372.41
567.917	1286.24
572.611	1368.99
577.302	585.359
581.99	459.328
586.676	227.871
591.359	117.336
596.04	106.703
600.718	346.207
605.394	152.102
610.067	5.65234
614.737	192.332
619.406	23.793
624.071	108.199
628.734	350.566
633.395	169.207
638.053	192.973
642.708	239.691
647.361	310.32
652.012	148.422
656.66	143.137
661.305	219.066
665.948	356.969
670.588	520.055
675.226	742.992
679.861	1190.91
684.494	1752.32
689.124	2278.02
693.752	2584.94
698.377	1995.82
702.999	1641.87
707.619	1256.1
712.237	755.496
716.852	398.062
721.464	344.785
726.074	335.664
730.681	116.598
735.286	166.594
739.888	78.832
744.488	85.8945
749.085	75.7266
753.68	82.0938
758.272	50.9414
762.861	221.117
767.448	47.7266
772.033	162.457
776.614	247.777
781.194	187.168
785.77	23.9648
790.345	15.5117
794.916	315.234
799.485	150.195
804.052	198.328
808.616	172.723
813.177	97.082
817.736	254.367
822.292	138.863
826.846	262.641
831.397	360.609
835.945	221.902
840.491	453.559
845.035	431.59
849.576	1271.07
854.114	2063.87
858.65	2728.07
863.183	4665.6
867.713	6950.11
872.241	11199.6
876.767	15586.7
881.29	15911.3
885.81	13144
890.328	9212.65
894.843	5918.59
899.356	3834.79
903.866	2363.14
908.373	1792.3
912.878	1422.21
917.38	720.965
921.88	579.332
926.377	260.684
930.872	326.762
935.364	129.856
939.853	514.016
944.34	354.992
948.824	172.035
953.306	211
957.785	127.613
962.261	243.914
966.735	372.926
971.207	209.953
975.675	68.5078
980.141	181.426
984.605	598.777
989.066	444.859
993.524	679.773
997.98	376.527
1002.43	404.098
1006.88	448.539
1011.33	484.711
1015.78	593.894
1020.22	470.273
1024.66	423.156
1029.1	695.969
1033.53	550.121
1037.97	698.582
1042.4	707.246
1046.82	945.695
1051.25	969.207
1055.67	837.359
1060.09	828.078
1064.51	1231.59
1068.92	816.695
1073.33	1049
1077.74	1035.28
1082.15	1015.24
1086.55	1142.96
1090.95	1150.36
1095.35	1012.55
1099.75	840.129
1104.14	1049.01
1108.53	874.492
1112.92	945.16
1117.31	1661.46
1121.69	1288.27
1126.07	1662.73
1130.45	998.484
1134.82	591.074
1139.19	492.883
1143.57	366.504
1147.93	224.746
1152.3	245.481
1156.66	318.231
1161.02	19.3828
1165.38	320.438
1169.73	419.148
1174.08	70.0469
1178.43	473.32
1182.78	201.918
1187.12	205.945
1191.46	286.066
1195.8	50.2852
1200.14	84.6914
1204.47	75.5586
1208.8	46.7695
1213.13	441.59
1217.46	135.981
1221.78	114.981
1226.1	101.871
1230.42	119.562
1234.73	71.0781
1239.04	23.9961
1243.35	254.125
1247.66	220.656
1251.97	184.453
1256.27	232.012
1260.57	223.644
1264.86	175.59
1269.16	195.199
1273.45	220.59
1277.74	250.562
1282.03	13.125
1286.31	322.711
1290.59	336.555
1294.87	143.801
1299.14	377.25
1303.42	102.094
1307.69	256.293
1311.95	121.203
1316.22	118.824
1320.48	348.606
1324.74	408.25
1329	218.18
1333.26	330.371
1337.51	104.219
1341.76	510.945
1346	352.676
1350.25	428.781
1354.49	461.922
1358.73	474.227
1362.96	401.152
1367.2	314.375
1371.43	304.074
1375.66	29.6445
1379.88	159.449
1384.11	658.453
1388.33	754.68
1392.54	419.523
1396.76	410.106
1400.97	323.961
1405.18	302.769
1409.39	344.75
1413.59	340.277
1417.8	436.711
1421.99	402.211
1426.19	284.629
1430.38	92.5469
1434.58	336.676
1438.77	404.539
1442.95	326.512
1447.13	140.617
1451.32	259.496
1455.49	206.598
1459.67	67.5547
1463.84	297.289
1468.01	214.871
1472.18	153.809
1476.35	262.922
1480.51	369.738
1484.67	510.387
1488.83	144.453
1492.98	370.606
1497.13	255.484
1501.28	170.648
1505.43	631.34
1509.57	598.496
1513.71	314.973
1517.85	211.547
1521.99	355.828
1526.12	37.7227
1530.25	441.707
1534.38	384.734
1538.5	493.234
1542.62	777.09
1546.74	610.773
1550.86	449.629
1554.98	34.9023
1559.09	301.828
1563.2	542.371
1567.31	79.7695
1571.41	1.41797
