Measurement: Raman, 514 nm, depolarized, Raman Data Processed
Mineral: Ferberite
Rruff sample: R050632
Ideal chemistry: Fe^2+^W^6+^O_4_
Locality: Chance mine, Boulder, Colorado, USA
Source: University of Arizona Mineral Museum
Description: Dark brown rectangular prismatic crystals
Measured chemistry: Fe^2+^_1.00_WO_4_
Pin_id: M00461
Orientation: Laser parallel to b* (0 1 0). Fiducial mark perpendicular to laser is parallel to c [0 0 1]
Raman shift (cm-1)	intensity
157.455	0
162.359	61.2617
167.261	604.031
172.161	601.156
177.058	564.492
181.952	839.512
186.845	945.695
191.734	1772.31
196.622	2343.91
201.507	3752.3
206.389	1584.16
211.269	1204.25
216.147	978.875
221.022	387.711
225.895	129.41
230.765	96.6055
235.633	147.328
240.498	403.227
245.361	161.664
250.222	105.012
255.08	297.981
259.936	389.82
264.789	695.117
269.64	477.074
274.488	611.004
279.334	342.84
284.178	153.512
289.019	129.363
293.857	238.582
298.693	118.394
303.527	340.066
308.358	422.039
313.187	264.109
318.013	846.356
322.837	1265.41
327.659	2015.84
332.478	1558.58
337.294	1102.22
342.108	992.734
346.92	495.629
351.729	641.109
356.535	926.027
361.34	1137.73
366.141	296.766
370.94	209.898
375.737	381.688
380.531	538.559
385.323	262.703
390.113	288.102
394.9	1167.96
399.684	1261.71
404.466	982.988
409.245	664.215
414.022	386.363
418.797	358.469
423.569	726.566
428.338	402.684
433.105	429.453
437.87	283.297
442.632	533.426
447.391	534.125
452.149	380.887
456.903	736.461
461.655	591.586
466.405	563.578
471.152	529.606
475.897	922.231
480.639	686.891
485.378	924.004
490.116	972.809
494.85	1006.62
499.582	1202.6
504.312	1095.82
509.039	1349.17
513.764	1131.59
518.486	1388.12
523.206	1466.91
527.923	1616.65
532.638	1288.53
537.35	1566.63
542.059	1890.98
546.766	1524.76
551.471	1569.09
556.173	1710.48
560.873	1847.88
565.57	1758.25
570.264	1992.6
574.957	1306.35
579.646	1023.11
584.333	852.359
589.018	80.5469
593.7	222.465
598.379	183.18
603.056	60.9062
607.73	455.352
612.402	288.152
617.072	376.727
621.739	40.4297
626.403	411.059
631.065	94.5859
635.724	255.043
640.381	259.309
645.035	52.3594
649.687	131.066
654.336	65.2617
658.983	387.984
663.627	40.1406
668.268	360.285
672.907	629.133
677.544	839.508
682.178	1449.4
686.809	1302.1
691.438	1629.74
696.065	1188.6
700.688	625.574
705.31	239.828
709.929	257.352
714.545	14.8789
719.158	157.043
723.77	15.1172
728.378	205.312
732.984	46.6719
737.588	293.875
742.189	9.6875
746.787	64.6289
751.383	68.9609
755.976	189.41
760.567	33.5078
765.155	87.8398
769.741	288.184
774.324	109.32
778.904	70.9141
783.482	7.96875
788.058	90.957
792.631	65.4648
797.201	236.453
801.769	177.828
806.334	268.809
810.897	95.1289
815.457	9.59375
820.014	125.184
824.569	44.2891
829.122	191.426
833.671	418.207
838.219	178.113
842.763	418.828
847.306	866
851.845	1011.65
856.382	1614.11
860.917	2696.53
865.448	4237.74
869.978	7477.81
874.505	10296
879.029	9598.48
883.55	6697.5
888.069	3874.7
892.586	2320.23
897.1	1490.18
901.611	1079.42
906.12	916.484
910.626	438.379
915.129	467.371
919.63	373.812
924.129	525.176
928.625	296.043
933.118	411.941
937.609	237.898
942.097	380.359
946.582	198.398
951.065	390.762
955.546	339.758
960.023	360.66
964.499	431.773
968.971	171.277
973.441	238.356
977.909	244.094
982.374	549.656
986.836	533.961
991.295	458.027
995.753	385.188
1000.21	281.699
1004.66	727.699
1009.11	973.836
1013.55	703.891
1018	776.832
1022.44	479.594
1026.88	914.098
1031.32	852.434
1035.75	647.93
1040.18	1091.86
1044.61	973.688
1049.04	913.391
1053.46	1084.92
1057.88	918.356
1062.3	1163.38
1066.71	833.848
1071.13	864.969
1075.54	1068.95
1079.94	810.668
1084.35	857.754
1088.75	831.816
1093.15	817.598
1097.55	795.367
1101.94	963.777
1106.34	933.18
1110.73	453.34
1115.11	795.969
1119.5	803.234
1123.88	818.594
1128.26	587.543
1132.63	375.168
1137.01	345.801
1141.38	258.902
1145.75	456.356
1150.12	356.719
1154.48	261.617
1158.84	277.523
1163.2	133.75
1167.55	198.266
1171.91	239.18
1176.26	83.0586
1180.61	363.43
1184.95	154.004
1189.29	314.133
1193.63	335.098
1197.97	351.207
1202.31	394.406
1206.64	307.316
1210.97	113.797
1215.29	212.516
1219.62	136.844
1223.94	168.082
1228.26	84.3398
1232.57	208.625
1236.89	263.051
1241.2	247.336
1245.51	7.67188
1249.81	320.203
1254.12	77.0938
1258.42	79.5664
1262.72	73.9727
1267.01	1.96484
1271.3	42.2539
1275.59	230.375
1279.88	529.555
1284.17	199.418
1288.45	237.121
1292.73	321.664
1297.01	582.691
1301.28	332.801
1305.55	309.652
1309.82	266.246
1314.09	407.574
1318.35	414.606
1322.61	413.93
1326.87	609.469
1331.13	27.1172
1335.38	448.133
1339.63	757.231
1343.88	242.992
1348.12	408.129
1352.37	518.207
1356.61	245.977
1360.85	628.715
1365.08	335.297
1369.31	400.848
1373.54	477.25
1377.77	431.871
1381.99	701.383
1386.22	228.492
1390.43	460.961
1394.65	367.234
1398.87	387.805
1403.08	118.957
1407.29	310.609
1411.49	386.766
1415.69	359.926
1419.89	386.84
1424.09	563.199
1428.29	422.262
1432.48	510.672
1436.67	337.906
1440.86	289.723
1445.04	364.461
1449.23	431.535
1453.4	301.363
1457.58	253.621
1461.76	117.519
1465.93	302.383
1470.1	656.531
1474.26	247.68
1478.43	247.824
1482.59	433.133
1486.75	177.41
1490.9	147.769
1495.06	463.594
1499.21	644.43
1503.35	118.504
1507.5	119.547
1511.64	399.137
1515.78	502.859
1519.92	23.6523
1524.05	215.856
1528.18	245.086
1532.31	139.668
1536.44	363.254
1540.56	246.074
1544.69	266.609
1548.8	169.894
1552.92	225.914
1557.03	126.731
1561.14	128.57
1565.25	224.418
1569.36	174.644
