Measurement: Raman, 514 nm, depolarized, Raman Data Processed
Mineral: Ferberite
Rruff sample: R040044
Ideal chemistry: Fe^2+^W^6+^O_4_
Locality: Chocote, Bolivia
Source: University of Arizona Mineral Museum
Description: Black tabular single crystal
Measured chemistry: (Fe_0.82_Mn_0.08_Mg_0.07_Pb_0.03_)_Î£=1_W_1.00_O_4_
Pin_id: L01748
Orientation: Laser parallel to (1 0 1). Fiducial mark perpendicular to laser is parallel to b [0 1 0]
Raman shift (cm-1)	intensity
96.519	0
101.503	19.3535
106.484	2475.52
111.462	2496.32
116.437	3854.7
121.409	761
126.377	969.731
131.343	4915.47
136.305	3945.48
141.264	999.283
146.22	115.844
151.173	585.769
156.123	583.613
161.069	535.033
166.013	674.225
170.953	802.99
175.89	1125.23
180.825	2269.91
185.756	1747.9
190.683	1957.14
195.608	2206.77
200.53	2872.77
205.449	1664.31
210.364	1841.18
215.277	1777.96
220.186	1247.61
225.092	509.197
229.996	3.75391
234.896	50.3164
239.793	1.39648
244.687	143.613
249.578	153.795
254.466	90.6992
259.351	387.588
264.233	3.39062
269.112	202.223
273.988	536.443
278.86	625.264
283.73	306.451
288.597	319.627
293.461	373.387
298.321	742.93
303.179	738.91
308.034	822.471
312.885	706.572
317.734	760.264
322.58	1194.6
327.422	1648.32
332.262	1989.13
337.099	1616.45
341.932	1303.33
346.763	958.854
351.591	1117.6
356.416	837.769
361.238	873.492
366.056	868.701
370.872	572.023
375.685	666.398
380.495	416.981
385.302	378.717
390.106	271.906
394.908	815.234
399.706	1133.93
404.501	1857.62
409.294	757.578
414.083	556.387
418.869	233.465
423.653	375.592
428.434	0.787109
433.211	130.836
437.986	230.647
442.758	244.75
447.527	306.416
452.293	273.014
457.057	394.34
461.817	290.418
466.575	235.266
471.329	506.463
476.081	439.309
480.83	514.299
485.576	549.555
490.319	770.348
495.059	764.938
499.796	915.891
504.531	1112.15
509.262	1089.03
513.991	1255.17
518.717	1488.61
523.44	1544.57
528.161	1641.07
532.878	1497.51
537.593	1538.11
542.304	1677.09
547.013	1538.91
551.719	1391.07
556.423	1530.62
561.123	1255.49
565.821	1287.69
570.516	1077.2
575.208	867.082
579.897	532.318
584.583	359.912
589.267	17.1387
593.948	64.9981
598.626	89.2168
603.301	16.3359
607.974	25.8633
612.644	32.2148
617.311	28.2852
621.975	36.0723
626.636	10.8164
631.295	67.0762
635.951	145.803
640.604	82.8731
645.254	40.2754
649.902	243.971
654.547	275.08
659.189	406.613
663.828	667.566
668.465	1003.14
673.099	1270.74
677.73	1748.94
682.359	2365.53
686.984	3198.54
691.607	3674.93
696.228	3951.71
700.845	3936.07
705.46	3898.93
710.072	2033.35
714.682	1556.29
719.288	1091.62
723.893	713.365
728.494	493.459
733.093	468.971
737.689	283.731
742.282	388.156
746.873	68.5312
751.461	264.769
756.046	618.15
760.628	112.049
765.208	174.49
769.786	230.277
774.36	404.949
778.932	310.016
783.502	488.535
788.068	268.203
792.632	433.373
797.194	197.045
801.752	386.217
806.309	492.889
810.862	177.059
815.413	448.725
819.961	482.285
824.507	652.941
829.05	470.088
833.59	824.047
838.128	961.291
842.663	1201.88
847.195	1733.86
851.725	2414.05
856.252	3295.12
860.777	4859.8
865.299	7436.65
869.819	11512
874.336	18020.9
878.85	22995.8
883.362	21822.3
887.871	15950.7
892.377	10419.4
896.881	6255.59
901.383	3558.04
905.882	2423.06
910.378	1369.52
914.872	1208.37
919.363	496.754
923.852	487.557
928.338	266.777
932.821	297.406
937.302	327.367
941.781	77.6582
946.257	271.266
950.73	322.185
955.201	98.3828
959.669	222.852
964.135	85.6055
968.598	91.4043
973.059	125.432
977.517	135.49
981.973	9.38477
986.426	160.41
990.877	151.688
995.325	126.158
999.771	120.195
1004.21	72.0703
1008.65	112.324
1013.09	92.7812
1017.53	204.443
1021.96	46.2969
1026.39	218.582
1030.82	220.568
1035.25	231.715
1039.67	415.031
1044.09	353.519
1048.51	311.147
1052.92	375.398
1057.34	370.328
1061.75	404.277
1066.16	616.443
1070.56	661.697
1074.97	518.033
1079.37	821.455
1083.77	550.953
1088.16	474.123
1092.56	670.754
1096.95	543.6
1101.34	509.861
1105.72	687.957
1110.11	585.887
1114.49	388.242
1118.87	679.416
1123.25	543.738
1127.62	425.412
1131.99	312.231
1136.36	211.805
1140.73	135.701
1145.09	332.543
1149.46	150.117
1153.82	230.76
1158.17	14.1621
1162.53	197.508
1166.88	289.373
1171.23	133.158
1175.58	235.156
1179.93	254.943
1184.27	187.211
1188.61	36.1602
1192.95	55.2773
1197.29	371.629
1201.62	213.004
1205.95	143.244
1210.28	206.213
1214.61	208.643
1218.93	319.096
1223.25	99.9883
1227.57	286.594
1231.89	213.432
1236.2	65.0879
1240.52	179.769
1244.83	164.449
1249.13	49.168
1253.44	2.71484
1257.74	460.606
1262.05	100.547
1266.34	200.865
1270.64	24.8301
1274.93	95.3613
1279.23	159.508
1283.52	267.266
1287.8	340.832
1292.09	7.00781
1296.37	88.9043
1300.65	263.709
1304.93	128.356
1309.2	12.9609
1313.48	30.7754
1317.75	262.791
1322.02	283.809
1326.28	362.373
1330.55	126.844
1334.81	354.006
1339.07	209.068
1343.33	222.213
1347.58	353.133
1351.83	165.961
1356.08	131.867
1360.33	278.529
1364.58	225.912
1368.82	172.791
1373.06	13.375
1377.3	43.4375
1381.54	201.908
1385.77	136.682
1390.01	286.672
1394.24	212.949
1398.46	304.428
1402.69	284.83
1406.91	192.041
1411.14	13.2539
1415.36	175.752
1419.57	105.16
1423.79	133.225
1428	312.119
1432.21	325.205
1436.42	380.477
1440.62	184.734
1444.83	356.56
1449.03	126.713
1453.23	197.56
1457.42	70.4688
1461.62	273.56
1465.81	188.996
1470	534.969
1474.19	95.9785
1478.38	197.512
1482.56	332.705
1486.74	324.691
1490.92	121.68
1495.1	188.756
1499.27	94.5762
1503.45	147.619
1507.62	64.9023
1511.79	181.482
1515.95	398.705
1520.12	282.309
1524.28	221.207
1528.44	84.3965
1532.6	119.019
1536.75	315.797
1540.9	146.504
1545.06	165.426
1549.2	138.264
1553.35	279.383
1557.5	160.643
1561.64	216.269
1565.78	61.1328
1569.92	133.603
