Measurement: Raman, 514 nm, depolarized, Raman Data Processed
Mineral: Ferberite
Rruff sample: R040044
Ideal chemistry: Fe^2+^W^6+^O_4_
Locality: Chocote, Bolivia
Source: University of Arizona Mineral Museum
Description: Black tabular single crystal
Measured chemistry: (Fe_0.82_Mn_0.08_Mg_0.07_Pb_0.03_)_Î£=1_W_1.00_O_4_
Pin_id: M00158
Orientation: Laser parallel to b* (0 1 0). Fiducial mark perpendicular to laser is parallel to c [0 0 1]
Raman shift (cm-1)	intensity
150.327	0
154.48	380.854
158.63	25.148
162.779	353.164
166.926	303.684
171.07	277.299
175.213	183.434
179.354	165.637
183.493	217.771
187.63	270.346
191.765	543.621
195.898	882.889
200.029	1367.71
204.158	1855.45
208.285	2061.47
212.41	1487.09
216.533	929.062
220.654	527.615
224.773	335.057
228.891	335.764
233.006	2.598
237.119	64.09
241.231	30.76
245.34	27.457
249.448	62.779
253.553	81.598
257.657	72.691
261.758	65.812
265.858	290.918
269.956	544.326
274.052	364.713
278.146	393.135
282.237	162.633
286.327	34.105
290.416	8.76
294.502	91.197
298.586	45.535
302.668	46.83
306.749	144.643
310.827	445.098
314.903	709.92
318.978	1112.56
323.051	1759.27
327.121	2348.89
331.19	2777.59
335.257	2825.92
339.322	2403.08
343.385	1867.8
347.446	1564.14
351.505	1336.11
355.563	1154.48
359.618	942.664
363.672	692.25
367.723	667.375
371.773	598.742
375.821	595.869
379.866	614.939
383.91	566.168
387.952	624.48
391.992	919.797
396.031	1397.71
400.067	1645.3
404.101	1867.5
408.134	1454.46
412.165	765.344
416.193	623.672
420.22	341.752
424.245	355.744
428.268	408.486
432.289	638.943
436.309	270.133
440.326	199.26
444.342	142.08
448.355	42.082
452.367	108.287
456.377	119.414
460.385	128.902
464.391	79.918
468.395	106.125
472.398	158.197
476.398	141.932
480.397	186.652
484.394	13.305
488.389	60.947
492.382	98.736
496.373	316.748
500.362	330.064
504.349	377.736
508.335	259.855
512.319	285.414
516.3	429.414
520.28	369.875
524.259	393.713
528.235	410.93
532.209	408.562
536.182	403.039
540.152	465.287
544.121	357.422
548.088	286.049
552.053	429.223
556.017	374.182
559.978	315
563.938	191.678
567.895	319.236
571.851	42.66
575.805	151.037
579.758	118.689
583.708	6.334
587.657	199.604
591.603	13.334
595.548	10.984
599.491	25.816
603.432	11.896
607.372	50.047
611.309	22.83
615.245	1.035
619.179	5.727
623.111	24.287
627.041	27.441
630.97	169.105
634.896	47.734
638.821	279.312
642.744	128.938
646.665	133.865
650.584	199.301
654.502	313.873
658.418	364.645
662.331	387.686
666.244	589.902
670.154	717.395
674.062	973.992
677.969	1327.61
681.874	1719.26
685.777	2155.91
689.678	2642.56
693.577	2723.25
697.475	2650.01
701.371	2099.78
705.265	1784.7
709.157	1356.63
713.047	1071.63
716.936	866.703
720.823	539.748
724.708	250.316
728.591	180.621
732.472	113.035
736.352	155.359
740.23	147.957
744.106	172.178
747.98	98.941
751.853	6.441
755.723	36.377
759.592	104.516
763.459	241.969
767.325	52.613
771.188	34.711
775.05	86.924
778.91	33.684
782.768	50.07
786.625	35.811
790.479	151.398
794.332	53.889
798.183	127.174
802.033	46.609
805.88	75.805
809.726	17.254
813.57	191.969
817.413	61.941
821.253	255.172
825.092	324.666
828.929	494.426
832.764	569.453
836.598	752.748
840.429	1197.33
844.259	1356.19
848.088	1709.2
851.914	2300.98
855.739	3495.94
859.562	4715.3
863.383	6739.01
867.203	9686.02
871.02	13539.4
874.836	17493.1
878.65	19433
882.463	18233.7
886.274	14500.5
890.083	11179.6
893.89	7871.04
897.695	5695.82
901.499	4454.41
905.301	3495.68
909.102	2164.57
912.9	1738.15
916.697	1717.9
920.492	1070.86
924.285	917.227
928.077	952
931.867	679.42
935.655	520.857
939.442	440.51
943.226	279.748
947.009	333.639
950.791	495.51
954.57	465.65
958.348	913.266
962.124	247.18
965.899	314.395
969.671	195.904
973.442	69.707
977.211	106.797
980.979	56.164
984.745	151.809
988.509	54.561
992.271	139.732
996.032	93.281
999.791	245.055
1003.55	127.689
1007.3	288.688
1011.06	204.158
1014.81	138.967
1018.56	191.633
1022.31	200.127
1026.06	319.811
1029.8	662.887
1033.55	452.727
1037.29	381.646
1041.03	510.939
1044.77	533.363
1048.5	311.543
1052.24	459.32
1055.97	382.428
1059.7	486.869
1063.43	407.42
1067.16	750.916
1070.89	545.814
1074.61	325.748
1078.34	461.018
1082.06	412.033
1085.78	291.938
1089.5	296.16
1093.21	292.178
1096.93	294.344
1100.64	237.754
1104.35	143.1
1108.06	186.176
1111.77	190.709
1115.48	260.76
1119.18	164.611
1122.89	342.951
1126.59	257.598
1130.29	86.604
1133.99	122.768
1137.68	1.721
1141.38	72.094
1145.07	176.672
1148.76	119.236
1152.45	127.809
1156.14	42.998
1159.83	0.432
1163.51	64.277
1167.19	184.979
1170.88	93.6
1174.56	138.248
1178.23	117.65
1181.91	140.299
1185.59	95.418
1189.26	155.676
1192.93	105.865
1196.6	79.75
1200.27	88.988
1203.94	254.932
1207.6	159.363
1211.27	501.855
1214.93	139.109
1218.59	194.771
1222.25	112.48
1225.9	195.383
1229.56	236.684
1233.21	186.229
1236.86	307.957
1240.51	234.887
1244.16	189.289
1247.81	243.324
1251.45	388.988
1255.1	211.555
1258.74	243.623
1262.38	220.547
1266.02	453.91
1269.66	208.732
1273.29	335.068
1276.93	320.635
1280.56	263.555
1284.19	314.35
1287.82	295.404
1291.45	196.996
1295.07	303.789
1298.7	206.25
1302.32	5.932
1305.94	76.648
1309.56	60.307
1313.18	86.969
1316.8	26.41
1320.41	23.271
1324.02	36.092
1327.63	63.498
1331.24	30.709
1334.85	149.605
1338.46	25.23
1342.06	68.822
1345.67	20.662
1349.27	90.205
1352.87	53.539
1356.47	390.314
1360.07	197.609
1363.66	99.213
1367.25	376.814
1370.85	414.252
1374.44	458.604
1378.03	456.342
1381.61	500.359
1385.2	501.432
1388.78	341.855
1392.37	353.07
1395.95	493.254
1399.53	489.818
1403.1	285.141
1406.68	376.936
1410.26	590.492
1413.83	575.104
1417.4	401.525
1420.97	280.051
1424.54	329.689
1428.1	348.729
1431.67	423.633
1435.23	112.264
1438.8	247.891
1442.36	261.502
1445.91	448.508
1449.47	67.447
1453.03	174.252
1456.58	311.158
1460.13	250.055
1463.68	139.721
1467.23	94.211
1470.78	180.627
1474.33	314.887
1477.87	257.389
1481.42	141.947
1484.96	147.096
1488.5	144.385
1492.04	160.445
1495.57	236.484
1499.11	3.727
1502.64	162.176
1506.17	15.152
1509.71	123.062
1513.23	60.736
