Measurement: Raman, 514 nm, depolarized, Raman Data Processed
Mineral: Ferberite
Rruff sample: R050632
Ideal chemistry: Fe^2+^W^6+^O_4_
Locality: Chance mine, Boulder, Colorado, USA
Source: University of Arizona Mineral Museum
Description: Dark brown rectangular prismatic crystals
Measured chemistry: Fe^2+^_1.00_WO_4_
Pin_id: M00317
Orientation: Laser parallel to (1 0 1). Fiducial mark perpendicular to laser is parallel to b [0 1 0]
Raman shift (cm-1)	intensity
234.416	0
238.066	49.9004
241.714	116.051
245.361	11.6992
249.007	8.07031
252.651	292.927
256.294	686.452
259.936	741.047
263.576	931.311
267.215	946.572
270.852	1102.54
274.488	993.439
278.123	991.85
281.756	727.513
285.388	326.266
289.019	385.364
292.648	540.347
296.276	653.215
299.902	762.04
303.527	752.83
307.151	1062.46
310.773	1304.48
314.394	1606.48
318.013	2488.61
321.631	3261.01
325.248	3816.65
328.864	3634.72
332.478	3204.02
336.09	2532.89
339.701	1960.85
343.311	1569.06
346.92	1297.93
350.527	957.557
354.132	783.79
357.737	779.021
361.34	615.294
364.941	516.189
368.541	469.868
372.14	404.475
375.737	397.017
379.333	437.382
382.928	251.796
386.521	373.674
390.113	722.424
393.703	1284.86
397.292	2218.17
400.88	2857.91
404.466	1945.01
408.051	1441.42
411.634	727.095
415.216	308.999
418.797	198.1
422.376	108.371
425.954	143.792
429.53	222.344
433.105	159.435
436.679	14.2432
440.251	3.56641
443.822	9.59375
447.391	179.862
450.96	209.065
454.526	134.019
458.091	271.688
461.655	259.038
465.218	305.209
468.779	242.906
472.338	392.974
475.897	489.676
479.454	661.157
483.009	647.154
486.563	685.018
490.116	745.946
493.667	878.591
497.217	996.209
500.765	1049.41
504.312	1302.17
507.858	1320.51
511.402	1389.33
514.945	1658.95
518.486	1575.79
522.026	1521.74
525.565	1743.72
529.102	2263.69
532.638	1759.56
536.172	1865.34
539.705	1724.98
543.236	1757.47
546.766	1615.8
550.295	1546.97
553.822	1370.98
557.348	1224.81
560.873	1086.47
564.396	1060.95
567.917	1074.24
571.438	979.354
574.957	589.278
578.474	477.819
581.99	331.538
585.504	49.9912
589.018	104.378
592.529	106.897
596.04	9.4043
599.549	54.5859
603.056	85.2168
606.562	124.278
610.067	18.0195
613.57	93.6689
617.072	20.9209
620.572	110.916
624.071	41.4932
627.569	56.6797
631.065	21.5361
634.56	22.1299
638.053	26.4229
641.545	30.709
645.035	124.514
648.524	216.01
652.012	107.356
655.498	176.565
658.983	353.643
662.466	402.596
665.948	484.43
669.428	1075.15
672.907	1027.18
676.385	1284.29
679.861	1548.72
683.336	1688.05
686.809	1975.03
690.281	1958.5
693.752	1870.5
697.221	1511.68
700.688	1154.69
704.155	1006.67
707.619	491.606
711.083	404.518
714.545	351.416
718.005	229.301
721.464	38.2246
724.922	73.4023
728.378	39.5996
731.833	27.8672
735.286	31.7051
738.738	9.1582
742.189	132.336
745.638	168.56
749.085	158.748
752.531	302.652
755.976	428.971
759.419	629
762.861	675.059
766.302	804.057
769.741	1068.58
773.178	998.115
776.614	950.965
780.049	925.021
783.482	1053.4
786.914	832.393
790.345	711.012
793.773	1063.92
797.201	710.139
800.627	409.67
804.052	195.525
807.475	241.484
810.897	242.244
814.317	189.121
817.736	305.518
821.153	281.959
824.569	449.934
827.984	676.287
831.397	795.025
834.808	1156.16
838.219	1427.69
841.627	1788.63
845.035	2250.98
848.441	3120.75
851.845	4054.94
855.248	5470.56
858.65	7187.62
862.05	9894.58
865.448	13892.3
868.846	19523.7
872.241	27060.4
875.636	34486.1
879.029	36727.6
882.42	33002.6
885.81	25693.3
889.199	18539.8
892.586	13117.3
895.971	9174.9
899.356	6591.94
902.738	4888.28
906.12	3686.48
909.5	3017.3
912.878	2260.76
916.255	2131.92
919.63	1810.77
923.004	1468.14
926.377	1458.05
929.748	1212.53
933.118	1025.65
936.486	895.324
939.853	931.764
943.218	1067.15
946.582	808.361
949.945	816.037
953.306	792.205
956.665	662.826
960.023	342.887
963.38	340.387
966.735	244.326
970.089	379.693
973.441	223.502
976.792	130.728
980.141	207.371
983.489	159.416
986.836	250.863
990.181	189.707
993.524	86.9434
996.866	235.565
1000.21	111.603
1003.55	92.0352
1006.88	3.11133
1010.22	20.8125
1013.55	91.0352
1016.89	64.2949
1020.22	107.324
1023.55	108.027
1026.88	79.4238
1030.21	20.125
1033.53	192.004
1036.86	201.525
1040.18	211.082
1043.5	234.449
1046.82	259.129
1050.14	384.498
1053.46	398.07
1056.78	390.877
1060.09	468.613
1063.4	495.611
1066.71	510.287
1070.02	415.037
1073.33	445.09
1076.64	560.096
1079.94	601.797
1083.25	492.152
1086.55	607.168
1089.85	400.553
1093.15	518.986
1096.45	449.457
1099.75	384.504
1103.04	325.951
1106.34	265.1
1109.63	196.629
1112.92	445.156
1116.21	760.664
1119.5	1261.15
1122.78	1339.93
1126.07	944.799
1129.35	686.178
1132.63	220.139
1135.92	85.7871
1139.19	220.426
1142.47	59.8281
1145.75	138.387
1149.02	140.943
1152.3	2.83008
1155.57	157.607
1158.84	153.584
1162.11	89.8106
1165.38	129.254
1168.64	31.6367
1171.91	8.8418
1175.17	8.30273
1178.43	85.0898
1181.69	7.5293
1184.95	48.1172
1188.21	129.32
1191.46	105.51
1194.72	22.0469
1197.97	172.109
1201.22	99.9316
1204.47	23.5508
1207.72	100.873
1210.97	92.9258
1214.21	85.4258
1217.46	284.576
1220.7	298.072
1223.94	331.375
1227.18	106.516
1230.42	289.449
1233.65	140.168
1236.89	241.662
1240.12	298.949
1243.35	280.035
1246.59	316.307
1249.81	223.731
1253.04	148.387
1256.27	239.803
1259.49	131.992
1262.72	226.94
1265.94	313.654
1269.16	230.127
1272.38	168.957
1275.59	283.772
1278.81	348.33
1282.03	174.914
1285.24	93.3164
1288.45	124.438
1291.66	225.748
1294.87	419.19
1298.08	254.019
1301.28	457.83
1304.48	312.002
1307.69	213.393
1310.89	145.656
1314.09	259.352
1317.29	165.904
1320.48	309.016
1323.68	214.307
1326.87	243.949
1330.06	376.934
1333.26	415.887
1336.44	374.092
1339.63	305.494
1342.82	347.316
1346	311.818
1349.19	336.406
1352.37	332.498
1355.55	401.543
1358.73	336.609
1361.9	328.574
1365.08	371.543
1368.26	410.977
1371.43	335.219
1374.6	400.705
1377.77	473.459
1380.94	315.445
1384.11	253.867
1387.27	429.754
1390.43	257.877
1393.6	265.41
1396.76	437.914
1399.92	330.199
1403.08	455.768
1406.23	213.535
1409.39	389.748
1412.54	245.57
1415.69	159.484
1418.85	298.992
1421.99	295.17
1425.14	113.506
1428.29	143.793
1431.43	324.647
1434.58	173.166
1437.72	60.3281
1440.86	25.334
1444	169.982
1447.13	38.1797
1450.27	155.242
1453.4	29.8867
1456.54	163.926
1459.67	2.39844
1462.8	119.736
1465.93	88.1894
1469.06	41.7305
1472.18	61.4648
1475.31	78.8164
1478.43	34.3418
1481.55	251.367
1484.67	182.963
1487.79	124.676
1490.9	16.1113
1494.02	80.7012
1497.13	72.1875
1500.24	45.2285
1503.35	39.3535
1506.46	208.508
1509.57	121.383
1512.68	227.303
1515.78	212.353
1518.88	64.8477
1521.99	308.826
1525.09	198.031
1528.18	98.2891
1531.28	330.496
1534.38	245.174
1537.47	234.902
1540.56	192.549
1543.66	164.787
1546.74	198.19
1549.83	122.1
1552.92	210.859
1556.01	189.293
1559.09	197.637
1562.17	98.5293
1565.25	135.131
1568.33	11.8672
1571.41	0
