Measurement: Raman, 514 nm, depolarized, Raman Data Processed
Mineral: Ferberite
Rruff sample: R050090
Ideal chemistry: Fe^2+^W^6+^O_4_
Locality: Yaogangxian mine, Cheng Zhu City, South Hunan, China
Source: Rock Currier
Description: Dark gray tabular crystal
Measured chemistry: (Fe^2+^_0.56_Mn_0.44_)W_1.00_O_4_
Pin_id: L01304
Orientation: Laser parallel to -b* (0 -1 0). Fiducial mark perpendicular to laser is parallel to c [0 0 1]
Raman shift (cm-1)	intensity
98.416	0
103.349	149.324
108.28	3063.84
113.208	2582.74
118.134	3551.52
123.058	1912.01
127.979	4514.52
132.898	3120.01
137.814	1021.19
142.728	344.373
147.639	21.207
152.549	377.088
157.455	93.2617
162.359	28.9355
167.261	383.633
172.161	670.367
177.058	685.791
181.952	347.164
186.845	852.959
191.734	1195.39
196.622	1682.71
201.507	3236.13
206.389	3287.04
211.269	1576.79
216.147	613.488
221.022	182.842
225.895	42.7734
230.765	75.457
235.633	45.3242
240.498	48.2637
245.361	11.8848
250.222	163.647
255.08	321.31
259.936	2067.02
264.789	1045.18
269.64	933.777
274.488	334.123
279.334	274.986
284.178	210.852
289.019	5.22852
293.857	10.7832
298.693	147.223
303.527	315.469
308.358	718.252
313.187	1292.78
318.013	2563.91
322.837	4368.6
327.659	4752.92
332.478	3456.01
337.294	2234.22
342.108	1346.34
346.92	1041.4
351.729	649.549
356.535	651.793
361.34	606.131
366.141	475.238
370.94	324.844
375.737	422.555
380.531	196.959
385.323	156.383
390.113	780.34
394.9	1635.19
399.684	1999.37
404.466	899.219
409.245	539.986
414.022	180.707
418.797	108.42
423.569	237.103
428.338	192.154
433.105	91.7676
437.87	149.637
442.632	66.7949
447.391	368.207
452.149	351.623
456.903	292.1
461.655	279.068
466.405	185.615
471.152	287.451
475.897	407.984
480.639	501.4
485.378	336.803
490.116	348.557
494.85	313.211
499.582	348.1
504.312	630.231
509.039	405.615
513.764	496.365
518.486	595.606
523.206	732.529
527.923	952.07
532.638	910.451
537.35	965.715
542.059	933.408
546.766	1075.37
551.471	819.588
556.173	625.082
560.873	701.854
565.57	615.908
570.264	541.256
574.957	453.949
579.646	298.016
584.333	134.426
589.018	36.0176
593.7	54.5996
598.379	195.772
603.056	180.475
607.73	83.9883
612.402	98.2031
617.072	18.4805
621.739	30.9199
626.403	11.4629
631.065	247.824
635.724	276.096
640.381	133.629
645.035	140.43
649.687	505.6
654.336	364.932
658.983	494.523
663.627	504.371
668.268	914.471
672.907	876.812
677.544	1785.39
682.178	2356.19
686.809	2918.22
691.438	3671.48
696.065	3577.05
700.688	3242.92
705.31	2211.03
709.929	1724.43
714.545	1129.08
719.158	622.947
723.77	557.045
728.378	223.56
732.984	182.871
737.588	38.6328
742.189	53.2441
746.787	112.234
751.383	96.8887
755.976	53.8086
760.567	119.543
765.155	142.768
769.741	90.8438
774.324	121.184
778.904	316.838
783.482	140.791
788.058	322.037
792.631	263.781
797.201	127.248
801.769	125.783
806.334	542.928
810.897	270.672
815.457	438.728
820.014	222.096
824.569	480.043
829.122	506.043
833.671	918.477
838.219	889.104
842.763	1473.15
847.306	1863.93
851.845	2578.49
856.382	4172.36
860.917	6314.55
865.448	9890.68
869.978	16129.2
874.505	26231.3
879.029	35263.5
883.55	33138.9
888.069	21440.8
892.586	11336.6
897.1	6173.33
901.611	3706.45
906.12	2553.99
910.626	1610.85
915.129	1228.03
919.63	617.519
924.129	480.295
928.625	556.564
933.118	375.143
937.609	210.053
942.097	385.326
946.582	373.904
951.065	294.783
955.546	258.994
960.023	62.4883
964.499	47.6816
968.971	187.199
973.441	74.3125
977.909	32.3516
982.374	89.2148
986.836	91.1035
991.295	71.3594
995.753	70.9082
1000.21	208.59
1004.66	209.131
1009.11	140.678
1013.55	133.424
1018	73.793
1022.44	4.0625
1026.88	309.65
1031.32	119.795
1035.75	250.674
1040.18	284.461
1044.61	288.268
1049.04	361.32
1053.46	442.209
1057.88	259.158
1062.3	440.711
1066.71	408.438
1071.13	460.984
1075.54	477.055
1079.94	355.223
1084.35	406.461
1088.75	476.869
1093.15	420.623
1097.55	362.535
1101.94	475.418
1106.34	162.272
1110.73	554.996
1115.11	618.465
1119.5	524.168
1123.88	375.99
1128.26	554.311
1132.63	327.244
1137.01	332.359
1141.38	286.367
1145.75	410.514
1150.12	344.307
1154.48	17.7637
1158.84	355.879
1163.2	122.674
1167.55	74.3867
1171.91	243.006
1176.26	137.654
1180.61	161.443
1184.95	23.2852
1189.29	124.648
1193.63	174.065
1197.97	91.0527
1202.31	40.3711
1206.64	99.5918
1210.97	153.793
1215.29	148.959
1219.62	114.109
1223.94	18.2969
1228.26	141.248
1232.57	166.33
1236.89	145.375
1241.2	257.412
1245.51	183.287
1249.81	88.7481
1254.12	282.715
1258.42	84.1953
1262.72	522.051
1267.01	58.2793
1271.3	203.941
1275.59	101.6
1279.88	39.127
1284.17	12.7168
1288.45	180.768
1292.73	131.797
1297.01	229.467
1301.28	278.266
1305.55	215.818
1309.82	182.635
1314.09	134.582
1318.35	195.062
1322.61	388.682
1326.87	200.148
1331.13	374.857
1335.38	141.211
1339.63	261.506
1343.88	146.852
1348.12	200.176
1352.37	215.506
1356.61	83.6445
1360.85	208.504
1365.08	98.6113
1369.31	239.066
1373.54	244.398
1377.77	154.113
1381.99	197.65
1386.22	87.8438
1390.43	106.531
1394.65	222.815
1398.87	83.8672
1403.08	110.078
1407.29	233.33
1411.49	151.938
1415.69	98.6719
1419.89	144.356
1424.09	173.465
1428.29	98.5059
1432.48	289.777
1436.67	262.695
1440.86	47.207
1445.04	156.397
1449.23	132.068
1453.4	214.25
1457.58	139.045
1461.76	77.7559
1465.93	51.2344
1470.1	38.8906
1474.26	155.652
1478.43	218.549
1482.59	144.252
1486.75	249.902
1490.9	459.676
1495.06	99.9434
1499.21	32.1172
1503.35	442.766
1507.5	146.488
1511.64	216.732
1515.78	242.106
1519.92	235.184
1524.05	157.106
1528.18	246.353
1532.31	219.283
1536.44	89.2031
1540.56	13.834
1544.69	16.4766
1548.8	138.084
1552.92	159.682
1557.03	176.81
1561.14	53.1035
1565.25	143.877
1569.36	177.664
