Measurement: Raman, 514 nm, depolarized, Raman Data Processed
Mineral: Ferberite
Rruff sample: R050632
Ideal chemistry: Fe^2+^W^6+^O_4_
Locality: Chance mine, Boulder, Colorado, USA
Source: University of Arizona Mineral Museum
Description: Dark brown rectangular prismatic crystals
Measured chemistry: Fe^2+^_1.00_WO_4_
Pin_id: M00360
Orientation: Laser parallel to -a* (-1 0 0). Fiducial mark perpendicular to laser is parallel to b [0 1 0]
Raman shift (cm-1)	intensity
157.455	0
162.359	130.094
167.261	562.471
172.161	1259.84
177.058	1794.08
181.952	1170.7
186.845	1510.9
191.734	1807.31
196.622	3082.45
201.507	6107.1
206.389	6557.98
211.269	4437.3
216.147	1940.36
221.022	734.598
225.895	315.949
230.765	93.8047
235.633	67.5039
240.498	34.748
245.361	292.375
250.222	28.1934
255.08	193.018
259.936	732.035
264.789	1364.53
269.64	1395.49
274.488	865.07
279.334	389.465
284.178	143.762
289.019	141.371
293.857	452.75
298.693	766.109
303.527	700.1
308.358	1648.07
313.187	1803.04
318.013	3510.77
322.837	5910.87
327.659	6543.81
332.478	5039.9
337.294	3322.41
342.108	2394.4
346.92	1943.66
351.729	1575.66
356.535	1048.93
361.34	706.719
366.141	643.932
370.94	674.344
375.737	592.08
380.531	357.478
385.323	545.481
390.113	668.729
394.9	1417.86
399.684	1990.82
404.466	1868.76
409.245	395.992
414.022	321.519
418.797	24.1992
423.569	258.543
428.338	39.0156
433.105	158.234
437.87	34.416
442.632	156.912
447.391	101.938
452.149	203.935
456.903	197.066
461.655	433.088
466.405	170.426
471.152	270.781
475.897	425.85
480.639	456.932
485.378	436.859
490.116	784.883
494.85	972.199
499.582	2461.8
504.312	1692.1
509.039	1704
513.764	1919.09
518.486	1744.44
523.206	2214.27
527.923	1978.58
532.638	2037.59
537.35	1629.28
542.059	1857.29
546.766	1534.44
551.471	1198.73
556.173	1009.16
560.873	1024.5
565.57	872.195
570.264	861.025
574.957	564.996
579.646	463.09
584.333	18.2988
589.018	45.1855
593.7	106.527
598.379	55.1445
603.056	131.34
607.73	47.9805
612.402	88.7324
617.072	38.6797
621.739	77.9824
626.403	90.2695
631.065	66.5
635.724	94.791
640.381	18.082
645.035	305.352
649.687	464.713
654.336	501.164
658.983	798.715
663.627	936.354
668.268	1225.08
672.907	2018.95
677.544	2770.88
682.178	3332.93
686.809	3916.07
691.438	3251.28
696.065	2609.66
700.688	1656.21
705.31	1096.02
709.929	906.061
714.545	634.586
719.158	512.422
723.77	596.736
728.378	242.9
732.984	44.6719
737.588	80.6816
742.189	381.32
746.787	53.1152
751.383	703.777
755.976	754.322
760.567	198.701
765.155	517.539
769.741	368.639
774.324	408.859
778.904	224.637
783.482	140.309
788.058	23.2207
792.631	183.375
797.201	9.77539
801.769	72.6094
806.334	56.0723
810.897	75.2461
815.457	311.69
820.014	105.939
824.569	512.979
829.122	542.189
833.671	1102.64
838.219	1360.51
842.763	1969.54
847.306	2958.57
851.845	4519.2
856.382	6828.1
860.917	10724.3
865.448	18233.8
869.978	30230.9
874.505	38949.7
879.029	31889.9
883.55	19039.5
888.069	10628.2
892.586	6437.8
897.1	3865.84
901.611	2248.26
906.12	1475.09
910.626	1022.39
915.129	851.25
919.63	487.535
924.129	484.144
928.625	308.67
933.118	270.234
937.609	188.223
942.097	86.6289
946.582	87.0527
951.065	81.1934
955.546	0.242188
960.023	4.02148
964.499	86.6484
968.971	188.34
973.441	46.1133
977.909	62.0781
982.374	265.783
986.836	45.0527
991.295	307.644
995.753	243.543
1000.21	507.742
1004.66	229.262
1009.11	131.213
1013.55	299.711
1018	185.68
1022.44	218.022
1026.88	387.639
1031.32	465.519
1035.75	379.67
1040.18	533.096
1044.61	501.369
1049.04	638.625
1053.46	557.731
1057.88	660.545
1062.3	673.922
1066.71	441.611
1071.13	670.666
1075.54	630.955
1079.94	481.168
1084.35	441.008
1088.75	407.6
1093.15	614.307
1097.55	524.256
1101.94	471.356
1106.34	290.469
1110.73	296.107
1115.11	924.311
1119.5	1327.95
1123.88	1560.74
1128.26	946.666
1132.63	271.723
1137.01	136.955
1141.38	347.652
1145.75	209.912
1150.12	202.457
1154.48	125.045
1158.84	144.935
1163.2	35.6621
1167.55	146.147
1171.91	167
1176.26	77.5957
1180.61	89.4961
1184.95	35.8125
1189.29	30.8711
1193.63	188.326
1197.97	176.383
1202.31	6.53516
1206.64	226.672
1210.97	284.9
1215.29	47.2305
1219.62	186.834
1223.94	110.402
1228.26	136.981
1232.57	103.728
1236.89	339.697
1241.2	223.773
1245.51	37.8457
1249.81	232.789
1254.12	190.717
1258.42	120.615
1262.72	41.4785
1267.01	98.334
1271.3	182.15
1275.59	1.56641
1279.88	97.5957
1284.17	138.531
1288.45	302.367
1292.73	28.207
1297.01	370.461
1301.28	49.6133
1305.55	13.1426
1309.82	114.316
1314.09	162.315
1318.35	360.365
1322.61	389.344
1326.87	157.307
1331.13	119.397
1335.38	146.053
1339.63	359.525
1343.88	175.264
1348.12	222.588
1352.37	223.168
1356.61	235.381
1360.85	468.555
1365.08	299.264
1369.31	301.5
1373.54	420.703
1377.77	160.359
1381.99	636.799
1386.22	429.871
1390.43	354.523
1394.65	463.359
1398.87	252.973
1403.08	405.836
1407.29	256.045
1411.49	195.109
1415.69	389.172
1419.89	101.562
1424.09	430.445
1428.29	408.869
1432.48	222.502
1436.67	131.281
1440.86	143.893
1445.04	54.4004
1449.23	128.728
1453.4	101.715
1457.58	33.4766
1461.76	78.5
1465.93	222.299
1470.1	150.621
1474.26	107.812
1478.43	350.816
1482.59	229.572
1486.75	359.025
1490.9	184.113
1495.06	494.894
1499.21	208.637
1503.35	304.648
1507.5	184.562
1511.64	225.516
1515.78	345.201
1519.92	353.272
1524.05	312.402
1528.18	285.935
1532.31	355.99
1536.44	174.736
1540.56	224.176
1544.69	248.482
1548.8	387.133
1552.92	720.16
1557.03	473.91
1561.14	12.7695
1565.25	224.705
1569.36	71.5078
