Measurement: Raman, 514 nm, depolarized, Raman Data Processed
Mineral: Fluorite
Rruff sample: R050046
Ideal chemistry: CaF_2_
Locality: Shangbao, Lei Yang, Hunan Province, China
Source: Eugene Schlepp
Description: Pale purple crystal
Measured chemistry: Ca_1.000_ F_2.000_
Pin_id: L01404
Orientation: Laser parallel to c* (0 0 1). Fiducial mark perpendicular to laser is parallel to b [0 1 0]
Raman shift (cm-1)	intensity
176.693	0
181.598	24.7461
186.5	114.822
191.399	170.642
196.296	272.683
201.19	451.411
206.082	215.032
210.971	206.894
215.858	364.244
220.742	220.289
225.624	360.468
230.503	111.534
235.38	97.1992
240.254	276.618
245.125	195.602
249.994	230.31
254.861	206.016
259.725	316.493
264.586	281.414
269.445	282.732
274.302	58.6973
279.155	52.5635
284.007	236.675
288.855	261.129
293.702	674.675
298.545	1093.83
303.386	1917.57
308.225	4201.75
313.061	10645.4
317.894	19706.5
322.725	21353
327.554	10271.3
332.38	4658.16
337.203	2632.44
342.024	1795.13
346.842	1285.62
351.658	1304.79
356.471	1067.56
361.281	1015.86
366.09	1062.65
370.895	700.894
375.698	819.709
380.498	599.43
385.296	507.832
390.092	468.783
394.884	571.059
399.675	308.312
404.462	134.695
409.248	288.463
414.03	306.492
418.81	236.016
423.588	53.5273
428.363	242.17
433.135	311.928
437.905	503.49
442.672	402.152
447.437	447.611
452.199	269.592
456.959	422.299
461.716	400.305
466.47	413.502
471.222	326.699
475.972	378.639
480.719	548.533
485.463	793.676
490.205	1064.94
494.944	657.32
499.681	523.889
504.415	388.072
509.146	152.457
513.875	228.527
518.602	72.916
523.326	177.346
528.047	57.2383
532.766	222.746
537.482	37.2207
542.196	157.111
546.907	33.4453
551.616	190.537
556.322	60.2285
561.025	113.564
565.726	1.51367
570.424	212.041
575.12	124.228
579.813	93.0566
584.504	61.6797
589.192	264.031
593.877	66.7891
598.56	35.1426
603.241	56.5234
607.919	161.916
612.594	228.002
617.267	626.606
621.937	280.039
626.604	298.473
631.269	434.453
635.932	360.416
640.592	187.682
645.249	332.428
649.904	42.6484
654.556	408.26
659.206	127.066
663.853	354.662
668.497	364.162
673.139	428.242
677.779	381.353
682.416	903.525
687.05	1024.67
691.682	1075.9
696.311	994.938
700.937	968.467
705.561	1397.07
710.183	1377.09
714.802	1324.95
719.418	666.014
724.032	608.475
728.643	414.482
733.251	381.865
737.857	271.381
742.461	161.672
747.062	218.272
751.66	91.0019
756.256	185.756
760.849	58.7363
765.44	80.2031
770.028	62.3926
774.613	277.283
779.196	487.158
783.777	400.981
788.354	468.701
792.93	533.291
797.502	410.834
802.072	448.502
806.64	731.424
811.205	548.984
815.767	872.203
820.327	635.17
824.884	712.775
829.439	1259.03
833.991	1442.89
838.541	934.394
843.087	479.592
847.632	495.467
852.174	246.969
856.713	17.2754
861.25	231.002
865.784	468.318
870.315	356.494
874.844	1456.44
879.371	2536.03
883.894	2047.05
888.416	623.25
892.934	161.066
897.45	129.074
901.964	298.441
906.475	1322.72
910.983	3699.64
915.489	3031.81
919.992	4536.06
924.493	7082.39
928.991	7543.88
933.486	4555.64
937.979	4238.74
942.47	3848.22
946.957	6913.03
951.443	3688.17
955.925	1047.64
960.405	591.432
964.883	928.586
969.358	542.127
973.83	427.094
978.3	273.514
982.767	60.4199
987.232	84.7559
991.694	32.2246
996.153	162.435
1000.61	155.4
1005.06	219.111
1009.52	511.934
1013.97	937.519
1018.41	1109.87
1022.86	2093.03
1027.3	3550.5
1031.74	3409.78
1036.17	1990.66
1040.61	1683.95
1045.04	1664.88
1049.47	1732.12
1053.89	1588.61
1058.32	1373.38
1062.74	1313.44
1067.15	1212.44
1071.57	1531.38
1075.98	2016.22
1080.39	1502.44
1084.8	607.66
1089.21	276.809
1093.61	360.336
1098.01	213.266
1102.41	232.606
1106.8	433.367
1111.19	935.559
1115.59	1962.63
1119.97	4547.3
1124.36	6183.02
1128.74	5233.29
1133.12	3692.18
1137.5	2922.8
1141.87	2657.79
1146.24	2725.26
1150.61	2656.35
1154.98	2510.86
1159.34	2174.55
1163.7	2449.98
1168.06	1878.67
1172.42	1532.22
1176.77	1063.35
1181.12	829.531
1185.47	411.973
1189.82	272.578
1194.16	175.008
1198.5	29.4805
1202.84	76.9844
1207.18	133.625
1211.51	145.582
1215.84	118.773
1220.17	515.973
1224.5	586.184
1228.82	600.367
1233.14	501.5
1237.46	517.535
1241.77	743.352
1246.09	762.836
1250.39	1077.97
1254.7	1316.68
1259.01	1488.96
1263.31	1615.48
1267.61	1673.87
1271.91	1741.25
1276.2	1828.46
1280.49	1975.48
1284.78	2065.25
1289.07	2543.98
1293.35	3090.46
1297.64	3212.18
1301.91	2775.86
1306.19	2783.63
1310.46	2697.51
1314.74	2888.82
1319.01	2548.37
1323.27	2437.73
1327.54	2194.09
1331.8	1443.27
1336.06	1430.22
1340.31	1094.83
1344.57	823.07
1348.82	1048.5
1353.06	1440.62
1357.31	2569.42
1361.55	3793.68
1365.79	2081.05
1370.03	1283.97
1374.27	1007.2
1378.5	1342.15
1382.73	1718.99
1386.96	2705.26
1391.18	2349.75
1395.4	2434.17
1399.62	1683.19
1403.84	349.391
1408.06	118.633
1412.27	81.1289
1416.48	341.969
1420.69	5.08984
1424.89	219.707
1429.09	377.809
1433.29	29.0781
1437.49	566.012
1441.68	750.746
1445.87	1801.52
1450.06	1842.11
1454.25	1924.69
1458.43	2544.82
1462.62	2739.18
1466.79	2510.6
1470.97	2628.29
1475.14	2501.44
1479.31	2450.7
1483.48	2516.55
1487.65	2323.92
1491.81	1982.74
1495.97	1697.3
1500.13	1804.98
1504.29	1714.16
1508.44	2334.12
1512.59	2059.61
1516.74	2004.07
1520.88	1544.84
1525.03	890.93
1529.17	756.699
1533.3	537.555
1537.44	278.848
1541.57	267.328
1545.7	304.043
1549.83	308.512
1553.95	142.191
1558.08	13.2266
1562.19	91.8359
