Measurement: Raman, 514 nm, depolarized, Raman Data Processed
Mineral: Fluorophlogopite
Rruff sample: R040042
Ideal chemistry: KMg_3_(Si_3_Al)O_10_F_2_
Locality: Franklin, Sussex County, New Jersey, USA
Source: University of Arizona Mineral Museum
Description: Brown flattened hexagonal prism, polytype 1M
Measured chemistry: (K_0.92_Na_0.08_)_Σ=1_(Mg_2.95_Fe_0.05_)_Σ=3_(Si_3.00_Al_1.00_)O_10_(F_1.40_(OH)_0.60_)_Σ=2_; trace amounts of Ti; OH estimated by charge balance
Pin_id: L00310
Orientation: Laser parallel to c* (0 0 1). Fiducial mark perpendicular to laser is parallel to -a [-1 0 0]
Raman shift (cm-1)	intensity
144.784	0
149.695	72.7656
154.603	233.102
159.509	14.4551
164.413	234.428
169.313	619.844
174.212	1233.11
179.108	1739.43
184.001	2951.67
188.892	7708.75
193.781	17376.4
198.667	28847.6
203.55	20793.1
208.431	8439.79
213.31	3438.59
218.186	1829.34
223.06	972.422
227.931	544.164
232.8	185.715
237.666	84.9609
242.53	126.625
247.391	18.6172
252.25	162.367
257.106	192.039
261.96	689.414
266.811	2125.05
271.66	4640.27
276.506	9850.32
281.35	14262.6
286.191	8755.99
291.03	4154.19
295.866	2872.2
300.7	2713.51
305.531	4460.48
310.36	7073.76
315.187	11038.6
320.011	12801
324.832	13198
329.651	10418.8
334.467	6815.5
339.281	4218.35
344.092	2737.57
348.901	1866.53
353.708	1594.55
358.511	1648.69
363.313	1770.94
368.112	1976.23
372.908	2290.58
377.702	1823.94
382.493	1566.94
387.282	998.871
392.068	1108.44
396.852	656.512
401.633	727.621
406.412	648.856
411.188	426.234
415.962	392.531
420.733	136.59
425.502	217.344
430.268	346.344
435.032	342.75
439.793	589.656
444.552	844.973
449.308	1196.88
454.061	1545.12
458.813	1484
463.561	752.262
468.307	647.93
473.051	144.242
477.792	2.37891
482.53	156.305
487.266	46.4453
492	191.5
496.73	873.106
501.459	1152.23
506.185	1301.95
510.908	1771.34
515.629	1346.39
520.347	1116.4
525.063	583.09
529.776	442.449
534.487	345.629
539.195	448.707
543.9	338.769
548.604	139.496
553.304	674.691
558.002	335.5
562.698	525.856
567.39	324.25
572.081	248.082
576.769	284.891
581.454	80.2344
586.137	175.719
590.817	62.9805
595.495	132.062
600.17	127.898
604.843	134.812
609.513	395.473
614.18	604.352
618.845	921.988
623.508	1677.95
628.168	2450.62
632.825	3719.34
637.48	5142.52
642.132	5701.95
646.782	5994.06
651.429	5979.79
656.074	6744.25
660.716	7681.44
665.355	9766.24
669.992	13757.6
674.627	19861.4
679.259	29978
683.888	38805
688.515	36600.1
693.139	27095.7
697.761	16957.8
702.38	10138.4
706.996	6285.02
711.61	3937.32
716.222	2970.67
720.831	2528.98
725.437	2199.33
730.041	1770.98
734.642	1556.18
739.241	1451.98
743.837	1452.36
748.431	1354.15
753.022	1055.71
757.61	1150.95
762.196	1161.05
766.779	1229.63
771.36	791.539
775.938	1125.8
780.514	1283.74
785.087	1320.66
789.657	1267.8
794.225	1474.33
798.791	787.141
803.353	1119.93
807.914	865.57
812.471	976.231
817.027	857.562
821.579	518.894
826.129	291.371
830.676	382.918
835.221	10.4531
839.764	19.5273
844.303	390.469
848.84	483.106
853.375	26.5391
857.907	73.0508
862.436	25.0391
866.963	293.746
871.488	103.051
876.009	37.6602
880.528	237.016
885.045	420.629
889.559	74.6328
894.07	661.07
898.579	381.203
903.085	313.617
907.589	275.43
912.09	512.406
916.589	289.516
921.085	254.906
925.578	353.695
930.069	426.637
934.557	347.918
939.043	822.691
943.526	259.734
948.006	193.035
952.484	76.4531
956.959	249.051
961.432	281.762
965.902	89.1758
970.37	242.07
974.835	435.648
979.297	355.758
983.757	931.266
988.214	572.211
992.669	738.812
997.121	929.637
1001.57	954.551
1006.02	1187.73
1010.46	760.652
1014.9	875.051
1019.34	1422.9
1023.78	1503.97
1028.21	1713.17
1032.64	2271.89
1037.07	2689.62
1041.5	2553.84
1045.92	1645.84
1050.34	1330.15
1054.76	964.68
1059.18	1437.52
1063.59	962.57
1068	1208.19
1072.41	1754.64
1076.82	1995.31
1081.22	2811.93
1085.62	4039.99
1090.02	5054.96
1094.41	4484.88
1098.81	4952.97
1103.19	4754.73
1107.58	4095.4
1111.97	3802.89
1116.35	2702.43
1120.73	1421.06
1125.11	1058.65
1129.48	649.453
1133.85	419.297
1138.22	621.945
1142.59	42.8906
1146.95	139.289
1151.31	299.766
1155.67	61.7266
1160.03	90.7734
1164.38	447.883
1168.73	181.984
1173.08	542.359
1177.43	342.289
1181.77	295.664
1186.11	115.57
1190.45	379.32
1194.78	240.492
1199.12	448.898
1203.45	295.578
1207.77	172.969
1212.1	33.6406
1216.42	623.43
1220.74	195.828
1225.06	387.141
1229.37	21.2969
1233.68	273.398
1237.99	241.25
1242.3	563.789
1246.61	336.055
1250.91	857.164
1255.21	157.234
1259.5	592.273
1263.8	596.453
1268.09	543.359
1272.38	658.133
1276.66	400.852
1280.95	322.125
1285.23	339.992
1289.51	418.047
1293.78	928.094
1298.05	971.273
1302.32	1133.66
1306.59	585.617
1310.86	1070.69
1315.12	421.641
1319.38	614.078
1323.64	613.398
1327.89	484.797
1332.14	791.047
1336.39	782.945
1340.64	251.422
1344.88	549.773
1349.12	803.273
1353.36	866.906
1357.6	463.617
1361.83	446.57
1366.07	563.883
1370.29	336.273
1374.52	1035.9
1378.74	395.797
1382.96	95.5391
1387.18	615.711
1391.4	160.852
1395.61	293.648
1399.82	881.422
1404.03	900.523
1408.23	420.32
1412.44	555.242
1416.64	491.547
1420.83	900.188
1425.03	587.625
1429.22	761.32
1433.41	326.711
1437.6	660.641
1441.78	335.25
1445.96	676.703
1450.14	47.1562
1454.32	22.0469
1458.49	131.297
1462.66	751.625
1466.83	118.734
1471	47.4531
1475.16	228.734
1479.32	687.508
1483.48	542.516
1487.64	504.75
1491.79	436.344
1495.94	152.406
1500.09	493.023
1504.23	632.312
1508.37	570.391
1512.51	983.266
1516.65	270.102
1520.79	656.18
1524.92	796.281
1529.05	296.789
1533.17	594.164
1537.3	829.188
1541.42	936.891
1545.54	299.016
1549.65	227.555
1553.77	960.305
1557.88	466.891
1561.99	498.016
1566.09	25.2188
1570.2	476.773
1574.3	263.023
1578.39	0
