Measurement: Raman, 514 nm, depolarized, Raman Data Processed
Mineral: Fluorapatite
Rruff sample: R050122
Ideal chemistry: Ca_5_(PO_4_)_3_F
Locality: Cruziero mine, San Jose, Minas Gerais, Brazil
Source: Carlos and Paulo Vasconcelos
Description: Green fragment
Measured chemistry: (Ca_4.99_Mn_0.01_)_Î£=5_(P_1.00_O_4_)_3_F_1.00_; trace amounts of Fe
Pin_id: L00501
Orientation: Laser parallel to c* (0 0 1). Fiducial mark perpendicular to laser is parallel to a [1 0 0]
Raman shift (cm-1)	intensity
149.635	0
153.788	120.359
157.939	296.942
162.088	183.633
166.235	40.504
170.38	156.292
174.523	179.655
178.664	105.017
182.803	28.581
186.94	107.187
191.076	92.713
195.209	32.94
199.34	140.71
203.47	172.836
207.597	109.51
211.722	166.058
215.846	242.517
219.967	228.915
224.087	4.108
228.204	154.045
232.32	276.129
236.434	293.854
240.545	163.724
244.655	210.547
248.763	156.814
252.869	262.099
256.973	163.563
261.075	232.65
265.175	312.757
269.273	369.627
273.369	165.182
277.463	197.646
281.556	224.086
285.646	4.202
289.734	132.267
293.821	196.208
297.905	244.646
301.988	79.079
306.069	108.978
310.147	242.085
314.224	123.502
318.299	129.305
322.372	104.535
326.443	150.555
330.512	87.256
334.579	51.593
338.645	75.131
342.708	128.765
346.769	120.906
350.829	71.536
354.887	182.756
358.942	191.529
362.996	95.986
367.048	75.127
371.098	25.614
375.146	173.408
379.192	171.737
383.236	13.674
387.279	288.827
391.319	127.23
395.358	224.139
399.394	109.504
403.429	156.456
407.462	201.119
411.493	123.569
415.522	84.054
419.549	136.34
423.575	335.709
427.598	294.507
431.619	253.117
435.639	362.146
439.657	760.517
443.673	967.695
447.687	960.1
451.699	694.476
455.709	657.459
459.717	460.586
463.724	284.398
467.728	212.468
471.731	236.496
475.732	255.198
479.731	292.053
483.728	146.276
487.723	73.549
491.716	372.237
495.708	262.188
499.697	70.755
503.685	188.729
507.671	304.597
511.655	280.362
515.637	152.407
519.617	32.811
523.596	149.891
527.572	442.492
531.547	352.842
535.52	304.095
539.491	125.749
543.46	576.335
547.427	585.705
551.393	57.768
555.356	175.953
559.318	115.08
563.278	321.887
567.236	408.055
571.192	232.326
575.147	362.09
579.099	816.189
583.05	1460.61
586.999	482.943
590.946	195.289
594.891	479.52
598.834	511.016
602.776	611.979
606.715	986.402
610.653	667.203
614.589	506.725
618.523	775.383
622.456	643.422
626.386	105.791
630.315	20.596
634.242	313.496
638.167	650.164
642.09	440.559
646.012	206.277
649.931	214.398
653.849	463.234
657.765	581.248
661.679	558.277
665.592	193.109
669.502	57.865
673.411	801.975
677.318	481.412
681.223	505.553
685.126	120.93
689.028	352.809
692.927	271.904
696.825	483.381
700.721	320.141
704.616	51.25
708.508	146.441
712.399	244.629
716.288	200.756
720.175	529.922
724.06	117.285
727.944	3.605
731.825	210.061
735.705	246.541
739.584	402.596
743.46	148.023
747.334	81.553
751.207	634.887
755.078	526.736
758.947	531.953
762.815	133.041
766.68	135.508
770.544	329.107
774.406	409.32
778.267	487.436
782.125	458.408
785.982	213.178
789.837	4.914
793.69	286.514
797.542	500.672
801.391	493.82
805.239	241.949
809.085	49.166
812.93	511.613
816.772	753.092
820.613	614.672
824.452	405.502
828.29	121.84
832.125	21.496
835.959	132.463
839.791	800.924
843.621	481.211
847.45	33.537
851.277	192.238
855.102	193.689
858.925	810.955
862.746	525.773
866.566	440.006
870.384	466.715
874.2	43.76
878.015	161.184
881.828	511.199
885.639	746.287
889.448	370.643
893.256	144.922
897.061	68.547
900.865	412.646
904.668	686.721
908.468	921.238
912.267	415.613
916.064	14.287
919.86	87.27
923.653	711.273
927.445	834.66
931.236	666.682
935.024	572.629
938.811	374.648
942.596	215.285
946.379	857.105
950.161	1161.61
953.94	1879.25
957.719	2571.31
961.495	8884.17
965.27	24377.1
969.043	7877.34
972.814	2412.78
976.583	1495.75
980.351	1018.52
984.117	813.438
987.882	207.664
991.644	170.211
995.405	232.914
999.165	441.074
1002.92	869.965
1006.68	385.07
1010.43	165.789
1014.18	151.309
1017.93	553.234
1021.68	987.988
1025.43	1308.09
1029.18	1172.61
1032.92	1536.91
1036.66	261.367
1040.4	605.535
1044.14	709.258
1047.88	1374.71
1051.62	1620.06
1055.35	1136.43
1059.08	1261.51
1062.81	612.703
1066.54	136.801
1070.27	1040.86
1073.99	964.277
1077.72	1438.79
1081.44	1254.19
1085.16	659.961
1088.88	125.262
1092.59	851.328
1096.31	659.625
1100.02	965.75
1103.73	1292.02
1107.44	1237.7
1111.15	452.863
1114.86	161.203
1118.57	343.816
1122.27	630.676
1125.97	817.844
1129.67	1433.83
1133.37	1171.42
1137.07	786.082
1140.76	213.184
1144.45	99.469
1148.15	137.211
1151.84	1079.75
1155.53	1622.4
1159.21	1255.8
1162.9	1321.77
1166.58	576.16
1170.26	510.691
1173.94	14.496
1177.62	674.398
1181.3	1228.71
1184.97	1551.82
1188.65	1436.25
1192.32	1244.19
1195.99	467.031
1199.66	229.418
1203.33	449.91
1206.99	691.211
1210.65	1102.89
1214.32	1504.02
1217.98	1725.06
1221.64	1519.08
1225.29	520.816
1228.95	454.203
1232.6	694.195
1236.26	542.973
1239.91	1390.74
1243.56	1568.31
1247.2	2085.5
1250.85	1509.6
1254.49	1024.89
1258.13	489.34
1261.78	636.762
1265.41	368.711
1269.05	671.469
1272.69	1484.63
1276.32	2073.31
1279.95	2109.9
1283.59	1235.91
1287.21	558.922
1290.84	209.441
1294.47	422
1298.09	376.82
1301.72	393.605
1305.34	766.016
1308.96	706.523
1312.58	943.988
1316.19	1230.39
1319.81	605.637
1323.42	301.785
1327.03	240.25
1330.64	151.84
1334.25	118.344
1337.86	1141.11
1341.46	1642.95
1345.07	2006.1
1348.67	1557.91
1352.27	1389.57
1355.87	490.016
1359.46	389.457
1363.06	93.336
1366.65	761.895
1370.25	639.207
1373.84	1214.64
1377.43	1875.16
1381.02	2144.84
1384.6	2103
1388.18	1755.52
1391.77	921.875
1395.35	426.656
1398.93	343.453
1402.51	272.035
1406.08	1255.86
1409.66	1050.88
1413.23	1889.33
1416.8	2275.39
1420.37	2379.89
1423.94	1646.71
1427.51	1573.65
1431.08	870.82
1434.64	377.82
1438.2	131.879
1441.76	793.707
1445.32	955.168
1448.88	1563.02
1452.43	1741.47
1455.99	2421.64
1459.54	2489.47
1463.09	2533.98
1466.64	1616.15
1470.19	764.008
1473.74	0.031
