Measurement: Raman, 514 nm, depolarized, Raman Data Processed
Mineral: Fluorapatite
Rruff sample: R040098
Ideal chemistry: Ca_5_(PO_4_)_3_F
Locality: Cerro de Mercado mine, Durango, Mexico
Source: Marcus Origlieri
Description: Pale yellow short hexagonal prism
Measured chemistry: Ca_5.00_((P_0.98_Si_0.01_S_0.01_)O_4_)_3_F_1.00_
Pin_id: L00293
Orientation: Laser parallel to c* (0 0 1). Fiducial mark perpendicular to laser is parallel to -a [-1 0 0]
Raman shift (cm-1)	intensity
59.652	0
64.623	83.6612
69.591	79.3894
74.557	334.071
79.52	277.32
84.48	49.3412
89.438	11.8771
94.393	0.111572
99.345	105.521
104.294	42.6379
109.241	27.5049
114.185	443.232
119.126	287.815
124.064	67.7153
129	115.105
133.933	434.25
138.864	1022.43
143.791	576.96
148.716	251.828
153.638	407.868
158.558	653.085
163.475	386.267
168.389	341.327
173.3	248.183
178.209	79.8281
183.115	15.7688
188.018	27.5237
192.918	3.57446
197.816	3.37353
202.711	11.7074
207.604	92.1548
212.494	109.841
217.381	82.6475
222.265	84.5389
227.147	130.184
232.026	315.007
236.902	338.01
241.775	213.708
246.646	203.588
251.514	161.96
256.38	273.183
261.243	531.096
266.103	936.554
270.96	748.998
275.815	378.839
280.667	250.447
285.516	208.904
290.363	157.198
295.207	257.32
300.048	274.26
304.887	495.011
309.723	539.569
314.556	404.929
319.387	253.092
324.215	212.056
329.04	91.7022
333.862	98.5654
338.682	75.2029
343.5	87.3762
348.314	76.6196
353.126	30.4285
357.935	11.2368
362.742	15.406
367.546	28.0762
372.347	5.39136
377.145	6.27588
381.941	85.4334
386.735	2.27319
391.525	13.8474
396.313	50.5244
401.098	71.2786
405.881	31.4854
410.661	133.838
415.438	125.13
420.213	219.876
424.985	232.117
429.754	389.861
434.521	663.337
439.285	1069.56
444.046	1611.53
448.805	1495.28
453.561	1172.75
458.315	754.977
463.065	460.939
467.813	262.63
472.559	154.959
477.302	127.836
482.042	79.1033
486.78	167.88
491.515	132.533
496.247	20.2075
500.977	52.9329
505.704	79.1003
510.428	30.2441
515.15	65.8545
519.869	1.59692
524.586	33.9351
529.3	19.75
534.011	49.6531
538.719	38.228
543.425	20.749
548.129	15.9736
552.83	38.3149
557.528	175.681
562.223	137.455
566.916	211.31
571.607	457.938
576.294	1343.68
580.979	2658.98
585.662	992.558
590.341	646.581
595.019	484.241
599.693	527.734
604.365	1338.88
609.035	1520.96
613.701	826.785
618.366	575.75
623.027	308.344
627.686	213.382
632.342	154.516
636.996	198.935
641.647	94.2178
646.296	239.156
650.942	238.83
655.585	367.546
660.226	336.887
664.864	264.614
669.499	174.222
674.132	115.536
678.763	123.369
683.39	80.7129
688.015	53.873
692.638	0.698242
697.258	19.7622
701.875	19.9766
706.49	89.2998
711.102	91.2974
715.712	43.8105
720.319	34.5679
724.923	58.6343
729.525	75.606
734.124	7.45459
738.721	34.7393
743.315	91.9736
747.907	0.813965
752.496	37.1533
757.082	49.7363
761.666	54.3433
766.247	5.74561
770.826	151.947
775.402	92.4961
779.975	100.338
784.546	87.3662
789.115	101.73
793.681	103.131
798.244	124.043
802.804	117.59
807.363	90.1421
811.918	111.169
816.471	53.0659
821.022	66.8096
825.569	61.7485
830.115	101.751
834.657	97.3731
839.198	69.7349
843.735	166.845
848.27	76.8237
852.803	161.617
857.333	323.631
861.86	264.774
866.385	141.208
870.907	149.475
875.427	87.0083
879.944	131.721
884.459	29.523
888.971	56.6338
893.481	58.227
897.988	37.6655
902.492	59.522
906.994	77.6553
911.493	7.99561
915.99	1.24316
920.485	4.42236
924.976	67.2524
929.466	148.164
933.952	241.72
938.436	333.208
942.918	597.23
947.397	1147.11
951.874	2067.72
956.348	5900.02
960.819	25126.9
965.288	36819.7
969.755	10449.6
974.219	3119.46
978.68	919.009
983.139	445.079
987.595	215.176
992.049	24.1191
996.501	3.57519
1000.95	110.017
1005.4	347.315
1009.84	434.136
1014.28	259.832
1018.72	144.568
1023.16	298.428
1027.59	782.654
1032.02	1342.72
1036.45	629.575
1040.88	375.206
1045.3	145.725
1049.72	312.792
1054.14	439.864
1058.56	1101.44
1062.97	534.523
1067.38	289.772
1071.79	155.449
1076.19	368.545
1080.6	477.945
1085	332.863
1089.4	254.417
1093.79	111.429
1098.19	100.233
1102.58	8.91113
1106.97	12.6816
1111.35	15.2598
1115.74	207.287
1120.12	111.541
1124.5	4.65625
1128.87	82.5791
1133.25	111.034
1137.62	106.898
1141.99	13.0205
1146.35	158.023
1150.72	175.336
1155.08	128.527
1159.44	155.018
1163.79	171.893
1168.15	121.972
1172.5	158.658
1176.85	91.5068
1181.19	158.858
1185.54	89.6338
1189.88	115.069
1194.22	1.61231
1198.55	77.3232
1202.89	93.6006
1207.22	71.2871
1211.55	3.71973
1215.88	149.192
1220.2	210.139
1224.52	214.773
1228.84	172.808
1233.16	97.0606
1237.47	97.5137
1241.78	136.352
1246.09	93.7119
1250.4	230.015
1254.7	30.4443
1259.01	125.422
1263.31	298.778
1267.6	63.5137
1271.9	71.9258
1276.19	270.501
1280.48	279.065
1284.77	261.032
1289.05	41.4815
1293.33	29.793
1297.61	97.4463
1301.89	268.572
1306.16	179.884
1310.44	523.258
1314.71	175.19
1318.97	194.981
1323.24	241.367
1327.5	179.08
1331.76	92.7998
1336.02	112.631
1340.28	99.5469
1344.53	209.319
1348.78	198.343
1353.03	129.945
1357.27	191.398
1361.52	178.918
1365.76	286.32
1370	133.078
1374.23	207.465
1378.47	197.695
1382.7	225.965
1386.93	310.281
1391.15	250.846
1395.38	236.975
1399.6	85.1699
1403.82	143.611
1408.03	146.801
1412.25	208.473
1416.46	213.578
1420.67	274.685
1424.88	133.084
1429.08	215.438
1433.28	307.746
1437.48	62.0508
1441.68	292.734
1445.87	162.379
1450.07	296.803
1454.26	272.69
1458.44	124.58
1462.63	173.459
1466.81	186.381
1470.99	77.2519
1475.17	184.963
1479.34	127.512
1483.52	162.496
1487.69	88.3828
1491.86	361.238
1496.02	177.865
1500.19	305.391
1504.35	90.8769
1508.51	65.9434
1512.66	143.617
1516.82	55.873
1520.97	194.824
1525.12	325.453
1529.26	290.24
1533.41	386.498
1537.55	267.494
1541.69	345.574
1545.83	200.238
1549.96	293.981
1554.09	150.732
1558.22	260.055
1562.35	212.533
1566.48	238.098
1570.6	234.81
1574.72	167.848
