Measurement: Raman, 514 nm, depolarized, Raman Data Processed
Mineral: Fluorapatite
Rruff sample: R050340
Ideal chemistry: Ca_5_(PO_4_)_3_F
Locality: Buckingham, Quebec, Canada
Source: California Institute of Technology
Description: Blue fragment
Measured chemistry: Ca_5.00_((P_0.98_Si_0.02_)O_4_)_3_F_1.00_
Pin_id: L00787
Orientation: Laser parallel to c* (0 0 1). Fiducial mark perpendicular to laser is parallel to a [1 0 0]
Raman shift (cm-1)	intensity
108.28	0
113.208	36.9259
118.134	124.185
123.058	30.3555
127.979	72.4611
132.898	242.819
137.814	699.357
142.728	1447.51
147.639	547.134
152.549	325.773
157.455	457.072
162.359	688.83
167.261	578.929
172.161	534.792
177.058	335.877
181.952	124.484
186.845	68.076
191.734	37.4141
196.622	27.5902
201.507	51.6742
206.389	141.666
211.269	107.596
216.147	229.458
221.022	112.247
225.895	168.815
230.765	215.633
235.633	394.776
240.498	394.614
245.361	204.393
250.222	203.522
255.08	160.617
259.936	386.602
264.789	708.358
269.64	1200.13
274.488	835.763
279.334	495.903
284.178	315.127
289.019	276.401
293.857	209.69
298.693	271.97
303.527	390.223
308.358	635.438
313.187	674.603
318.013	485.707
322.837	363.724
327.659	167.64
332.478	93.4458
337.294	53.1448
342.108	2.79956
346.92	42.2666
351.729	16.9812
356.535	31.1538
361.34	61.7568
366.141	6.91235
370.94	30.2722
375.737	5.19385
380.531	3.08252
385.323	3.91797
390.113	45.811
394.9	25.0554
399.684	67.4878
404.466	103.654
409.245	125.99
414.022	153.167
418.797	275.19
423.569	431.719
428.338	783.011
433.105	1030.17
437.87	1240.17
442.632	1818.02
447.391	2150.74
452.149	1979.33
456.903	1289.76
461.655	767.035
466.405	470.155
471.152	279.142
475.897	220.979
480.639	195.586
485.378	182.511
490.116	84.1382
494.85	56.2165
499.582	38.3652
504.312	15.3232
509.039	85.8093
513.764	54.1741
518.486	56.0996
523.206	11.7239
527.923	71.584
532.638	37.2214
537.35	43.9119
542.059	71.689
546.766	11.029
551.471	72.1875
556.173	77.2383
560.873	53.6516
565.57	213.088
570.264	262.212
574.957	792.215
579.646	2293.16
584.333	3090.43
589.018	1191.31
593.7	1044.24
598.379	601.045
603.056	885.114
607.73	1975.76
612.402	1304.95
617.072	1088.74
621.739	519.258
626.403	211.418
631.065	183.392
635.724	125.222
640.381	84.6626
645.035	130.348
649.687	259.834
654.336	128.654
658.983	125.957
663.627	129.603
668.268	69.7285
672.907	127.146
677.544	44.3188
682.178	26.019
686.809	99.8584
691.438	59.0923
696.065	29.6523
700.688	44.6377
705.31	25.1641
709.929	77.1592
714.545	132.25
719.158	27.7925
723.77	91.4048
728.378	79.4356
732.984	33.0947
737.588	16.4131
742.189	30.6133
746.787	0.29834
751.383	14.2632
755.976	62.5523
760.567	105.608
765.155	106.065
769.741	34.394
774.324	141.461
778.904	54.8828
783.482	119.382
788.058	70.4536
792.631	109.609
797.201	34.4243
801.769	82.5854
806.334	2.09668
810.897	73.3403
815.457	76.3335
820.014	65.7935
824.569	74.7353
829.122	69.0147
833.671	39.2412
838.219	26.8955
842.763	85.9536
847.306	0.170898
851.845	4.98975
856.382	83.833
860.917	149.522
865.448	104.826
869.978	158.462
874.505	138.876
879.029	78.7363
883.55	12.8472
888.069	21.2637
892.586	10.709
897.1	27.1221
901.611	21.7944
906.12	40.2529
910.626	100.098
915.129	89.79
919.63	9.77441
924.129	138.542
928.625	72.9976
933.118	118.518
937.609	286.622
942.097	511.402
946.582	884.775
951.065	1873.33
955.546	4157.1
960.023	14217.3
964.499	45619.5
968.971	35024.6
973.441	7524.71
977.909	1996.93
982.374	621.724
986.836	357.606
991.295	212.422
995.753	95.4385
1000.21	103.608
1004.66	347.773
1009.11	716.074
1013.55	630.97
1018	353.462
1022.44	288.373
1026.88	540.092
1031.32	1189.9
1035.75	2096.53
1040.18	1171.13
1044.61	647.067
1049.04	532.032
1053.46	810.688
1057.88	1154.17
1062.3	1455.51
1066.71	773.894
1071.13	608.348
1075.54	796.877
1079.94	1090.9
1084.35	739.663
1088.75	309.416
1093.15	167.231
1097.55	85.083
1101.94	96.9033
1106.34	106.572
1110.73	12.8193
1115.11	53.6787
1119.5	119.311
1123.88	331.069
1128.26	84.8144
1132.63	164.506
1137.01	30.292
1141.38	127.016
1145.75	122.856
1150.12	68.6904
1154.48	27.7793
1158.84	126.278
1163.2	123.585
1167.55	235.733
1171.91	121.278
1176.26	86.5752
1180.61	117.836
1184.95	163.366
1189.29	83.8828
1193.63	75.957
1197.97	87.9893
1202.31	141.894
1206.64	10.8262
1210.97	192.685
1215.29	96.4834
1219.62	172.219
1223.94	184.996
1228.26	85.9814
1232.57	86.042
1236.89	213.176
1241.2	115.775
1245.51	55.251
1249.81	260.513
1254.12	46.6416
1258.42	71.835
1262.72	127.814
1267.01	135.984
1271.3	179.167
1275.59	105.915
1279.88	130.676
1284.17	44.7305
1288.45	183.623
1292.73	175.885
1297.01	78.0586
1301.28	50.8682
1305.55	52.374
1309.82	90
1314.09	189.444
1318.35	219.711
1322.61	141.028
1326.87	54.7685
1331.13	123.911
1335.38	136.529
1339.63	81.4834
1343.88	151.378
1348.12	157.156
1352.37	173.847
1356.61	319.468
1360.85	114.04
1365.08	158.569
1369.31	89.0391
1373.54	87.499
1377.77	99.2119
1381.99	91.8486
1386.22	125.004
1390.43	11.084
1394.65	66.0361
1398.87	108.054
1403.08	99.9014
1407.29	82.2461
1411.49	200.036
1415.69	193.347
1419.89	198.046
1424.09	56.9805
1428.29	114.316
1432.48	103.564
1436.67	115.178
1440.86	207.275
1445.04	289.338
1449.23	5.23438
1453.4	158.607
1457.58	116.302
1461.76	114.779
1465.93	173.272
1470.1	182.659
1474.26	68.9853
1478.43	197.984
1482.59	231.773
1486.75	205.183
1490.9	150.774
1495.06	154.526
1499.21	63.1807
1503.35	207.516
1507.5	286.048
1511.64	125.09
1515.78	154.242
1519.92	83.9629
1524.05	203.745
1528.18	92.9805
1532.31	266.998
1536.44	120.756
1540.56	356.551
1544.69	202.489
1548.8	142.595
1552.92	161.622
1557.03	237.524
1561.14	29.5361
1565.25	225.99
1569.36	91.0059
