Measurement: Raman, 514 nm, depolarized, Raman Data Processed
Mineral: Fluorite
Rruff sample: R050045
Ideal chemistry: CaF_2_
Locality: Hunan Province, China
Source: Eugene Schlepp
Description: Pale green colored cubes
Measured chemistry: Ca_1.000_ F_2.000_
Pin_id: L00437
Orientation: Laser parallel to a* (1 0 0). Fiducial mark perpendicular to laser is parallel to -b [0 -1 0]
Raman shift (cm-1)	intensity
133.821	0
137.987	149.219
142.152	92.002
146.314	122.801
150.474	333.688
154.633	20.717
158.789	142.438
162.943	267.989
167.095	165.348
171.246	134.248
175.394	354.564
179.54	200.016
183.684	74.924
187.826	121.608
191.967	334.989
196.105	249.103
200.241	3.952
204.375	259.301
208.507	245.386
212.638	92.518
216.766	40.114
220.892	197.807
225.016	245.562
229.139	143.473
233.259	38.178
237.377	230.409
241.493	319.197
245.608	28.18
249.72	117.359
253.83	166.737
257.939	146.309
262.045	106.068
266.15	106.033
270.252	166.199
274.353	86.607
278.451	47.258
282.548	169.77
286.642	362.799
290.735	293.898
294.826	305.152
298.914	558.072
303.001	854.854
307.086	1063.25
311.168	2142.32
315.249	5481.91
319.328	10991.9
323.405	10052.4
327.48	4999.54
331.553	2670.39
335.624	1621.45
339.693	1092.7
343.76	754.115
347.826	875.639
351.889	617.242
355.95	418.986
360.01	500.906
364.067	562.965
368.123	275.143
372.176	217.436
376.228	279.857
380.277	352.365
384.325	235.115
388.371	166.914
392.415	291.57
396.457	214.211
400.497	96.35
404.535	101.416
408.571	54.939
412.605	220.682
416.638	334.299
420.668	99.014
424.697	144.088
428.723	285.131
432.748	240.59
436.77	4.803
440.791	148.514
444.81	213.275
448.827	296.873
452.842	240.463
456.855	144.033
460.867	101.262
464.876	328.406
468.883	282.047
472.889	281.736
476.892	281.611
480.894	486.178
484.894	539.965
488.892	273.627
492.888	187.289
496.882	210.938
500.874	324.967
504.865	188.6
508.853	102.217
512.84	275.836
516.824	379.396
520.807	487.211
524.788	190.709
528.767	74.166
532.744	420.629
536.719	194.939
540.693	18.26
544.664	100.455
548.634	283.664
552.601	343.816
556.567	242.061
560.531	16.576
564.493	109.424
568.453	362.18
572.412	294.809
576.368	37.363
580.323	59.77
584.275	309.938
588.226	448.566
592.175	220.387
596.122	80.246
600.068	314.332
604.011	287.926
607.952	409.342
611.892	190.658
615.83	20.807
619.766	180.223
623.7	583.211
627.632	704.803
631.563	495.447
635.491	42.303
639.418	372.662
643.343	532.738
647.266	661.266
651.187	551.322
655.106	151.297
659.024	361.168
662.939	473.342
666.853	513.01
670.765	112.582
674.675	27.934
678.583	122.049
682.49	321.297
686.394	400.514
690.297	29.627
694.198	88.611
698.097	17.354
701.995	685.975
705.89	224.215
709.784	49.697
713.675	7.807
717.565	353.854
721.453	290.896
725.34	378.131
729.224	43.133
733.107	219.547
736.988	286.074
740.867	320
744.744	591.357
748.62	446.477
752.493	27.168
756.365	229.619
760.235	325.242
764.103	321.912
767.969	358.559
771.834	81.518
775.697	31.834
779.558	121.193
783.417	647.754
787.274	394.297
791.13	357.791
794.983	114.172
798.835	60.568
802.686	707.023
806.534	584.764
810.38	231.17
814.225	52.736
818.068	373.934
821.909	360.725
825.749	617.834
829.586	411.66
833.422	210.076
837.256	312.068
841.088	662.213
844.919	1086.83
848.748	703.914
852.575	649.695
856.4	359.346
860.223	366.635
864.045	451.791
867.864	737.736
871.682	455.334
875.499	563.057
879.313	330.887
883.126	128.828
886.937	386.949
890.746	985.223
894.553	718.701
898.359	437.613
902.163	176.818
905.965	143.75
909.765	453.273
913.564	920.879
917.361	710.703
921.156	650.678
924.949	140.816
928.74	559.057
932.53	549.582
936.318	879.436
940.104	930.303
943.889	315.023
947.672	366.277
951.453	327.705
955.232	564.455
959.01	746.227
962.785	598.23
966.559	435.486
970.332	408.176
974.102	19.375
977.871	93.225
981.638	636
985.404	528.332
989.167	311.328
992.929	65.598
996.689	77.621
1000.45	471.02
1004.2	554.586
1007.96	758.812
1011.71	542.949
1015.46	878.078
1019.21	203.227
1022.96	288.512
1026.71	254.156
1030.45	739.609
1034.19	805.836
1037.94	784.84
1041.68	552.117
1045.41	10.742
1049.15	305.016
1052.88	316.113
1056.62	963.188
1060.35	660.398
1064.08	767.969
1067.8	516.246
1071.53	474.191
1075.25	492.375
1078.97	601.387
1082.7	999.949
1086.41	1008.94
1090.13	1118.24
1093.85	637.715
1097.56	237.23
1101.27	277.004
1104.98	396.973
1108.69	816.055
1112.4	535.73
1116.1	55.133
1119.81	174.199
1123.51	82.855
1127.21	211.793
1130.91	80.25
1134.61	578.559
1138.3	814.059
1141.99	689.262
1145.68	918.824
1149.38	288.266
1153.06	67.684
1156.75	207.434
1160.43	645.812
1164.12	727.707
1167.8	607.484
1171.48	446.492
1175.16	360.051
1178.83	89.047
1182.51	32.434
1186.18	83
1189.85	385.98
1193.52	532.48
1197.19	1052.42
1200.86	655.227
1204.52	502.754
1208.19	305.066
1211.85	247.633
1215.51	444.113
1219.17	848.984
1222.82	1187.54
1226.48	1480.73
1230.13	1416.3
1233.78	966.598
1237.43	1032.11
1241.08	636.266
1244.73	469.602
1248.37	682.473
1252.01	1403.23
1255.66	1686.29
1259.3	1607.56
1262.93	811.215
1266.57	691.898
1270.21	611.574
1273.84	370.961
1277.47	341.219
1281.1	792.281
1284.73	1180.62
1288.36	1027.88
1291.98	1494.16
1295.6	1202.21
1299.23	556.43
1302.85	670.145
1306.46	142.555
1310.08	542.879
1313.7	692.785
1317.31	1222.04
1320.92	1180.42
1324.53	787.867
1328.14	812.027
1331.75	327.414
1335.35	27.613
1338.96	85.121
1342.56	0.984
1346.16	609.457
1349.76	891.453
1353.36	832.625
1356.95	1222.79
1360.55	972.621
1364.14	1002.18
1367.73	781.648
1371.32	78.406
1374.91	490.004
1378.49	113.836
1382.08	298.219
1385.66	919.422
1389.24	1179.01
1392.82	1409.39
1396.4	1489.71
1399.97	1227.43
1403.55	744.414
1407.12	340.391
1410.69	525.832
1414.26	517.863
1417.83	330.945
1421.4	542.871
1424.96	1109.09
1428.53	1060.8
1432.09	1594.51
1435.65	1460.87
1439.21	1307.3
1442.76	1331.86
1446.32	649.637
1449.87	477.258
1453.43	619.594
1456.98	546.352
1460.53	882.469
1464.07	1482.13
1467.62	1523.8
1471.16	1758.75
1474.71	1896.02
1478.25	1959.77
1481.79	1095.65
1485.32	594.668
1488.86	389.293
1492.39	453.461
1495.93	168.422
1499.46	417.75
1502.99	229.512
1506.52	1061.36
1510.05	1242.19
1513.57	1546.17
1517.09	932.789
