Measurement: Raman, 514 nm, depolarized, Raman Data Processed
Mineral: Fluorophlogopite
Rruff sample: R040039
Ideal chemistry: KMg_3_(Si_3_Al)O_10_F_2_
Locality: Franklin, Sussex County, New Jersey, USA
Source: University of Arizona Mineral Museum
Description: Brown hexagonal sheets
Measured chemistry: (K_0.92_Na_0.06_[box]_0.02_)_Σ=1_(Mg_2.94_Fe_0.04_Ti_0.02_)_Σ=3_(Si_2.98_Al_1.02_)O_10_(F_1.24_(OH)_0.76_)_Σ=2_; OH estimated by charge balance
Pin_id: M00363
Orientation: Laser parallel to c* (0 0 1). Fiducial mark perpendicular to laser is parallel to b [0 1 0]
Raman shift (cm-1)	intensity
69.651	0
73.842	90.184
78.031	1297.25
82.218	3779.39
86.404	6383.53
90.587	8847.75
94.768	10324.3
98.947	11335.5
103.124	11263.6
107.3	10130.5
111.473	8418.89
115.644	8087.48
119.813	6440.96
123.981	5197.86
128.146	4179.55
132.309	3435.59
136.47	2945
140.63	2374.48
144.787	1979.45
148.942	1543.38
153.096	1146.31
157.247	959.971
161.396	1119.69
165.544	1189.13
169.689	1479.49
173.833	1830.45
177.974	2238.8
182.114	3922.37
186.251	7886.02
190.387	16544.6
194.52	26868.4
198.652	23564.2
202.782	12031.1
206.909	5929.79
211.035	2981.1
215.159	1366.97
219.281	802.307
223.4	365.133
227.518	118.73
231.634	40.082
235.748	68.557
239.86	82.453
243.97	491.389
248.079	573.693
252.185	468.859
256.289	117.637
260.391	311.375
264.492	1103.79
268.59	3035.72
272.687	6599.1
276.781	11165.6
280.874	9649.05
284.964	4724.1
289.053	2674.51
293.14	1913.17
297.225	1870.98
301.308	2826.85
305.389	4593.69
309.468	7191.71
313.545	9383.11
317.62	10635.5
321.693	11239.6
325.765	9231.1
329.834	6607.58
333.902	4238.96
337.967	2945.98
342.031	2175.59
346.093	1589.73
350.153	1202.36
354.21	1290.43
358.267	1252.88
362.321	1557.63
366.373	2025.63
370.423	2513.97
374.471	2069.7
378.518	1572.72
382.563	981.107
386.605	739.26
390.646	854.541
394.685	506.592
398.722	454.824
402.757	350.135
406.79	283.443
410.821	231.451
414.851	220.357
418.878	43.76
422.904	199.955
426.927	19.789
430.949	110.438
434.969	106.482
438.987	443.953
443.003	399.24
447.018	801.463
451.03	1059.92
455.041	913.223
459.049	796.346
463.056	939.264
467.061	621.965
471.064	67.422
475.065	268.844
479.064	155.734
483.062	94.338
487.057	154.51
491.051	542.918
495.043	799.645
499.032	1156.28
503.02	1303.61
507.007	1498.61
510.991	1615.29
514.973	1512.63
518.954	958.627
522.933	603.279
526.91	234.658
530.885	422.754
534.858	119.418
538.829	244.568
542.799	178.281
546.766	149.588
550.732	257.93
554.696	306.754
558.658	346.67
562.618	440.188
566.576	475.525
570.533	369.68
574.488	426.99
578.44	115.18
582.391	42.395
586.341	88.326
590.288	225.734
594.233	83.893
598.177	229.248
602.119	185.084
606.059	493.381
609.997	905.229
613.933	961.637
617.868	1726.61
621.801	2084.14
625.731	3158.23
629.66	3569.77
633.588	4858.06
637.513	5472.79
641.437	5977.15
645.358	5992.31
649.278	6207.11
653.196	7018.59
657.113	7919.4
661.027	8965.58
664.94	11228.1
668.851	14298.3
672.76	19952.2
676.667	29482.2
680.572	37300
684.476	38367.1
688.378	31123.2
692.278	23239.4
696.176	15441.6
700.072	10143.9
703.967	6281.3
707.86	4812.1
711.751	3305.01
715.64	2968.17
719.527	2704.21
723.413	2243.58
727.297	2257.52
731.179	2104.79
735.059	1922.91
738.937	1790.39
742.814	1709.2
746.689	1533.38
750.562	1577.08
754.433	1449.84
758.303	1460.91
762.17	1043.31
766.036	840.301
769.901	1214.2
773.763	1277.89
777.624	1277.43
781.482	1403.84
785.339	1449.44
789.195	1725.35
793.048	1527.53
796.9	1288.3
800.75	1220.88
804.598	1098.47
808.445	947.498
812.289	522.428
816.132	579.262
819.973	436
823.813	340.648
827.65	237.215
831.486	233.68
835.32	176.918
839.152	44.832
842.983	80.859
846.812	102.861
850.639	122.092
854.464	219.582
858.288	54.377
862.11	85.773
865.93	32.754
869.748	56.729
873.564	94.705
877.379	53.514
881.192	66.775
885.004	115.912
888.813	343.098
892.621	235.412
896.427	182.871
900.232	238.49
904.034	316.27
907.835	271.168
911.634	235.135
915.432	524.102
919.227	465.037
923.021	309.955
926.813	334.83
930.604	319.734
934.393	162.641
938.18	549.506
941.965	277.289
945.749	370.545
949.53	259.619
953.311	176.123
957.089	304.619
960.866	347.121
964.641	374.557
968.414	309.885
972.185	273.113
975.955	707.227
979.723	758.197
983.49	1317.27
987.254	1125.3
991.017	899.102
994.779	1159.51
998.538	1388.32
1002.3	1395.61
1006.05	1475.4
1009.81	1880.81
1013.56	1687.86
1017.31	1516.83
1021.06	1474.7
1024.81	1713.63
1028.55	2001.29
1032.3	2809.05
1036.04	3466.38
1039.78	3053.18
1043.52	2346.48
1047.26	1832.09
1050.99	1797.62
1054.73	1699.48
1058.46	2013.94
1062.19	2255.05
1065.92	2216.91
1069.65	2099.8
1073.37	2699.25
1077.1	2773.79
1080.82	3635.05
1084.54	4117.41
1088.26	4399.38
1091.97	4824.17
1095.69	4875.72
1099.4	5013.86
1103.12	5011.79
1106.83	3967.36
1110.54	3324.98
1114.24	2498.97
1117.95	1592.26
1121.65	1630.49
1125.35	1282.38
1129.06	33.422
1132.75	117.904
1136.45	205.584
1140.15	2.457
1143.84	183.803
1147.53	268.49
1151.22	84.236
1154.91	143.045
1158.6	2.104
1162.28	103.76
1165.97	94.676
1169.65	63.402
1173.33	157.023
1177.01	298.531
1180.69	17.445
1184.36	251.324
1188.04	335.164
1191.71	202.676
1195.38	25.395
1199.05	52.344
1202.71	327.914
1206.38	111.523
1210.04	245.109
1213.71	169.258
1217.37	80.27
1221.03	62.992
1224.68	196.562
1228.34	68.203
1231.99	138.953
1235.65	301.023
1239.3	66.656
1242.95	285.152
1246.59	324.109
1250.24	463.238
1253.88	97.359
1257.53	144.887
1261.17	13
1264.81	271.914
1268.45	113.723
1272.08	294.441
1275.72	83.316
1279.35	269.75
1282.98	116.285
1286.61	262.945
1290.24	6.672
1293.87	300.41
1297.49	140.734
1301.11	195.25
1304.73	54.297
1308.36	437.883
1311.97	103.898
1315.59	578.027
1319.2	417.934
1322.82	363.922
1326.43	694.543
1330.04	325.523
1333.65	357.969
1337.26	145.875
1340.86	393.348
1344.47	243.516
1348.07	528.535
1351.67	517.195
1355.27	536.441
1358.87	277.758
1362.46	75.348
1366.06	112.938
1369.65	212.945
1373.24	299.898
1376.83	129.371
1380.42	234.039
1384	455.348
1387.59	5.07
1391.17	403.605
1394.75	316.676
1398.33	92.832
1401.91	254.066
1405.49	42.234
1409.06	168.527
1412.64	646.902
1416.21	94.824
