Measurement: Raman, 514 nm, ccw, Raman Data Processed
Mineral: Fluorapophyllite-(K)
Rruff sample: R040095
Ideal chemistry: KCa_4_Si_8_O_20_F8H_2_O
Locality: unknown
Source: University of Arizona Mineral Museum
Description: Colorless crystals
Measured chemistry: (K_0.90_Na_0.04_)Ca_3.96_Si_8.00_O_20_(F_0.82_(OH)_0.18_)Â·8H_2_O
Pin_id: L00450
Orientation: Laser parallel to -a* (-1 0 0). Fiducial mark perpendicular to laser is parallel to c [0 0 1]
Raman shift (cm-1)	intensity
79.421	0
84.352	126.17
89.281	1639.66
94.207	11007
99.131	36864.9
104.053	118596
108.973	124179
113.891	28118.9
118.806	6333.27
123.72	3230.77
128.631	1566.83
133.539	1089.33
138.446	3136.19
143.35	1495.36
148.252	1583.14
153.152	6137.39
158.05	18212.5
162.945	47247.7
167.838	56175.4
172.729	24585.8
177.618	10532.5
182.504	6312.02
187.388	6426.94
192.27	8010.4
197.149	7407.46
202.027	4286.71
206.902	2242.08
211.775	1369.82
216.645	2089.02
221.513	4747.09
226.379	9395.86
231.243	9823.09
236.104	4663.82
240.963	1383.93
245.82	221.903
250.674	215.51
255.527	303.389
260.376	177.328
265.224	170.522
270.069	174.075
274.912	425.074
279.753	686.107
284.591	620.133
289.427	196.049
294.261	364.757
299.092	281.624
303.921	584.468
308.748	825.501
313.572	1235.05
318.394	1332.38
323.214	1385.76
328.032	957.834
332.847	722.068
337.659	930.013
342.47	616.336
347.278	437.407
352.083	269.338
356.887	271.263
361.688	287.312
366.486	766.597
371.282	1547.22
376.076	2610.32
380.868	5014.55
385.657	9429.7
390.444	16431.1
395.228	23701
400.01	25295.5
404.79	19315.7
409.567	12815
414.342	8552.66
419.114	7550.84
423.885	10477.1
428.652	19458.6
433.418	15638.2
438.18	4663.95
442.941	1209.13
447.699	338.862
452.455	432.477
457.208	1103.31
461.959	2702.26
466.708	5924.48
471.454	14934.2
476.197	37484
480.939	81720.7
485.678	87543.6
490.414	41493.3
495.148	19351.4
499.88	12193.5
504.609	10382
509.335	10793.4
514.06	12782.5
518.781	18242.5
523.501	26901.4
528.218	41493.1
532.932	59366.9
537.644	71400.1
542.354	69678.9
547.061	61093.6
551.766	55372.6
556.468	54649.3
561.168	58831.2
565.865	71544.6
570.56	96835
575.253	140405
579.943	183859
584.63	182488
589.315	124030
593.998	70116.2
598.678	40233.6
603.355	24769.1
608.031	16694.5
612.703	11865.6
617.373	9006.18
622.041	7320.15
626.706	6166.97
631.369	5161.88
636.029	4553.29
640.687	4174.04
645.342	4007.97
649.995	3919.63
654.645	3899.93
659.293	3595.78
663.938	2956.09
668.581	1876.78
673.221	1149.84
677.859	617.074
682.494	223.142
687.126	10.8604
691.756	131.04
696.384	141.254
701.009	224.275
705.632	117.363
710.252	118.084
714.869	108.757
719.484	105.784
724.097	20.4727
728.707	93.0801
733.314	90.8672
737.919	194.211
742.521	179.557
747.121	63.1074
751.718	152.929
756.313	85.4873
760.905	94.75
765.494	17.083
770.081	34.7295
774.666	470.543
779.248	866.78
783.827	1910.78
788.404	3654.1
792.978	3650.54
797.55	2111.1
802.119	1300.36
806.685	810.133
811.249	695.653
815.811	606.69
820.37	541.023
824.926	647.031
829.479	677.6
834.031	860.256
838.579	627.622
843.125	790.148
847.668	898.967
852.209	1354.57
856.747	1075.85
861.283	1224.42
865.816	928.941
870.346	922.536
874.874	620.881
879.399	571.142
883.921	410.184
888.441	604.911
892.959	579.621
897.473	591.304
901.986	475.981
906.495	314.818
911.002	371.09
915.506	78.7852
920.008	103.701
924.507	119.814
929.004	160.162
933.497	41.8105
937.989	139.801
942.477	42.8428
946.963	138.491
951.446	328.76
955.927	331.357
960.405	157.676
964.881	62.4766
969.353	45.8096
973.824	150.716
978.291	99.7959
982.756	350.418
987.218	574.547
991.678	678.47
996.135	645.095
1000.59	1086.47
1005.04	1275.99
1009.49	1070.91
1013.94	923.453
1018.38	931.702
1022.82	1563.77
1027.26	2515.82
1031.69	4556.92
1036.13	7524.09
1040.56	12053.9
1044.99	21541.3
1049.41	45085.5
1053.83	103104
1058.25	200358
1062.67	189342
1067.09	98606.3
1071.5	50561.6
1075.9	28292.5
1080.31	18163.3
1084.71	13458.4
1089.12	10040.8
1093.52	7547.13
1097.91	5630.6
1102.3	4271.53
1106.69	3617.97
1111.08	2779.47
1115.47	2582.02
1119.85	2121.82
1124.23	1644.42
1128.6	1454.02
1132.98	1149.63
1137.35	1025.23
1141.72	867.832
1146.08	748.409
1150.45	504.14
1154.81	541.818
1159.17	529.459
1163.52	513.861
1167.87	619.078
1172.22	479.024
1176.57	410.621
1180.91	269.872
1185.26	333.706
1189.6	112.107
1193.93	49.9453
1198.27	60.5244
1202.6	67.3643
1206.92	143.175
1211.25	27.2422
1215.57	67.9648
1219.89	132.489
1224.21	193.493
1228.52	35.8877
1232.83	42.7441
1237.14	84.5342
1241.45	253.259
1245.75	106.945
1250.05	235.755
1254.35	138.094
1258.65	194.019
1262.94	274.987
1267.23	410.119
1271.52	127.441
1275.8	275.552
1280.08	332.881
1284.36	208.471
1288.64	81.9629
1292.91	391.174
1297.18	220.45
1301.45	260.075
1305.71	236.347
1309.97	177.026
1314.23	287.943
1318.49	344.462
1322.74	386.714
1327	289.79
1331.24	143.184
1335.49	24.0381
1339.73	75.082
1343.97	158.343
1348.21	244.825
1352.44	6.7959
1356.68	17.3018
1360.91	3.29883
1365.13	42.4971
1369.36	105.005
1373.58	137.223
1377.79	41.1699
1382.01	74.6006
1386.22	146.517
1390.43	38.2363
1394.64	116.593
1398.84	136.278
1403.04	93.9697
1407.24	18.8027
1411.44	143.745
1415.63	106.824
1419.82	38.8125
1424.01	161.737
1428.19	205.616
1432.37	195.861
1436.55	230.491
1440.73	419.604
1444.9	588.588
1449.07	702.834
1453.24	625.223
1457.4	832.589
1461.57	483.949
1465.72	398.171
1469.88	446.277
1474.04	396.712
1478.19	400.747
1482.33	254.071
1486.48	258.043
1490.62	200.728
1494.76	44.7666
1498.9	224.243
1503.03	181.91
1507.16	141.8
1511.29	136.416
1515.42	259.6
1519.54	57.1514
1523.66	259.088
1527.78	213.261
1531.89	251.227
1536	268.951
1540.11	83.9609
1544.21	115.577
1548.32	334.738
1552.42	221.161
1556.52	164.794
1560.61	117.765
1564.7	169.403
1568.79	15.1133
1572.88	151.695
1576.96	0
