Measurement: Raman, 514 nm, ccw, Raman Data Processed
Mineral: Fluorophlogopite
Rruff sample: R040042
Ideal chemistry: KMg_3_(Si_3_Al)O_10_F_2_
Locality: Franklin, Sussex County, New Jersey, USA
Source: University of Arizona Mineral Museum
Description: Brown flattened hexagonal prism, polytype 1M
Measured chemistry: (K_0.92_Na_0.08_)_Σ=1_(Mg_2.95_Fe_0.05_)_Σ=3_(Si_3.00_Al_1.00_)O_10_(F_1.40_(OH)_0.60_)_Σ=2_; trace amounts of Ti; OH estimated by charge balance
Pin_id: L01769
Orientation: Laser parallel to b* (0 1 0). Fiducial mark perpendicular to laser is parallel to -c [0 0 -1]
Raman shift (cm-1)	intensity
63.968	0
68.967	227.234
73.963	2809.1
78.956	11727
83.945	24268.4
88.931	39176.4
93.913	61045.7
98.892	89249.1
103.868	112624
108.841	79771.3
113.81	35490.1
118.777	19539.8
123.74	13485.8
128.699	10049.5
133.656	8175.77
138.609	6631.1
143.559	5619.96
148.505	5608.7
153.449	6188.66
158.389	8560.54
163.326	14404.4
168.26	24228.3
173.19	40346.1
178.118	71907.1
183.042	148029
187.963	328086
192.881	658338
197.796	908126
202.707	618546
207.615	251422
212.52	106821
217.422	53630.1
222.321	29055.3
227.217	17050.6
232.109	11660.8
236.999	7309.78
241.885	4367.46
246.768	2243.93
251.648	2797.38
256.525	5100
261.399	13031.5
266.269	29916.3
271.137	68917.2
276.001	137347
280.862	174681
285.721	102899
290.576	47744.1
295.428	29065.6
300.277	29072.6
305.123	43912.6
309.966	75208.6
314.805	108390
319.642	121220
324.476	112674
329.306	82774.9
334.134	49373.5
338.959	27566.9
343.78	15610.8
348.599	10089.4
353.414	6509.71
358.226	5747.52
363.036	6423.85
367.842	8440.54
372.646	11000.1
377.446	7931.54
382.244	3661.99
387.038	2322.9
391.83	1758.88
396.618	1185.08
401.404	834.387
406.186	657.465
410.966	299.727
415.742	184.266
420.516	827.785
425.287	305.992
430.055	729.59
434.819	587.762
439.581	489.383
444.34	174.273
449.096	269.641
453.85	103.293
458.6	581.945
463.347	1059.05
468.091	740.164
472.833	406.262
477.572	1199.12
482.307	1025.93
487.04	864.254
491.77	838.898
496.497	454.473
501.221	193.457
505.943	213.586
510.661	1325.93
515.377	1611.64
520.089	1162.92
524.799	1159.32
529.506	1042.97
534.21	1476.85
538.912	1277.19
543.61	1831.61
548.306	1883.18
552.999	2067.64
557.689	2804.25
562.376	2651.42
567.061	3142.37
571.742	3395.34
576.421	3409.54
581.097	3638.43
585.77	3563.66
590.441	4342.23
595.108	5518.6
599.773	7493.59
604.435	9868.8
609.095	14078.7
613.751	19783.1
618.405	28030.8
623.056	40910.4
627.705	58764.2
632.35	82332.5
636.993	102018
641.633	106975
646.271	101418
650.905	96907.9
655.537	99201.4
660.166	107812
664.793	127829
669.416	165503
674.038	236411
678.656	340554
683.272	406620
687.885	358715
692.495	250458
697.102	149713
701.707	82615.7
706.31	47013.7
710.909	30012
715.506	21473.9
720.1	15724.7
724.692	12436.5
729.281	9395.76
733.867	7636.52
738.451	6393.9
743.032	5312.73
747.61	4390.64
752.186	3964.27
756.759	3859.8
761.329	2640.38
765.897	2086.23
770.462	2096.88
775.025	2027.41
779.585	2306.77
784.142	2732.01
788.697	3688.91
793.249	4492.6
797.799	5163.09
802.346	4227.2
806.89	3155.18
811.432	2149.53
815.971	1514
820.508	1228.31
825.042	1177.21
829.574	466.625
834.103	62.6953
838.63	114.25
843.153	274.141
847.675	185.086
852.194	619.625
856.71	26.5391
861.224	187.07
865.735	203.609
870.244	29.8672
874.75	408.578
879.254	266.094
883.755	194.68
888.254	1212.73
892.75	1886.31
897.244	1530.31
901.735	2049.5
906.223	2591.2
910.71	1944.61
915.193	2200.91
919.675	2585.15
924.153	2393.27
928.63	2048.23
933.104	2385.95
937.575	2122.63
942.044	3199.22
946.51	2753.91
950.974	3108.38
955.436	3575
959.895	4305.23
964.352	4998.8
968.806	6177.23
973.258	7471.84
977.707	9060.36
982.154	10164.2
986.599	11279.4
991.041	12249
995.481	14192.4
999.918	17462.4
1004.35	22598.6
1008.78	24946.1
1013.22	30023.1
1017.64	38138.6
1022.07	56396.2
1026.49	102121
1030.91	182168
1035.33	230172
1039.75	174664
1044.16	102612
1048.57	63904.7
1052.98	43118.5
1057.39	32299
1061.79	24267.9
1066.19	18476
1070.59	13878.7
1074.99	10217.9
1079.38	8487.44
1083.78	6706.76
1088.16	5694.58
1092.55	5652.54
1096.94	5174.26
1101.32	5447.68
1105.7	4895.31
1110.08	4454.56
1114.46	3312.57
1118.83	1609.93
1123.2	1024.96
1127.57	556.086
1131.94	801.625
1136.3	526.438
1140.66	308.68
1145.03	66.125
1149.38	198.742
1153.74	9.82031
1158.09	211.758
1162.44	190.859
1166.79	499.859
1171.14	129.562
1175.48	337.039
1179.82	56.1406
1184.16	6.5625
1188.5	127.586
1192.84	65.5703
1197.17	376.031
1201.5	138.039
1205.83	134
1210.15	219.977
1214.48	85.5391
1218.8	243.281
1223.12	671.117
1227.44	548.039
1231.75	763.102
1236.07	935.289
1240.38	869.578
1244.68	942
1248.99	1229.56
1253.3	1115.23
1257.6	2026.81
1261.9	1479.73
1266.2	1317.39
1270.49	1609.11
1274.79	1136.7
1279.08	1919.81
1283.37	1982.68
1287.65	2249.91
1291.94	2597.8
1296.22	2438.78
1300.5	2231.03
1304.78	2195.21
1309.05	2042.98
1313.33	2169.21
1317.6	1789.98
1321.87	1603.46
1326.14	1705.77
1330.4	1647.32
1334.67	1480.16
1338.93	855.789
1343.19	1025.06
1347.44	661.188
1351.7	1284.61
1355.95	567.047
1360.2	658.961
1364.45	759.531
1368.7	759.695
1372.94	732.578
1377.18	535.422
1381.42	414.352
1385.66	85.7891
1389.9	331.961
1394.13	181.484
1398.37	76.7031
1402.6	334.352
1406.82	16.0547
1411.05	505.758
1415.27	289.383
1419.49	173.539
1423.71	662.297
1427.93	802.016
1432.15	1265.37
1436.36	1109.83
1440.57	1618.44
1444.78	1751.37
1448.99	2036.18
1453.19	1684.14
1457.4	1625.86
1461.6	1340.08
1465.8	1088.39
1469.99	1198.52
1474.19	528.812
1478.38	449.266
1482.58	1051.94
1486.77	630.547
1490.95	474.281
1495.14	377.578
1499.32	292.984
1503.5	170.156
1507.68	306.047
1511.86	58.9219
1516.03	129.672
1520.21	197.984
1524.38	473.938
1528.55	625.016
1532.72	411.852
1536.88	95.9375
1541.05	282.555
1545.21	234.758
1549.37	374.047
1553.53	409.328
1557.68	547.555
1561.84	202.852
1565.99	96.6562
1570.14	160.297
1574.29	102.594
1578.43	200.656
