Measurement: Raman, 514 nm, depolarized, Raman Data Processed
Mineral: Fluorapatite
Rruff sample: R040098
Ideal chemistry: Ca_5_(PO_4_)_3_F
Locality: Cerro de Mercado mine, Durango, Mexico
Source: Marcus Origlieri
Description: Pale yellow short hexagonal prism
Measured chemistry: Ca_5.00_((P_0.98_Si_0.01_S_0.01_)O_4_)_3_F_1.00_
Pin_id: M00032
Orientation: Laser parallel to [-1 -1 0]. Fiducial mark perpendicular to laser is parallel to c [0 0 1]
Raman shift (cm-1)	intensity
59.679	0
64.661	141.457
69.641	184.121
74.618	200.52
79.593	200.944
84.564	119.86
89.532	70.6316
94.498	18.5709
99.461	31.8223
104.421	11.0262
109.378	9.14905
114.332	276.381
119.283	142.867
124.232	35.5175
129.178	67.528
134.12	254.57
139.061	430.289
143.998	274.718
148.932	98.52
153.864	187.327
158.792	340.96
163.718	242.179
168.641	227.228
173.562	172.133
178.479	215.939
183.394	218.635
188.305	145.219
193.214	182.141
198.12	166.835
203.024	272.86
207.924	566.989
212.822	773.946
217.717	444.765
222.609	296.7
227.498	366.818
232.385	466.768
237.269	444.607
242.149	267.737
247.027	177.276
251.903	104.631
256.775	145.436
261.645	271.804
266.512	507.969
271.376	448.612
276.237	286.789
281.096	335.521
285.952	407.348
290.805	396.062
295.655	433.643
300.502	424.002
305.347	428.325
310.189	442.516
315.028	350.577
319.864	193.507
324.698	90.3068
329.528	57.9727
334.356	45.4985
339.182	31.92
344.004	4.46252
348.824	19.1675
353.641	3.82385
358.455	34.046
363.266	34.6581
368.075	24.3964
372.881	11.5364
377.684	11.8119
382.484	34.2703
387.282	48.145
392.077	48.7101
396.869	45.6517
401.658	94.8623
406.445	121.394
411.229	107.161
416.01	294.452
420.788	614.812
425.564	1099.09
430.337	1999.22
435.107	1577.16
439.875	1104.91
444.639	1267.09
449.401	1255.86
454.161	1072.06
458.917	736.074
463.671	481.937
468.422	311.601
473.17	194.909
477.916	131.661
482.659	123.588
487.399	80.3464
492.137	9.90454
496.872	7.14136
501.604	31.8135
506.333	32.9392
511.06	22.3562
515.784	6.79688
520.505	26.2634
525.223	8.21802
529.939	24.8125
534.652	39.9626
539.363	0.81665
544.07	66.7615
548.775	66.7871
553.478	12.9011
558.177	73.1834
562.874	47.5691
567.568	172.361
572.26	230.739
576.949	635.17
581.635	1466.64
586.319	1463.49
590.999	3130.74
595.677	2001.61
600.353	670.342
605.026	1382.7
609.696	1558.89
614.363	706.42
619.028	441.37
623.69	307.891
628.349	160.937
633.006	140.834
637.66	109.061
642.311	173.593
646.96	202.54
651.606	182.895
656.25	64.7947
660.89	177.682
665.528	38.9653
670.164	226.868
674.797	35.5105
679.427	124.364
684.054	84.668
688.679	19.1809
693.301	50.6694
697.921	68.1834
702.537	22.3318
707.152	107.805
711.763	91.7629
716.372	90.2571
720.978	65.1431
725.582	19.6133
730.183	5.63769
734.781	45.3574
739.377	21.9053
743.97	19.2544
748.561	118.471
753.149	69.8291
757.734	31.9861
762.316	86.1453
766.896	7.63208
771.474	154.446
776.048	65.5857
780.62	104.731
785.19	102.13
789.757	0.025146
794.321	180.435
798.883	123.146
803.442	35.1704
807.998	66.0396
812.552	78.1916
817.103	39.283
821.652	103.721
826.198	33.373
830.741	69.8972
835.282	5.65405
839.82	151.46
844.355	19.1592
848.888	29.5732
853.419	109.811
857.946	292.373
862.472	164.93
866.994	144.967
871.514	161.55
876.032	26.4248
880.546	136.472
885.059	8.2373
889.568	86.8774
894.075	13.9775
898.58	4.68359
903.082	23.2769
907.581	39.0894
912.078	8.47852
916.572	36.583
921.063	113.735
925.552	64.6231
930.039	101.69
934.523	185.17
939.004	222.491
943.483	425.812
947.959	895.154
952.432	1771.12
956.903	4555.54
961.372	19913.2
965.838	40458.6
970.301	11490.2
974.762	3442.1
979.22	1295.95
983.676	520.385
988.129	278.597
992.58	163.371
997.028	118.207
1001.47	239.507
1005.92	287.298
1010.36	605.364
1014.79	504.721
1019.23	202.913
1023.66	307.123
1028.09	491.096
1032.52	950.167
1036.94	1094.94
1041.37	1301.79
1045.79	1615.8
1050.2	2820.56
1054.62	3162.44
1059.03	1625.62
1063.44	953.832
1067.85	551.263
1072.26	530.32
1076.66	1000.37
1081.06	1879.98
1085.45	1058.94
1089.85	482.062
1094.24	212.887
1098.63	163.337
1103.02	241.149
1107.4	0.004883
1111.79	1.87061
1116.17	28.5498
1120.54	169.963
1124.92	265.696
1129.29	134.278
1133.66	44.3672
1138.03	85.6274
1142.39	137.889
1146.75	76.957
1151.11	204.129
1155.47	26.1895
1159.83	152.337
1164.18	5.8291
1168.53	79.8994
1172.87	30.5386
1177.22	63.4805
1181.56	77.0234
1185.9	183.612
1190.24	43.044
1194.57	5.14502
1198.9	93.355
1203.23	6.38769
1207.56	63.1636
1211.89	81.3516
1216.21	91.479
1220.53	128.899
1224.85	112.066
1229.16	213.688
1233.47	197.257
1237.78	141.762
1242.09	99.9072
1246.4	5.55273
1250.7	65.5908
1255	96.1357
1259.3	22.0869
1263.59	183.09
1267.88	107.699
1272.17	117.592
1276.46	147.303
1280.75	55.0967
1285.03	171.533
1289.31	50.4775
1293.59	75.168
1297.87	13.5137
1302.14	128.545
1306.41	216.213
1310.68	92.5342
1314.94	242.476
1319.21	189.888
1323.47	291.31
1327.72	301.719
1331.98	94.5469
1336.23	81.8906
1340.49	178.62
1344.73	98.3281
1348.98	166.349
1353.22	24.9736
1357.47	194.259
1361.7	231.822
1365.94	246.384
1370.17	125.159
1374.41	164.59
1378.64	136.543
1382.86	226.263
1387.09	86.9844
1391.31	169.364
1395.53	308.91
1399.75	183.375
1403.96	241.093
1408.17	149.448
1412.38	155.079
1416.59	308.051
1420.8	241.726
1425	234.542
1429.2	37.9238
1433.4	202.562
1437.59	80.7383
1441.78	19.1836
1445.97	119.47
1450.16	178.741
1454.35	118.62
1458.53	223.926
1462.71	192.659
1466.89	120.101
1471.07	94.041
1475.24	26.7676
1479.41	111.633
1483.58	98.0195
1487.75	115.418
1491.91	8.62988
1496.07	46.7227
1500.23	57.7549
1504.39	181.932
1508.55	83.7061
1512.7	79.7617
1516.85	100.893
1520.99	161.852
1525.14	142.181
1529.28	223.868
1533.42	238.268
1537.56	187.031
1541.7	222.605
1545.83	62.2041
1549.96	280.357
1554.09	174.455
1558.22	138.213
1562.34	112.84
1566.46	76.1826
1570.58	221.938
1574.7	41.998
