Measurement: Raman, 514 nm, ccw, Raman Data Processed
Mineral: Fluorapophyllite-(K)
Rruff sample: R040095
Ideal chemistry: KCa_4_Si_8_O_20_F8H_2_O
Locality: unknown
Source: University of Arizona Mineral Museum
Description: Colorless crystals
Measured chemistry: (K_0.90_Na_0.04_)Ca_3.96_Si_8.00_O_20_(F_0.82_(OH)_0.18_)Â·8H_2_O
Pin_id: L00450
Orientation: Laser parallel to -a* (-1 0 0). Fiducial mark perpendicular to laser is parallel to c [0 0 1]
Raman shift (cm-1)	intensity
79.421	0
84.352	7136.32
89.281	29942.5
94.207	26678.4
99.131	12274.8
104.053	31067.3
108.973	38991.4
113.891	13134.2
118.806	9743.45
123.72	17827.7
128.631	14871.7
133.539	8147.78
138.446	447.353
143.35	2595.33
148.252	108.188
153.152	8059.8
158.05	27136.2
162.945	34340.5
167.838	15078.3
172.729	3101.1
177.618	10158.6
182.504	33049.7
187.388	35383.8
192.27	17829.7
197.149	19550.3
202.027	38746.7
206.902	77290.3
211.775	82151.7
216.645	52202.4
221.513	39448.8
226.379	39354.4
231.243	29605
236.104	14129.3
240.963	5431.18
245.82	1938.16
250.674	1137.19
255.527	2072.75
260.376	5314.38
265.224	9592.14
270.069	7930.01
274.912	4249.52
279.753	4347.14
284.591	7860.19
289.427	14907.8
294.261	26170.4
299.092	26854.5
303.921	15828.5
308.748	7999.4
313.572	5597.47
318.394	5528.95
323.214	6821.31
328.032	9647.61
332.847	13078.2
337.659	14267.6
342.47	9107.91
347.278	3706.96
352.083	1183.72
356.887	89.918
361.688	174.571
366.486	190.918
371.282	263.803
376.076	447.613
380.868	1054.95
385.657	921.435
390.444	587.707
395.228	37.4912
400.01	518.059
404.79	780.823
409.567	1306.54
414.342	2885.49
419.114	7254.83
423.885	18855.6
428.652	46059
433.418	42613.4
438.18	14959.2
442.941	6004.84
447.699	3943.47
452.455	4231.39
457.208	6135.88
461.959	7597.73
466.708	5642.86
471.454	3408.45
476.197	2627.8
480.939	3816.9
485.678	4449.8
490.414	2786.54
495.148	2264.71
499.88	1735.48
504.609	1464.21
509.335	1331.09
514.06	1558.85
518.781	2115.68
523.501	3181.8
528.218	4514.45
532.932	6509.34
537.644	7914.94
542.354	7534.94
547.061	6811.37
551.766	6548.71
556.468	7137.12
561.168	8933.74
565.865	12242.7
570.56	18558.9
575.253	29043.5
579.943	41489.6
584.63	44303.9
589.315	32423.9
593.998	19778.7
598.678	12253.5
603.355	8620.01
608.031	6759.96
612.703	6233.23
617.373	6510.16
622.041	7115.09
626.706	7825.07
631.369	8207.13
636.029	9213.36
640.687	10895.2
645.342	13729
649.995	18448.4
654.645	24219
659.293	29482.6
663.938	30156.7
668.581	24463
673.221	16809.8
677.859	10606.2
682.494	6575
687.126	4167.43
691.756	2505.36
696.384	1391.04
701.009	938.124
705.632	303.835
710.252	18.7441
714.869	36.1904
719.484	154.181
724.097	209.175
728.707	195.083
733.314	354.288
737.919	399.465
742.521	345.175
747.121	35.8262
751.718	451.604
756.313	1405.12
760.905	2855.75
765.494	4108.47
770.081	3083.94
774.666	2571.86
779.248	1867.85
783.827	2980.02
788.404	5363.43
792.978	5599.37
797.55	3122.11
802.119	1659.23
806.685	1143.61
811.249	1209.61
815.811	1366.12
820.37	1656.12
824.926	2037.57
829.479	2827.48
834.031	2862.82
838.579	3096.59
843.125	2760.78
847.668	2363.36
852.209	2074.13
856.747	1813.23
861.283	1545.64
865.816	1066.94
870.346	668.313
874.874	506.455
879.399	305.3
883.921	125.319
888.441	159.45
892.959	367.459
897.473	227.575
901.986	181.644
906.495	50.6084
911.002	85.5635
915.506	46.832
920.008	118.987
924.507	31.6201
929.004	28.6514
933.497	21.8506
937.989	129.794
942.477	218.18
946.963	360.15
951.446	480.989
955.927	683.404
960.405	882.052
964.881	1346.77
969.353	2369.13
973.824	1670.39
978.291	986.556
982.756	813.642
987.218	921.677
991.678	1318.83
996.135	2177.63
1000.59	4074.54
1005.04	6457.02
1009.49	6043.69
1013.94	3358.35
1018.38	2204.99
1022.82	2199.79
1027.26	2754.29
1031.69	3624.62
1036.13	5504.71
1040.56	7929.83
1044.99	12189.5
1049.41	22904.2
1053.83	45801.4
1058.25	81578.2
1062.67	69748.2
1067.09	32516.5
1071.5	14725.3
1075.9	7336.46
1080.31	4453.68
1084.71	3388.18
1089.12	2887.31
1093.52	1937.38
1097.91	1158.09
1102.3	1300.41
1106.69	1080.71
1111.08	1485.83
1115.47	1961.84
1119.85	1100.78
1124.23	420.732
1128.6	308.532
1132.98	72.1885
1137.35	55.6787
1141.72	6.91016
1146.08	20.3564
1150.45	107.275
1154.81	121.039
1159.17	69.8701
1163.52	28.3633
1167.87	15.8965
1172.22	131.102
1176.57	83.9756
1180.91	114.506
1185.26	65.7607
1189.6	223.867
1193.93	89.5039
1198.27	84.6289
1202.6	176.977
1206.92	66.4893
1211.25	209.895
1215.57	119.516
1219.89	268.94
1224.21	184.482
1228.52	220.98
1232.83	203.316
1237.14	316.433
1241.45	360.798
1245.75	343.261
1250.05	471.378
1254.35	319.065
1258.65	303.25
1262.94	267.25
1267.23	452.127
1271.52	320.728
1275.8	520.554
1280.08	301.493
1284.36	355.746
1288.64	395.995
1292.91	355.994
1297.18	204.221
1301.45	252.067
1305.71	218.985
1309.97	346.554
1314.23	353.9
1318.49	297.767
1322.74	395.644
1327	115.266
1331.24	152.393
1335.49	122.696
1339.73	115.761
1343.97	246.436
1348.21	80.4297
1352.44	117.031
1356.68	50.2197
1360.91	186.993
1365.13	66.207
1369.36	108.517
1373.58	169.362
1377.79	86.9385
1382.01	92.9453
1386.22	94.5049
1390.43	46.6065
1394.64	30.2031
1398.84	109.348
1403.04	83.3213
1407.24	102.234
1411.44	14.8359
1415.63	68.9971
1419.82	20.8184
1424.01	107.263
1428.19	99.9287
1432.37	124.838
1436.55	120.82
1440.73	457.782
1444.9	511.794
1449.07	372.29
1453.24	585.787
1457.4	548.336
1461.57	459.173
1465.72	413.676
1469.88	676.281
1474.04	458.126
1478.19	392.499
1482.33	296.438
1486.48	360.96
1490.62	411.523
1494.76	430.214
1498.9	303.231
1503.03	523.244
1507.16	467.505
1511.29	561.494
1515.42	525.83
1519.54	422.166
1523.66	519.001
1527.78	484.571
1531.89	382.911
1536	377.476
1540.11	282.712
1544.21	253.612
1548.32	256.053
1552.42	124.929
1556.52	184.877
1560.61	95.0674
1564.7	141.492
1568.79	149.011
1572.88	98.4356
1576.96	0
