Measurement: Raman, 514 nm, ccw, Raman Data Processed
Mineral: Fluorophlogopite
Rruff sample: R040042
Ideal chemistry: KMg_3_(Si_3_Al)O_10_F_2_
Locality: Franklin, Sussex County, New Jersey, USA
Source: University of Arizona Mineral Museum
Description: Brown flattened hexagonal prism, polytype 1M
Measured chemistry: (K_0.92_Na_0.08_)_Σ=1_(Mg_2.95_Fe_0.05_)_Σ=3_(Si_3.00_Al_1.00_)O_10_(F_1.40_(OH)_0.60_)_Σ=2_; trace amounts of Ti; OH estimated by charge balance
Pin_id: L00540
Orientation: Laser parallel to -a* (-1 0 0). Fiducial mark perpendicular to laser is parallel to -b [0 -1 0]
Raman shift (cm-1)	intensity
128.807	0
133.726	343.305
138.642	103.766
143.556	780.188
148.468	569.469
153.377	750.82
158.283	883.992
163.187	1483.31
168.088	2844.98
172.987	3827.41
177.884	6062.05
182.778	11772.5
187.67	24879.5
192.559	47797.9
197.445	68611.6
202.33	49560.2
207.211	20208.1
212.091	9686.41
216.967	6477.14
221.842	4761.12
226.713	2851.57
231.583	2485.84
236.449	1523.12
241.314	1849.49
246.176	1650.7
251.035	1353.09
255.892	2023.63
260.746	3152.97
265.598	4425.7
270.448	8129.07
275.295	14656
280.139	19320.5
284.981	13662.3
289.82	6936.46
294.657	5480.68
299.492	4203.41
304.324	5344.42
309.153	7832.72
313.98	10563.5
318.805	13783.3
323.627	13723.6
328.446	11204.2
333.263	8343.95
338.078	5640.25
342.89	3866.72
347.699	3211.84
352.506	3304.33
357.311	4165.31
362.113	5210.23
366.912	4527.78
371.709	3961.14
376.504	2700.19
381.295	2069.81
386.085	982.516
390.872	872.078
395.656	1446.48
400.438	1315.12
405.218	684.859
409.994	830.281
414.769	283.844
419.541	52.4062
424.31	213.719
429.077	345.594
433.841	902.734
438.603	1319.92
443.362	1574.45
448.119	1881.53
452.873	2405.06
457.625	2052.39
462.374	1446.69
467.121	653.812
471.865	294.875
476.607	113.031
481.346	299.438
486.082	136.969
490.816	412.169
495.548	151.859
500.277	54.7344
505.003	322.719
509.727	511.5
514.449	536.891
519.168	536.781
523.884	426.953
528.598	72.75
533.309	64.4062
538.018	615.578
542.724	532.156
547.428	100.859
552.129	13.9219
556.828	9.53125
561.524	464.031
566.217	120.562
570.909	571.047
575.597	95.2969
580.283	69.0781
584.966	219.844
589.647	24.75
594.326	183.953
599.001	756.125
603.675	911.25
608.345	1052.84
613.014	1441.12
617.679	2027.97
622.342	3459.53
627.003	4643.06
631.661	6311.33
636.316	8464.28
640.969	9151.91
645.62	9217.22
650.267	9363.23
654.913	9642.86
659.555	10870.8
664.196	13508.2
668.833	18342.6
673.468	25123.5
678.101	36958.8
682.731	43759.6
687.358	39770.6
691.983	28019.9
696.605	17060.7
701.225	10599.5
705.842	6400.22
710.457	3693.42
715.069	3223.73
719.679	2330.23
724.286	1557.88
728.89	1451.41
733.492	1507.3
738.091	2437.36
742.688	889.391
747.282	1340.94
751.874	1613.25
756.463	1164.47
761.05	953.391
765.634	925.781
770.215	764.859
774.794	883.641
779.37	972.438
783.944	1022.88
788.515	1692.12
793.084	1657.31
797.65	1064.69
802.213	1091.77
806.774	1424.17
811.332	723.047
815.888	1226.72
820.441	352.781
824.992	549.297
829.54	825.734
834.085	121.516
838.628	509.641
843.169	52.6562
847.706	192.078
852.242	305.422
856.774	336.031
861.304	885.141
865.832	66.8594
870.357	580.234
874.879	255.891
879.399	289.094
883.916	371.797
888.431	19.0469
892.943	1334.02
897.452	1050.73
901.959	1049.27
906.463	2030.39
910.965	1010.42
915.464	567.156
919.961	1330.53
924.455	1196.86
928.946	1320.75
933.435	816.469
937.922	1760.52
942.405	1104.59
946.886	1164.53
951.365	720.297
955.841	1086.41
960.314	126.844
964.785	1659.8
969.253	1990.39
973.719	1360.77
978.182	1171.3
982.642	1985.55
987.1	1877.88
991.556	1526
996.008	2477.08
1000.46	2089.17
1004.91	2207.3
1009.35	3450.17
1013.79	3252.84
1018.23	3023.62
1022.67	3796.2
1027.11	7447.42
1031.54	13455.8
1035.97	17723.3
1040.39	15344.7
1044.82	8657.41
1049.24	5511.09
1053.66	3399.55
1058.08	2834.25
1062.49	1626.84
1066.9	1408.72
1071.31	960.688
1075.71	981.75
1080.12	1316.31
1084.52	3124.44
1088.92	5092.41
1093.31	2638.34
1097.71	1255.56
1102.1	2271.81
1106.48	2501.44
1110.87	1776.84
1115.25	2020.88
1119.63	136.728
1124.01	333.285
1128.39	66.9375
1132.76	647.375
1137.13	864.5
1141.5	197.938
1145.86	298.281
1150.22	205.719
1154.58	678.344
1158.94	1632.5
1163.29	1210.97
1167.64	988.031
1171.99	1094.5
1176.34	1460.34
1180.68	213.438
1185.03	982.656
1189.36	663.125
1193.7	428.989
1198.03	819.781
1202.36	308.062
1206.69	641.031
1211.02	1407
1215.34	1380.06
1219.66	193.25
1223.98	862.5
1228.3	648.188
1232.61	141.688
1236.92	939.719
1241.22	376.812
1245.53	1233.28
1249.83	2148.09
1254.13	265.719
1258.43	108.25
1262.72	350.188
1267.02	228.469
1271.3	742.375
1275.59	476.656
1279.88	69.2812
1284.16	2058.22
1288.43	320.438
1292.71	1511.03
1296.98	1723.09
1301.26	633.719
1305.52	1041.47
1309.79	1515.53
1314.05	714.375
1318.31	1493.41
1322.57	1176.09
1326.83	1338.69
1331.08	1430.94
1335.33	941.219
1339.58	1469
1343.82	1293.28
1348.07	872.719
1352.31	1975.16
1356.54	1245.81
1360.78	297.344
1365.01	1212.44
1369.24	566.438
1373.46	1408.84
1377.69	569.812
1381.91	929.344
1386.13	1408.25
1390.35	102.406
1394.56	1307.34
1398.77	839.062
1402.98	756.5
1407.18	541.219
1411.39	622.812
1415.59	304.75
1419.79	1074.47
1423.98	132.156
1428.17	661.156
1432.36	563.875
1436.55	602.188
1440.74	821.375
1444.92	3.5625
1449.1	972.656
1453.28	215.906
1457.45	1128.06
1461.62	1388.09
1465.79	2509.22
1469.96	2074.94
1474.12	1330.66
1478.28	905.562
1482.44	241.969
1486.6	678
1490.75	748.719
1494.9	466.5
1499.05	224.25
1503.19	579.438
1507.34	882.5
1511.48	2860.19
1515.62	2174.5
1519.75	2587.91
1523.88	1245.25
1528.02	2708.44
1532.14	2957.62
1536.27	1564.59
1540.39	2421.69
1544.51	1191.47
1548.62	1813.69
1552.74	2361.22
1556.85	1597.12
1560.96	1984.94
1565.07	1545.78
1569.17	1338.44
1573.27	2951.22
1577.37	2319.59
