Measurement: Raman, 514 nm, ccw, Raman Data Processed
Mineral: Fluorophlogopite
Rruff sample: R040042
Ideal chemistry: KMg_3_(Si_3_Al)O_10_F_2_
Locality: Franklin, Sussex County, New Jersey, USA
Source: University of Arizona Mineral Museum
Description: Brown flattened hexagonal prism, polytype 1M
Measured chemistry: (K_0.92_Na_0.08_)_Σ=1_(Mg_2.95_Fe_0.05_)_Σ=3_(Si_3.00_Al_1.00_)O_10_(F_1.40_(OH)_0.60_)_Σ=2_; trace amounts of Ti; OH estimated by charge balance
Pin_id: L01769
Orientation: Laser parallel to b* (0 1 0). Fiducial mark perpendicular to laser is parallel to -c [0 0 -1]
Raman shift (cm-1)	intensity
78.956	0
83.945	4888.52
88.931	12659.2
93.913	23103.7
98.892	36031
103.868	51242.2
108.841	39227.7
113.81	19671.2
118.777	13322
123.74	9065.64
128.699	6006.07
133.656	3516.71
138.609	2183.27
143.559	874.211
148.505	12.7754
153.449	1087.39
158.389	902.74
163.326	471.731
168.26	595.979
173.19	1316.46
178.118	3461.7
183.042	7665.78
187.963	18707.9
192.881	42444.8
197.796	63786.2
202.707	45077.3
207.615	19268.9
212.52	8134.44
217.422	3530.61
222.321	1567.5
227.217	509.379
232.109	244.629
236.999	8.2793
241.885	39.5059
246.768	23.7793
251.648	156.221
256.525	172.824
261.399	945.695
266.269	2738.5
271.137	6926.71
276.001	13293
280.862	18065.1
285.721	12033.8
290.576	7211.32
295.428	6235.27
300.277	7130.99
305.123	10568.9
309.966	17029
314.805	23349
319.642	24505.6
324.476	22172
329.306	16893.9
334.134	10493.2
338.959	6532.31
343.78	4343.4
348.599	3161.25
353.414	2855.25
358.226	3203.55
363.036	3643.99
367.842	5378.83
372.646	6942.11
377.446	5544.71
382.244	3594.75
387.038	2421.99
391.83	1887.42
396.618	1498.07
401.404	1461.17
406.186	1427.2
410.966	1223.07
415.742	773.797
420.516	561.287
425.287	30.334
430.055	208.857
434.819	144.475
439.581	81.3789
444.34	555.6
449.096	473.668
453.85	779.832
458.6	1064.63
463.347	1892.7
468.091	2377.03
472.833	1136.69
477.572	80.5156
482.307	57.6133
487.04	60.5332
491.77	71.7793
496.497	471.9
501.221	874.252
505.943	1627.9
510.661	3350.88
515.377	3281.21
520.089	2198.18
524.799	1119.4
529.506	759.533
534.21	559.174
538.912	137.557
543.61	64.2695
548.306	118.799
552.999	198.9
557.689	125.51
562.376	399.893
567.061	307.898
571.742	41.2383
576.421	106.068
581.097	2.07031
585.77	238.81
590.441	327.346
595.108	171.418
599.773	31.2871
604.435	41.0176
609.095	764.867
613.751	1414.93
618.405	2510.26
623.056	4107.67
627.705	5572.8
632.35	8631.68
636.993	10022.3
641.633	11257
646.271	12071.6
650.905	12046.8
655.537	13677.6
660.166	15577
664.793	19353.1
669.416	26408.8
674.038	39480.3
678.656	59064.8
683.272	74418.9
687.885	69585.3
692.495	51563.6
697.102	33502.9
701.707	19624.5
706.31	12083.5
710.909	8527.02
715.506	7642.46
720.1	6687.74
724.692	5532.12
729.281	4176.2
733.867	3665.55
738.451	3353.17
743.032	2669.65
747.61	2607.2
752.186	2303.42
756.759	1889.32
761.329	1621.21
765.897	1328.31
770.462	1427.71
775.025	1732.25
779.585	2053.61
784.142	2538.4
788.697	1650.98
793.249	1510.82
797.799	1603.43
802.346	1301.04
806.89	921.348
811.432	657.106
815.971	818.902
820.508	648.5
825.042	640.438
829.574	569.457
834.103	245.199
838.63	366.41
843.153	718.59
847.675	408.777
852.194	258.023
856.71	379.301
861.224	659.078
865.735	205.481
870.244	367.664
874.75	8.32031
879.254	413.254
883.755	19.4062
888.254	22.9102
892.75	85.8906
897.244	270.648
901.735	197.16
906.223	329.773
910.71	206.598
915.193	147.133
919.675	248.312
924.153	354.223
928.63	553.859
933.104	310.219
937.575	72.2969
942.044	44.8906
946.51	2.06641
950.974	31.6406
955.436	27.1445
959.895	24.2734
964.352	159.598
968.806	314.125
973.258	721.312
977.707	1084.02
982.154	1517.7
986.599	1602.88
991.041	2346.73
995.481	4055.23
999.918	7237.38
1004.35	12759.2
1008.78	6064.77
1013.22	3586.93
1017.64	2667.25
1022.07	2544.75
1026.49	4060.79
1030.91	7108.45
1035.33	8469.11
1039.75	6850.32
1044.16	4525.61
1048.57	3357.08
1052.98	3344.25
1057.39	2716.11
1061.79	2927.42
1066.19	3521.68
1070.59	3212.02
1074.99	4277.4
1079.38	5252.17
1083.78	6722.41
1088.16	7952.89
1092.55	8602.46
1096.94	8499.15
1101.32	8895.51
1105.7	7592.97
1110.08	6010.33
1114.46	3951.59
1118.83	2333.78
1123.2	923.906
1127.57	322.957
1131.94	219.969
1136.3	419.941
1140.66	291.047
1145.03	65.2227
1149.38	63.6602
1153.74	300.75
1158.09	565.617
1162.44	258.871
1166.79	50.8398
1171.14	243.527
1175.48	138.356
1179.82	444.231
1184.16	604.203
1188.5	921.25
1192.84	809.394
1197.17	791.629
1201.5	638.973
1205.83	128.562
1210.15	477.316
1214.48	67.6367
1218.8	181.832
1223.12	400.809
1227.44	714.141
1231.75	1123.64
1236.07	819.305
1240.38	573.133
1244.68	608.113
1248.99	415.246
1253.3	574.539
1257.6	793.012
1261.9	440.856
1266.2	1171.9
1270.49	1311.94
1274.79	1365.68
1279.08	2259.76
1283.37	3807.83
1287.65	4589.38
1291.94	4498.23
1296.22	4044.54
1300.5	3329.97
1304.78	2710.36
1309.05	2231.45
1313.33	2326.7
1317.6	1669.1
1321.87	1392.68
1326.14	1014.5
1330.4	1221.41
1334.67	645.43
1338.93	369.699
1343.19	496.922
1347.44	774.707
1351.7	626.391
1355.95	237.004
1360.2	242.09
1364.45	258.469
1368.7	533.473
1372.94	526.211
1377.18	588.273
1381.42	214.273
1385.66	480.262
1389.9	50.6484
1394.13	23.75
1398.37	264.445
1402.6	145.328
1406.82	110.234
1411.05	89.418
1415.27	23.6992
1419.49	253.582
1423.71	502.289
1427.93	776.695
1432.15	1687.97
1436.36	2363.77
1440.57	3530.58
1444.78	4190.79
1448.99	3648.21
1453.19	3195.64
1457.4	2961.4
1461.6	2547.75
1465.8	2122.46
1469.99	1834.5
1474.19	1511.89
1478.38	1174.73
1482.58	741.07
1486.77	1429.46
1490.95	1022.45
1495.14	1040.09
1499.32	960.945
1503.5	94.2383
1507.68	348.258
1511.86	205.254
1516.03	172.367
1520.21	348.559
1524.38	404.875
1528.55	437.324
1532.72	254.547
1536.88	95.3516
1541.05	275.797
1545.21	749.398
1549.37	402.168
1553.53	657.754
1557.68	819.742
1561.84	461.652
1565.99	839.945
1570.14	856.184
1574.29	192.453
1578.43	141.922
