Measurement: Raman, 514 nm, depolarized, Raman Data Processed
Mineral: Fluorapatite
Rruff sample: R060421
Ideal chemistry: Ca_5_(PO_4_)_3_F
Locality: Levant mine, St. Just, Cornwall, England
Source: Michael Scott
Description: Brown hexagonal prisms
Measured chemistry: (Ca_4.93_[box]_0.07_)_Σ=5_((PO_4_)_2.86_(CO_3_)_0.14_)_Σ=3_F_1.00_ ; C not measured but estimated by difference and charge balance
Pin_id: M00074
Orientation: Laser parallel to a* (1 0 0). Fiducial mark perpendicular to laser is parallel to -c [0 0 -1]
Raman shift (cm-1)	intensity
124.288	0
129.209	71.1484
134.127	37.2017
139.043	33.0332
143.956	43.4873
148.867	74.3525
153.775	40.073
158.681	53.3374
163.585	73.738
168.486	54.6797
173.385	15.0962
178.282	94.1809
183.176	98.2246
188.067	92.9563
192.956	66.1042
197.843	55.8547
202.727	122.814
207.609	22.023
212.489	7.60962
217.366	133.244
222.24	121.74
227.112	86.8032
231.982	112.044
236.849	93.5549
241.714	129.963
246.577	68.4697
251.437	35.7961
256.294	95.6453
261.149	102.412
266.002	63.6907
270.852	69.2749
275.7	100.908
280.545	126.565
285.388	71.9751
290.229	23.6323
295.067	40.3623
299.902	62.1702
304.735	94.7695
309.566	146.543
314.394	61.7256
319.22	55.1977
324.043	92.2695
328.864	99.9546
333.682	17.8271
338.498	42.9199
343.311	71.4014
348.122	89.4023
352.931	195.561
357.737	54.9541
362.54	100.575
367.341	110.596
372.14	172.659
376.936	42.7446
381.73	168.348
386.521	72.3115
391.31	103.501
396.096	74.8374
400.88	134.607
405.661	39.3838
410.44	217.332
415.216	118.974
419.99	174.302
424.761	215.032
429.53	201.589
434.297	107.557
439.061	227.527
443.822	183.207
448.581	99.2241
453.337	204.349
458.091	87.4004
462.843	49.0322
467.592	50.917
472.338	53.9907
477.082	108.827
481.824	9.18506
486.563	95.2676
491.3	6.56836
496.034	28.5444
500.765	26.7661
505.494	62.1924
510.221	33.3027
514.945	3.93262
519.666	70.5791
524.385	38.8232
529.102	91.8428
533.816	83.7803
538.527	49.9111
543.236	109.981
547.943	27.3779
552.647	70.2402
557.348	159.88
562.047	135.121
566.744	160.779
571.438	322.907
576.129	202.874
580.818	219.101
585.504	335.904
590.188	310.805
594.87	320.829
599.549	283.003
604.225	378.366
608.899	372.862
613.57	284.283
618.239	369.017
622.905	357.071
627.569	412.378
632.23	342.204
636.889	395.634
641.545	337.765
646.198	442.397
650.849	393.306
655.498	312.445
660.144	392.731
664.787	397.41
669.428	564.336
674.067	553.438
678.703	516.194
683.336	445.309
687.967	448.491
692.595	637.03
697.221	530.894
701.844	455.641
706.465	386.734
711.083	438.309
715.698	675.021
720.311	489.014
724.922	566.481
729.53	602.244
734.135	447.801
738.738	683.041
743.338	599.408
747.936	317.273
752.531	530.08
757.124	499.65
761.714	288.107
766.302	409.756
770.887	482.664
775.469	337.375
780.049	457.719
784.626	489.725
789.201	368.742
793.773	414.35
798.343	388.877
802.91	363.699
807.475	582.652
812.037	261.023
816.596	318.459
821.153	381.049
825.707	219.353
830.259	350.328
834.808	359.99
839.355	405.523
843.899	356.478
848.441	135.031
852.98	306.144
857.516	149.109
862.05	332.01
866.581	309.543
871.11	225.609
875.636	124.164
880.159	193.152
884.68	67.7207
889.199	74.4941
893.714	143.18
898.228	81.3047
902.738	1.20898
907.246	116.475
911.752	139.789
916.255	101.023
920.755	116.248
925.253	5.375
929.748	133.195
934.241	19.7832
938.731	54.8848
943.218	16.1602
947.703	90.8769
952.186	413.373
956.665	947.297
961.142	1530.34
965.617	1208.86
970.089	472.443
974.558	211.457
979.025	23.9258
983.489	105.748
987.951	77.9531
992.41	41.7344
996.866	94.8789
1001.32	78.3574
1005.77	88.7812
1010.22	148.006
1014.67	47.127
1019.11	82.8398
1023.55	40.4727
1027.99	118.768
1032.42	97.1426
1036.86	210.041
1041.29	245.006
1045.72	433.633
1050.14	407.301
1054.56	223.613
1058.98	148.832
1063.4	40.3242
1067.82	340.621
1072.23	301.715
1076.64	144.57
1081.05	322.578
1085.45	300.606
1089.85	416.828
1094.25	383.371
1098.65	435.285
1103.04	543.59
1107.43	328.152
1111.82	438.449
1116.21	658.25
1120.59	609.633
1124.97	614.469
1129.35	483.344
1133.73	669.938
1138.1	627.305
1142.47	639.547
1146.84	658.734
1151.21	1054.87
1155.57	1071
1159.93	666.051
1164.29	1054.99
1168.64	940.758
1172.99	615.012
1177.34	1137.21
1181.69	1169.89
1186.04	763.117
1190.38	956.344
1194.72	908.363
1199.05	928.922
1203.39	812.926
1207.72	1071.29
1212.05	773.957
1216.37	1102.81
1220.7	788.996
1225.02	768.406
1229.34	678.039
1233.65	895.586
1237.97	582.961
1242.28	789.363
1246.59	707.125
1250.89	387.359
1255.19	301.148
1259.49	626.555
1263.79	602.859
1268.09	495.023
1272.38	443.289
1276.67	415.125
1280.95	256.148
1285.24	254.07
1289.52	204.223
1293.8	262.082
1298.08	533.926
1302.35	83.1055
1306.62	183.305
1310.89	154.047
1315.15	172.125
1319.42	403.496
1323.68	198.43
1327.94	327.098
1332.19	292.871
1336.44	129.09
1340.69	73.0586
1344.94	368.09
1349.19	327.199
1353.43	267.359
1357.67	11.5195
1361.9	92.4023
1366.14	197.031
1370.37	117.934
1374.6	254.215
1378.83	240.894
1383.05	119.117
1387.27	28.7734
1391.49	265.856
1395.7	67.6367
1399.92	124.789
1404.13	281.875
1408.34	79.3281
1412.54	263.559
1416.74	11.7109
1420.94	146.121
1425.14	284.457
1429.34	52.5938
1433.53	108.027
1437.72	173.43
1441.9	269.957
1446.09	168.242
1450.27	323.707
1454.45	308.332
1458.63	272.266
1462.8	314.555
1466.97	98.3711
1471.14	530.527
1475.31	39.6328
1479.47	207.258
1483.63	556.668
1487.79	194.766
1491.94	375.918
1496.09	316.777
1500.24	176.965
1504.39	225.5
1508.54	306.684
1512.68	5.77344
1516.82	353.973
1520.95	373.363
1525.09	48.2422
1529.22	476.352
1533.35	319.273
1537.47	359.117
1541.6	493.652
1545.72	202.066
1549.83	293.25
1553.95	440.469
1558.06	406.977
1562.17	18.1914
1566.28	313.707
1570.38	39.9805
