Measurement: Raman, 514 nm, depolarized, Raman Data Processed
Mineral: Fluorapatite
Rruff sample: R060184
Ideal chemistry: Ca_5_(PO_4_)_3_F
Locality: Yates mine, Otter Lake, Quebec, Canada
Source: Lloyd Twaites
Description: Green colored fragment of a hexagonal prism
Measured chemistry: (Ca_0.99_Ce_0.01_)_5.00_((P_0.98_Si_0.01_S_0.01_)O_4_)_3_F_1.00_
Pin_id: M00887
Orientation: Laser parallel to c* (0 0 1). Fiducial mark perpendicular to laser is parallel to a [1 0 0]
Raman shift (cm-1)	intensity
170.559	0
175.467	0.156738
180.372	79.4841
185.274	76.5693
190.174	59.0957
195.072	45.9961
199.967	114.481
204.859	144.864
209.749	196.729
214.637	257.897
219.521	219.791
224.404	347.322
229.284	447.683
234.161	369.225
239.036	260.704
243.908	312.317
248.777	329.231
253.645	398.338
258.509	626.104
263.371	839.658
268.231	947.685
273.088	761.761
277.942	675.422
282.794	557.036
287.643	492.556
292.49	489.522
297.335	544.874
302.176	651.436
307.015	684.517
311.852	668.695
316.686	448.221
321.518	404.89
326.347	228.171
331.173	197.874
335.997	100.24
340.819	74.4775
345.638	81.7974
350.454	0.480957
355.268	10.8135
360.079	10.3262
364.888	14.4556
369.694	30.6992
374.498	48.4971
379.299	60.3897
384.097	131.561
388.893	140.038
393.686	111.788
398.477	185.3
403.266	235.778
408.051	377.715
412.835	397.33
417.615	666.127
422.394	1113.41
427.169	1806.87
431.942	2192.64
436.713	2259.8
441.481	2607.38
446.246	2649.41
451.009	2012.9
455.769	1356.87
460.527	958.29
465.282	607.011
470.035	454.949
474.785	330.94
479.532	213.657
484.277	206.184
489.02	181.682
493.76	106.903
498.497	9.80469
503.232	28.9311
507.964	2.01318
512.693	35.708
517.421	50.8242
522.145	27.8159
526.867	93.3247
531.587	76.6504
536.303	0.544922
541.018	31.5713
545.729	100.572
550.439	108.649
555.145	131.188
559.849	357.512
564.551	467.277
569.25	804.731
573.946	1777.63
578.64	3521.66
583.331	2495.27
588.02	1752.44
592.706	1293.41
597.39	1088.48
602.071	1478.96
606.749	1869.53
611.425	1466.9
616.099	1317.32
620.769	540.907
625.438	405.343
630.103	451.268
634.766	612.139
639.427	771.523
644.085	825.483
648.74	732.258
653.393	847.338
658.044	752.412
662.691	596.091
667.336	393.454
671.979	339.262
676.619	335.418
681.257	173.057
685.892	152.721
690.524	180.665
695.154	74.0644
699.781	85.0361
704.406	81.0029
709.028	228.872
713.647	183.239
718.264	252.425
722.878	129.858
727.49	108.469
732.1	30.0293
736.706	162.8
741.31	95.2871
745.912	195.525
750.511	49.5039
755.107	83.2334
759.701	80.8603
764.292	202.905
768.881	98.874
773.467	169.618
778.051	203.217
782.632	224.679
787.21	120.874
791.786	56.4473
796.359	112.485
800.93	51.7471
805.498	1.2041
810.064	111.736
814.627	6.2959
819.187	124.534
823.745	130.789
828.301	62.8779
832.853	22.998
837.403	145.999
841.951	151.085
846.496	46.6514
851.038	260.518
855.578	156.356
860.116	291.434
864.65	397.009
869.183	309.035
873.712	184.787
878.239	69.2285
882.764	58.2588
887.285	83.7734
891.805	103.025
896.322	0.948242
900.836	73.4316
905.347	168.735
909.856	58.2637
914.363	75.293
918.867	72.4238
923.368	40.4951
927.867	142.164
932.363	238.886
936.856	440.277
941.347	1057.29
945.836	2094.59
950.322	4384.45
954.805	10910.1
959.286	28518.6
963.764	45352.3
968.239	23077.8
972.712	7222.7
977.183	2501.5
981.65	1012.64
986.116	439.293
990.578	156.043
995.038	29.8203
999.496	351.471
1003.95	583.439
1008.4	1015.45
1012.85	735.146
1017.3	526.988
1021.75	682.188
1026.19	1174.03
1030.63	1839.66
1035.06	1598.38
1039.5	1202.57
1043.93	1008.1
1048.36	1046.73
1052.79	954.894
1057.21	1462.84
1061.63	1481.52
1066.05	1250.56
1070.47	1595.98
1074.88	1159.79
1079.29	821.082
1083.7	540.867
1088.11	245.17
1092.51	45.9355
1096.91	85.2422
1101.31	17.9492
1105.7	69.9316
1110.1	300.562
1114.49	166.994
1118.88	205.963
1123.26	295.609
1127.64	234.836
1132.02	169.494
1136.4	123.609
1140.78	156.43
1145.15	300.586
1149.52	250.32
1153.89	62.0469
1158.25	319.713
1162.61	50.9844
1166.97	329.764
1171.33	176.318
1175.68	217.348
1180.04	229.119
1184.39	285.531
1188.73	188.65
1193.08	162.43
1197.42	128.812
1201.76	200.787
1206.1	353.371
1210.43	124.561
1214.76	245.35
1219.09	224.74
1223.41	258.734
1227.74	141.332
1232.06	207.42
1236.38	157.762
1240.69	320.107
1245.01	214.053
1249.32	131.6
1253.63	2.25391
1257.93	167.621
1262.23	24.8613
1266.54	85.8731
1270.83	48.127
1275.13	178.869
1279.42	169.008
1283.71	137.406
1288	82.5664
1292.28	29.125
1296.57	20.7246
1300.85	204.916
1305.12	46.1504
1309.4	262.975
1313.67	401.389
1317.94	236.367
1322.21	277.83
1326.47	360.779
1330.73	369.219
1334.99	147.144
1339.25	246.523
1343.5	194.418
1347.75	542.799
1352	188.672
1356.25	300.031
1360.49	184.783
1364.73	183.06
1368.97	287.264
1373.21	175.682
1377.44	234.606
1381.67	127.094
1385.9	131.336
1390.13	294.603
1394.35	241.635
1398.57	196.008
1402.79	331.227
1407	264.178
1411.22	309.4
1415.43	148.523
1419.63	293.293
1423.84	91.5449
1428.04	407.529
1432.24	324.002
1436.44	193.721
1440.63	341.617
1444.83	262.971
1449.02	196.115
1453.2	186.889
1457.39	124.289
1461.57	359.31
1465.75	264.988
1469.93	340.252
1474.1	189.094
1478.27	146.408
1482.44	238.662
1486.61	258.055
1490.77	263.566
1494.93	198.781
1499.09	154.621
1503.25	386.898
1507.4	98.8242
1511.55	303.953
1515.7	175.367
1519.85	240.633
1523.99	229.506
1528.13	213.602
1532.27	153.736
1536.4	319.891
1540.54	275.26
1544.67	37.9082
1548.8	23.4336
1552.92	421.375
1557.05	231.996
1561.16	139.537
1565.28	0
