Measurement: Raman, 514 nm, depolarized, Raman Data Processed
Mineral: Fluorophlogopite
Rruff sample: R040075
Ideal chemistry: KMg_3_(Si_3_Al)O_10_F_2_
Locality: unknown
Source: University of Arizona Mineral Museum
Description: Green hexagonal tablet
Measured chemistry: (K_0.93_[box]_0.04_Na_0.03_)(Mg_0.66_Fe_0.30_Ti_0.02_)_3_(Si_0.75_Al_0.25_)_4_O_10_(F_0.90_(OH)_0.06_Cl_0.04_)
Pin_id: L00309
Orientation: Laser parallel to -b* (0 -1 0). Fiducial mark perpendicular to laser is parallel to -c [0 0 -1]
Raman shift (cm-1)	intensity
130.367	0
134.532	7.907
138.695	39.995
142.856	13.116
147.014	56.345
151.171	182.78
155.325	296.489
159.478	602.212
163.629	985.146
167.777	1671.33
171.924	2893.57
176.068	4690.35
180.211	7763.45
184.351	11508.1
188.49	13010.6
192.626	10492.6
196.761	7010.37
200.893	4064.57
205.024	2259.86
209.152	1317.47
213.279	912.447
217.403	468.896
221.526	271.569
225.646	88.053
229.765	68.129
233.881	2.663
237.996	18.63
242.108	2.304
246.219	16.754
250.328	1.552
254.434	54.574
258.539	140.398
262.641	269.772
266.742	515.598
270.84	833.757
274.937	1230.6
279.032	1200.26
283.125	1043.88
287.215	760.421
291.304	481.283
295.391	386.477
299.476	465.872
303.558	634.823
307.639	764.073
311.718	853.229
315.795	910.521
319.87	953.188
323.943	840.718
328.014	633.078
332.083	556.16
336.15	473.107
340.215	299.865
344.279	280.03
348.34	376.955
352.399	248.743
356.457	235.401
360.512	235.3
364.565	184.724
368.617	213.695
372.666	196.203
376.714	112.238
380.76	142.782
384.803	149.829
388.845	113.321
392.885	103.8
396.923	132.12
400.959	128.377
404.993	52.492
409.025	86.638
413.055	38.399
417.084	41.318
421.11	6.379
425.134	44.394
429.157	37.408
433.177	45.217
437.196	20.304
441.213	51.23
445.227	29.427
449.24	53.74
453.251	5.265
457.26	9.158
461.267	74.604
465.272	1.842
469.276	12.304
473.277	3.021
477.276	54.718
481.274	93.954
485.27	157.709
489.263	175.001
493.255	145.848
497.245	232.27
501.233	234.063
505.219	281.38
509.203	229.229
513.186	277.105
517.166	241.01
521.145	316.822
525.121	315.989
529.096	303.788
533.069	258.076
537.04	266.676
541.009	315.611
544.976	315.883
548.941	227.667
552.905	349.579
556.866	310.656
560.826	277.512
564.784	285.487
568.74	207.023
572.694	300.46
576.646	248.797
580.596	222.902
584.544	274.364
588.491	243.917
592.435	231.302
596.378	315.983
600.319	424.392
604.258	476.643
608.195	654.828
612.131	839.023
616.064	1119.33
619.995	1318.47
623.925	1534.75
627.853	1644.62
631.779	1652
635.703	1613.68
639.625	1645.84
643.546	1628.46
647.464	1786.2
651.381	2016.21
655.296	2353.08
659.209	2677.25
663.12	3391.73
667.029	4561.94
670.937	6179.74
674.842	7860.15
678.746	8602.9
682.648	7553.21
686.548	5383.19
690.447	3607.16
694.343	2317.18
698.238	1742.75
702.13	1469.5
706.021	1356.7
709.91	1234.7
713.798	1209.73
717.683	1159.16
721.567	1101.97
725.448	1038.83
729.328	1049.57
733.206	889.306
737.083	720.071
740.957	710.911
744.83	649.79
748.701	631.719
752.57	599.691
756.437	553.738
760.302	529.896
764.166	646.124
768.027	615.422
771.887	594.811
775.745	564.298
779.602	464.912
783.456	471.57
787.309	344.275
791.16	312.009
795.009	261.759
798.856	182.521
802.702	121.514
806.545	96.062
810.387	75.259
814.227	30.788
818.065	14.684
821.902	38.02
825.737	0.495
829.569	37.12
833.401	16.106
837.23	36.219
841.057	25.771
844.883	16.903
848.707	58.159
852.529	7.368
856.35	0.275
860.168	28.043
863.985	26.106
867.8	20.734
871.613	145.373
875.425	95.448
879.234	136.557
883.042	97.661
886.848	121.771
890.653	144.883
894.455	181.024
898.256	191.204
902.055	187.379
905.852	196.543
909.648	142.691
913.442	202.824
917.233	279.328
921.024	278.039
924.812	267.118
928.599	242.175
932.384	189.209
936.167	267.218
939.948	306.215
943.728	368.186
947.506	345.128
951.282	279.054
955.056	435.95
958.829	351.814
962.6	377.65
966.369	409.161
970.136	507.527
973.902	452.728
977.666	433.333
981.428	457.568
985.188	467.728
988.947	640.361
992.704	682.884
996.459	755.232
1000.21	768.311
1003.96	863.416
1007.71	960.012
1011.46	1300.99
1015.21	1591.56
1018.95	2118.91
1022.7	2622.58
1026.44	3115.83
1030.18	3305.11
1033.91	2999.61
1037.65	2560.66
1041.39	2022.51
1045.12	1803.92
1048.85	1615.67
1052.58	1536.59
1056.31	1404.41
1060.03	1350.24
1063.76	1262
1067.48	1129.59
1071.2	1002.68
1074.92	866.171
1078.63	751.867
1082.35	573.65
1086.06	522.855
1089.78	500.06
1093.49	475.426
1097.19	424.44
1100.9	297.418
1104.61	184.722
1108.31	238.207
1112.01	74.567
1115.71	126.642
1119.41	170.237
1123.11	141.44
1126.8	57.862
1130.5	5.326
1134.19	30.057
1137.88	4.381
1141.57	86.091
1145.25	93.592
1148.94	32.239
1152.62	41.18
1156.3	24.931
1159.98	3.124
1163.66	49.722
1167.34	42.846
1171.01	123.114
1174.68	67.363
1178.36	28.02
1182.02	96.194
1185.69	37.588
1189.36	51.457
1193.02	26.645
1196.69	15.942
1200.35	22.438
1204.01	88.887
1207.66	103.151
1211.32	91.248
1214.98	2.212
1218.63	92.408
1222.28	34.66
1225.93	28.84
1229.58	52.733
1233.22	113.774
1236.87	119.665
1240.51	83.441
1244.15	3.167
1247.79	72.004
1251.43	108.519
1255.07	47.442
1258.7	2.743
1262.33	110.413
1265.96	120.579
1269.59	181.425
1273.22	37.109
1276.85	100.212
1280.47	59.086
1284.1	62.542
1287.72	120.851
1291.34	108.135
1294.95	100.701
1298.57	154.321
1302.19	163.34
1305.8	165.95
1309.41	82.66
1313.02	83.376
1316.63	69.965
1320.23	34.423
1323.84	37.532
1327.44	123.425
1331.05	154.091
1334.64	110.306
1338.24	60.915
1341.84	117.713
1345.43	108.046
1349.03	19.55
1352.62	2.447
1356.21	18.085
1359.8	114.442
1363.39	113.462
1366.97	104.226
1370.56	145.713
1374.14	111.277
1377.72	77.64
1381.3	29.015
1384.87	31.612
1388.45	9.86
1392.02	64.595
1395.6	33.295
1399.17	142.433
1402.74	75.882
1406.3	172.977
1409.87	186.399
1413.43	107.108
1417	40.252
1420.56	87.241
1424.12	41.034
1427.67	75.947
1431.23	46.89
1434.79	11.88
1438.34	144.332
1441.89	95.222
1445.44	193.162
1448.99	226.239
1452.54	76.321
1456.08	131.753
1459.62	54.486
1463.17	73.715
1466.71	82.973
1470.24	74.697
1473.78	150.661
1477.32	94.303
1480.85	103.898
1484.38	158.96
1487.91	194.327
1491.44	183.07
1494.97	135.182
1498.5	41.394
1502.02	24.638
1505.54	55.743
1509.07	23.101
1512.59	0.339
