Measurement: Raman, 514 nm, depolarized, Raman Data Processed
Mineral: Fluorapatite
Rruff sample: R050274
Ideal chemistry: Ca_5_(PO_4_)_3_F
Locality: Minas Gerais, Brazil
Source: Marcus Origlieri
Description: Aggregate of blue crystal fragments separated by veins of quartz
Measured chemistry: Ca_5.00_((P_0.97_Si_0.02_S_0.01_)O_4_)_3_(F_0.90_Cl_0.10_)
Pin_id: L00850
Orientation: Laser parallel to c* (0 0 1). Fiducial mark perpendicular to laser is parallel to b [0 1 0]
Raman shift (cm-1)	intensity
107.047	0
110.744	47.1909
114.44	2.49219
118.134	16.7361
121.827	48.6604
125.519	127.35
129.209	232.532
132.898	367.725
136.585	536.522
140.271	488.881
143.956	388.894
147.639	324.73
151.321	310.8
155.002	338.076
158.681	253.53
162.359	186.553
166.036	151.56
169.711	136.879
173.385	128.268
177.058	104.814
180.729	58.7178
184.399	112.585
188.067	12.96
191.734	30.2327
195.4	103.772
199.064	42.8687
202.727	79.4036
206.389	114.88
210.049	96.9749
213.708	78.1414
217.366	99.6006
221.022	73.3523
224.677	106.98
228.33	92.8032
231.982	132.189
235.633	109.853
239.282	195.46
242.93	151.162
246.577	76.6038
250.222	111.895
253.866	132.871
257.508	316.897
261.149	287.618
264.789	323.92
268.427	319.276
272.064	283.756
275.7	191.919
279.334	98.8823
282.967	93.5198
286.598	77.5666
290.229	139.943
293.857	127.815
297.485	122.153
301.111	203.961
304.735	206.239
308.358	172.973
311.98	172.151
315.601	122.169
319.22	55.8489
322.837	115.696
326.454	92.3603
330.068	84.8291
333.682	110.62
337.294	16.6811
340.905	23.0806
344.514	46.3052
348.122	48.5928
351.729	71.1602
355.334	18.916
358.938	45.438
362.54	11.9683
366.141	24.5127
369.741	85.3662
373.339	100.699
376.936	12.8267
380.531	14.8887
384.126	45.6938
387.718	88.5122
391.31	100.844
394.9	42.4727
398.488	127.273
402.075	75.4707
405.661	198.15
409.245	93.7866
412.828	149.554
416.41	249.249
419.99	282.112
423.569	367.412
427.146	399.706
430.722	659.616
434.297	640.026
437.87	779.637
441.442	1019.28
445.012	967.866
448.581	872.611
452.149	649.048
455.715	466.97
459.28	333.807
462.843	274.529
466.405	388.107
469.965	145.516
473.525	125.105
477.082	161.843
480.639	167.453
484.194	45.3423
487.747	79.0435
491.3	114.22
494.85	26.4185
498.4	79.0957
501.948	62.249
505.494	54.3608
509.039	9.76367
512.583	19.3774
516.125	6.93994
519.666	82.4346
523.206	56.3687
526.744	85.2749
530.281	35.9673
533.816	8.25049
537.35	78.6836
540.882	8.18945
544.413	89.8272
547.943	31.2871
551.471	102.147
554.998	81.9775
558.523	170.307
562.047	188.52
565.57	219.706
569.091	402.938
572.611	692.361
576.129	1040.82
579.646	1269.67
583.162	1016.86
586.676	699.245
590.188	492.606
593.7	455.356
597.209	392.491
600.718	656.465
604.225	747.559
607.73	880.549
611.235	695.334
614.737	425.908
618.239	435.881
621.739	427.773
625.237	261.907
628.734	176.343
632.23	67.6992
635.724	249.113
639.217	331.157
642.708	350.35
646.198	237.178
649.687	149.981
653.174	158.416
656.66	162.243
660.144	243.5
663.627	201.497
667.108	209.978
670.588	223.091
674.067	150.836
677.544	128.411
681.02	285.242
684.494	113.411
687.967	261.798
691.438	54.8232
694.908	384.278
698.377	215.19
701.844	267.442
705.31	159.31
708.774	299.431
712.237	152.21
715.698	118.132
719.158	193.541
722.617	370.505
726.074	325.211
729.53	208.389
732.984	165.913
736.437	261.523
739.888	253.504
743.338	149.862
746.787	205.962
750.234	205.173
753.68	284.201
757.124	403.426
760.567	419.994
764.008	330.152
767.448	372.007
770.887	245.006
774.324	235.096
777.759	393.826
781.194	392.549
784.626	231.391
788.058	273.219
791.488	309.41
794.916	235.356
798.343	219.742
801.769	271.984
805.193	212.299
808.616	280.529
812.037	283.367
815.457	426.935
818.875	294.082
822.292	39.0117
825.707	306.682
829.122	84.2129
832.534	70.7422
835.945	168.053
839.355	154.467
842.763	87.7812
846.17	120.256
849.576	128.383
852.98	179.678
856.382	105.17
859.783	162.428
863.183	9.09961
866.581	229.039
869.978	228.834
873.373	75.9219
876.767	224.59
880.159	118.525
883.55	107.85
886.94	51.5156
890.328	19.5059
893.714	65.5879
897.1	27.1035
900.483	149.934
903.866	97.7988
907.246	60.8867
910.626	0.347656
914.004	117.793
917.38	105.307
920.755	10.377
924.129	124.967
927.501	27.8027
930.872	79.1523
934.241	121.502
937.609	333.367
940.975	446.324
944.34	1035.54
947.703	1594.42
951.065	2652.58
954.426	5537.05
957.785	11614.8
961.142	16385.8
964.499	13152.8
967.853	7049.93
971.207	3450.8
974.558	1456.17
977.909	536.377
981.258	210.348
984.605	284.49
987.951	322.635
991.295	255.566
994.639	58.2754
997.98	172.971
1001.32	195.047
1004.66	137.244
1008	347.328
1011.33	163.277
1014.67	490.644
1018	404.246
1021.33	480.793
1024.66	634.545
1027.99	724.529
1031.32	703.861
1034.64	427.109
1037.97	375.109
1041.29	477.053
1044.61	293.647
1047.93	330.648
1051.25	494.922
1054.56	615.365
1057.88	839.971
1061.19	164.938
1064.51	159.412
1067.82	499.166
1071.13	349.275
1074.43	224.828
1077.74	210.717
1081.05	194.621
1084.35	187.711
1087.65	39.6914
1090.95	8.92578
1094.25	182.621
1097.55	95.3203
1100.85	248.422
1104.14	75.8867
1107.43	152.606
1110.73	11.9805
1114.02	254.766
1117.31	185.879
1120.59	272.223
1123.88	305.859
1127.16	195.16
1130.45	388.883
1133.73	101.789
1137.01	238.078
1140.29	242.035
1143.57	204.144
1146.84	57.5078
1150.12	153.731
1153.39	178.094
1156.66	261.027
1159.93	197.285
1163.2	173.984
1166.46	43.2617
1169.73	139.148
1172.99	87.875
