Measurement: Raman, 514 nm, depolarized, Raman Data Processed
Mineral: Fluorapatite
Rruff sample: R050192
Ideal chemistry: Ca_5_(PO_4_)_3_F
Locality: Fulford, Eagle County, Colorado, USA
Source: Dave Bunk Minerals
Description: Pale green hexagonal prism
Measured chemistry: Ca_5.00_(P_1.00_O_4_)_3_(F_0.86_Cl_0.13_)
Pin_id: L00262
Orientation: Laser parallel to c* (0 0 1). Fiducial mark perpendicular to laser is parallel to b [0 1 0]
Raman shift (cm-1)	intensity
132.898	0
136.585	137.023
140.271	125.26
143.956	105.181
147.639	68.9678
151.321	93.0437
155.002	91.2805
158.681	91.4983
162.359	92.4273
166.036	51.1941
169.711	12.7305
173.385	11.4717
177.058	0.677002
180.729	11.6394
184.399	35.8855
188.067	1.61963
191.734	29.3259
195.4	15.3169
199.064	9.05981
202.727	42.427
206.389	24.1982
210.049	1.77808
213.708	39.4417
217.366	8.0708
221.022	45.7944
224.677	91.0898
228.33	91.9219
231.982	65.2498
235.633	107.09
239.282	82.9172
242.93	103.291
246.577	118.308
250.222	116.279
253.866	105.762
257.508	162.94
261.149	235.923
264.789	196.899
268.427	187.414
272.064	174.906
275.7	156.551
279.334	158.288
282.967	75.8391
286.598	130.95
290.229	29.4216
293.857	80.3591
297.485	26.7581
301.111	116.529
304.735	86.7241
308.358	93.4844
311.98	127.628
315.601	75.7468
319.22	26.8682
322.837	26.239
326.454	34.167
330.068	46.0459
333.682	51.8594
337.294	58.5613
340.905	35.8071
344.514	43.7854
348.122	47.856
351.729	41.9976
355.334	34.6443
358.938	74.8232
362.54	71.3645
366.141	5.03223
369.741	8.82398
373.339	11.9658
376.936	0.488037
380.531	29.978
384.126	57.2249
387.718	82.6511
391.31	144.872
394.9	58.3201
398.488	14.4712
402.075	30.3472
405.661	10.0664
409.245	146.348
412.828	146.997
416.41	63.9048
419.99	85.2803
423.569	162.398
427.146	206.96
430.722	288.83
434.297	423.458
437.87	551.852
441.442	585.562
445.012	729.452
448.581	613.164
452.149	545.287
455.715	403.853
459.28	274.439
462.843	287.615
466.405	143.407
469.965	136.85
473.525	175.808
477.082	80.3989
480.639	132.019
484.194	138.002
487.747	76.6406
491.3	155.635
494.85	150.626
498.4	86.6631
501.948	50.2505
505.494	3.49219
509.039	78.1597
512.583	9.7334
516.125	41.6284
519.666	8.63525
523.206	12.8081
526.744	22.7197
530.281	64.4092
533.816	87.2031
537.35	136.986
540.882	108.417
544.413	33.8799
547.943	47.5264
551.471	4.22705
554.998	77.3857
558.523	35.7432
562.047	122.167
565.57	68.2622
569.091	251.453
572.611	380.619
576.129	723.002
579.646	862.112
583.162	475.515
586.676	209.148
590.188	387.162
593.7	241.366
597.209	225.566
600.718	392.864
604.225	642.688
607.73	504.698
611.235	473.941
614.737	379.448
618.239	363.817
621.739	276.149
625.237	123.789
628.734	202.199
632.23	167.649
635.724	161.904
639.217	128.157
642.708	212.867
646.198	226.737
649.687	222.124
653.174	212.466
656.66	255.303
660.144	194.106
663.627	43.585
667.108	2.375
670.588	193.433
674.067	39.3145
677.544	171.598
681.02	67.7109
684.494	45.7822
687.967	92.9531
691.438	125.533
694.908	93.9307
698.377	94.125
701.844	49.043
705.31	19.9062
708.774	50.3184
712.237	73.9072
715.698	119.279
719.158	34.1416
722.617	0.008789
726.074	19.2275
729.53	135.431
732.984	82.7256
736.437	95.3789
739.888	162.756
743.338	77.1172
746.787	146.993
750.234	86.7158
753.68	127.214
757.124	11.1807
760.567	157.108
764.008	52.1103
767.448	122.486
770.887	108.341
774.324	68.4121
777.759	25.9609
781.194	158.715
784.626	215.446
788.058	103.084
791.488	100.561
794.916	192.34
798.343	23.5332
801.769	142.578
805.193	108.042
808.616	288.236
812.037	225.022
815.457	98.1523
818.875	189.567
822.292	96.8584
825.707	34.3115
829.122	149.7
832.534	128.793
835.945	87.0107
839.355	138.18
842.763	188.64
846.17	15.1426
849.576	143.125
852.98	252.217
856.382	46.8975
859.783	114.194
863.183	276.898
866.581	208.498
869.978	145.828
873.373	216.25
876.767	163.722
880.159	44.6904
883.55	51.5928
886.94	66.8184
890.328	19.2139
893.714	60.0518
897.1	22.4141
900.483	51.04
903.866	154.806
907.246	191.64
910.626	166.028
914.004	265.024
917.38	59.3799
920.755	58.9688
924.129	57.208
927.501	202.343
930.872	227.194
934.241	186.964
937.609	220.533
940.975	443.72
944.34	612.619
947.703	701.949
951.065	1377.33
954.426	3550.95
957.785	8328.79
961.142	12442.1
964.499	10529.5
967.853	5711.73
971.207	2839.18
974.558	1150.88
977.909	502.053
981.258	354.231
984.605	229.172
987.951	89.5078
991.295	235.941
994.639	212.533
997.98	229.478
1001.32	220.9
1004.66	95.4961
1008	312.514
1011.33	251.072
1014.67	87.6016
1018	211.248
1021.33	365.045
1024.66	486.877
1027.99	606.727
1031.32	338.361
1034.64	426.84
1037.97	63.1309
1041.29	75.5137
1044.61	373.676
1047.93	236.082
1051.25	262.088
1054.56	452.25
1057.88	394.68
1061.19	440.182
1064.51	227.537
1067.82	149.885
1071.13	225.869
1074.43	146.238
1077.74	274.99
1081.05	134.127
1084.35	179.75
1087.65	188.897
1090.95	83.5938
1094.25	221.879
1097.55	57.0664
1100.85	5.02539
1104.14	142.875
1107.43	11.2578
1110.73	86.7285
1114.02	73.4766
1117.31	87.8477
1120.59	129.828
1123.88	72.4512
1127.16	147.685
1130.45	141.83
1133.73	239.647
1137.01	150.106
1140.29	12.543
1143.57	38.7539
1146.84	155.461
1150.12	200.01
1153.39	33.6406
1156.66	45.4824
1159.93	43.8906
1163.2	345.969
1166.46	411.693
1169.73	105.762
1172.99	407.592
1176.26	335.715
1179.52	510.188
1182.78	314.66
1186.04	157.211
1189.29	297.519
1192.55	181.162
1195.8	115.312
1199.05	146.707
1202.31	427.908
1205.55	13.75
1208.8	268.623
1212.05	229.135
1215.29	380.69
1218.54	324.922
1221.78	393.225
1225.02	159.103
1228.26	188.324
1231.5	111.275
1234.73	222.799
1237.97	247.838
1241.2	386.988
1244.43	336.666
1247.66	503.703
1250.89	17.2188
1254.12	38.2734
1257.34	290.129
1260.57	306.09
1263.79	381.34
1267.01	306.184
1270.23	43.3008
1273.45	123.348
1276.67	65.2734
1279.88	249.125
1283.1	69.8867
1286.31	70.6289
1289.52	69.2969
