Measurement: Raman, 514 nm, depolarized, Raman Data Processed
Mineral: Fluorapophyllite-(K)
Rruff sample: R040095
Ideal chemistry: KCa_4_Si_8_O_20_F8H_2_O
Locality: unknown
Source: University of Arizona Mineral Museum
Description: Colorless crystals
Measured chemistry: (K_0.90_Na_0.04_)Ca_3.96_Si_8.00_O_20_(F_0.82_(OH)_0.18_)Â·8H_2_O
Pin_id: L00946
Orientation: Laser parallel to c* (0 0 1). Fiducial mark perpendicular to laser is parallel to a [1 0 0]
Raman shift (cm-1)	intensity
81.949	0
86.913	15170.7
91.874	15241.1
96.832	1790.04
101.788	2542.88
106.74	19547.3
111.689	11697.2
116.636	8922.3
121.579	9929.96
126.52	10584.7
131.457	10533.1
136.392	5446.6
141.324	364.174
146.253	1284.72
151.179	532.308
156.102	5852.06
161.022	15124.8
165.939	11806.4
170.854	3718.31
175.765	2442.41
180.674	8059.42
185.579	18029.1
190.482	13738.4
195.382	11030.2
200.279	17289
205.173	32988.2
210.064	51195.9
214.953	40335.5
219.838	24926.9
224.721	21249.8
229.6	20762.5
234.477	13999.2
239.351	6648.4
244.222	3199.09
249.091	1914.39
253.956	1810.95
258.819	2534.14
263.678	4202.84
268.535	5439.95
273.389	4052.46
278.241	3334.56
283.089	4328.45
287.935	7306.91
292.777	12730.5
297.617	18413.8
302.454	14900.7
307.289	7751.82
312.12	4197.19
316.949	3140.72
321.774	3238.17
326.597	4289.85
331.418	6324.61
336.235	8413.05
341.05	7437.56
345.861	4146.67
350.67	1471.41
355.477	358.478
360.28	46.376
365.081	811.744
369.878	2341.54
374.673	3180.27
379.466	1094.76
384.255	337.35
389.042	592.036
393.826	551.412
398.607	289.346
403.386	178.357
408.161	532.112
412.934	915.554
417.704	2260.64
422.472	6380.06
427.236	16673.7
431.998	32691.2
436.757	19190.3
441.514	6379.75
446.267	2090.01
451.018	1120.75
455.766	936.067
460.512	1709.1
465.255	1613.4
469.995	646.914
474.732	125.373
479.467	293.948
484.198	1319.54
488.927	1096.97
493.654	188.457
498.378	21.314
503.099	215.72
507.817	672.29
512.532	1182.68
517.245	1442.2
521.956	1777.18
526.663	2232.91
531.368	3212.62
536.07	4259.51
540.769	4659.52
545.466	4102.63
550.16	3619.05
554.852	3542.81
559.54	3851.77
564.226	5348.23
568.91	8045.24
573.591	12991.5
578.269	20535.4
582.944	27731.6
587.617	25221
592.287	16521.5
596.954	9494.18
601.619	5822.21
606.281	4025.19
610.941	3225.34
615.597	3152.83
620.252	3248.49
624.903	3621.38
629.552	4109.48
634.198	4500.79
638.842	5337.27
643.483	6632.74
648.121	8864.97
652.757	12212.7
657.39	16195.6
662.021	18801.7
666.649	17940.3
671.274	13220.9
675.897	8762.94
680.517	5371.85
685.134	3384.63
689.749	2185.54
694.362	1312.53
698.971	764.268
703.578	394.853
708.183	216.192
712.785	24.2461
717.384	66.1611
721.981	24.5
726.575	141.292
731.167	113.236
735.756	182.418
740.342	158.844
744.926	176.617
749.507	59.0493
754.086	214.726
758.662	820.955
763.236	1552.72
767.807	1777.01
772.375	1266.81
776.941	963.16
781.505	1259.64
786.066	2430.19
790.624	3860.42
795.18	3140.17
799.733	1568.51
804.284	1039.26
808.832	711.787
813.377	851.676
817.92	869.887
822.461	1288.4
826.999	1582.2
831.534	1817.29
836.067	2185.68
840.598	2340.36
845.126	2424.91
849.651	2387.59
854.174	2334.5
858.695	2108.75
863.213	1580.85
867.728	1179.49
872.241	933.331
876.751	709.411
881.259	497.158
885.765	362.942
890.268	281.647
894.768	167.366
899.266	224.099
903.761	203.871
908.254	156.61
912.745	99.2168
917.233	83.2676
921.718	10.7949
926.202	119.685
930.682	0.413574
935.16	61.9053
939.636	176.287
944.109	116.514
948.58	200.665
953.048	204.748
957.514	286.775
961.978	403.754
966.438	766.704
970.897	1197.65
975.353	613.59
979.807	354.545
984.258	393.534
988.707	651.677
993.153	943.206
997.597	1414.46
1002.04	2495.71
1006.48	3343.17
1010.91	2444.69
1015.35	1338.95
1019.78	1140.61
1024.21	1335.45
1028.64	1595.85
1033.06	2421.75
1037.48	3492.06
1041.9	5360.44
1046.32	9402.27
1050.73	18774.7
1055.15	38177.8
1059.56	54662.8
1063.96	35098.2
1068.37	15490.4
1072.77	7075.39
1077.17	3616.27
1081.57	2137.91
1085.97	1332.18
1090.36	899.515
1094.75	832.638
1099.14	868.598
1103.53	1076.26
1107.91	2003.86
1112.29	3651.25
1116.67	3197.66
1121.05	1233.45
1125.42	471.826
1129.79	306.613
1134.16	101.637
1138.53	16.2627
1142.89	60.9351
1147.26	5.93848
1151.62	6.9209
1155.97	24.3027
1160.33	96.9707
1164.68	78.7095
1169.03	28.9985
1173.38	1.37402
1177.73	108.864
1182.07	42.9014
1186.41	31.5356
1190.75	37.9253
1195.09	20.9072
1199.42	50.9629
1203.76	49.231
1208.09	33.1416
1212.41	132.491
1216.74	67.2666
1221.06	134.955
1225.38	112.228
1229.7	70.0762
1234.02	235.459
1238.33	238.452
1242.64	229.074
1246.95	169.348
1251.26	140.948
1255.56	150.167
1259.86	150.144
1264.16	222.341
1268.46	168.464
1272.76	204.865
1277.05	167.538
1281.34	236.863
1285.63	255.897
1289.91	255.098
1294.2	194.06
1298.48	275.214
1302.76	196.882
1307.04	106.094
1311.31	247.186
1315.58	123.393
1319.85	227.542
1324.12	175.859
1328.38	99.8218
1332.65	74.2476
1336.91	60.9731
1341.17	106.221
1345.42	111.905
1349.68	18.6982
1353.93	59.0767
1358.18	14.1567
1362.43	128.554
1366.67	56.2358
1370.92	133.722
1375.16	28.7588
1379.4	123.152
1383.63	39.002
1387.87	137.244
1392.1	29.0234
1396.33	88.6963
1400.56	1.90918
1404.78	42.6777
1409.01	12.1802
1413.23	7.34375
1417.44	13.7534
1421.66	40.8887
1425.88	26.6421
1430.09	81.3076
1434.3	124.005
1438.51	165.181
1442.71	190.733
1446.91	196.806
1451.11	192.709
1455.31	188.08
1459.51	158.117
1463.7	218.286
1467.9	263.547
1472.09	281.627
1476.27	250.086
1480.46	341.949
1484.64	258.61
1488.82	357.625
1493	283.285
1497.18	324.294
1501.36	471.824
1505.53	475.451
1509.7	476.716
1513.87	518.513
1518.03	562.963
1522.2	558.562
1526.36	561.525
1530.52	322.749
1534.67	344.484
1538.83	265.029
1542.98	242.134
1547.13	205.466
1551.28	192.798
1555.43	200.661
1559.57	101.613
1563.72	129.091
1567.86	84.458
1571.99	3.53711
1576.13	0.439941
