Measurement: Raman, 514 nm, depolarized, Raman Data Processed
Mineral: Fluorapatite
Rruff sample: R050617
Ideal chemistry: Ca_5_(PO_4_)_3_F
Locality: Santa Cruz, Sonora, Mexico
Source: University of Arizona Mineral Museum
Description: Tan colored hexagonal prism
Measured chemistry: Ca_5.00_(P_1.00_O_4_)_3_(F_0.99_Cl_0.01_)
Pin_id: L01712
Orientation: Laser parallel to c* (0 0 1). Fiducial mark perpendicular to laser is parallel to -b [0 -1 0]
Raman shift (cm-1)	intensity
105.815	0
110.744	82.0393
115.671	18.9273
120.596	51.5906
125.519	104.355
130.439	238.144
135.356	315.261
140.271	407.203
145.184	309.961
150.094	256.045
155.002	250.617
159.908	224.453
164.811	126.918
169.711	115.381
174.61	66.4487
179.505	10.707
184.399	40.8081
189.29	44.498
194.178	8.65332
199.064	52.9385
203.948	55.9363
208.829	55.0691
213.708	54.9641
218.585	20.7007
223.459	74.4981
228.33	89.3733
233.199	112.356
238.066	109.069
242.93	77.1538
247.792	28.8015
252.651	53.4421
257.508	179.594
262.363	289.464
267.215	298.508
272.064	211.412
276.912	124.045
281.756	77.1223
286.598	126.334
291.438	90.165
296.276	123.58
301.111	171.553
305.943	103.094
310.773	163.149
315.601	114.733
320.426	37.5
325.248	16.8054
330.068	60.8909
334.886	2.97241
339.701	6.14209
344.514	8.22461
349.324	33.6011
354.132	18.0774
358.938	9.11401
363.741	21.0334
368.541	66.9761
373.339	14.104
378.135	16.6665
382.928	21.5088
387.718	1.26392
392.506	39.2563
397.292	45.7581
402.075	45.9121
406.856	78.2803
411.634	1.03833
416.41	120.184
421.183	149.465
425.954	293.534
430.722	479.883
435.488	535.119
440.251	836.215
445.012	786.672
449.77	763.426
454.526	505.361
459.28	354.275
464.03	161.99
468.779	113.785
473.525	188.738
478.268	102.301
483.009	107.581
487.747	95.9175
492.483	53.0996
497.217	69.3179
501.948	102.884
506.676	95.5425
511.402	14.478
516.125	68.3179
520.846	8.97412
525.565	28.6597
530.281	52.8125
534.994	20.0991
539.705	1.36035
544.413	69.9038
549.119	31.6196
553.822	26.0098
558.523	94.8027
563.222	85.7046
567.917	67.8574
572.611	554.089
577.302	839.956
581.99	908.907
586.676	501.862
591.359	352.57
596.04	318.414
600.718	469.505
605.394	559.815
610.067	609.818
614.737	331.954
619.406	325.429
624.071	217.965
628.734	49.3906
633.395	96.0547
638.053	9.83545
642.708	65.6919
647.361	143.582
652.012	152.749
656.66	121.312
661.305	80.4912
665.948	80.8003
670.588	20.7129
675.226	116.861
679.861	70.4219
684.494	27.8633
689.124	166.035
693.752	133.388
698.377	24.9873
702.999	75.9795
707.619	57.001
712.237	100.056
716.852	82.8486
721.464	38.7266
726.074	76.1504
730.681	77.6523
735.286	59.3037
739.888	127.125
744.488	6.10449
749.085	120.56
753.68	39.998
758.272	40.1084
762.861	94.2461
767.448	85.0078
772.033	110.295
776.614	57.4297
781.194	98.2676
785.77	128.872
790.345	229.485
794.916	93.1914
799.485	139.322
804.052	149.439
808.616	241.708
813.177	183.694
817.736	142.984
822.292	116.607
826.846	219.699
831.397	119.898
835.945	31.5566
840.491	16.2432
845.035	236.321
849.576	253.39
854.114	197.766
858.65	159.946
863.183	302.432
867.713	105.629
872.241	236.455
876.767	168.828
881.29	45.0527
885.81	58.8701
890.328	189.027
894.843	6.44043
899.356	129.671
903.866	107.126
908.373	54.707
912.878	72.4492
917.38	88.7734
921.88	40.207
926.377	239.857
930.872	44.002
935.364	204.25
939.853	252.506
944.34	482.18
948.824	629.135
953.306	1824.58
957.785	8466.16
962.261	16284.6
966.735	11120.5
971.207	2952.7
975.675	869.932
980.141	396.916
984.605	102.863
989.066	248.281
993.524	30.9902
997.98	48.5742
1002.43	24.4727
1006.88	137.213
1011.33	183.959
1015.78	214.133
1020.22	255.959
1024.66	208.238
1029.1	636.965
1033.53	591.623
1037.97	384.836
1042.4	290.592
1046.82	345.496
1051.25	389.906
1055.67	578.318
1060.09	608.189
1064.51	307.242
1068.92	315.176
1073.33	203.815
1077.74	310.412
1082.15	159.908
1086.55	251.022
1090.95	318.098
1095.35	179.391
1099.75	201.228
1104.14	154.881
1108.53	66.0293
1112.92	122.455
1117.31	218.574
1121.69	312.16
1126.07	359.262
1130.45	270.109
1134.82	293.902
1139.19	250.945
1143.57	120.377
1147.93	466.654
1152.3	125.023
1156.66	286.029
1161.02	206.81
1165.38	232.277
1169.73	227.65
1174.08	277.455
1178.43	442.029
1182.78	117.879
1187.12	372.019
1191.46	413.955
1195.8	308.203
1200.14	133.082
1204.47	352.297
1208.8	63.6719
1213.13	315.117
1217.46	234.625
1221.78	287.672
1226.1	189.543
1230.42	332.098
1234.73	657.191
1239.04	366.039
1243.35	414.113
1247.66	272.152
1251.97	16.168
1256.27	54.4102
1260.57	282.981
1264.86	449.195
1269.16	190.914
1273.45	237.047
1277.74	187.684
1282.03	271.668
1286.31	169.035
1290.59	269.469
1294.87	83.875
1299.14	90.6016
1303.42	169.664
1307.69	71.7188
1311.95	65.2656
1316.22	237.938
1320.48	184.965
1324.74	302.996
1329	91.293
1333.26	87.5234
1337.51	200.141
1341.76	156.5
1346	170
1350.25	1.69531
1354.49	258.359
1358.73	290.328
1362.96	141.543
1367.2	216.566
1371.43	44.2148
1375.66	373.828
1379.88	152.988
1384.11	130.715
1388.33	182.617
1392.54	54.5742
1396.76	118.84
1400.97	278.559
1405.18	116.41
1409.39	318.074
1413.59	228.68
1417.8	138.586
1421.99	340.004
1426.19	357.102
1430.38	8.4375
1434.58	445.273
1438.77	492.426
1442.95	291.383
1447.13	448.551
1451.32	541.172
1455.49	304.258
1459.67	473.668
1463.84	291.773
1468.01	564.988
1472.18	420.793
1476.35	694.699
1480.51	381.152
1484.67	732.977
1488.83	442.113
1492.98	739.805
1497.13	583.832
1501.28	513.688
1505.43	626.602
1509.57	713.098
1513.71	729.055
1517.85	538.231
1521.99	711.648
1526.12	728.703
1530.25	580.609
1534.38	558.516
1538.5	1065.36
1542.62	715.309
1546.74	808.668
1550.86	1074.48
1554.98	741.269
1559.09	550.844
1563.2	266.809
1567.31	49.8984
1571.41	0
