Measurement: Raman, 514 nm, ccw, Raman Data Processed
Mineral: Fluorophlogopite
Rruff sample: R040042
Ideal chemistry: KMg_3_(Si_3_Al)O_10_F_2_
Locality: Franklin, Sussex County, New Jersey, USA
Source: University of Arizona Mineral Museum
Description: Brown flattened hexagonal prism, polytype 1M
Measured chemistry: (K_0.92_Na_0.08_)_Σ=1_(Mg_2.95_Fe_0.05_)_Σ=3_(Si_3.00_Al_1.00_)O_10_(F_1.40_(OH)_0.60_)_Σ=2_; trace amounts of Ti; OH estimated by charge balance
Pin_id: L00540
Orientation: Laser parallel to -a* (-1 0 0). Fiducial mark perpendicular to laser is parallel to -b [0 -1 0]
Raman shift (cm-1)	intensity
130.037	0
134.955	803.359
139.871	845.875
144.784	481.047
149.695	797.312
154.603	1363.09
159.509	1409.14
164.413	1824.08
169.313	2904.58
174.212	4056.81
179.108	5885.05
184.001	9819.72
188.892	18308.3
193.781	30611.4
198.667	36270.8
203.55	21477.5
208.431	10849.4
213.31	7514.39
218.186	5926.41
223.06	4322.09
227.931	3895.31
232.8	3331.17
237.666	3456.94
242.53	4781.94
247.391	4389.84
252.25	3625.03
257.106	4266.19
261.96	5536.06
266.811	8396.97
271.66	13996.7
276.506	20758.4
281.35	22229.2
286.191	12602.2
291.03	7329.03
295.866	5616.62
300.7	5577
305.531	7007.5
310.36	10406.4
315.187	15179.9
320.011	17853
324.832	18277.3
329.651	14391.3
334.467	10875.2
339.281	8032.53
344.092	6186.5
348.901	5164.69
353.708	4780.69
358.511	4561.38
363.313	5805.22
368.112	6068.59
372.908	6751.38
377.702	5092.41
382.493	3320.47
387.282	3472.19
392.068	2086.41
396.852	2548.88
401.633	2580.28
406.412	1900.78
411.188	851.031
415.962	1018.72
420.733	1126.38
425.502	1074.66
430.268	2139.91
435.032	1698.56
439.793	2168.75
444.552	1803.41
449.308	2272.06
454.061	1668.03
458.813	1088.97
463.561	1669.56
468.307	574.875
473.051	315.094
477.792	275.688
482.53	295.625
487.266	406.656
492	783.688
496.73	7.84375
501.459	1077.78
506.185	1161.28
510.908	2008.38
515.629	2453.91
520.347	2572.94
525.063	1243.22
529.776	1594.69
534.487	336.719
539.195	679.781
543.9	856.312
548.604	65.4375
553.304	12.2812
558.002	540.219
562.698	397
567.39	1140.94
572.081	1290.88
576.769	239
581.454	909.625
586.137	43.4688
590.817	990.5
595.495	350.44
600.17	854
604.843	427.312
609.513	793.875
614.18	529.375
618.845	1371.44
623.508	2083.38
628.168	2754.78
632.825	5664.56
637.48	6464.25
642.132	6810.41
646.782	7333.75
651.429	7092.97
656.074	10193
660.716	12018.8
665.355	15337.1
669.992	22576
674.627	33423.5
679.259	46105.4
683.888	51316.3
688.515	43472.8
693.139	30666.8
697.761	18593.1
702.38	11462.1
706.996	8805.22
711.61	5059.75
716.222	4086.19
720.831	2870.69
725.437	2475.09
730.041	3457.69
734.642	2959.19
739.241	3160.66
743.837	2888.28
748.431	2458.56
753.022	2296.12
757.61	2281.09
762.196	1248.41
766.779	1930.06
771.36	2436.94
775.938	2011.72
780.514	1909.09
785.087	2229.62
789.657	2235.84
794.225	3564.75
798.791	2798.09
803.353	2246.53
807.914	1960
812.471	1553.34
817.027	1499.41
821.579	2415.59
826.129	1274.44
830.676	679.812
835.221	641.531
839.764	552.531
844.303	6.625
848.84	1378.69
853.375	2359.31
857.907	1019.22
862.436	343.656
866.963	436.938
871.488	937.312
876.009	200.062
880.528	959.438
885.045	859
889.559	1382.78
894.07	1321.19
898.579	2448.44
903.085	2211.44
907.589	1941.28
912.09	2629.72
916.589	2625.19
921.085	3004.88
925.578	2255.97
930.069	3623.41
934.557	3391.47
939.043	3829.5
943.526	4094.12
948.006	2776.91
952.484	2200.59
956.959	1362.41
961.432	1344.12
965.902	2043.75
970.37	1018.62
974.835	1342.12
979.297	3175.97
983.757	2022.47
988.214	1739.38
992.669	2491.56
997.121	2401.75
1001.57	1469.25
1006.02	1251.06
1010.46	1550.22
1014.9	609.531
1019.34	27
1023.78	825.062
1028.21	1111.62
1032.64	1857.09
1037.07	3867.44
1041.5	2595.19
1045.92	1285.47
1050.34	1938.12
1054.76	992.312
1059.18	476.188
1063.59	87.25
1068	578.562
1072.41	169.875
1076.82	2076.78
1081.22	3296.62
1085.62	4664.94
1090.02	7164.11
1094.41	6205.4
1098.81	6569.88
1103.19	6326.38
1107.58	5954.56
1111.97	4263.75
1116.35	3095.25
1120.73	2850.12
1125.11	1989.25
1129.48	151.25
1133.85	2269.06
1138.22	57.1875
1142.59	645.5
1146.95	968.438
1151.31	443.125
1155.67	189.312
1160.03	1253.24
1164.38	1184.02
1168.73	500.045
1173.08	1498.16
1177.43	1828.86
1181.77	2230.24
1186.11	218.625
1190.45	93.375
1194.78	1013.31
1199.12	272.688
1203.45	351.938
1207.77	1386.75
1212.1	1607.44
1216.42	2151.19
1220.74	932.938
1225.06	287.375
1229.37	108
1233.68	466.312
1237.99	197.25
1242.3	1075.19
1246.61	1229.31
1250.91	1.5
1255.21	236.625
1259.5	1263.06
1263.8	1384.56
1268.09	1754.75
1272.38	750.812
1276.66	1749.19
1280.95	613.875
1285.23	441.562
1289.51	617.125
1293.78	1558.38
1298.05	1668.06
1302.32	1989.56
1306.59	983
1310.86	1924.62
1315.12	736.188
1319.38	1128
1323.64	1186.06
1327.89	2511.88
1332.14	1036.5
1336.39	3050.5
1340.64	2068.75
1344.88	879.812
1349.12	1833.69
1353.36	2300
1357.6	1979.38
1361.83	2786.81
1366.07	549.625
1370.29	475.938
1374.52	1119.31
1378.74	1478
1382.96	2038.38
1387.18	1617.12
1391.4	1887.25
1395.61	540.812
1399.82	679.062
1404.03	1611.44
1408.23	1687.56
1412.44	1977.69
1416.64	941.062
1420.83	1854.62
1425.03	652.188
1429.22	1019.5
1433.41	2214.65
1437.6	1340.49
1441.78	1655.63
1445.96	1588.11
1450.14	2433.57
1454.32	1885.68
1458.49	1524.22
1462.66	1493.81
1466.83	2277.86
1471	2177.72
1475.16	2294.34
1479.32	1043.03
1483.48	925
1487.64	2205.94
1491.79	270.055
1495.94	674.188
1500.09	1974.69
1504.23	2102.31
1508.37	3655.94
1512.51	2787.31
1516.65	4236.44
1520.79	3224.88
1524.92	4078.25
1529.05	4028.06
1533.17	3336.5
1537.3	5594.5
1541.42	2182.12
1545.54	3717.56
1549.65	3282.94
1553.77	4191.62
1557.88	2972.38
1561.99	2262.44
1566.09	3964.75
1570.2	540.562
1574.3	3356.88
1578.39	940.812
