Measurement: Raman, 514 nm, ccw, Raman Data Processed
Mineral: Fluorapatite
Rruff sample: R040098
Ideal chemistry: Ca_5_(PO_4_)_3_F
Locality: Cerro de Mercado mine, Durango, Mexico
Source: Marcus Origlieri
Description: Pale yellow short hexagonal prism
Measured chemistry: Ca_5.00_((P_0.98_Si_0.01_S_0.01_)O_4_)_3_F_1.00_
Pin_id: L00293
Orientation: Laser parallel to c* (0 0 1). Fiducial mark perpendicular to laser is parallel to -a [-1 0 0]
Raman shift (cm-1)	intensity
59.652	0
64.623	127.862
69.591	40.077
74.557	425.245
79.52	191.172
84.48	62.6851
89.438	11.6622
94.393	48.3052
99.345	84.5938
104.294	11.7117
109.241	43.361
114.185	498.765
119.126	195.41
124.064	34.1887
129	132.957
133.933	488.272
138.864	1057.04
143.791	598.216
148.716	257.664
153.638	425.273
158.558	578.107
163.475	388.961
168.389	330.777
173.3	204.495
178.209	97.0918
183.115	11.5571
188.018	19.88
192.918	20.9503
197.816	40.342
202.711	66.903
207.604	118.246
212.494	93.1431
217.381	76.2083
222.265	139.891
227.147	188.986
232.026	332.048
236.902	318.68
241.775	154.439
246.646	85.1555
251.514	132.179
256.38	250.926
261.243	558.021
266.103	978.214
270.96	682.62
275.815	352.644
280.667	249.603
285.516	145.785
290.363	171.826
295.207	217.716
300.048	283.447
304.887	462.01
309.723	541.4
314.556	356.612
319.387	226.642
324.215	114.489
329.04	86.1505
333.862	25.9949
338.682	24.2549
343.5	31.7434
348.314	9.76977
353.126	28.7473
357.935	9.04346
362.742	18.239
367.546	42.4397
372.347	3.9519
377.145	16.0637
381.941	53.8008
386.735	22.678
391.525	8.51758
396.313	59.0383
401.098	53.4228
405.881	71.7227
410.661	69.9307
415.438	175.302
420.213	118.108
424.985	238.265
429.754	306.973
434.521	685.433
439.285	1126.63
444.046	1684.56
448.805	1605.22
453.561	1099.64
458.315	705.795
463.065	407.671
467.813	294.332
472.559	250.718
477.302	183.558
482.042	201.464
486.78	92.3616
491.515	75.3074
496.247	12.0405
500.977	44.5938
505.704	11.1941
510.428	22.0991
515.15	13.3377
519.869	68.24
524.586	11.5998
529.3	7.57886
534.011	7.08081
538.719	67.6721
543.425	44.0876
548.129	25.2
552.83	95.5818
557.528	49.2878
562.223	88.1946
566.916	264.798
571.607	435.511
576.294	1254.83
580.979	2507.37
585.662	990.358
590.341	732.777
595.019	413.532
599.693	572.918
604.365	1427.55
609.035	1494.13
613.701	810.52
618.366	615.949
623.027	308.029
627.686	195.355
632.342	170.468
636.996	72.5149
641.647	162.473
646.296	227.444
650.942	219.967
655.585	283.651
660.226	243.588
664.864	227.038
669.499	158.633
674.132	76.521
678.763	11.9951
683.39	32.4668
688.015	111.66
692.638	3.66894
697.258	74.1445
701.875	52.1143
706.49	18.6314
711.102	51.1343
715.712	32.9263
720.319	42.5381
724.923	83.1025
729.525	104.634
734.124	43.8584
738.721	108.429
743.315	14.1289
747.907	96.1636
752.496	62.6846
757.082	14.6753
761.666	72.0972
766.247	44.4927
770.826	54.4219
775.402	106.171
779.975	101.829
784.546	175.002
789.115	77.1509
793.681	167.101
798.244	42.1289
802.804	79.4517
807.363	116.79
811.918	151.96
816.471	120.824
821.022	65.3677
825.569	75.6924
830.115	91.731
834.657	23.5703
839.198	23.7251
843.735	175.333
848.27	218.556
852.803	266.946
857.333	311.366
861.86	305.969
866.385	41.9697
870.907	169.58
875.427	68.8296
879.944	165.424
884.459	27.625
888.971	118.814
893.481	53.9004
897.988	0.234863
902.492	45.3447
906.994	94.2353
911.493	20.3472
915.99	63.7476
920.485	64.7705
924.976	77.3257
929.466	18.7607
933.952	168.81
938.436	306.765
942.918	608.854
947.397	1157.34
951.874	2096.85
956.348	6219.33
960.819	25839.2
965.288	37154.7
969.755	10379.8
974.219	3244.78
978.68	1089.44
983.139	493.146
987.595	260.116
992.049	167.837
996.501	85.2598
1000.95	126.706
1005.4	336.976
1009.84	585.579
1014.28	302.965
1018.72	226.971
1023.16	334.327
1027.59	702.211
1032.02	1414.85
1036.45	791.805
1040.88	409.075
1045.3	185.596
1049.72	411.04
1054.14	614.974
1058.56	1123.28
1062.97	650.83
1067.38	294.415
1071.79	366.478
1076.19	464.332
1080.6	668.106
1085	420.361
1089.4	20.8975
1093.79	126.542
1098.19	146.379
1102.58	124.639
1106.97	46.0527
1111.35	84.5518
1115.74	202.019
1120.12	90.1553
1124.5	33.2617
1128.87	222
1133.25	25.3643
1137.62	83.7695
1141.99	12.1973
1146.35	255.368
1150.72	183.88
1155.08	105.317
1159.44	163.018
1163.79	173.516
1168.15	82.251
1172.5	145.436
1176.85	221.358
1181.19	14.5576
1185.54	22.3066
1189.88	164.301
1194.22	7.60156
1198.55	214.007
1202.89	157.627
1207.22	56.248
1211.55	187.127
1215.88	324.798
1220.2	159.405
1224.52	222.645
1228.84	220.695
1233.16	154.884
1237.47	178.108
1241.78	99.3652
1246.09	20.3955
1250.4	123.469
1254.7	184.031
1259.01	181.822
1263.31	249.039
1267.6	125.831
1271.9	272.04
1276.19	283.838
1280.48	79.4004
1284.77	521.078
1289.05	158.893
1293.33	30.1367
1297.61	206.798
1301.89	254.685
1306.16	245.152
1310.44	348.935
1314.71	126.68
1318.97	248.449
1323.24	184.19
1327.5	295.054
1331.76	238.306
1336.02	21.5039
1340.28	19.5215
1344.53	163.522
1348.78	231.522
1353.03	275.459
1357.27	323.262
1361.52	338.727
1365.76	321.619
1370	150.248
1374.23	191.072
1378.47	311.438
1382.7	137.859
1386.93	379.74
1391.15	65.7598
1395.38	232.58
1399.6	292.197
1403.82	207.31
1408.03	322.07
1412.25	215.516
1416.46	119.545
1420.67	333.856
1424.88	242.881
1429.08	234.762
1433.28	216.529
1437.48	215.363
1441.68	157.488
1445.87	113.471
1450.07	220.383
1454.26	107.619
1458.44	267.391
1462.63	146.535
1466.81	159.381
1470.99	16.8418
1475.17	64.0977
1479.34	241.383
1483.52	60.6074
1487.69	318.34
1491.86	17.666
1496.02	289.875
1500.19	140.078
1504.35	102.156
1508.51	161.236
1512.66	20.3281
1516.82	6.77344
1520.97	73.8711
1525.12	94.2402
1529.26	189.156
1533.41	305.992
1537.55	334.318
1541.69	241.166
1545.83	81.5762
1549.96	312.035
1554.09	250.016
1558.22	293.359
1562.35	28.3477
1566.48	179.789
1570.6	195.393
1574.72	61.5293
