Measurement: Raman, 514 nm, ccw, Raman Data Processed
Mineral: Fluorapophyllite-(K)
Rruff sample: R040095
Ideal chemistry: KCa_4_Si_8_O_20_F8H_2_O
Locality: unknown
Source: University of Arizona Mineral Museum
Description: Colorless crystals
Measured chemistry: (K_0.90_Na_0.04_)Ca_3.96_Si_8.00_O_20_(F_0.82_(OH)_0.18_)Â·8H_2_O
Pin_id: L00946
Orientation: Laser parallel to c* (0 0 1). Fiducial mark perpendicular to laser is parallel to a [1 0 0]
Raman shift (cm-1)	intensity
81.949	0
86.913	7272.82
91.874	17063.9
96.832	6393.73
101.788	7682.4
106.74	25094.3
111.689	14397.7
116.636	21642.9
121.579	12462.5
126.52	11031.1
131.457	9174.88
136.392	1907.5
141.324	1376.19
146.253	1067.17
151.179	2300.59
156.102	10664.5
161.022	24121.3
165.939	15290.1
170.854	4078.62
175.765	4043.2
180.674	13142.9
185.579	26453.3
190.482	17426.3
195.382	11478.4
200.279	17689.5
205.173	36092
210.064	54833.6
214.953	43297.1
219.838	28705.1
224.721	25493.2
229.6	23946
234.477	14472.6
239.351	6447.26
244.222	2678.98
249.091	1556.3
253.956	1604.56
258.819	2918.48
263.678	5468.44
268.535	7085.82
273.389	4464.4
278.241	3072.88
283.089	4166.59
287.935	7084.9
292.777	12802.6
297.617	18436.4
302.454	13917.8
307.289	7026.9
312.12	3889.06
316.949	3048.09
321.774	3334.49
326.597	4840.73
331.418	6975.95
336.235	8858.77
341.05	7560.61
345.861	3973.46
350.67	1253.27
355.477	216.886
360.28	38.042
365.081	157.813
369.878	521.614
374.673	271.756
379.466	306.666
384.255	619.706
389.042	609.425
393.826	282.898
398.607	20.0894
403.386	274.994
408.161	436.466
412.934	883.419
417.704	2439.97
422.472	7043.77
427.236	18329.7
431.998	32797.5
436.757	16934.2
441.514	5541.19
446.267	2549.9
451.018	1978.21
455.766	2792.38
460.512	4215.51
465.255	4099.9
469.995	2410.21
474.732	1345.72
479.467	1593.31
484.198	2455.98
488.927	1928.75
493.654	886.437
498.378	653.331
503.099	615.829
507.817	510.239
512.532	776.848
517.245	1041.84
521.956	1572.62
526.663	2150.92
531.368	3508.53
536.07	4770.04
540.769	5277.98
545.466	4599.84
550.16	4207.48
554.852	4068.33
559.54	4742.08
564.226	6180.57
568.91	9283.67
573.591	14771.3
578.269	23052.8
582.944	29446.1
587.617	26306
592.287	16818.6
596.954	9838.2
601.619	6219.18
606.281	4558.61
610.941	3907.25
615.597	3622.39
620.252	4073.97
624.903	4468.71
629.552	4802.44
634.198	5225.9
638.842	5867.69
643.483	7297.79
648.121	9790.27
652.757	13216.6
657.39	17251.5
662.021	19733.4
666.649	18183.9
671.274	13516
675.897	8673.15
680.517	5304.92
685.134	3269.69
689.749	1920.97
694.362	1306.96
698.971	795.061
703.578	279.217
708.183	251.402
712.785	31.5962
717.384	1.26172
721.981	88.187
726.575	185.645
731.167	252.61
735.756	198.727
740.342	185.118
744.926	143.938
749.507	8.18506
754.086	547.248
758.662	1366.6
763.236	2472.86
767.807	2705.79
772.375	1831.16
776.941	1118.6
781.505	1561.12
786.066	2772.02
790.624	3981.39
795.18	2876.59
799.733	1421.07
804.284	988.952
808.832	714.522
813.377	812.718
817.92	1043.5
822.461	1228.85
826.999	1679.75
831.534	2045.2
836.067	2354.21
840.598	2311.75
845.126	2065.84
849.651	1887.47
854.174	1540.56
858.695	1311.4
863.213	998.209
867.728	725.735
872.241	543.618
876.751	423.541
881.259	210.768
885.765	76.7139
890.268	92.9077
894.768	86.4658
899.266	178.56
903.761	80.6646
908.254	69.6646
912.745	14.5234
917.233	87.8184
921.718	0.310547
926.202	99.0571
930.682	3.54199
935.16	84.8125
939.636	114.015
944.109	113.154
948.58	216.256
953.048	229.303
957.514	397.291
961.978	623.221
966.438	1125.1
970.897	1418.94
975.353	787.746
979.807	485.535
984.258	435.634
988.707	733.125
993.153	1103.14
997.597	1899.77
1002.04	3194.35
1006.48	4154.98
1010.91	2858.27
1015.35	1658.27
1019.78	1339.77
1024.21	1373.76
1028.64	1928.3
1033.06	2757.31
1037.48	3796.89
1041.9	5946.52
1046.32	10218.9
1050.73	20347.4
1055.15	41081.7
1059.56	55564.1
1063.96	33004.9
1068.37	14515.5
1072.77	6599.21
1077.17	3517.98
1081.57	1991.04
1085.97	1327.09
1090.36	842.77
1094.75	729.889
1099.14	584.736
1103.53	780.803
1107.91	1557.31
1112.29	2511.4
1116.67	2589.24
1121.05	844.985
1125.42	348.779
1129.79	183.698
1134.16	163.516
1138.53	35.3921
1142.89	3.11963
1147.26	23.7436
1151.62	5.41699
1155.97	38.5102
1160.33	8.39258
1164.68	33.6797
1169.03	19.6416
1173.38	77.7476
1177.73	60.459
1182.07	18.5796
1186.41	92.5625
1190.75	62.4824
1195.09	57.2051
1199.42	22.6118
1203.76	32.478
1208.09	31.418
1212.41	68.9556
1216.74	10.7959
1221.06	168.835
1225.38	172.363
1229.7	116.001
1234.02	119.949
1238.33	127.524
1242.64	169.468
1246.95	265.897
1251.26	242.643
1255.56	189.446
1259.86	107.495
1264.16	116.576
1268.46	232.597
1272.76	132.608
1277.05	136.519
1281.34	182.231
1285.63	222.836
1289.91	249.253
1294.2	180.295
1298.48	230.708
1302.76	222.066
1307.04	180.223
1311.31	130.838
1315.58	94.9927
1319.85	107.145
1324.12	102.684
1328.38	63.877
1332.65	67.1436
1336.91	101.817
1341.17	106.08
1345.42	146.106
1349.68	116.613
1353.93	104.46
1358.18	22.0981
1362.43	113.058
1366.67	33.0117
1370.92	76.8154
1375.16	76.312
1379.4	37.335
1383.63	23.0259
1387.87	21.8511
1392.1	3.35644
1396.33	47.0405
1400.56	38.9312
1404.78	28.9951
1409.01	18.6299
1413.23	77.4766
1417.44	13.5527
1421.66	11.9287
1425.88	42.1006
1430.09	90.103
1434.3	99.3603
1438.51	134.924
1442.71	142.363
1446.91	165.013
1451.11	128.991
1455.31	205.254
1459.51	164.523
1463.7	84.6641
1467.9	165.725
1472.09	266.518
1476.27	197.949
1480.46	281.726
1484.64	298.464
1488.82	272.006
1493	293.629
1497.18	369.466
1501.36	322.252
1505.53	367.067
1509.7	453.843
1513.87	425.797
1518.03	487.22
1522.2	401.882
1526.36	397.011
1530.52	384.55
1534.67	273.569
1538.83	256.323
1542.98	145.901
1547.13	201.247
1551.28	151.641
1555.43	192.638
1559.57	67.0811
1563.72	79.4941
1567.86	29.9248
1571.99	73.3882
1576.13	68.0474
