Measurement: Raman, 514 nm, depolarized, Raman Data Processed
Mineral: Fluorapatite
Rruff sample: R050192
Ideal chemistry: Ca_5_(PO_4_)_3_F
Locality: Fulford, Eagle County, Colorado, USA
Source: Dave Bunk Minerals
Description: Pale green hexagonal prism
Measured chemistry: Ca_5.00_(P_1.00_O_4_)_3_(F_0.86_Cl_0.13_)
Pin_id: L00428
Orientation: Laser parallel to a* (1 0 0). Fiducial mark perpendicular to laser is parallel to -c [0 0 -1]
Raman shift (cm-1)	intensity
114.44	0
118.134	66.1655
121.827	29.0874
125.519	52.231
129.209	122.411
132.898	109.785
136.585	187.45
140.271	211.68
143.956	125.042
147.639	180.494
151.321	94.0041
155.002	144.16
158.681	168.661
162.359	67.0505
166.036	52.0969
169.711	64.1802
173.385	72.2698
177.058	89.0188
180.729	88.3047
184.399	142.078
188.067	36.4126
191.734	53.3108
195.4	130.852
199.064	121.038
202.727	181.898
206.389	148.448
210.049	219.825
213.708	228.151
217.366	160.583
221.022	149.117
224.677	79.9368
228.33	124.575
231.982	176.936
235.633	93.2378
239.282	132.273
242.93	94.4831
246.577	77.0066
250.222	42.6943
253.866	88.407
257.508	114.256
261.149	131.665
264.789	189.793
268.427	204.09
272.064	137.06
275.7	153.236
279.334	153.019
282.967	122.383
286.598	224.625
290.229	266.719
293.857	181.639
297.485	197.362
301.111	179.875
304.735	215.165
308.358	163.222
311.98	130.038
315.601	202.604
319.22	144.901
322.837	77.5142
326.454	61.687
330.068	27.6455
333.682	58.7744
337.294	22.9976
340.905	9.11963
344.514	132.987
348.122	71.73
351.729	53.2837
355.334	0.021973
358.938	99.3731
362.54	23.9053
366.141	14.7827
369.741	8.72998
373.339	11.752
376.936	31.2222
380.531	36.7266
384.126	41.1001
387.718	45.1172
391.31	137.659
394.9	99.7227
398.488	27.3916
402.075	68.8452
405.661	127.647
409.245	172.441
412.828	191.36
416.41	253.69
419.99	406.076
423.569	637.952
427.146	900.498
430.722	1117.17
434.297	967.974
437.87	844.224
441.442	633.068
445.012	743.539
448.581	750.495
452.149	617.088
455.715	496.973
459.28	369.517
462.843	228.345
466.405	280.103
469.965	90.0972
473.525	290.416
477.082	185.065
480.639	189.54
484.194	183.324
487.747	150.599
491.3	64.9273
494.85	68.2686
498.4	13.083
501.948	118.598
505.494	7.01709
509.039	8.19434
512.583	40.0459
516.125	51.8711
519.666	112.487
523.206	13.625
526.744	45.4228
530.281	46.4941
533.816	43.5029
537.35	64.1323
540.882	151.647
544.413	12.4355
547.943	129.622
551.471	13.9834
554.998	55.0234
558.523	172.251
562.047	138.792
565.57	142.446
569.091	335.612
572.611	450.29
576.129	497.674
579.646	821.429
583.162	971.16
586.676	881.802
590.188	1384.09
593.7	1332.38
597.209	537.378
600.718	462.087
604.225	402.772
607.73	650.203
611.235	511.418
614.737	401.795
618.239	313.232
621.739	232.418
625.237	142.305
628.734	83.5039
632.23	93.7256
635.724	98.4121
639.217	208.482
642.708	259.658
646.198	111.834
649.687	96.5557
653.174	161.304
656.66	182.638
660.144	147.443
663.627	70.0664
667.108	155.009
670.588	177.768
674.067	92.8457
677.544	166.926
681.02	53.1338
684.494	186.356
687.967	3.41504
691.438	100.34
694.908	45.7578
698.377	37.7705
701.844	218.79
705.31	2.15234
708.774	141.725
712.237	177.647
715.698	154.98
719.158	109.917
722.617	36.6768
726.074	60.334
729.53	289.141
732.984	111.401
736.437	127.672
739.888	54.6025
743.338	171.531
746.787	28.3135
750.234	232.808
753.68	87.5801
757.124	20.0791
760.567	80.9326
764.008	95.6543
767.448	21.0332
770.887	121.088
774.324	36.9023
777.759	174.003
781.194	144.825
784.626	60.3438
788.058	322.201
791.488	4.29883
794.916	124.309
798.343	207.863
801.769	150.895
805.193	158.775
808.616	194.444
812.037	196.713
815.457	135.559
818.875	100.345
822.292	72.3066
825.707	167.463
829.122	171.878
832.534	119.731
835.945	109.826
839.355	66.3047
842.763	81.5215
846.17	95.6045
849.576	248.258
852.98	14.8418
856.382	123.361
859.783	289.163
863.183	246.984
866.581	65.3535
869.978	202.997
873.373	104.841
876.767	164.587
880.159	119.823
883.55	14.7559
886.94	62.5234
890.328	54.0156
893.714	19.6289
897.1	48.7441
900.483	32.0449
903.866	151.041
907.246	131.732
910.626	14.2227
914.004	73.9688
917.38	15.3496
920.755	5.57227
924.129	103.467
927.501	38.9395
930.872	113.522
934.241	173.525
937.609	136.924
940.975	250.75
944.34	408.256
947.703	762.773
951.065	1401.48
954.426	3002.4
957.785	7168.98
961.142	12883
964.499	18848.4
967.853	10091
971.207	4349.97
974.558	1946.65
977.909	630.049
981.258	345.102
984.605	127.551
987.951	73.4394
991.295	37.248
994.639	156.084
997.98	61.4805
1001.32	134.272
1004.66	125.588
1008	256.553
1011.33	154.551
1014.67	20.1309
1018	266.248
1021.33	192.301
1024.66	460.932
1027.99	528.594
1031.32	545.17
1034.64	483.305
1037.97	596.723
1041.29	857.271
1044.61	1305.16
1047.93	1574.77
1051.25	1745.23
1054.56	1023.15
1057.88	923.129
1061.19	719.752
1064.51	340.18
1067.82	435.06
1071.13	260.853
1074.43	503.549
1077.74	757.404
1081.05	900.408
1084.35	453.035
1087.65	514.981
1090.95	284.014
1094.25	158.562
1097.55	50.7109
1100.85	92.2402
1104.14	58.5762
1107.43	267.443
1110.73	103.209
1114.02	74.8438
1117.31	232.148
1120.59	155.894
1123.88	173.955
1127.16	343.06
1130.45	351.147
1133.73	158.006
1137.01	195.688
1140.29	100.547
1143.57	266.609
1146.84	179.574
1150.12	103.475
1153.39	179.74
1156.66	213.607
1159.93	119.562
1163.2	287.32
1166.46	110.061
1169.73	137.022
1172.99	73.4727
1176.26	43.7168
1179.52	152.912
1182.78	166.51
1186.04	301.076
1189.29	126.461
1192.55	352.588
1195.8	202.074
1199.05	459.453
1202.31	284.106
1205.55	365.68
1208.8	189.832
1212.05	248.984
1215.29	221.059
1218.54	269.488
1221.78	358.926
1225.02	428.148
1228.26	357.184
1231.5	553.098
1234.73	151.59
1237.97	166.609
1241.2	410.734
1244.43	521.328
1247.66	163.527
1250.89	587.188
1254.12	52.168
1257.34	244.223
1260.57	118.117
1263.79	610.07
1267.01	375
1270.23	238.356
1273.45	198.758
1276.67	71.5352
1279.88	224.613
1283.1	0
