Measurement: Raman, 514 nm, depolarized, Raman Data Processed
Mineral: Fluorophlogopite
Rruff sample: R040039
Ideal chemistry: KMg_3_(Si_3_Al)O_10_F_2_
Locality: Franklin, Sussex County, New Jersey, USA
Source: University of Arizona Mineral Museum
Description: Brown hexagonal sheets
Measured chemistry: (K_0.92_Na_0.06_[box]_0.02_)_Σ=1_(Mg_2.94_Fe_0.04_Ti_0.02_)_Σ=3_(Si_2.98_Al_1.02_)O_10_(F_1.24_(OH)_0.76_)_Σ=2_; OH estimated by charge balance
Pin_id: M00049
Orientation: Laser parallel to a [1 0 0]. Fiducial mark perpendicular to laser is parallel to b* (0 1 0)
Raman shift (cm-1)	intensity
85.817	0
90.003	702.553
94.188	2669.26
98.37	6805.6
102.55	11791.2
106.729	9659.81
110.905	4379.31
115.079	2101.74
119.251	1155.49
123.422	623.031
127.59	207.12
131.756	197.57
135.92	31.158
140.082	80.601
144.242	28.319
148.4	102.692
152.556	21.861
156.71	254.892
160.862	172.339
165.012	329.554
169.16	749.92
173.306	1392.39
177.449	2433.02
181.591	4208.27
185.731	8633.53
189.869	19279.4
194.005	38665.9
198.139	46122.6
202.271	27589.2
206.4	11497.4
210.528	5406.95
214.654	2957.15
218.778	1877.69
222.9	1020.5
227.019	441.661
231.137	483.264
235.253	184.412
239.367	1.912
243.479	78.416
247.589	106.689
251.697	34.28
255.803	10.713
259.906	372.412
264.008	772.294
268.108	1515.03
272.206	3803.33
276.302	8430.33
280.396	10663.1
284.488	6334.23
288.578	3215.68
292.666	2037.67
296.753	1609.05
300.837	1526.94
304.919	2407.49
308.999	4018.27
313.077	5808.16
317.154	6487.73
321.228	6902.79
325.3	6326.8
329.371	4733.56
333.439	2883.19
337.506	1828.25
341.57	1144.92
345.633	798.044
349.693	614.095
353.752	541.603
357.809	654.599
361.863	752.804
365.916	883.506
369.967	1116.66
374.016	1217.98
378.063	721.808
382.108	405.085
386.151	353.787
390.192	382.203
394.231	272.203
398.269	204.928
402.304	112.269
406.337	107.25
410.369	49.266
414.398	50.451
418.426	29.083
422.452	46.439
426.475	101.364
430.497	81.694
434.517	107.399
438.535	128.066
442.551	241.463
446.565	252.656
450.577	342.648
454.588	463.433
458.596	313.996
462.602	295.342
466.607	144.515
470.61	122.619
474.61	3.426
478.609	138.9
482.606	75.058
486.601	40.946
490.594	115.482
494.585	205.473
498.575	144.096
502.562	156.446
506.548	228.521
510.531	235.312
514.513	236.839
518.493	19.154
522.47	42.206
526.446	189.961
530.421	202.452
534.393	20.607
538.363	84.599
542.331	33.843
546.298	210.083
550.263	206.05
554.225	57.791
558.186	81.25
562.145	114.441
566.103	209.451
570.058	169.61
574.011	160.896
577.963	144.959
581.912	275.889
585.86	55.7
589.806	60.979
593.75	183.205
597.692	401.737
601.632	478.751
605.571	495.704
609.507	832.432
613.442	918.932
617.375	1435.21
621.306	1901.27
625.235	2757.1
629.162	3632.71
633.087	4831.38
637.011	5614.65
640.932	5962.22
644.852	5488.88
648.77	5485.88
652.686	5444.12
656.6	5948.31
660.513	6391.84
664.423	7334.76
668.332	8929.01
672.239	12182.1
676.144	17650.5
680.047	23537
683.948	24782.7
687.848	20720.4
691.746	15349.6
695.641	10248
699.535	6451.42
703.427	3962.79
707.318	2699.99
711.206	2090.5
715.093	1637.66
718.978	1418.16
722.861	940.854
726.742	728.676
730.621	753.312
734.499	954.551
738.374	704.377
742.248	544.336
746.12	555.108
749.99	666.937
753.859	568.427
757.725	483.452
761.59	441.359
765.453	412.53
769.314	353.631
773.174	364.6
777.031	385.471
780.887	356.249
784.741	356.936
788.593	417.669
792.443	488.456
796.291	669.41
800.138	500.522
803.983	241.721
807.826	242.928
811.667	124.088
815.507	285.188
819.344	266.228
823.18	167.195
827.014	111.901
830.847	61.238
834.677	69.322
838.506	0.104
842.333	50.218
846.158	0.436
849.981	189.447
853.803	149.67
857.623	19.834
861.441	149.262
865.257	78.572
869.071	57.815
872.884	42.999
876.695	76.031
880.504	84.896
884.311	173.61
888.117	52.255
891.92	50.905
895.722	129.569
899.523	48.236
903.321	156.897
907.118	355.548
910.913	194.197
914.706	122.838
918.497	161.467
922.287	230.09
926.075	138.705
929.861	437.314
933.645	425.919
937.428	164.519
941.208	293.113
944.987	371.701
948.765	290.281
952.54	548.851
956.314	467.412
960.086	455.961
963.856	414.495
967.625	503.016
971.392	701.524
975.157	710.84
978.92	1090.77
982.682	1025.18
986.441	923.814
990.199	898.532
993.956	1106.37
997.71	1372.69
1001.46	1634.78
1005.21	1712.56
1008.96	2041.23
1012.71	1983.67
1016.46	2339.43
1020.2	2623
1023.94	3809.69
1027.68	6061.73
1031.42	9790.36
1035.16	12157.2
1038.9	10087.5
1042.63	6687.85
1046.36	4468.07
1050.09	3368.64
1053.82	2508.93
1057.55	1990.05
1061.27	1821.18
1065	1510.95
1068.72	1281.14
1072.44	1261.21
1076.16	1271.03
1079.87	1291.34
1083.59	1820.99
1087.3	4841.07
1091.01	1900.91
1094.72	1150.83
1098.43	1450.53
1102.14	1280.65
1105.84	1220.41
1109.55	1030.11
1113.25	569.445
1116.94	409.023
1120.64	268.818
1124.34	458.335
1128.03	227.479
1131.73	297.147
1135.42	236.578
1139.11	176.957
1142.8	27.089
1146.48	288.715
1150.16	80.703
1153.85	230.943
1157.53	246.295
1161.21	230.289
1164.88	7.972
1168.56	6.51
1172.23	15.619
1175.91	92.733
1179.58	198.174
1183.25	508.049
1186.91	365.891
1190.58	300.338
1194.24	66.219
1197.91	109.181
1201.57	56.387
1205.23	123.312
1208.88	328.89
1212.54	397.358
1216.19	413.033
1219.85	469.035
1223.5	445.34
1227.14	370.385
1230.79	266.201
1234.44	244.701
1238.08	338.818
1241.72	442.472
1245.37	455.748
1249	508.742
1252.64	371.037
1256.28	483.889
1259.91	226.225
1263.54	158.109
1267.17	249.561
1270.8	291.631
1274.43	361.533
1278.06	391.234
1281.68	438.926
1285.3	196.229
1288.92	57.42
1292.54	39.633
1296.16	45.227
1299.78	770.709
1303.39	206.293
1307	360.947
1310.61	195.922
1314.22	98.939
1317.83	270.834
1321.44	237.277
1325.04	29.119
1328.64	119.836
1332.24	59.465
1335.85	180.428
1339.44	159.572
1343.04	368.691
1346.63	477.385
1350.23	355.566
1353.82	323.68
1357.41	192.096
1360.99	40.008
1364.58	27.791
1368.17	166.553
1371.75	104.992
1375.33	202.047
1378.91	353.664
1382.49	428.451
1386.07	532.217
1389.64	256.105
1393.21	298.775
1396.79	121.41
1400.36	172.736
1403.92	174.146
1407.49	242.379
1411.06	402.199
1414.62	542.75
1418.18	328.145
1421.74	533.135
1425.3	319.723
1428.86	158.701
1432.42	270.146
1435.97	171.363
1439.52	116.988
1443.07	102.793
1446.62	208.027
1450.17	395.963
1453.72	991.727
1457.26	607.287
1460.81	648.832
1464.35	800.168
1467.89	499.896
1471.42	393.699
1474.96	398.465
1478.49	425.256
1482.03	140.842
1485.56	237.734
1489.09	345.639
1492.62	635.008
1496.15	606.682
1499.67	610.383
1503.2	727.031
1506.72	657.908
1510.24	433.035
1513.76	368.885
1517.28	0
