Measurement: Raman, 514 nm, ccw, Raman Data Processed
Mineral: Fluorapatite
Rruff sample: R040098
Ideal chemistry: Ca_5_(PO_4_)_3_F
Locality: Cerro de Mercado mine, Durango, Mexico
Source: Marcus Origlieri
Description: Pale yellow short hexagonal prism
Measured chemistry: Ca_5.00_((P_0.98_Si_0.01_S_0.01_)O_4_)_3_F_1.00_
Pin_id: M00032
Orientation: Laser parallel to [-1 -1 0]. Fiducial mark perpendicular to laser is parallel to c [0 0 1]
Raman shift (cm-1)	intensity
59.679	0
64.661	141.613
69.641	416.669
74.618	205.88
79.593	345.664
84.564	89.5652
89.532	65.5997
94.498	15.378
99.461	33.5775
104.421	90.2954
109.378	25.5358
114.332	341.385
119.283	349.294
124.232	1.67419
129.178	95.796
134.12	394.081
139.061	984.998
143.998	624.181
148.932	264.919
153.864	400.43
158.792	575.192
163.718	438.123
168.641	374.217
173.562	244.042
178.479	133.655
183.394	104.052
188.305	19.2316
193.214	23.8115
198.12	75.2776
203.024	36.0702
207.924	95.4972
212.822	133.751
217.717	133.244
222.609	118.106
227.498	226.015
232.385	307.705
237.269	473.385
242.149	251.398
247.027	141.769
251.903	199.225
256.775	238.289
261.645	489.959
266.512	978.477
271.376	776.886
276.237	422.392
281.096	328.07
285.952	237.55
290.805	201.848
295.655	220.966
300.502	349.902
305.347	399.656
310.189	539.225
315.028	408.607
319.864	248.805
324.698	170.648
329.528	61.6575
334.356	72.3769
339.182	54.2048
344.004	74.8193
348.824	55.845
353.641	15.6133
358.455	53.8894
363.266	55.2483
368.075	8.02783
372.881	227.266
377.684	69.1936
382.484	42.0801
387.282	108.622
392.077	23.7817
396.869	43.6467
401.658	44.3965
406.445	86.5056
411.229	93.6052
416.01	107.715
420.788	152.39
425.564	373.792
430.337	530.837
435.107	769.657
439.875	1134.25
444.639	1505.63
449.401	1702.79
454.161	1133.46
458.917	660.446
463.671	438.945
468.422	246.23
473.17	126.766
477.916	190.433
482.659	127.75
487.399	96.7832
492.137	12.4006
496.872	93.4009
501.604	69.5664
506.333	31.8328
511.06	81.8865
515.784	29.3957
520.505	30.0239
525.223	25.1721
529.939	176.767
534.652	65.5396
539.363	31.9993
544.07	40.1645
548.775	35.8543
553.478	56.0117
558.177	115.792
562.874	108.523
567.568	203.307
572.26	329.509
576.949	1039.96
581.635	2449.75
586.319	976.489
590.999	830.794
595.677	482.386
600.353	530.954
605.026	1366.73
609.696	1546.8
614.363	691.457
619.028	672.06
623.69	267.296
628.349	94.3491
633.006	43.4485
637.66	64.2673
642.311	163.473
646.96	212.383
651.606	257.06
656.25	264.768
660.89	311.936
665.528	215.208
670.164	86.3721
674.797	68.1504
679.427	77.0312
684.054	90.1694
688.679	62.4194
693.301	6.50342
697.921	24.4106
702.537	46.8965
707.152	73.834
711.763	122.195
716.372	92.5498
720.978	7.76172
725.582	115.865
730.183	15.9683
734.781	66.9263
739.377	318.662
743.97	105.444
748.561	120.444
753.149	0.283203
757.734	25.3525
762.316	38.3423
766.896	185.421
771.474	48.9883
776.048	111.144
780.62	74.6113
785.19	104.189
789.757	112.737
794.321	155.94
798.883	74.9473
803.442	169.671
807.998	140.706
812.552	21.8071
817.103	20.0425
821.652	113.17
826.198	52.7241
830.741	134.912
835.282	10.0391
839.82	20.6782
844.355	94.6943
848.888	89.731
853.419	164.533
857.946	236.12
862.472	169.361
866.994	155.976
871.514	169.456
876.032	107.338
880.546	74.8096
885.059	33.5708
889.568	54.3433
894.075	1.39795
898.58	24.8794
903.082	23.0215
907.581	11.6719
912.078	64.5259
916.572	172.693
921.063	155.3
925.552	107.606
930.039	60.0962
934.523	247.413
939.004	261.568
943.483	611.306
947.959	1068.09
952.432	1958.54
956.903	4910.41
961.372	21811.6
965.838	40304.4
970.301	11177.9
974.762	3417.91
979.22	1104.28
983.676	642.545
988.129	524.561
992.58	150.471
997.028	22.1201
1001.47	100.606
1005.92	617.986
1010.36	494.636
1014.79	366.768
1019.23	204.28
1023.66	249.059
1028.09	506.076
1032.52	1230.64
1036.94	957.423
1041.37	594.382
1045.79	488.705
1050.2	340.728
1054.62	431.099
1059.03	837.427
1063.44	487.769
1067.85	268.656
1072.26	361.035
1076.66	451.793
1081.06	579.069
1085.45	240.821
1089.85	79.1807
1094.24	43.9062
1098.63	52.0879
1103.02	4.36133
1107.4	22.1152
1111.79	72.0644
1116.17	58.3779
1120.54	239.952
1124.92	240.004
1129.29	128.585
1133.66	104.249
1138.03	96.0381
1142.39	91.8672
1146.75	186.279
1151.11	151.19
1155.47	15.7588
1159.83	99.3213
1164.18	12.1289
1168.53	56.0205
1172.87	79.5225
1177.22	36.1279
1181.56	251.122
1185.9	113.461
1190.24	28.4102
1194.57	2.79883
1198.9	255.022
1203.23	77.7197
1207.56	34.5557
1211.89	313.489
1216.21	107.367
1220.53	93.7451
1224.85	46.9736
1229.16	215.401
1233.47	218.321
1237.78	355.863
1242.09	66.4853
1246.4	7.24023
1250.7	232.516
1255	47.3867
1259.3	103.572
1263.59	95.749
1267.88	112.18
1272.17	141.206
1276.46	60.4805
1280.75	137.047
1285.03	42.1299
1289.31	219.345
1293.59	75.9072
1297.87	22.7812
1302.14	93.4492
1306.41	367.758
1310.68	117.391
1314.94	176.737
1319.21	344.38
1323.47	58.6006
1327.72	249.752
1331.98	120.017
1336.23	13.8965
1340.49	68.8164
1344.73	60.1035
1348.98	170.303
1353.22	169.189
1357.47	295.293
1361.7	225.267
1365.94	176.843
1370.17	172.642
1374.41	226.559
1378.64	338.155
1382.86	218.599
1387.09	283.995
1391.31	152.881
1395.53	302.001
1399.75	327.416
1403.96	220.873
1408.17	133.025
1412.38	160.356
1416.59	202.977
1420.8	163.645
1425	105.264
1429.2	77.4004
1433.4	59.7685
1437.59	183.874
1441.78	168.147
1445.97	214.295
1450.16	9.98828
1454.35	99.5439
1458.53	84.7607
1462.71	40.7168
1466.89	136.219
1471.07	283.877
1475.24	117.578
1479.41	211.699
1483.58	29.2559
1487.75	163.584
1491.91	217.715
1496.07	173.459
1500.23	193.115
1504.39	15.416
1508.55	149.834
1512.7	85.9668
1516.85	178.959
1520.99	214.273
1525.14	120.098
1529.28	233.352
1533.42	176.039
1537.56	118.184
1541.7	360.232
1545.83	32.627
1549.96	68.8789
1554.09	88.9981
1558.22	32.0156
1562.34	117.326
1566.46	39.4258
1570.58	86.9121
1574.7	64.5977
