Measurement: Raman, 514 nm, depolarized, Raman Data Processed
Mineral: Fluor-uvite
Rruff sample: R050172
Ideal chemistry: CaMg_3_(Al_5_Mg)(Si_6_O_18_)(BO_3_)_3_(OH)_3_F
Locality: Pierrepont, New York, USA
Source: Marcus Origlieri
Description: Black prismatic crystal
Measured chemistry: (Ca_0.64_Na_0.36_)(Mg_0.56_Fe^2+^_0.34_Al_0.08_Ti_0.02_)_3_(Mg_1.00_Al_5.00_)(BO_3_)_3_Si_6.00_O_18_((OH)_3.45_F_0.55_)
Pin_id: L00240
Orientation: Laser parallel to -a* (-1 0 0). Fiducial mark perpendicular to laser is parallel to c [0 0 1]
Raman shift (cm-1)	intensity
169.391	0
173.531	34.245
177.669	101.083
181.806	13.235
185.94	163.29
190.073	343.451
194.204	522.699
198.332	850.861
202.459	1332.41
206.584	1903.85
210.707	2100.11
214.828	1864.52
218.947	1338.57
223.064	1077.49
227.179	1194.85
231.293	1793.43
235.404	2744.19
239.514	3377
243.621	2897.2
247.727	1850.37
251.831	968.974
255.933	566.236
260.033	436.493
264.131	309.508
268.227	191.047
272.321	215.89
276.413	105.862
280.504	27.825
284.592	29.424
288.679	28.059
292.764	11.083
296.847	45.883
300.928	42.233
305.007	176.12
309.084	252.426
313.159	403.853
317.233	440.125
321.304	337.016
325.374	317.038
329.442	375.04
333.508	455.313
337.572	575.304
341.634	765.458
345.694	973.3
349.753	1321.48
353.809	1978.81
357.864	2947.28
361.916	3893.88
365.967	4475.46
370.016	4066.93
374.064	3181.47
378.109	2263.23
382.152	1683.18
386.194	1282.25
390.233	991.053
394.271	909.917
398.307	789.98
402.341	704.201
406.374	617.258
410.404	511.218
414.433	435.096
418.459	355.012
422.484	281.522
426.507	203.592
430.528	154.878
434.547	177.291
438.565	115.412
442.58	106.797
446.594	84.478
450.606	18.415
454.616	143.143
458.624	6.98
462.631	37.335
466.635	28.494
470.638	181.541
474.639	292.897
478.638	374.169
482.635	474.05
486.63	578.044
490.624	546.953
494.615	624.391
498.605	520.67
502.593	452.782
506.579	411.733
510.564	310.535
514.546	229.219
518.527	178.837
522.506	252.389
526.483	268.926
530.458	282.449
534.431	278.988
538.403	226.55
542.373	250.16
546.341	184.806
550.307	129.483
554.271	40.278
558.234	31.1
562.195	30.353
566.154	50.843
570.111	70.761
574.066	3.702
578.019	65.665
581.971	56.196
585.921	0.021
589.869	46.462
593.815	0.128
597.76	39.77
601.703	14.027
605.644	6.443
609.583	27.138
613.52	20.627
617.455	137.086
621.389	168.08
625.321	348.482
629.251	450.422
633.18	461.593
637.106	573.783
641.031	741.991
644.954	809.227
648.875	913.484
652.795	1010.75
656.712	1079.44
660.628	1254.62
664.542	1342.82
668.455	1311.59
672.365	1087.61
676.274	882.716
680.181	716.738
684.086	689.942
687.99	790.748
691.891	971.969
695.791	1319.39
699.689	1656.88
703.586	1600.85
707.48	1139.58
711.373	700.161
715.264	493.81
719.154	418.544
723.041	427.816
726.927	438.148
730.811	450.844
734.693	475.556
738.574	425.143
742.453	527.726
746.33	525.907
750.205	668.765
754.079	711.4
757.95	718.789
761.82	639.199
765.689	598.617
769.555	644.97
773.42	638.264
777.283	558.507
781.144	468.678
785.004	471.747
788.862	432.701
792.718	332.539
796.572	317.258
800.425	232.855
804.276	180.33
808.125	148.678
811.972	55.895
815.818	76.96
819.662	4.871
823.504	10.391
827.345	24.902
831.183	27.687
835.02	23.793
838.856	30.228
842.689	6.965
846.521	15.177
850.351	50.694
854.18	11.618
858.006	27.141
861.831	15.43
865.655	67.613
869.476	53.466
873.296	19.126
877.114	107.592
880.93	137.884
884.745	83.009
888.558	37.002
892.369	154.88
896.179	108.64
899.987	123.275
903.793	164.793
907.597	147.177
911.4	154.424
915.201	179.523
919.001	162.473
922.798	243.275
926.594	202.928
930.388	269.43
934.181	283.783
937.972	304.987
941.761	378.042
945.548	413.951
949.334	453.312
953.118	523.33
956.901	597.559
960.681	607.133
964.46	550.576
968.238	634.798
972.013	676.312
975.787	569.64
979.56	602.573
983.33	570.035
987.099	594.885
990.866	537.788
994.632	585.677
998.396	636.396
1002.16	654.065
1005.92	618.197
1009.68	752.661
1013.43	851.85
1017.19	907.198
1020.94	1078.55
1024.7	1235.33
1028.45	1380.7
1032.19	1425.54
1035.94	1489.74
1039.69	1536.82
1043.43	1534.23
1047.17	1482.93
1050.91	1280.47
1054.65	1239.23
1058.39	1159.64
1062.13	1122.68
1065.86	1048.46
1069.59	1060.32
1073.32	984.113
1077.05	808.774
1080.78	784.387
1084.5	629.958
1088.23	600.205
1091.95	505.631
1095.67	462.103
1099.39	419.804
1103.11	451.166
1106.82	282.492
1110.54	314.785
1114.25	213.051
1117.96	203.297
1121.67	209.529
1125.38	212.758
1129.08	200.04
1132.79	97.406
1136.49	76.891
1140.19	72.401
1143.89	92.018
1147.59	110.768
1151.28	109.631
1154.98	21.585
1158.67	17.34
1162.36	0.699
1166.05	55.952
1169.74	23.112
1173.43	25.259
1177.11	2.53
1180.79	36.637
1184.47	10.033
1188.15	11.017
1191.83	15.079
1195.51	25.936
1199.18	2.93
1202.86	8.959
1206.53	21.747
1210.2	58.421
1213.87	49.083
1217.54	14.589
1221.2	77.443
1224.86	90.118
1228.53	112.158
1232.19	74.771
1235.85	97.374
1239.5	68.079
1243.16	135.582
1246.81	117.19
1250.46	110.801
1254.12	106.472
1257.76	108.089
1261.41	103.708
1265.06	91.364
1268.7	78.984
1272.34	110.7
1275.99	148.365
1279.62	133.157
1283.26	66.885
1286.9	110.466
1290.53	23.245
1294.17	55.846
1297.8	57.262
1301.43	23.286
1305.06	65.233
1308.68	78.877
1312.31	119.664
1315.93	52.234
1319.56	54.406
1323.18	34.604
1326.8	4.058
1330.41	10.714
1334.03	28.228
1337.64	45.928
1341.26	77.93
1344.87	93.759
1348.47	25.458
1352.08	50.114
1355.69	50.349
1359.29	22.244
1362.9	23.966
1366.5	60.817
1370.1	65.515
1373.7	57.052
1377.29	81.503
1380.89	153.629
1384.48	56.219
1388.08	124.76
1391.67	46.285
1395.26	17.793
1398.84	52.279
1402.43	72.582
1406.01	32.911
1409.6	66.055
1413.18	119.09
1416.76	107.148
1420.34	11.744
1423.91	17.247
1427.49	42.554
1431.06	3.525
1434.63	23.316
1438.2	53.904
1441.77	2.506
1445.34	78.064
1448.9	42.006
1452.47	60.803
1456.03	87.605
1459.59	94.283
1463.15	101.105
1466.71	120.877
1470.27	4.409
1473.82	56.453
1477.37	77.257
1480.93	54.534
1484.48	34.373
1488.03	94.245
1491.57	35.64
1495.12	47.023
1498.66	63.531
1502.2	87.427
1505.75	73.229
1509.29	76.45
1512.82	37.615
1516.36	0.443
1519.89	0
