Measurement: Raman, 514 nm, depolarized, Raman Data Processed
Mineral: Fluorapophyllite-(K)
Rruff sample: R050021
Ideal chemistry: KCa_4_Si_8_O_20_F8H_2_O
Locality: Poona, Maharashtra State, India
Source: Eugene Schlepp
Description: Colorless tetragonal prisms
Measured chemistry: (K_0.98_Na_0.02_)_Σ=1_Ca_4.00_Si_8.00_O_20_(F_0.84_(OH)_0.16_)_Σ=1_·8H_2_O
Pin_id: L00208
Orientation: Laser parallel to -c* (0 0 -1). Fiducial mark perpendicular to laser is parallel to a [1 0 0]
Raman shift (cm-1)	intensity
103.82	0
107.995	9210.61
112.168	6647.65
116.339	782.47
120.508	113.415
124.675	239.876
128.84	659.166
133.003	901.688
137.164	2115.21
141.323	3240.84
145.48	2015.95
149.635	438.27
153.788	4.979
157.939	192.048
162.088	1141.82
166.235	3636.02
170.38	4196.7
174.523	1070.6
178.664	243.452
182.803	144.5
186.94	660.771
191.076	612.954
195.209	1130.15
199.34	2013.01
203.47	3534.37
207.597	5437.45
211.722	7481.87
215.846	5467.37
219.967	2733.74
224.087	1600.82
228.204	2038.19
232.32	2966.86
236.434	2149.28
240.545	666.231
244.655	95.236
248.763	216.515
252.869	120.519
256.973	414.513
261.075	339.935
265.175	111.218
269.273	438.625
273.369	205.326
277.463	119.341
281.556	105.956
285.646	7.633
289.734	319.07
293.821	1426.96
297.905	2802.55
301.988	2613.1
306.069	1733.51
310.147	1943.25
314.224	2012.11
318.299	1880.01
322.372	2157.28
326.443	2434.02
330.512	2260.26
334.579	2016.03
338.645	2151.34
342.708	2274.48
346.769	1663.24
350.829	660.31
354.887	387.236
358.942	263.07
362.996	208.566
367.048	143.928
371.098	249.237
375.146	924.587
379.192	879.971
383.236	135.536
387.279	131.129
391.319	686.797
395.358	1342.66
399.394	1538.4
403.429	1574.22
407.462	1557.78
411.493	1202.96
415.522	905.25
419.549	782.336
423.575	1669.3
427.598	3994.77
431.619	8436.91
435.639	8352.07
439.657	3600.83
443.673	1512.91
447.687	723.016
451.699	151.406
455.709	73.896
459.717	343.436
463.724	600.609
467.728	67.932
471.731	125.174
475.732	1052.34
479.731	2399.43
483.728	5276.48
487.723	8463.47
491.716	5030.41
495.708	2667.32
499.697	1484.19
503.685	1231.05
507.671	1407.95
511.655	1445.07
515.637	1582.27
519.617	1288.57
523.596	1476.25
527.572	2415.24
531.547	3662.26
535.52	4870.07
539.491	5779.77
543.46	6037.25
547.427	5527.48
551.393	4174.66
555.356	3568.57
559.318	3163.15
563.278	3833.36
567.236	4690.89
571.192	5791.34
575.147	8091.21
579.099	12406.6
583.05	19129
586.999	20564.5
590.946	14537.1
594.891	8667.9
598.834	5384.77
602.776	3649.4
606.715	2518.05
610.653	1493.61
614.589	1113.8
618.523	1178.35
622.456	1120.3
626.386	904.799
630.315	748.217
634.242	921.598
638.167	1534.95
642.09	1498.28
646.012	1201.57
649.931	1254.84
653.849	1988.14
657.765	2721.57
661.679	3324.87
665.592	3028.2
669.502	2411.5
673.411	1995.56
677.318	1698.74
681.223	1077.87
685.126	491.42
689.028	204.861
692.927	338.279
696.825	541.711
700.721	414.834
704.616	22.197
708.508	209.531
712.399	257.404
716.288	204.07
720.175	375.279
724.06	142.172
727.944	127.281
731.825	217.234
735.705	282.199
739.584	421.328
743.46	280.062
747.334	91.475
751.207	13.387
755.078	304.354
758.947	563.811
762.815	570.885
766.68	177.631
770.544	35.773
774.406	210.58
778.267	718.514
782.125	554.045
785.982	479.395
789.837	434.578
793.69	1079.59
797.542	1204.44
801.391	819.117
805.239	493.629
809.085	118.553
812.93	152.729
816.772	682.102
820.613	718.428
824.452	646.377
828.29	429.596
832.125	37.361
835.959	425.355
839.791	767.926
843.621	1024.5
847.45	793.197
851.277	623.652
855.102	483.822
858.925	1009.29
862.746	1070.19
866.566	923.178
870.384	626.23
874.2	63.982
878.015	138.342
881.828	527.98
885.639	883.217
889.448	935.461
893.256	345.732
897.061	143.541
900.865	276.32
904.668	484.08
908.468	684.352
912.267	663.707
916.064	329.391
919.86	72.928
923.653	268.744
927.445	419.662
931.236	852.01
935.024	711.779
938.811	472.611
942.596	433.469
946.379	314.338
950.161	595.227
953.94	966.141
957.719	977.076
961.495	547.752
965.27	121.35
969.043	70.494
972.814	480.234
976.583	790.957
980.351	780.91
984.117	615.855
987.882	326.754
991.644	106.709
995.405	75.746
999.165	531.553
1002.92	1398.2
1006.68	1112.77
1010.43	753.871
1014.18	1225.22
1017.93	564.631
1021.68	1106.6
1025.43	1302.56
1029.18	1445.02
1032.92	1207.53
1036.66	765.195
1040.4	1128.39
1044.14	2031.86
1047.88	3316.17
1051.62	5889.98
1055.35	10676.5
1059.08	21530.7
1062.81	28563.1
1066.54	17757.7
1070.27	9672.51
1073.99	6157.41
1077.72	4352.48
1081.44	3325.95
1085.16	2631.53
1088.88	1947.23
1092.59	2063.08
1096.31	1539.32
1100.02	1655.45
1103.73	1821.72
1107.44	1748.04
1111.15	1293.75
1114.86	1014.74
1118.57	698.607
1122.27	825.191
1125.97	927.434
1129.67	1094.58
1133.37	1081.39
1137.07	1137.9
1140.76	433.479
1144.45	117.896
1148.15	114.949
1151.84	341.842
1155.53	849.1
1159.21	936.047
1162.9	1093.29
1166.58	490.566
1170.26	207.762
1173.94	155.104
1177.62	93.139
1181.3	360.617
1184.97	728.074
1188.65	1036.68
1192.32	568.963
1195.99	167.207
1199.66	44.166
1203.33	133.6
1206.99	240.855
1210.65	511.562
1214.32	858.037
1217.98	1252.15
1221.64	1061.56
1225.29	541.215
1228.95	291.043
1232.6	481.041
1236.26	221.219
1239.91	651.656
1243.56	652.496
1247.2	1323.71
1250.85	1097.72
1254.49	840.463
1258.13	654.18
1261.78	340.82
1265.41	201.125
1269.05	402.91
1272.69	834.938
1276.32	1268.89
1279.95	1266.63
1283.59	1101.66
1287.21	481.047
1290.84	420.574
1294.47	140.105
1298.09	69.461
1301.72	318.543
1305.34	786.52
1308.96	835.324
1312.58	1284.85
1316.19	1134.87
1319.81	783.871
1323.42	676.996
1327.03	242.672
1330.64	14.168
1334.25	42.195
1337.86	480.305
1341.46	971.91
1345.07	1490.68
1348.67	1468.93
1352.27	1085.24
1355.87	490.09
1359.46	7.68
