Measurement: Raman, 514 nm, depolarized, Raman Data Processed
Mineral: Fluorapatite
Rruff sample: R060333
Ideal chemistry: Ca_5_(PO_4_)_3_F
Locality: Lovozero Massif, Kola Peninsula, U.S.S.R.
Source: Michael Scott
Description: Colorless fragment associated with red villiaumite
Measured chemistry: (Ca_4.29_Sr_0.47_Na_0.12_Ce_0.07_La_0.06_)_Σ=5_((P_0.99_Si_0.01_)_Σ=1_O_4_)_3_F_1.00_
Pin_id: L01212
Orientation: Laser parallel to a* (1 0 0). Fiducial mark perpendicular to laser is parallel to -c [0 0 -1]
Raman shift (cm-1)	intensity
164.221	0
169.145	109.208
174.066	109.307
178.984	100.003
183.9	144.238
188.812	41.7129
193.722	11.2393
198.628	217.731
203.532	388.347
208.433	419.972
213.331	280.231
218.226	284.743
223.118	208.118
228.007	365.339
232.893	372.942
237.777	270.182
242.657	216.795
247.535	292.084
252.41	380.251
257.281	451.647
262.15	627.594
267.017	484.574
271.88	441.363
276.74	448.935
281.598	518.211
286.453	566.78
291.304	501.012
296.153	416.978
301	504.19
305.843	340.424
310.683	328.39
315.521	165.753
320.356	78.2832
325.188	64.2085
330.017	11.6318
334.843	39.7002
339.666	34.1792
344.487	69.3989
349.305	40.6826
354.12	5.63281
358.932	19.2236
363.741	185.39
368.548	71.0508
373.352	164.587
378.153	208.779
382.951	31.8892
387.746	126.336
392.539	16.5107
397.328	274.53
402.115	175.527
406.899	300.947
411.681	320.923
416.459	863.731
421.235	1223.9
426.008	1710.15
430.779	2011.02
435.546	1555.09
440.311	1532.13
445.073	1780.57
449.832	1701.41
454.588	1267.66
459.342	1035.52
464.093	646.453
468.841	466.853
473.587	396.825
478.329	338.084
483.069	252.885
487.806	88.2666
492.541	135.961
497.272	222.622
502.001	5.45019
506.728	216.51
511.451	101.461
516.172	85.1953
520.89	40.5645
525.605	157.471
530.318	29.7129
535.028	16.3896
539.735	46.542
544.44	91.9648
549.141	115.618
553.841	201.1
558.537	176.632
563.231	333.63
567.922	382.555
572.61	727.787
577.296	1624.59
581.979	1926.4
586.659	2193.39
591.336	2625.6
596.011	1692.01
600.683	1334.54
605.353	2271.13
610.02	1321.07
614.684	896.051
619.345	515.421
624.004	306.994
628.661	184.043
633.314	227.797
637.965	117.948
642.613	331.848
647.259	278.261
651.902	521.708
656.542	472.304
661.18	492.091
665.815	384.086
670.447	213.992
675.077	293.363
679.704	145.977
684.328	213.802
688.95	223.753
693.569	62.5547
698.186	205.927
702.8	147.352
707.411	35.7969
712.02	158.394
716.626	46.0772
721.23	172.226
725.83	71.2246
730.429	147.065
735.024	151.932
739.618	145.452
744.208	90.3418
748.796	36.0869
753.381	62.206
757.964	1.82129
762.544	91.1953
767.122	107.935
771.697	206.216
776.269	111.246
780.839	109.731
785.406	11.9219
789.971	13.2832
794.533	12.5684
799.093	146.369
803.65	6.61133
808.204	160.162
812.756	77.8809
817.305	15.5137
821.852	283.959
826.396	161.67
830.938	125.728
835.477	167.307
840.013	256.037
844.547	202.856
849.079	115.475
853.608	273.793
858.134	280.772
862.658	259.424
867.179	388.809
871.698	135.291
876.214	384.18
880.728	598.453
885.239	218.053
889.748	339.625
894.254	196.732
898.758	29.5039
903.259	99.3477
907.758	141.022
912.254	10.2832
916.748	77.9668
921.239	154.275
925.728	73.5625
930.214	248.59
934.698	382.221
939.179	562.225
943.657	1308.92
948.134	2828.56
952.607	7220.49
957.079	19905.9
961.548	37039.8
966.014	26729.9
970.478	11899.1
974.939	4099.33
979.398	1335.44
983.854	343.828
988.308	432.836
992.76	23.6738
997.209	254.881
1001.65	440.787
1006.1	267.947
1010.54	337.365
1014.98	331.752
1019.42	640.611
1023.85	361.531
1028.28	1011.3
1032.71	1212.98
1037.14	1147.17
1041.56	1472.61
1045.99	1695.35
1050.41	1906.16
1054.82	1897.39
1059.24	1461.4
1063.65	1013.09
1068.06	752.945
1072.47	937.615
1076.87	1472.45
1081.28	1192.28
1085.68	903.107
1090.08	463.027
1094.47	482.029
1098.86	269.957
1103.25	46.877
1107.64	13.9883
1112.03	111.873
1116.41	15.9453
1120.79	195.266
1125.17	328.731
1129.55	54.625
1133.92	28.9121
1138.29	87.4668
1142.66	57.3867
1147.03	81.0762
1151.39	16.4473
1155.76	90.5117
1160.12	44.7051
1164.47	92.0391
1168.83	70.2715
1173.18	122.238
1177.53	170.619
1181.88	64.5312
1186.22	163.334
1190.57	195.141
1194.91	83.0019
1199.25	382.746
1203.58	218.682
1207.92	59.3965
1212.25	323.994
1216.58	235.549
1220.9	265.059
1225.23	336.523
1229.55	192.938
1233.87	280.812
1238.19	101.887
1242.5	158.676
1246.81	224.453
1251.12	196.172
1255.43	243.012
1259.74	196.777
1264.04	277.203
1268.34	200.988
1272.64	50.5234
1276.94	15.125
1281.23	91.957
1285.52	68.8398
1289.81	161.781
1294.1	358.566
1298.39	153.039
1302.67	22.5547
1306.95	383.715
1311.23	355.422
1315.5	286.582
1319.78	188.727
1324.05	390.785
1328.32	321.277
1332.58	216.254
1336.85	215
1341.11	171.059
1345.37	273.926
1349.63	216.762
1353.88	276.598
1358.13	295.227
1362.38	241.84
1366.63	289.234
1370.88	323.106
1375.12	330.758
1379.36	322.934
1383.6	235.477
1387.84	315.816
1392.08	97.8242
1396.31	111.707
1400.54	290.117
1404.77	204.16
1408.99	110.106
1413.21	187.164
1417.44	189.828
1421.66	222.477
1425.87	78.4648
1430.09	214.668
1434.3	349.422
1438.51	124.148
1442.72	282.637
1446.92	166.555
1451.13	310.441
1455.33	151.422
1459.53	481.938
1463.72	153.344
1467.92	223.473
1472.11	539.293
1476.3	31.207
1480.49	81.6875
1484.67	226.004
1488.86	150.422
1493.04	201.25
1497.22	10.6289
1501.39	20.1289
1505.57	239.871
1509.74	381.012
1513.91	308.547
1518.08	210
1522.25	289.898
1526.41	526.566
1530.57	108.996
1534.73	32.0664
1538.89	397.703
1543.04	305.16
1547.2	40.3984
1551.35	484.477
1555.49	386.481
1559.64	156.512
1563.79	0
