Measurement: Raman, 514 nm, depolarized, Raman Data Processed
Mineral: Fluorapatite
Rruff sample: R060421
Ideal chemistry: Ca_5_(PO_4_)_3_F
Locality: Levant mine, St. Just, Cornwall, England
Source: Michael Scott
Description: Brown hexagonal prisms
Measured chemistry: (Ca_4.93_[box]_0.07_)_Σ=5_((PO_4_)_2.86_(CO_3_)_0.14_)_Σ=3_F_1.00_ ; C not measured but estimated by difference and charge balance
Pin_id: M00175
Orientation: Laser parallel to c* (0 0 1). Fiducial mark perpendicular to laser is parallel to a [1 0 0]
Raman shift (cm-1)	intensity
124.288	0
129.209	58.4045
134.127	203.371
139.043	441.442
143.956	165.246
148.867	107.883
153.775	107.884
158.681	181.082
163.585	112.816
168.486	144.109
173.385	73.1194
178.282	100.015
183.176	109.472
188.067	17.2805
192.956	68.6699
197.843	57.0928
202.727	61.9106
207.609	68.646
212.489	68.2734
217.366	121.773
222.24	48.0908
227.112	158.28
231.982	12.6514
236.849	235.688
241.714	104.961
246.577	46.0889
251.437	56.3213
256.294	177.406
261.149	244.934
266.002	340.22
270.852	307.618
275.7	135.372
280.545	151.246
285.388	198.9
290.229	29.7246
295.067	227.614
299.902	169.211
304.735	157.346
309.566	206.357
314.394	176.188
319.22	138.445
324.043	195.819
328.864	16.7422
333.682	90.4648
338.498	117.857
343.311	25.8374
348.122	41.3423
352.931	18.1821
357.737	22.7681
362.54	110.772
367.341	37.3926
372.14	20.8989
376.936	42.7978
381.73	197.76
386.521	76.3188
391.31	56.0991
396.096	198.29
400.88	78.1123
405.661	202.239
410.44	144.313
415.216	210.824
419.99	237.3
424.761	362.51
429.53	363.084
434.297	485.013
439.061	725.109
443.822	691.307
448.581	781.465
453.337	417.043
458.091	329.884
462.843	345.677
467.592	156.144
472.338	215.848
477.082	60.623
481.824	80.5469
486.563	213.221
491.3	102.839
496.034	83.2949
500.765	33.3428
505.494	15.9736
510.221	30.8496
514.945	148.984
519.666	55.831
524.385	11.5185
529.102	160.953
533.816	33.2051
538.527	138.018
543.236	100.325
547.943	75.9394
552.647	136.045
557.348	10.084
562.047	146.078
566.744	134.42
571.438	405.833
576.129	673.148
580.818	1082.45
585.504	433.816
590.188	415.022
594.87	296.151
599.549	420.707
604.225	674.971
608.899	617.28
613.57	307.829
618.239	395.502
622.905	297.845
627.569	314.103
632.23	271.126
636.889	210.806
641.545	241.325
646.198	201.81
650.849	229.753
655.498	253.573
660.144	365.441
664.787	118.135
669.428	270.25
674.067	426.481
678.703	349.184
683.336	368.113
687.967	409.224
692.595	388.05
697.221	300.135
701.844	498.957
706.465	337.457
711.083	393.525
715.698	288.33
720.311	326.93
724.922	284.266
729.53	299.525
734.135	477.832
738.738	240.037
743.338	481.094
747.936	353.471
752.531	462.684
757.124	547.023
761.714	350.242
766.302	380.068
770.887	331.438
775.469	439.875
780.049	459.213
784.626	334.092
789.201	546.695
793.773	515.209
798.343	332.861
802.91	549.596
807.475	519.756
812.037	400.451
816.596	337.781
821.153	422.848
825.707	412.914
830.259	335.076
834.808	158.16
839.355	252.344
843.899	99.5195
848.441	111.998
852.98	323.728
857.516	311.699
862.05	311.934
866.581	526.191
871.11	405.959
875.636	206.961
880.159	95.1641
884.68	143.176
889.199	134.898
893.714	288.932
898.228	166.871
902.738	107.199
907.246	224.139
911.752	67.2949
916.255	122.777
920.755	97.3867
925.253	116.441
929.748	133.971
934.241	252.9
938.731	183.924
943.218	298.16
947.703	591.822
952.186	999.576
956.665	3186.42
961.142	10310.3
965.617	12272.6
970.089	3439.68
974.558	1032.37
979.025	361.889
983.489	225.971
987.951	195.566
992.41	61.4102
996.866	172.574
1001.32	150.625
1005.77	168.041
1010.22	99.9766
1014.67	115.734
1019.11	77.9922
1023.55	207.273
1027.99	173
1032.42	489.258
1036.86	554.144
1041.29	286.918
1045.72	292.109
1050.14	42.4062
1054.56	238.586
1058.98	420.125
1063.4	464.844
1067.82	210.586
1072.23	479.215
1076.64	486.715
1081.05	239.859
1085.45	446.375
1089.85	312.328
1094.25	431.781
1098.65	388.91
1103.04	385.492
1107.43	324.938
1111.82	702.207
1116.21	748.367
1120.59	876.691
1124.97	694.539
1129.35	1003.02
1133.73	367.098
1138.1	997.125
1142.47	865.773
1146.84	825.973
1151.21	896.324
1155.57	1020.03
1159.93	1027.6
1164.29	994.539
1168.64	961.481
1172.99	1135.58
1177.34	1255.82
1181.69	1491.47
1186.04	1342.22
1190.38	1282.54
1194.72	1368.16
1199.05	1224.11
1203.39	1353.45
1207.72	1304.98
1212.05	1037.71
1216.37	1246.65
1220.7	1149.82
1225.02	1343.83
1229.34	1203.04
1233.65	1156.2
1237.97	1021.68
1242.28	1238.7
1246.59	1201.01
1250.89	1006.14
1255.19	868.066
1259.49	481.969
1263.79	1040.73
1268.09	521.117
1272.38	401.445
1276.67	713.898
1280.95	456.141
1285.24	389.727
1289.52	539.375
1293.8	793.789
1298.08	659.16
1302.35	288.488
1306.62	33.1406
1310.89	397.277
1315.15	273.066
1319.42	415.461
1323.68	484.391
1327.94	579.617
1332.19	425.039
1336.44	69.8828
1340.69	386.953
1344.94	369.328
1349.19	283.023
1353.43	235.043
1357.67	439.394
1361.9	111.086
1366.14	326.578
1370.37	212.844
1374.6	294.379
1378.83	129.121
1383.05	25.8867
1387.27	68.375
1391.49	18.8984
1395.7	267.715
1399.92	99.1562
1404.13	17.2578
1408.34	237.981
1412.54	275.062
1416.74	92.5664
1420.94	98.5352
1425.14	419.5
1429.34	34.6758
1433.53	159.422
1437.72	312.234
1441.9	254.004
1446.09	490.043
1450.27	96.1641
1454.45	334.894
1458.63	423.672
1462.8	396.469
1466.97	286.184
1471.14	341.699
1475.31	279.254
1479.47	149.223
1483.63	22.2422
1487.79	397.922
1491.94	172.629
1496.09	43.0312
1500.24	99.3906
1504.39	216.164
1508.54	151.867
1512.68	93.6211
1516.82	162.258
1520.95	235.902
1525.09	339.539
1529.22	159.156
1533.35	19.6758
1537.47	49.875
1541.6	202.156
1545.72	400.309
1549.83	214.57
1553.95	323.715
1558.06	379.984
1562.17	249.992
1566.28	160.445
1570.38	192.496
