Measurement: Raman, 514 nm, depolarized, Raman Data Processed
Mineral: Fluorapophyllite-(K)
Rruff sample: R050021
Ideal chemistry: KCa_4_Si_8_O_20_F8H_2_O
Locality: Poona, Maharashtra State, India
Source: Eugene Schlepp
Description: Colorless tetragonal prisms
Measured chemistry: (K_0.98_Na_0.02_)_Σ=1_Ca_4.00_Si_8.00_O_20_(F_0.84_(OH)_0.16_)_Σ=1_·8H_2_O
Pin_id: L00290
Orientation: Laser parallel to a* (1 0 0). Fiducial mark perpendicular to laser is parallel to -c [0 0 -1]
Raman shift (cm-1)	intensity
121.897	0
126.063	491.601
130.228	216.98
134.39	635.569
138.55	1926.85
142.709	1819.04
146.865	399.895
151.019	220.957
155.171	423.545
159.322	2067.88
163.47	5442.75
167.617	6020.21
171.761	1927.66
175.904	507.598
180.044	791.71
184.183	2400.68
188.319	2774.56
192.454	1874.74
196.586	1548.27
200.717	2088.76
204.846	3589.89
208.972	6477.78
213.097	5965.92
217.22	3514.91
221.341	2474.52
225.46	3044.62
229.577	3395.02
233.692	2195.6
237.805	1066.52
241.916	491.918
246.025	122.857
250.132	251.318
254.237	56.877
258.34	29.697
262.442	55.926
266.541	741.871
270.639	765.807
274.734	287.73
278.828	60.521
282.919	98.715
287.009	397.762
291.097	816.025
295.183	1530.4
299.266	2310.27
303.348	1799.81
307.428	1339.04
311.507	1167.77
315.583	1464.59
319.657	1752.12
323.729	1708.78
327.8	1444.54
331.868	1669.47
335.935	1773.72
339.999	1847.38
344.062	1160.55
348.123	832.916
352.182	532.688
356.239	219.969
360.294	136.891
364.347	123.521
368.398	159.219
372.448	15.57
376.495	100.48
380.54	94.477
384.584	339.402
388.626	384.457
392.666	749.742
396.704	1355.21
400.74	1690.86
404.774	1376.14
408.806	789.846
412.836	809.484
416.865	877.9
420.891	843.93
424.916	1695.16
428.939	5450.44
432.959	8365.93
436.978	3681.21
440.996	1003.92
445.011	481.148
449.024	444.986
453.036	360.602
457.045	166.477
461.053	622.188
465.059	837.838
469.063	843.396
473.065	478.844
477.065	1534.2
481.063	4309.46
485.06	8524.62
489.054	5899.72
493.047	2384.74
497.038	1479.84
501.027	1454.96
505.014	1110.04
508.999	615.078
512.982	639.885
516.964	1084.03
520.944	1516.32
524.921	1670.57
528.897	2327.38
532.871	3958.68
536.844	5462.64
540.814	5404.06
544.783	4472.16
548.749	3815.85
552.714	3791.72
556.677	3367.07
560.638	3218.74
564.597	3505.32
568.555	4930.31
572.511	6965.66
576.464	9772.57
580.416	14130.6
584.366	17893
588.315	15620.3
592.261	9862.36
596.206	5494.19
600.148	3303
604.089	2292.62
608.028	1990.79
611.965	1438.97
615.901	932.373
619.834	750.596
623.766	1164.88
627.696	1523.19
631.624	1181.31
635.551	619.381
639.475	947.414
643.398	1285.43
647.318	1863.42
651.237	1729.7
655.155	1565.08
659.07	2343.06
662.984	2670.92
666.895	2768.58
670.805	1786.19
674.713	1113.74
678.62	811.293
682.524	788.881
686.427	706.541
690.328	144.371
694.227	87.707
698.124	119.871
702.02	407.576
705.913	244.625
709.805	50.947
713.695	223.172
717.584	7.895
721.47	47.051
725.355	391.494
729.238	265.52
733.119	48.107
736.998	68.191
740.876	175.131
744.752	488.105
748.626	260.711
752.498	32.912
756.368	28.652
760.237	280.418
764.104	672.057
767.969	613.576
771.832	129.141
775.693	49.506
779.553	81.559
783.411	730.061
787.267	1150.88
791.122	1051.59
794.974	534.729
798.825	285.211
802.674	615.576
806.522	745.76
810.367	585.547
814.211	95.154
818.053	274.654
821.893	314.051
825.732	703.49
829.568	835.637
833.403	394.744
837.236	183.758
841.068	226.164
844.898	639.281
848.726	793.547
852.552	833.166
856.376	425.002
860.199	326.986
864.02	554.648
867.839	687.629
871.656	803.404
875.472	922.965
879.286	532.582
883.098	158.057
886.909	329.674
890.717	731.045
894.524	791.504
898.33	340.559
902.133	105.191
905.935	90.99
909.735	246.633
913.533	775.332
917.33	404.418
921.124	623.586
924.918	82.695
928.709	135.746
932.499	364.832
936.286	624.188
940.073	843.516
943.857	462.938
947.64	222.406
951.421	151.941
955.2	281.555
958.978	872.922
962.753	715.273
966.527	764.953
970.3	465.059
974.071	4.711
977.84	135.645
981.607	466.109
985.372	526.688
989.136	637.383
992.898	48.074
996.659	81.145
1000.42	491.012
1004.17	782.215
1007.93	1663.83
1011.68	1187.06
1015.43	1219.61
1019.18	551.641
1022.93	514.938
1026.68	249.121
1030.42	896.594
1034.17	1332.26
1037.91	1766.89
1041.65	1822.36
1045.39	2020.19
1049.12	3017.63
1052.86	6324.03
1056.59	14726.6
1060.33	25913.3
1064.06	20740.6
1067.78	10597.9
1071.51	5666.09
1075.23	3539.82
1078.96	2619.03
1082.68	2427.22
1086.4	2698.23
1090.12	2666.66
1093.83	2034.07
1097.55	988.781
1101.26	626.887
1104.97	755.477
1108.68	1164.43
1112.39	1152.77
1116.1	890.652
1119.8	688.867
1123.5	547.668
1127.2	356.195
1130.9	82.906
1134.6	472.672
1138.3	654.68
1141.99	642.816
1145.69	1483.97
1149.38	685.59
1153.07	187.465
1156.76	30.309
1160.44	402.562
1164.13	405.695
1167.81	828.168
1171.49	701.012
1175.17	624.234
1178.85	377.91
1182.52	341.984
1186.2	16.746
1189.87	1292.1
1193.54	308.066
1197.21	1204.61
1200.88	821.828
1204.55	839.77
1208.21	528.57
1211.88	318.77
1215.54	127.219
1219.2	616.367
1222.86	959.316
1226.51	1297.17
1230.17	1450.75
1233.82	1153.13
1237.47	1350.29
1241.12	635.133
1244.77	94.207
1248.42	88.793
1252.06	612.668
1255.71	1215.93
1259.35	1267.9
1262.99	930.34
1266.63	910.797
1270.26	623.754
1273.9	331.832
1277.53	4.043
