Measurement: Raman, 514 nm, depolarized, Raman Data Processed
Mineral: Fluor-buergerite
Rruff sample: R060132
Ideal chemistry: NaFe^3+^_3_Al_6_(Si_6_O_18_)(BO_3_)_3_O_3_F
Locality: 20 km. south of San Luis Potasi, Mexico
Source: University of Arizona Mineral Museum
Description: Brown short prismatic
Measured chemistry: (Na_0.87_Ca_0.03_[box]_0.10_)(Fe^3+^_0.82_Al_0.12_Mg_0.04_Ti_0.02_)_3_Al_6_(BO_3_)_3_(Si_0.98_Al_0.02_)_6_O_18_(O_0.66_F_0.19_(OH)_0.15_)_4_
Pin_id: L01714
Orientation: Laser parallel to a* (1 0 0). Fiducial mark perpendicular to laser is parallel to -c [0 0 -1]
Raman shift (cm-1)	intensity
120.596	0
125.519	8.1582
130.439	296.157
135.356	513.887
140.271	1977.83
145.184	3605.7
150.094	5676.68
155.002	4647.07
159.908	1412.04
164.811	455.929
169.711	124.343
174.61	204.025
179.505	43.1416
184.399	206.025
189.29	681.94
194.178	1139.59
199.064	1959.31
203.948	3330.03
208.829	3006.57
213.708	5086.5
218.585	8966.47
223.459	15509.2
228.33	22920.3
233.199	23543.8
238.066	18412.9
242.93	13235.2
247.792	10104.7
252.651	8721.98
257.508	7887.07
262.363	6108.97
267.215	3902.11
272.064	3221.59
276.912	2381.43
281.756	1677.6
286.598	2034.01
291.438	3274.49
296.276	4565.96
301.111	3389.5
305.943	1032.68
310.773	12.3027
315.601	420.771
320.426	1095.07
325.248	2142.5
330.068	2786.86
334.886	3174.45
339.701	4297.91
344.514	5594.49
349.324	7775.25
354.132	10032.6
358.938	13183.7
363.741	17024.1
368.541	21485.1
373.339	21569.3
378.135	16565.8
382.928	11458.4
387.718	9051
392.506	7775.47
397.292	7091.84
402.075	6253.09
406.856	5105.22
411.634	3440.28
416.41	1838.87
421.183	1156.07
425.954	803.812
430.722	592.062
435.488	507.791
440.251	941.973
445.012	967.594
449.77	1225.62
454.526	1009
459.28	990.482
464.03	845.607
468.779	680.242
473.525	484.205
478.268	340.404
483.009	107.363
487.747	510.643
492.483	387.387
497.217	292.703
501.948	30.252
506.676	661.543
511.402	1645.9
516.125	2946.39
520.846	3691.14
525.565	3485.28
530.281	3227.5
534.994	2619.81
539.705	2599.29
544.413	2626.21
549.119	2776.98
553.822	2581.98
558.523	2673.87
563.222	3000.55
567.917	3397.96
572.611	4211.91
577.302	5224.16
581.99	5956.46
586.676	7103.63
591.359	8700.62
596.04	10434.3
600.718	12503.6
605.394	14184.5
610.067	15250.8
614.737	16361.5
619.406	18170.3
624.071	22392.6
628.734	30141.3
633.395	38094.4
638.053	37842.1
642.708	31425.9
647.361	25600.5
652.012	20565.3
656.66	16698.8
661.305	13048.9
665.948	9588.8
670.588	7202.8
675.226	4569.77
679.861	2965.7
684.494	1995.57
689.124	2488.8
693.752	3499.82
698.377	4865.72
702.999	6268.32
707.619	6474.95
712.237	4798.2
716.852	3491.58
721.464	2141.49
726.074	1561.04
730.681	1785.02
735.286	1536.05
739.888	1569.07
744.488	1351.41
749.085	1350.09
753.68	1686.97
758.272	1498.63
762.861	853.52
767.448	687.832
772.033	650.307
776.614	757.237
781.194	333.192
785.77	86.0898
790.345	112.706
794.916	29.2646
799.485	17.248
804.052	249.711
808.616	0.962891
813.177	84.5322
817.736	68.8184
822.292	212.644
826.846	294.953
831.397	133.698
835.945	12.2178
840.491	19.3877
845.035	59.3252
849.576	19.6553
854.114	80.9688
858.65	50.9912
863.183	160.959
867.713	173.509
872.241	255.238
876.767	214.639
881.29	472.785
885.81	498.808
890.328	493.791
894.843	646.864
899.356	759.184
903.866	736.769
908.373	880.727
912.878	1100.86
917.38	1155.82
921.88	1340.64
926.377	1385.56
930.872	1753.41
935.364	1791.65
939.853	1838.62
944.34	2287.1
948.824	2556.1
953.306	2566.6
957.785	2745.7
962.261	3155.66
966.735	3199.01
971.207	3070.8
975.675	3159.57
980.141	3228
984.605	3424.49
989.066	3693.24
993.524	4245.09
997.98	4515.89
1002.43	4889.73
1006.88	5243.93
1011.33	4764.91
1015.78	4419.17
1020.22	3542.25
1024.66	3256.16
1029.1	2957.91
1033.53	2595.41
1037.97	2530.11
1042.4	2704.05
1046.82	2773.36
1051.25	3340.76
1055.67	3881.69
1060.09	4041.02
1064.51	3189.24
1068.92	2714.68
1073.33	2070.51
1077.74	1840.91
1082.15	1634.82
1086.55	1476.42
1090.95	1295.36
1095.35	1367.2
1099.75	1228.1
1104.14	1444.77
1108.53	1198.15
1112.92	1100.38
1117.31	1200.18
1121.69	765.4
1126.07	737.859
1130.45	276.584
1134.82	348.51
1139.19	124.584
1143.57	246.856
1147.93	115.193
1152.3	138.512
1156.66	139.873
1161.02	107.871
1165.38	37.9473
1169.73	16.6738
1174.08	54.8887
1178.43	14.5254
1182.78	17.8398
1187.12	181.898
1191.46	154.541
1195.8	9.50195
1200.14	9.61328
1204.47	51.8516
1208.8	187.238
1213.13	189.83
1217.46	411.566
1221.78	392.447
1226.1	581.496
1230.42	879.701
1234.73	1156.01
1239.04	1689.41
1243.35	1997
1247.66	2047.7
1251.97	2164.47
1256.27	2517.3
1260.57	2617.05
1264.86	2680.11
1269.16	2752.1
1273.45	2881.2
1277.74	3185.23
1282.03	3819.29
1286.31	4612.61
1290.59	4365.31
1294.87	3898.51
1299.14	3696.83
1303.42	3403.75
1307.69	3214.61
1311.95	3044.27
1316.22	2989.32
1320.48	2520.88
1324.74	2494.28
1329	2157.12
1333.26	1986.9
1337.51	1940.58
1341.76	1983.31
1346	1696.27
1350.25	1776.22
1354.49	1714.95
1358.73	1620.09
1362.96	1451.62
1367.2	1184.02
1371.43	1212.39
1375.66	880.133
1379.88	842.229
1384.11	797.269
1388.33	717.027
1392.54	691.844
1396.76	895.521
1400.97	610.305
1405.18	729.482
1409.39	301.275
1413.59	326.158
1417.8	236.824
1421.99	48.8242
1426.19	109.045
1430.38	207.551
1434.58	150.947
1438.77	96.7949
1442.95	125.777
1447.13	3.06641
1451.32	21.8867
1455.49	17.4883
1459.67	59.998
1463.84	61.7285
1468.01	21.627
1472.18	183.631
1476.35	99.7285
1480.51	267.111
1484.67	244.832
1488.83	159.904
1492.98	105.881
1497.13	154.791
1501.28	395.898
1505.43	240.334
1509.57	445.109
1513.71	216.42
1517.85	329.639
1521.99	182.019
1526.12	261.693
1530.25	166.346
1534.38	115.338
1538.5	135.305
1542.62	195.996
1546.74	101.488
1550.86	342.617
1554.98	569.449
1559.09	124.17
1563.2	69.8555
1567.31	136.596
