Measurement: Raman, 514 nm, depolarized, Raman Data Processed
Mineral: Fluorapatite
Rruff sample: R060184
Ideal chemistry: Ca_5_(PO_4_)_3_F
Locality: Yates mine, Otter Lake, Quebec, Canada
Source: Lloyd Twaites
Description: Green colored fragment of a hexagonal prism
Measured chemistry: (Ca_0.99_Ce_0.01_)_5.00_((P_0.98_Si_0.01_S_0.01_)O_4_)_3_F_1.00_
Pin_id: M00532
Orientation: Laser parallel to -a* (-1 0 0). Fiducial mark perpendicular to laser is parallel to -c [0 0 -1]
Raman shift (cm-1)	intensity
170.559	0
175.467	38.7222
180.372	62.3462
185.274	11.7859
190.174	8.18115
195.072	131.328
199.967	257.714
204.859	556.451
209.749	767.864
214.637	521.075
219.521	370.542
224.404	312.824
229.284	429.156
234.161	440.849
239.036	297.921
243.908	172.721
248.777	207.379
253.645	208.323
258.509	420.684
263.371	546.938
268.231	653.001
273.088	670.101
277.942	615.496
282.794	694.385
287.643	689.98
292.49	692.415
297.335	668.473
302.176	743.805
307.015	671.962
311.852	598.32
316.686	461.825
321.518	291.109
326.347	189.253
331.173	128.586
335.997	101.037
340.819	78.0811
345.638	50.6462
350.454	44.7253
355.268	19.2617
360.079	28.7593
364.888	6.36768
369.694	37.7297
374.498	27.2063
379.299	32.5427
384.097	62.7082
388.893	89.144
393.686	120.52
398.477	133.127
403.266	165.897
408.051	269.685
412.835	424.633
417.615	755.87
422.394	1348.8
427.169	2277.04
431.942	2558.79
436.713	1949.12
441.481	1761.07
446.246	1972.64
451.009	1665.84
455.769	1316.67
460.527	763.145
465.282	590.151
470.035	348.585
474.785	245.044
479.532	101.746
484.277	85.657
489.02	140.14
493.76	42.1653
498.497	4.33081
503.232	64.834
507.964	33.5022
512.693	0.434082
517.421	14.7461
522.145	115.147
526.867	5.36328
531.587	19.0576
536.303	100.648
541.018	37.9273
545.729	108.726
550.439	121.698
555.145	159.316
559.849	246.411
564.551	275.639
569.25	555.81
573.946	1118.69
578.64	1916.08
583.331	2383.65
588.02	3956.22
592.706	3276.45
597.39	1829.15
602.071	2015.52
606.749	2513.98
611.425	1254.53
616.099	875.142
620.769	501.956
625.438	394.491
630.103	454.909
634.766	524.245
639.427	581.712
644.085	537.038
648.74	664.718
653.393	665.325
658.044	673.216
662.691	465.628
667.336	351.838
671.979	239.545
676.619	326.67
681.257	202.489
685.892	276.121
690.524	209.645
695.154	192.268
699.781	177.081
704.406	198.955
709.028	204.952
713.647	190.084
718.264	186.24
722.878	242.4
727.49	119.649
732.1	196.274
736.706	46.2832
741.31	148.715
745.912	104.073
750.511	132.366
755.107	19.4653
759.701	99.5879
764.292	230.661
768.881	256.224
773.467	136.609
778.051	109.142
782.632	142.5
787.21	16.5571
791.786	140.489
796.359	9.92627
800.93	72.7803
805.498	14.9595
810.064	75.3096
814.627	51.7495
819.187	112.233
823.745	83.8027
828.301	83.3023
832.853	75.2485
837.403	95.3213
841.951	84.2798
846.496	65.1836
851.038	137.336
855.578	403.015
860.116	246.818
864.65	367.968
869.183	212.341
873.712	198.242
878.239	155.868
882.764	26.7432
887.285	72.0674
891.805	52.3379
896.322	67.6006
900.836	68.2529
905.347	3.41406
909.856	7.60547
914.363	31.3369
918.867	22.9834
923.368	100.569
927.867	106.955
932.363	344.812
936.856	462.18
941.347	936.037
945.836	1922.15
950.322	3729.31
954.805	9916.62
959.286	27061.5
963.764	50180.7
968.239	25572.7
972.712	8070.45
977.183	2560.63
981.65	957.945
986.116	332.185
990.578	206.19
995.038	286.28
999.496	248.573
1003.95	509.797
1008.4	952.442
1012.85	549.107
1017.3	601.221
1021.75	725.967
1026.19	863.587
1030.63	1237.54
1035.06	1649.92
1039.5	1800.81
1043.93	2107.75
1048.36	3442.06
1052.79	4671.93
1057.21	3212.64
1061.63	2008.61
1066.05	1633.17
1070.47	1974.33
1074.88	2108.12
1079.29	2117.4
1083.7	1396.2
1088.11	1014.62
1092.51	537.687
1096.91	372.284
1101.31	221.498
1105.7	150.234
1110.1	16.6562
1114.49	40.5693
1118.88	190.984
1123.26	144.903
1127.64	254.336
1132.02	222.284
1136.4	139.019
1140.78	313.364
1145.15	170.894
1149.52	164.057
1153.89	212.872
1158.25	275.85
1162.61	283.722
1166.97	343.538
1171.33	187.677
1175.68	121.966
1180.04	229.571
1184.39	268.338
1188.73	106.705
1193.08	153.569
1197.42	141.923
1201.76	101.759
1206.1	142.072
1210.43	192.858
1214.76	289.193
1219.09	106.018
1223.41	148.298
1227.74	110.046
1232.06	290.702
1236.38	146.876
1240.69	249.917
1245.01	179.463
1249.32	95.2725
1253.63	148.528
1257.93	155.401
1262.23	35.5684
1266.54	105.128
1270.83	11.8408
1275.13	67.0342
1279.42	68.4736
1283.71	42.04
1288	116.591
1292.28	95.1953
1296.57	25.2871
1300.85	56.123
1305.12	169.312
1309.4	60.8496
1313.67	269.736
1317.94	27.9805
1322.21	348.518
1326.47	140.35
1330.73	243.469
1334.99	179.875
1339.25	246.557
1343.5	473.756
1347.75	309.982
1352	318.607
1356.25	288.303
1360.49	246.305
1364.73	153.566
1368.97	226.019
1373.21	168.865
1377.44	292.012
1381.67	28.5
1385.9	198.356
1390.13	191.393
1394.35	174.445
1398.57	204.441
1402.79	212.068
1407	390.197
1411.22	36.4961
1415.43	185.234
1419.63	26.5488
1423.84	142.336
1428.04	52.4688
1432.24	260.92
1436.44	92.8828
1440.63	238.002
1444.83	221.055
1449.02	212.652
1453.2	53.5723
1457.39	151.59
1461.57	139.844
1465.75	116.658
1469.93	152.188
1474.1	173.297
1478.27	17.8125
1482.44	193.529
1486.61	108.266
1490.77	102.264
1494.93	186.803
1499.09	29.002
1503.25	155.609
1507.4	274.641
1511.55	126.438
1515.7	92.5762
1519.85	244.051
1523.99	221.154
1528.13	246.273
1532.27	172.389
1536.4	224.606
1540.54	24.7695
1544.67	301.102
1548.8	101.682
1552.92	191.971
1557.05	237.998
1561.16	134.695
1565.28	0
