Measurement: Raman, 514 nm, ccw, Raman Data Processed
Mineral: Fluorophlogopite
Rruff sample: R040042
Ideal chemistry: KMg_3_(Si_3_Al)O_10_F_2_
Locality: Franklin, Sussex County, New Jersey, USA
Source: University of Arizona Mineral Museum
Description: Brown flattened hexagonal prism, polytype 1M
Measured chemistry: (K_0.92_Na_0.08_)_Σ=1_(Mg_2.95_Fe_0.05_)_Σ=3_(Si_3.00_Al_1.00_)O_10_(F_1.40_(OH)_0.60_)_Σ=2_; trace amounts of Ti; OH estimated by charge balance
Pin_id: L00310
Orientation: Laser parallel to c* (0 0 1). Fiducial mark perpendicular to laser is parallel to -a [-1 0 0]
Raman shift (cm-1)	intensity
136.185	0
141.1	338.654
146.012	416.459
150.922	243.701
155.83	192.352
160.735	162.881
165.638	373.801
170.538	302.685
175.436	1064.13
180.331	1649.74
185.224	4222.63
190.115	8323.67
195.002	17310.8
199.888	23047.7
204.771	13368
209.651	5767.73
214.529	2242.02
219.405	1204.33
224.278	477.201
229.148	166.539
234.016	305.56
238.882	40.4492
243.745	151.051
248.606	135.195
253.464	46.2188
258.319	379.785
263.173	809.148
268.023	2225.97
272.871	4782.46
277.717	9854.62
282.56	11560
287.401	5928.37
292.239	2828.18
297.075	2294.5
301.908	2490.44
306.739	4101.32
311.567	6133.07
316.393	9080.2
321.216	10565.9
326.037	10277.1
330.855	7539.59
335.671	4960.73
340.484	3051.07
345.295	2112.89
350.103	1655.29
354.909	1680.09
359.712	1398.89
364.513	1562.01
369.311	2044.12
374.107	1957.32
378.9	2145.59
383.691	2042.1
388.479	1023.36
393.264	526.91
398.048	622.262
402.828	540.941
407.606	327.371
412.382	300.57
417.155	90.1562
421.926	1.99219
426.694	117.34
431.459	170.394
436.222	385.441
440.983	588.168
445.741	992.816
450.496	1462.64
455.249	1787.41
460	1630
464.748	605.719
469.493	596.398
474.236	525.695
478.977	90.0273
483.714	93.6172
488.45	264.762
493.183	314.191
497.913	960.953
502.641	1298.28
507.366	1229.28
512.088	1242.93
516.809	1100.23
521.526	783.164
526.241	640.734
530.954	516.934
535.664	184.691
540.371	267.992
545.076	278.934
549.779	57.668
554.479	469.75
559.176	143.414
563.871	245.805
568.563	53.0625
573.253	252.106
577.94	2.43359
582.625	306.09
587.307	105.375
591.987	160.152
596.664	47.4805
601.338	70.0159
606.01	254.809
610.68	412.348
615.347	449.863
620.011	977.184
624.673	1436.8
629.332	2337.36
633.989	3672.5
638.643	4463.98
643.295	4900.78
647.944	4658.6
652.59	5125.71
657.234	5959.35
661.876	7199.54
666.515	8962.23
671.151	12602.5
675.785	18925.5
680.416	27971.5
685.045	32760.2
689.671	28971.8
694.295	20396.5
698.916	12384.2
703.534	7140.87
708.15	4563.56
712.764	3071.32
717.374	2324.03
721.983	1969.75
726.588	1660.55
731.191	1307.82
735.792	1396.68
740.39	1338.19
744.986	1226.33
749.579	1225.69
754.169	1174.73
758.757	987.242
763.342	962.062
767.925	932.809
772.505	1030.97
777.082	859.555
781.657	1354.45
786.23	961.293
790.8	1170.48
795.367	1099.62
799.932	1049.98
804.494	1049.34
809.053	757.438
813.61	787.43
818.165	184.215
822.717	449.684
827.266	128.492
831.813	230.488
836.357	273.254
840.899	248.332
845.438	135.164
849.974	235.156
854.508	119.477
859.04	327.246
863.568	272.629
868.095	298.906
872.618	121.438
877.139	78.6914
881.658	298.836
886.174	63.3242
890.687	217.984
895.198	283.57
899.706	254.012
904.212	282.887
908.715	260.961
913.215	330.234
917.713	410.949
922.208	580.644
926.701	280.613
931.191	353.289
935.679	304.91
940.164	542.43
944.646	341.523
949.126	435.106
953.603	349.379
958.078	33.707
962.55	310.641
967.019	576.129
971.486	114.59
975.951	548.269
980.413	775.852
984.872	1067.94
989.328	545.879
993.782	638.508
998.234	984.727
1002.68	887.719
1007.13	971.219
1011.57	1384.07
1016.01	1098.94
1020.45	803.672
1024.89	400.148
1029.32	991.719
1033.75	1844.82
1038.18	2266.52
1042.61	1642.41
1047.03	1287.12
1051.45	1079.75
1055.87	1153.67
1060.28	1081.59
1064.69	1316.62
1069.11	1216.83
1073.51	1745.93
1077.92	2018.64
1082.32	2991.64
1086.72	4035.35
1091.12	4485.54
1095.51	3855.02
1099.9	4358.53
1104.29	4202.67
1108.68	3538.42
1113.06	2719.52
1117.44	1890.16
1121.82	1170.62
1126.2	300.672
1130.57	2.10156
1134.94	184.773
1139.31	17.4922
1143.68	111.172
1148.04	332.188
1152.4	41.5391
1156.76	114.109
1161.12	217.422
1165.47	3.86719
1169.82	163.641
1174.17	287.133
1178.51	249.891
1182.86	157.297
1187.19	41.2416
1191.53	304.438
1195.87	448.812
1200.2	76.9062
1204.53	458.906
1208.86	18.1172
1213.18	183.484
1217.5	217.461
1221.82	154.398
1226.14	400.484
1230.45	-40.4501
1234.76	291.211
1239.07	187.422
1243.38	694.5
1247.68	483.719
1251.98	478.547
1256.28	435.234
1260.58	255.32
1264.87	335.383
1269.16	126.93
1273.45	438.242
1277.73	309.656
1282.02	452.742
1286.3	319.797
1290.57	455.008
1294.85	429.898
1299.12	168.625
1303.39	545.555
1307.66	648.031
1311.92	781.961
1316.18	295.57
1320.44	834.992
1324.7	491.531
1328.95	648.352
1333.2	476.633
1337.45	490.125
1341.7	544.586
1345.94	318.414
1350.18	576.367
1354.42	343.883
1358.66	335.227
1362.89	324.203
1367.12	1.90625
1371.35	631.289
1375.58	154.898
1379.8	503.969
1384.02	505.305
1388.24	211.797
1392.45	649.633
1396.66	115.336
1400.87	274.477
1405.08	345.344
1409.29	267.312
1413.49	339.188
1417.69	192.82
1421.88	512.789
1426.08	31.9453
1430.27	251.109
1434.46	453.094
1438.64	58.375
1442.83	472.953
1447.01	478.969
1451.19	73.2812
1455.36	338.258
1459.54	288.859
1463.71	211.75
1467.87	29.9531
1472.04	301.18
1476.2	167.219
1480.36	259.492
1484.52	174.133
1488.67	166.508
1492.83	260.305
1496.98	435.805
1501.12	84.1562
1505.27	191.336
1509.41	175.273
1513.55	501.336
1517.68	867.891
1521.82	372.117
1525.95	561.766
1530.08	748.234
1534.2	323.133
1538.33	720.414
1542.45	690.602
1546.57	267.508
1550.68	513.742
1554.8	446.766
1558.91	357.508
1563.01	171.547
1567.12	447.781
1571.22	349.336
1575.32	134.289
1579.42	3.09375
