Measurement: Raman, 514 nm, depolarized, Raman Data Processed
Mineral: Fluorophlogopite
Rruff sample: R040042
Ideal chemistry: KMg_3_(Si_3_Al)O_10_F_2_
Locality: Franklin, Sussex County, New Jersey, USA
Source: University of Arizona Mineral Museum
Description: Brown flattened hexagonal prism, polytype 1M
Measured chemistry: (K_0.92_Na_0.08_)_Σ=1_(Mg_2.95_Fe_0.05_)_Σ=3_(Si_3.00_Al_1.00_)O_10_(F_1.40_(OH)_0.60_)_Σ=2_; trace amounts of Ti; OH estimated by charge balance
Pin_id: L01769
Orientation: Laser parallel to b* (0 1 0). Fiducial mark perpendicular to laser is parallel to -c [0 0 -1]
Raman shift (cm-1)	intensity
63.968	0
68.967	231.529
73.963	2985.32
78.956	11234.3
83.945	23636.7
88.931	38272.3
93.913	60435.1
98.892	94704.8
103.868	133698
108.841	106034
113.81	47200.7
118.777	25880
123.74	17531.9
128.699	13233.9
133.656	10211.5
138.609	8283.73
143.559	6963.34
148.505	6548.14
153.449	5239.68
158.389	6587.71
163.326	7984.38
168.26	11929.2
173.19	18416.3
178.118	31489
183.042	63059
187.963	140053
192.881	285954
197.796	397760
202.707	281867
207.615	117531
212.52	49744.9
217.422	24674.5
222.321	12930.5
227.217	6619.33
232.109	4096.28
236.999	2193.27
241.885	725.879
246.768	641.254
251.648	649.992
256.525	421.199
261.399	3732.15
266.269	11251.4
271.137	29095
276.001	59236.2
280.862	77832.3
285.721	48129.3
290.576	22594.3
295.428	14236
300.277	14149.5
305.123	22063.8
309.966	38250.4
314.805	55383.9
319.642	61805.2
324.476	57315.7
329.306	42523.3
334.134	25398.8
338.959	13427.4
343.78	7321.16
348.599	4376
353.414	3103.28
358.226	2650
363.036	3890.06
367.842	6202.82
372.646	9200.42
377.446	7157.64
382.244	3291.63
387.038	1495.69
391.83	924.773
396.618	488.211
401.404	726.203
406.186	464.852
410.966	153.266
415.742	381.672
420.516	579.578
425.287	654.082
430.055	848.141
434.819	658.836
439.581	418.234
444.34	113.371
449.096	43.3438
453.85	630.578
458.6	1039.55
463.347	1953.56
468.091	2434.39
472.833	1173.84
477.572	491.797
482.307	826.227
487.04	481.598
491.77	322.465
496.497	261.816
501.221	1024.51
505.943	1793.56
510.661	2589.69
515.377	3109.76
520.089	1903.26
524.799	1281.84
529.506	1110.88
534.21	871.269
538.912	1033.73
543.61	915.383
548.306	1422.19
552.999	1416.91
557.689	1579.25
562.376	1812.19
567.061	1525.39
571.742	1552.76
576.421	1340.97
581.097	1395.75
585.77	1599.9
590.441	1732.83
595.108	2318.19
599.773	3123.49
604.435	4368.95
609.095	6336.08
613.751	8755.19
618.405	13017.1
623.056	18098.9
627.705	26483.8
632.35	36769.9
636.993	46255.1
641.633	49180.9
646.271	47779.6
650.905	46613.2
655.537	48171.5
660.166	52628.7
664.793	62834.2
669.416	82010.4
674.038	117476
678.656	170351
683.272	207713
687.885	188869
692.495	136177
697.102	82895.1
701.707	46652.5
706.31	26972.4
710.909	17769.2
715.506	12628.8
720.1	9181.06
724.692	7645.15
729.281	5859.41
733.867	5132.34
738.451	4238.95
743.032	3856.41
747.61	3511.46
752.186	2952.7
756.759	2627.05
761.329	2189.35
765.897	1887.98
770.462	1804.23
775.025	1953.05
779.585	2139.86
784.142	2472.77
788.697	2554.52
793.249	2930.11
797.799	3554.62
802.346	3188.16
806.89	2932.13
811.432	1466.27
815.971	1188.7
820.508	1006.58
825.042	834.668
829.574	403.812
834.103	373.777
838.63	252.281
843.153	260.856
847.675	492.578
852.194	501.398
856.71	387.254
861.224	195.074
865.735	32.3438
870.244	7.81641
874.75	488.289
879.254	43.4023
883.755	112.566
888.254	245.789
892.75	414.594
897.244	1047.58
901.735	1037.62
906.223	957.988
910.71	1013.7
915.193	978.383
919.675	1312.93
924.153	1256.36
928.63	1421.75
933.104	1027.09
937.575	1271.41
942.044	1341.78
946.51	1508.14
950.974	1626
955.436	1470.14
959.895	1989.13
964.352	2464.84
968.806	3473.56
973.258	3697.63
977.707	4711.47
982.154	5608.38
986.599	6330.84
991.041	6611.91
995.481	8313.62
999.918	11236.1
1004.35	14239.2
1008.78	14425.3
1013.22	15475.7
1017.64	17817.5
1022.07	24683.5
1026.49	42596.5
1030.91	75310.1
1035.33	97705.8
1039.75	76907.9
1044.16	45960.5
1048.57	28995.1
1052.98	19864
1057.39	15098.2
1061.79	12233.9
1066.19	9605.46
1070.59	8247.65
1074.99	7081.76
1079.38	7046.88
1083.78	7440.74
1088.16	7687.55
1092.55	8241
1096.94	8670.21
1101.32	8575.17
1105.7	7533.97
1110.08	5924
1114.46	4363.08
1118.83	2742.24
1123.2	1294.03
1127.57	421.82
1131.94	856.086
1136.3	379.555
1140.66	175.867
1145.03	488.133
1149.38	156.25
1153.74	231.352
1158.09	619.328
1162.44	193.703
1166.79	254.227
1171.14	1.95312
1175.48	157.195
1179.82	316.398
1184.16	20.2109
1188.5	576.578
1192.84	282.398
1197.17	99.6016
1201.5	81.1094
1205.83	148.961
1210.15	146.758
1214.48	90.0938
1218.8	433.766
1223.12	702.195
1227.44	849.234
1231.75	608.891
1236.07	756.164
1240.38	588.047
1244.68	571.711
1248.99	816.797
1253.3	532.242
1257.6	892.406
1261.9	653.75
1266.2	666.141
1270.49	747.758
1274.79	1255.44
1279.08	1280.75
1283.37	1699.89
1287.65	2286.21
1291.94	2343.02
1296.22	2210.83
1300.5	2041.48
1304.78	2024.48
1309.05	1593.49
1313.33	1719.02
1317.6	1671.84
1321.87	1325.14
1326.14	1057.56
1330.4	908.312
1334.67	913.016
1338.93	625.43
1343.19	543.672
1347.44	954.898
1351.7	936.359
1355.95	448.648
1360.2	521.703
1364.45	219.523
1368.7	584.695
1372.94	788.484
1377.18	314.391
1381.42	195.344
1385.66	347.43
1389.9	18.1641
1394.13	90.875
1398.37	188.75
1402.6	515.297
1406.82	34.9766
1411.05	34.8438
1415.27	168.586
1419.49	26.4688
1423.71	597.422
1427.93	437.797
1432.15	701.211
1436.36	1601.17
1440.57	1578.27
1444.78	2139.45
1448.99	2287.32
1453.19	1687.41
1457.4	1718.27
1461.6	1303.48
1465.8	1377.77
1469.99	962.43
1474.19	1043.15
1478.38	1258.82
1482.58	406.859
1486.77	764.18
1490.95	638.844
1495.14	481.195
1499.32	647.953
1503.5	336.961
1507.68	244.961
1511.86	1021.38
1516.03	239.562
1520.21	765.797
1524.38	611.453
1528.55	596.555
1532.72	299.039
1536.88	786.508
1541.05	588.844
1545.21	612.984
1549.37	553.367
1553.53	327.281
1557.68	699.281
1561.84	542.836
1565.99	364.234
1570.14	257.547
1574.29	51.0938
1578.43	279.695
