Measurement: Raman, 514 nm, depolarized, Raman Data Processed
Mineral: Fluorophlogopite
Rruff sample: R040039
Ideal chemistry: KMg_3_(Si_3_Al)O_10_F_2_
Locality: Franklin, Sussex County, New Jersey, USA
Source: University of Arizona Mineral Museum
Description: Brown hexagonal sheets
Measured chemistry: (K_0.92_Na_0.06_[box]_0.02_)_Σ=1_(Mg_2.94_Fe_0.04_Ti_0.02_)_Σ=3_(Si_2.98_Al_1.02_)O_10_(F_1.24_(OH)_0.76_)_Σ=2_; OH estimated by charge balance
Pin_id: M00025
Orientation: Laser parallel to b* (0 1 0). Fiducial mark perpendicular to laser is parallel to c [0 0 1]
Raman shift (cm-1)	intensity
83.025	0
87.213	345.627
91.398	1294.59
95.582	3220.29
99.764	6582.86
103.943	11905.2
108.121	10952.2
112.297	4749.55
116.47	2328.03
120.642	1449.97
124.811	909.384
128.979	489.214
133.144	361.177
137.307	201.635
141.469	180.332
145.628	66.947
149.786	109.264
153.941	48.804
158.094	61.201
162.245	70.693
166.395	332.673
170.542	858.368
174.687	1247
178.83	2228.19
182.972	4167.83
187.111	8336.73
191.248	18186.4
195.383	35126.8
199.516	37897.8
203.647	18979.8
207.777	7903.34
211.904	4067.91
216.029	2186.16
220.152	1137.64
224.273	539.312
228.392	390.291
232.509	260.614
236.625	130.154
240.738	1.883
244.849	12.839
248.958	112.593
253.065	101.534
257.171	23.647
261.274	221.179
265.375	400.952
269.475	1205.36
273.572	3200.81
277.667	7344.38
281.76	7365.23
285.852	3866.05
289.941	2085.46
294.029	1439.21
298.114	1127.24
302.198	1378.51
306.279	2333.98
310.359	3808.69
314.436	5016.7
318.512	5782.6
322.586	5996.74
326.657	5031.68
330.727	3351.97
334.795	2194.37
338.861	1547.63
342.924	968.398
346.986	682.381
351.046	496.373
355.104	477.29
359.16	438.155
363.214	537.498
367.267	843.242
371.317	1426.44
375.365	1167.64
379.411	664.648
383.456	394.38
387.498	488.286
391.539	334.097
395.577	199.144
399.614	230.544
403.649	345.133
407.681	250.223
411.712	37.134
415.741	42.421
419.768	66.977
423.793	61.776
427.816	24.217
431.837	2.846
435.857	27.526
439.874	73.167
443.889	23.228
447.903	44.954
451.914	141.417
455.924	179.656
459.932	196.686
463.938	291.501
467.941	378.097
471.943	226.477
475.944	22.43
479.942	158.846
483.938	126.906
487.932	118.333
491.925	93.023
495.915	79.758
499.904	33.064
503.891	286.223
507.876	324.247
511.859	334.037
515.84	197.666
519.819	248.225
523.796	365.595
527.771	96.704
531.745	19.43
535.716	40.098
539.686	201.384
543.654	224.529
547.62	79.4
551.584	111.034
555.546	164.428
559.506	318.608
563.465	272.481
567.421	80.446
571.376	91.168
575.329	308.405
579.279	276.264
583.228	243.463
587.175	39.584
591.121	268.083
595.064	346.256
599.006	439.854
602.945	390.779
606.883	482.138
610.819	695.331
614.753	1053.43
618.685	1306.33
622.615	1618.07
626.544	2309.63
630.471	3301.01
634.395	4118.06
638.318	4587.26
642.239	4299.85
646.158	4303.61
650.076	4441.21
653.991	4457.68
657.905	4641.75
661.817	4940.43
665.726	6010.63
669.635	8050.72
673.541	11018.9
677.445	15314.8
681.348	19443.3
685.248	20177
689.147	17320.9
693.044	12521.8
696.94	7742.62
700.833	4723.37
704.724	3003.34
708.614	2143.01
712.502	1811.23
716.388	1234.06
720.272	865.635
724.155	737.051
728.035	920.444
731.914	882.189
735.791	580.936
739.666	539.646
743.539	519.848
747.41	688.321
751.28	677.066
755.148	625.958
759.014	354.892
762.878	393.874
766.74	352.836
770.601	481.722
774.46	570.568
778.316	259.378
782.172	318.154
786.025	506.9
789.876	505.761
793.726	634.815
797.574	584.076
801.42	313.514
805.264	253.113
809.107	292.823
812.947	332.632
816.786	292.495
820.623	142.354
824.459	137.792
828.292	121.746
832.124	181.056
835.954	90.302
839.782	0.514
843.608	61.326
847.433	72.155
851.255	3.14
855.076	325.738
858.895	304.564
862.713	133.34
866.528	77.821
870.342	159.031
874.154	119.541
877.965	168.015
881.773	186.481
885.58	114.904
889.385	53.378
893.188	91.887
896.989	320.41
900.789	368.95
904.587	277.537
908.383	226.225
912.177	14.95
915.97	153.711
919.76	402.506
923.55	521.344
927.337	370.226
931.122	189.156
934.906	78.123
938.688	307.123
942.468	436.154
946.247	555.215
950.023	564.304
953.798	333.42
957.572	192.564
961.343	351.729
965.113	520.91
968.881	720.11
972.647	699.33
976.411	700.107
980.174	529.636
983.935	522.91
987.694	803.954
991.452	1190.99
995.207	1268.78
998.961	1143.99
1002.71	1295.39
1006.46	1425.45
1010.21	1629.16
1013.96	1808.33
1017.71	2188.87
1021.45	2503.34
1025.19	3100.13
1028.93	5033.7
1032.67	7888.81
1036.41	9721.8
1040.14	7752.92
1043.87	5233.8
1047.61	3602.68
1051.34	2705.61
1055.06	2021.84
1058.79	1473.07
1062.52	1464.5
1066.24	1455.69
1069.96	1427.04
1073.68	1189.21
1077.4	1040.23
1081.11	812.686
1084.83	873.475
1088.54	1094.42
1092.25	1195.29
1095.96	1386.06
1099.67	1087.28
1103.37	1028.17
1107.08	809.69
1110.78	670.072
1114.48	651.377
1118.18	642.162
1121.88	702.412
1125.57	662.646
1129.27	233.139
1132.96	86.511
1136.65	76.02
1140.34	55.401
1144.02	226.164
1147.71	308.025
1151.39	329.607
1155.07	262.841
1158.76	135.154
1162.43	83.164
1166.11	39.199
1169.79	173.431
1173.46	357.382
1177.13	380.687
1180.8	421.099
1184.47	221.394
1188.14	134.85
1191.8	64.007
1195.46	6.457
1199.13	193.768
1202.79	362.551
1206.45	390.923
1210.1	308.849
1213.76	237.091
1217.41	185.144
1221.06	102.477
1224.71	0.765
1228.36	231.138
1232.01	181.287
1235.65	497.802
1239.3	513.59
1242.94	479.119
1246.58	375.048
1250.22	30.452
1253.85	266.512
1257.49	201.835
1261.12	417.619
1264.75	432.483
1268.38	617.249
1272.01	491.442
1275.64	354.535
1279.27	203.644
1282.89	32.888
1286.51	104.546
1290.13	75.219
1293.75	146.932
1297.37	328.44
1300.98	346.415
1304.6	306.433
1308.21	170.964
1311.82	2.052
1315.43	34.422
1319.03	27.061
1322.64	84.423
1326.24	142.111
1329.85	524.048
1333.44	450.373
1337.04	456.566
1340.64	351.03
1344.24	256.674
1347.83	97.059
1351.42	92.48
1355.01	28.227
1358.6	123.793
1362.19	388.251
1365.78	421.588
1369.36	319.178
1372.94	445.429
1376.53	288.158
1380.1	261.162
1383.68	249.914
1387.26	117.985
1390.83	207.046
1394.41	204.585
1397.98	302.912
1401.55	590.818
1405.12	755.939
1408.68	748.214
1412.25	717.383
1415.81	397.765
1419.37	152.154
1422.93	180.037
1426.49	76.435
1430.05	169.764
1433.6	277.131
1437.15	437.489
1440.71	767.092
1444.26	916.974
1447.81	879.502
1451.35	1007.71
1454.9	805.842
1458.44	773.107
1461.98	606.959
1465.53	387.504
1469.07	352.938
1472.6	419.047
1476.14	585.355
1479.67	592.836
1483.21	737.316
1486.74	705.133
1490.27	915.059
1493.8	646.451
1497.32	589.832
1500.85	495.385
1504.37	244.492
1507.89	36.02
1511.41	67.402
1514.93	103.486
1518.45	0.266
