Measurement: Raman, 514 nm, depolarized, Raman Data Processed
Mineral: Fluorapatite
Rruff sample: R050122
Ideal chemistry: Ca_5_(PO_4_)_3_F
Locality: Cruziero mine, San Jose, Minas Gerais, Brazil
Source: Carlos and Paulo Vasconcelos
Description: Green fragment
Measured chemistry: (Ca_4.99_Mn_0.01_)_Î£=5_(P_1.00_O_4_)_3_F_1.00_; trace amounts of Fe
Pin_id: L00505
Orientation: Laser parallel to -a* (-1 0 0). Fiducial mark perpendicular to laser is parallel to -c [0 0 -1]
Raman shift (cm-1)	intensity
120.447	0
124.636	21.918
128.822	120.295
133.006	344.521
137.188	499.836
141.368	350.295
145.545	238.395
149.72	179.724
153.893	266.172
158.064	261.999
162.233	291.103
166.399	191.896
170.563	159.087
174.725	172.539
178.885	147.903
183.043	159.729
187.198	43.098
191.351	152.985
195.502	165.192
199.651	54.597
203.797	325.061
207.942	445.775
212.084	406.004
216.224	201.899
220.362	139.745
224.497	265.385
228.631	190.223
232.762	202.868
236.891	373.228
241.018	325.364
245.143	38.553
249.265	142.892
253.386	169.982
257.504	129.532
261.62	111.02
265.734	288.892
269.845	228.156
273.955	117.312
278.062	130.556
282.167	219.304
286.27	199.434
290.371	296.52
294.47	213.787
298.567	327.425
302.661	244.645
306.753	138.073
310.843	202.02
314.931	169.688
319.017	166.955
323.101	14.976
327.182	93.038
331.261	32.854
335.339	46.577
339.414	37.666
343.487	0.986
347.557	180.778
351.626	45.795
355.693	19.329
359.757	107.338
363.819	78.281
367.879	56.285
371.937	69.347
375.993	66.778
380.047	136.637
384.099	153.286
388.148	23.125
392.196	125.009
396.241	121.568
400.284	96.633
404.325	121.371
408.364	27.049
412.401	219.979
416.435	351.174
420.468	401.186
424.498	820.832
428.527	1590.09
432.553	1398.93
436.577	917.394
440.599	785.556
444.619	993.331
448.637	1060.71
452.653	907.686
456.667	454.217
460.678	430.834
464.688	439.355
468.695	270.529
472.701	106.818
476.704	193.292
480.705	258.785
484.704	432.512
488.701	210.591
492.696	100.717
496.689	243.871
500.68	341.294
504.668	220.819
508.655	53.859
512.639	168.829
516.622	288.286
520.602	348.214
524.581	292.916
528.557	27.394
532.531	263.05
536.503	214.789
540.473	179.459
544.441	0.787
548.407	128.557
552.371	190.692
556.333	150.597
560.293	131.838
564.251	183.012
568.206	403.542
572.16	482.833
576.112	561.935
580.061	922.411
584.009	1096.44
587.954	2135.82
591.897	2474.14
595.839	931.086
599.778	598.938
603.716	916.219
607.651	1562.62
611.584	697.509
615.515	282.301
619.444	46.834
623.372	221.332
627.297	505.038
631.22	195.597
635.141	76.127
639.06	166.455
642.977	387.76
646.892	436.971
650.805	393.457
654.716	69.643
658.625	87.449
662.532	313.955
666.437	467.908
670.34	341.088
674.241	8.096
678.139	260.824
682.036	351.273
685.931	301.188
689.824	244.26
693.715	157.979
697.604	87.824
701.491	445.6
705.376	253.832
709.259	266.434
713.139	47.777
717.018	204.445
720.895	170.605
724.77	407.764
728.643	254.014
732.514	252.5
736.383	179.027
740.25	374.279
744.115	598.781
747.978	382.773
751.839	78.957
755.698	187.205
759.555	278.875
763.41	420.012
767.263	340.633
771.114	222.932
774.964	161.463
778.811	28.699
782.656	552.156
786.499	677.678
790.341	101.854
794.18	22.703
798.017	147.551
801.853	406.303
805.686	369.246
809.518	310.238
813.347	176.895
817.175	225.371
821.001	337.771
824.824	459.043
828.646	566.652
832.466	97.83
836.284	31.584
840.1	1.828
843.914	230.465
847.726	579.354
851.536	368.23
855.344	11.615
859.15	130.037
862.954	328.455
866.756	470.543
870.557	278.355
874.355	505.473
878.152	352.719
881.946	350.52
885.739	226.102
889.53	661.273
893.318	583.635
897.105	279.137
900.89	55.191
904.673	110.193
908.454	304.746
912.234	599.461
916.011	464.383
919.786	739.379
923.56	33.408
927.331	287.197
931.101	419.283
934.868	873.492
938.634	1187.48
942.398	829.906
946.16	959.979
949.92	1301.97
953.678	2095.87
957.435	6800.25
961.189	29042
964.941	23330.7
968.692	5886.49
972.441	1313.28
976.187	695.863
979.932	949.715
983.675	588.574
987.416	359.361
991.155	213.08
994.893	76.586
998.628	236.271
1002.36	229.799
1006.09	462.934
1009.82	567.852
1013.55	633.197
1017.28	474.426
1021	159.223
1024.72	294.111
1028.44	1201.25
1032.16	1133.94
1035.88	1440.2
1039.59	1736.07
1043.31	1372.27
1047.02	2244.35
1050.73	3167.53
1054.43	2337.96
1058.14	1764.28
1061.84	1170.71
1065.54	707.684
1069.24	255.973
1072.94	650.695
1076.64	2129.59
1080.33	1586.49
1084.03	1363.34
1087.71	1011.32
1091.4	689.582
1095.09	536.68
1098.78	244.266
1102.46	373.434
1106.14	531.969
1109.82	950.691
1113.5	727.66
1117.17	445.023
1120.85	183.27
1124.52	290.219
1128.19	142.215
1131.86	530.531
1135.52	590.406
1139.19	1090.07
1142.85	1315.03
1146.51	473.863
1150.17	269.324
1153.83	124.711
1157.48	533.547
1161.14	593.055
1164.79	1175.89
1168.44	894.836
1172.09	1027.4
1175.73	473.508
1179.38	92.082
1183.02	151.125
1186.66	425.141
1190.3	759.945
1193.94	1295.93
1197.58	1070.79
1201.21	763.613
1204.84	626.895
1208.47	476.523
1212.1	156.977
1215.72	597.395
1219.35	1487.78
1222.97	1803.33
1226.59	1704.53
1230.21	1406.96
1233.83	1400.49
1237.45	689.598
1241.06	507.801
1244.67	476.41
1248.28	934.848
1251.89	1450.67
1255.5	1538.98
1259.1	1197.55
1262.7	1240.5
1266.31	710.973
1269.9	423.781
1273.5	149.836
1277.1	452.66
1280.69	894.117
1284.29	855.398
1287.88	1634.69
1291.46	1273.05
1295.05	650.145
1298.64	436.543
1302.22	257.996
1305.8	375.609
1309.38	206.984
1312.96	912.164
1316.54	1363.19
1320.11	1507.61
1323.68	1455.06
1327.25	1172.61
1330.82	660.207
1334.39	116.426
1337.96	83.414
1341.52	450.773
1345.08	754.41
1348.64	1247.44
1352.2	1729.41
1355.76	1649.2
1359.31	1729.97
1362.87	1461.57
1366.42	430.25
1369.97	78.34
1373.52	125.121
1377.06	329.816
1380.61	1223.52
1384.15	1275.24
1387.69	1859.16
1391.23	2609.78
1394.77	2242
1398.3	1603.52
1401.84	877.637
1405.37	652.75
1408.9	711.359
1412.43	457.184
1415.96	611.984
1419.48	1553.25
1423.01	1201.72
1426.53	2150.69
1430.05	2169.79
1433.57	1696.67
1437.08	1611.81
1440.6	990.125
1444.11	566.027
1447.62	370.484
1451.13	187.41
1454.64	469.797
1458.15	1012.9
1461.65	1389.57
1465.16	2172.31
1468.66	2636.77
1472.16	2779.45
1475.65	1920.25
1479.15	1296.08
1482.64	990.004
1486.14	534.652
1489.63	379.078
1493.12	25.16
1496.61	131.496
1500.09	948.242
1503.58	1571.91
1507.06	2202.09
