Measurement: Raman, 514 nm, ccw, Raman Data Processed
Mineral: Fluorapatite
Rruff sample: R040098
Ideal chemistry: Ca_5_(PO_4_)_3_F
Locality: Cerro de Mercado mine, Durango, Mexico
Source: Marcus Origlieri
Description: Pale yellow short hexagonal prism
Measured chemistry: Ca_5.00_((P_0.98_Si_0.01_S_0.01_)O_4_)_3_F_1.00_
Pin_id: L00293
Orientation: Laser parallel to c* (0 0 1). Fiducial mark perpendicular to laser is parallel to -a [-1 0 0]
Raman shift (cm-1)	intensity
59.652	0
64.623	37.7142
69.591	43.2169
74.557	365.074
79.52	259.391
84.48	60.786
89.438	11.6448
94.393	54.4022
99.345	61.713
104.294	52.6492
109.241	5.47119
114.185	352.42
119.126	218.284
124.064	18.1007
129	93.3103
133.933	458.789
138.864	1110.14
143.791	629.065
148.716	313.548
153.638	446.439
158.558	644.469
163.475	422.424
168.389	372.277
173.3	293.927
178.209	84.3613
183.115	20.5769
188.018	31.4318
192.918	16.3285
197.816	18.4139
202.711	36.3627
207.604	84.5908
212.494	171.795
217.381	63.9419
222.265	136.693
227.147	150.57
232.026	348.702
236.902	317.636
241.775	222.466
246.646	172.114
251.514	220.138
256.38	288.045
261.243	608.242
266.103	1025.55
270.96	809.176
275.815	399.741
280.667	300
285.516	202.104
290.363	216.042
295.207	191.798
300.048	284.377
304.887	488.72
309.723	561.872
314.556	417.814
319.387	335.543
324.215	163.058
329.04	114.359
333.862	76.2656
338.682	109.44
343.5	27.9746
348.314	86.6555
353.126	2.30615
357.935	35.613
362.742	39.0132
367.546	102.413
372.347	37.9111
377.145	4.70923
381.941	6.12573
386.735	73.3262
391.525	26.1357
396.313	84.7398
401.098	119.752
405.881	25.718
410.661	112.864
415.438	193.461
420.213	149.872
424.985	311.854
429.754	415.572
434.521	755.026
439.285	1174.25
444.046	1693.23
448.805	1706.95
453.561	1110.39
458.315	732.55
463.065	501.444
467.813	371.053
472.559	301.39
477.302	107.007
482.042	188.751
486.78	153.79
491.515	94.5386
496.247	97.5515
500.977	7.15234
505.704	76.7883
510.428	78.9912
515.15	44.3208
519.869	0.596191
524.586	40.5054
529.3	43.9536
534.011	4.86792
538.719	26.5642
543.425	82.6282
548.129	51.9194
552.83	110.431
557.528	165.683
562.223	181.759
566.916	213.824
571.607	437.403
576.294	1300.13
580.979	2709.16
585.662	965.198
590.341	703.181
595.019	417.703
599.693	520.833
604.365	1458.86
609.035	1515.02
613.701	877.765
618.366	664.326
623.027	225.305
627.686	155.682
632.342	112.849
636.996	106.157
641.647	201.037
646.296	242.862
650.942	299.752
655.585	303.102
660.226	206.868
664.864	211.405
669.499	89.6865
674.132	177.417
678.763	15.0229
683.39	46.0957
688.015	33.2773
692.638	7.3501
697.258	68.7144
701.875	59.1577
706.49	158.109
711.102	35.4258
715.712	30.6382
720.319	59.7153
724.923	28.5479
729.525	132.613
734.124	45.2725
738.721	41.6162
743.315	104.296
747.907	81.2217
752.496	4.78809
757.082	75.1436
761.666	76.1489
766.247	36.6397
770.826	154.927
775.402	115.023
779.975	89.5947
784.546	166.593
789.115	96.9795
793.681	179.31
798.244	80.7817
802.804	30.8618
807.363	139.698
811.918	61.3955
816.471	52.1865
821.022	20.6069
825.569	66.8311
830.115	119.867
834.657	84.9053
839.198	80.9258
843.735	156.6
848.27	50.9531
852.803	124.767
857.333	318.731
861.86	251.142
866.385	282.96
870.907	157.489
875.427	163.46
879.944	168.92
884.459	39.0063
888.971	84.8892
893.481	164.348
897.988	61.0996
902.492	7.89404
906.994	6.06592
911.493	9.52783
915.99	22.8003
920.485	74.9805
924.976	25.4087
929.466	61.5039
933.952	130.845
938.436	340.194
942.918	548.33
947.397	924.929
951.874	2127.93
956.348	6174.07
960.819	26302.2
965.288	38226.6
969.755	10437.3
974.219	3268.53
978.68	932.725
983.139	468.889
987.595	268.842
992.049	141.412
996.501	36.542
1000.95	135.632
1005.4	255.744
1009.84	762.459
1014.28	365.829
1018.72	183.01
1023.16	283.942
1027.59	885.154
1032.02	1410.12
1036.45	853.466
1040.88	328.451
1045.3	318.295
1049.72	331.151
1054.14	566.209
1058.56	1350.98
1062.97	759.661
1067.38	248.233
1071.79	137.658
1076.19	550.224
1080.6	552.891
1085	263.482
1089.4	59.7022
1093.79	45.5205
1098.19	33.0215
1102.58	22.1523
1106.97	161.174
1111.35	173.647
1115.74	149.763
1120.12	124.652
1124.5	146.902
1128.87	110.825
1133.25	165.349
1137.62	253.338
1141.99	277.693
1146.35	183.091
1150.72	229.166
1155.08	153.002
1159.44	141.749
1163.79	151.817
1168.15	215.38
1172.5	64.4912
1176.85	194.688
1181.19	1.11426
1185.54	142.67
1189.88	37.5518
1194.22	64.8223
1198.55	137.774
1202.89	199.394
1207.22	195.981
1211.55	132.914
1215.88	333.66
1220.2	28.208
1224.52	172.084
1228.84	175.357
1233.16	211.084
1237.47	141.252
1241.78	99.7891
1246.09	59.2041
1250.4	229.406
1254.7	237.682
1259.01	164.711
1263.31	172.332
1267.6	72.7793
1271.9	126.365
1276.19	218.101
1280.48	171.413
1284.77	260.381
1289.05	69.5635
1293.33	28.5303
1297.61	13.5361
1301.89	154.767
1306.16	208.381
1310.44	287.904
1314.71	329.385
1318.97	384.642
1323.24	256.715
1327.5	229.502
1331.76	8.71582
1336.02	123.238
1340.28	160.203
1344.53	31.0957
1348.78	330.102
1353.03	66.3809
1357.27	312.584
1361.52	273.652
1365.76	134.432
1370	202.098
1374.23	110.031
1378.47	198.203
1382.7	114.473
1386.93	210.49
1391.15	182.877
1395.38	339.963
1399.6	258.647
1403.82	313.627
1408.03	396.394
1412.25	425.975
1416.46	178.836
1420.67	263.965
1424.88	85.2656
1429.08	246.691
1433.28	264.865
1437.48	338.07
1441.68	324.68
1445.87	104.481
1450.07	155.769
1454.26	264.547
1458.44	168.238
1462.63	182.445
1466.81	114.691
1470.99	81.6562
1475.17	228.711
1479.34	174.6
1483.52	100.084
1487.69	131.377
1491.86	18.5039
1496.02	329.322
1500.19	99.1309
1504.35	34.5195
1508.51	241.412
1512.66	19.7051
1516.82	214.824
1520.97	445.666
1525.12	284.299
1529.26	203.91
1533.41	291.949
1537.55	259.721
1541.69	195.434
1545.83	297.307
1549.96	192.756
1554.09	250.19
1558.22	55.377
1562.35	342.586
1566.48	114.867
1570.6	157.207
1574.72	397.894
