Measurement: Raman, 514 nm, depolarized, Raman Data Processed
Mineral: Fluorapophyllite-(K)
Rruff sample: R060554
Ideal chemistry: KCa_4_Si_8_O_20_F8H_2_O
Locality: unknown
Source: Gemological Institute of America
Description: Colorless polished fragment
Measured chemistry: (K_0.88_Na_0.12_)Ca_4.00_Si_8.00_O_20_F_1.00_Â·8H2O
Pin_id: L01258
Orientation: Laser parallel to c* (0 0 1). Fiducial mark perpendicular to laser is parallel to a [1 0 0]
Raman shift (cm-1)	intensity
53.91	0
58.864	351.543
63.817	12.9523
68.767	26.1853
73.714	1306.76
78.659	6415.21
83.602	17005.7
88.542	23732.9
93.48	19991.5
98.416	15843
103.349	21744.9
108.28	29948.8
113.208	14692.6
118.134	11560.5
123.058	14860.8
127.979	14710.2
132.898	15222.8
137.814	7723.59
142.728	3344.62
147.639	3819.9
152.549	7735.52
157.455	14948
162.359	21676.6
167.261	11870.9
172.161	5726.18
177.058	7958.27
181.952	16727.2
186.845	22699.7
191.734	15820.8
196.622	17242.2
201.507	27384.3
206.389	44027.4
211.269	49461.6
216.147	34477.2
221.022	25921.8
225.895	24044.2
230.765	19117
235.633	10379
240.498	4708.16
245.361	2248.68
250.222	1373.43
255.08	1615.74
259.936	2933.39
264.789	4607.67
269.64	4694.61
274.488	2808.4
279.334	2607.87
284.178	4590
289.019	9059.7
293.857	15060.9
298.693	16432.2
303.527	10862.2
308.358	5682.81
313.187	3556.88
318.013	3085.39
322.837	3781.3
327.659	5251.55
332.478	7128.09
337.294	7804.85
342.108	5508.77
346.92	2405.89
351.729	516.24
356.535	46.3486
361.34	137.731
366.141	1126.66
370.94	2630.44
375.737	2079.9
380.531	167.116
385.323	920.171
390.113	968.422
394.9	628.252
399.684	196.259
404.466	133.19
409.245	614.201
414.022	1418.13
418.797	3662.92
423.569	10939.5
428.338	24163.9
433.105	29364.1
437.87	13094.2
442.632	4554.56
447.391	1858.36
452.149	1159.97
456.903	1673.36
461.655	2404.52
466.405	2092.3
471.152	794.406
475.897	428.232
480.639	1193.49
485.378	1552.15
490.116	730.194
494.85	344.568
499.582	416.54
504.312	643.596
509.039	1100.46
513.764	1548.47
518.486	1954.64
523.206	2406.07
527.923	2950.62
532.638	3870.03
537.35	4464.58
542.059	4482.93
546.766	4241.13
551.471	4487.85
556.173	4931.18
560.873	6053.07
565.57	8032.52
570.264	11999.7
574.957	17211.2
579.646	23142.5
584.333	24087.2
589.018	18770.9
593.7	12504.3
598.379	8151.65
603.056	5877.56
607.73	4617.26
612.402	4181.12
617.072	4140.2
621.739	4375.3
626.403	4637.27
631.065	4994.09
635.724	5605.75
640.381	6532.74
645.035	8216.36
649.687	10814.8
654.336	14299.2
658.983	17553.5
663.627	18224.5
668.268	15515.3
672.907	11001.9
677.544	7312.84
682.178	4807.76
686.809	3078.34
691.438	2024.67
696.065	1215.64
700.688	592.223
705.31	387.408
709.929	86.166
714.545	33.6895
719.158	58.7266
723.77	143.403
728.378	257.491
732.984	149.588
737.588	106.632
742.189	149.607
746.787	133.249
751.383	178.131
755.976	740.7
760.567	1607.74
765.155	2227.26
769.741	1908.26
774.324	1584.74
778.904	1365.83
783.482	2192.52
788.058	3611.56
792.631	3596.86
797.201	2119.04
801.769	1143.14
806.334	718.934
810.897	654.449
815.457	834.336
820.014	980.554
824.569	1198.08
829.122	1571.92
833.671	1921.08
838.219	2223.57
842.763	2269.4
847.306	2446.43
851.845	2353.28
856.382	2167.75
860.917	1809.09
865.448	1373.36
869.978	1034.6
874.505	823.244
879.029	591.585
883.55	624.857
888.069	490.43
892.586	439.21
897.1	469.941
901.611	340.843
906.12	235.855
910.626	245.018
915.129	51.6997
919.63	16.5855
924.129	74.0151
928.625	14.6973
933.118	4.60889
937.609	33.0312
942.097	73.4209
946.582	139.963
951.065	327.588
955.546	415.312
960.023	452.143
964.499	690.088
968.971	1000.16
973.441	1039.38
977.909	547.743
982.374	524.276
986.836	812.123
991.295	1094.57
995.753	1630.87
1000.21	2554.45
1004.66	3457.47
1009.11	3381.93
1013.55	2217.81
1018	1606.39
1022.44	1729.67
1026.88	1973.73
1031.32	2775.47
1035.75	4047.65
1040.18	5815.89
1044.61	8760.74
1049.04	16150.3
1053.46	31401.2
1057.88	50575.4
1062.3	43816.9
1066.71	21647
1071.13	10514.2
1075.54	5323.32
1079.94	2875.27
1084.35	1774.43
1088.75	1162.74
1093.15	917.642
1097.55	908.506
1101.94	1236.45
1106.34	1867.96
1110.73	3175.95
1115.11	3688.21
1119.5	1960.78
1123.88	855.383
1128.26	463.415
1132.63	169.779
1137.01	130.192
1141.38	6.86719
1145.75	58.0625
1150.12	8.71191
1154.48	25.5752
1158.84	45.2598
1163.2	78.4385
1167.55	9.96777
1171.91	45.7251
1176.26	36.9551
1180.61	52.9727
1184.95	38.1397
1189.29	12.7998
1193.63	46.2685
1197.97	70.7617
1202.31	20.3423
1206.64	21.6694
1210.97	77.915
1215.29	102.279
1219.62	91.0283
1223.94	139.792
1228.26	108.981
1232.57	187.92
1236.89	77.5464
1241.2	291.466
1245.51	282.706
1249.81	115.054
1254.12	109.793
1258.42	238.03
1262.72	260.619
1267.01	243.576
1271.3	295.092
1275.59	282.315
1279.88	240.671
1284.17	204.291
1288.45	287.292
1292.73	225.541
1297.01	206.766
1301.28	123.273
1305.55	180.352
1309.82	198.231
1314.09	198.914
1318.35	182.772
1322.61	184.748
1326.87	83.936
1331.13	56.0791
1335.38	194.388
1339.63	104.372
1343.88	135.695
1348.12	63.3198
1352.37	167.183
1356.61	118.622
1360.85	114.638
1365.08	46.8735
1369.31	150.265
1373.54	119.123
1377.77	115.892
1381.99	67.6362
1386.22	41.332
1390.43	107.95
1394.65	40.9297
1398.87	36.7065
1403.08	78.7876
1407.29	82.3472
1411.49	38.6914
1415.69	44.7402
1419.89	108.275
1424.09	113.689
1428.29	20.2881
1432.48	91.1162
1436.67	38.8799
1440.86	49.1172
1445.04	122.319
1449.23	133.743
1453.4	141.232
1457.58	162.139
1461.76	196.774
1465.93	131.439
1470.1	188.266
1474.26	129.947
1478.43	236.97
1482.59	340.466
1486.75	217.616
1490.9	260.418
1495.06	337.632
1499.21	284.353
1503.35	314.058
1507.5	376.152
1511.64	356.172
1515.78	409.538
1519.92	341.637
1524.05	402.988
1528.18	403.534
1532.31	308.366
1536.44	204.52
1540.56	57.8301
1544.69	99.7769
1548.8	64.4224
1552.92	117.848
1557.03	55.543
1561.14	58.2974
1565.25	59.332
1569.36	22.6714
