Measurement: Raman, 514 nm, depolarized, Raman Data Processed
Mineral: Fluorapatite
Rruff sample: R050369
Ideal chemistry: Ca_5_(PO_4_)_3_F
Locality: Russia
Source: Eugene Schlepp
Description: Blueish-green hexagonal prismatic crystal
Measured chemistry: (Ca_0.99_Na_0.01_)_5_((P_0.98_S_0.02_)O_4_)_3_F_1.00_
Pin_id: L01431
Orientation: Laser parallel to -c* (0 0 -1). Fiducial mark perpendicular to laser is parallel to b [0 1 0]
Raman shift (cm-1)	intensity
107.047	0
111.976	7.14648
116.903	64.8064
121.827	74.9382
126.749	113.015
131.668	353.447
136.585	747.125
141.5	1367.87
146.412	703.254
151.321	447.519
156.229	586.08
161.134	698.361
166.036	547.783
170.936	452.055
175.834	377.083
180.729	193.202
185.622	58.2012
190.512	128.177
195.4	93.0239
200.286	97.7871
205.169	202.495
210.049	166.153
214.928	207.756
219.803	152.311
224.677	164.712
229.548	243.709
234.416	346.866
239.282	372.153
244.146	263.348
249.007	224.075
253.866	305.27
258.722	316.146
263.576	701.551
268.427	957.377
273.276	652.869
278.123	420.484
282.967	207.284
287.809	198.193
292.648	189.152
297.485	224.113
302.319	277.045
307.151	484.123
311.98	511.723
316.807	498.427
321.631	243.999
326.454	171.406
331.273	42.6392
336.09	118.106
340.905	5.60742
345.717	33.8232
350.527	14.3428
355.334	36.3584
360.139	50.419
364.941	22.563
369.741	21.1416
374.538	32.2427
379.333	86.563
384.126	22.3442
388.916	5.51562
393.703	87.0537
398.488	4.17773
403.271	28.4834
408.051	10.2773
412.828	84.4849
417.603	208.3
422.376	160.488
427.146	475.714
431.914	598.665
436.679	872.312
441.442	1502.68
446.202	2048.81
450.96	1809.66
455.715	1223.21
460.467	635.441
465.218	440.362
469.965	236.958
474.711	202.282
479.454	183.31
484.194	244.221
488.932	109.07
493.667	138.028
498.4	35.8672
503.13	85.8154
507.858	34.8701
512.583	15.6372
517.306	38.5938
522.026	3.09033
526.744	43.3345
531.459	100.899
536.172	61.6509
540.882	23.3267
545.59	13.147
550.295	43.7754
554.998	44.0898
559.698	46.2964
564.396	203.144
569.091	223.948
573.784	671.398
578.474	1952.15
583.162	2720.04
587.847	895.073
592.529	724.672
597.209	492.378
601.887	909.454
606.562	2008.91
611.235	1257.94
615.905	976.825
620.572	607.252
625.237	163.621
629.9	120.186
634.56	210.46
639.217	158.606
643.872	105.182
648.524	232.598
653.174	195.006
657.821	157.443
662.466	208.454
667.108	159.241
671.748	181.399
676.385	144.383
681.02	72.6987
685.652	2.25195
690.281	143.82
694.908	104.376
699.533	126.606
704.155	114.058
708.774	76.835
713.391	237.002
718.005	68.8423
722.617	93.8213
727.226	8.14941
731.833	178.111
736.437	18.8418
741.039	49.8633
745.638	73.5654
750.234	6.30469
754.828	80.999
759.419	114.173
764.008	76.3506
768.595	143.516
773.178	22.6006
777.759	70.2422
782.338	170.325
786.914	64.8828
791.488	136.424
796.059	151.177
800.627	64.6152
805.193	112.425
809.756	105.591
814.317	54.1543
818.875	127.757
823.431	32.2988
827.984	168.894
832.534	78.7031
837.082	134.403
841.627	59.7676
846.17	149.059
850.71	172.716
855.248	25.4912
859.783	37.7949
864.316	139.867
868.846	131.535
873.373	193.772
877.898	61.9365
882.42	164.835
886.94	19.8369
891.457	0.057617
895.971	39.1963
900.483	24.6807
904.993	48.7627
909.5	111.728
914.004	49.9717
918.505	51.4883
923.004	70.4551
927.501	124.963
931.995	213.123
936.486	197.643
940.975	482.887
945.461	804.839
949.945	1715.07
954.426	3642.87
958.904	12811.4
963.38	40370.6
967.853	32746.4
972.324	7087.54
976.792	1805.47
981.258	633.46
985.72	460.674
990.181	255.682
994.639	37.6084
999.094	97.1543
1003.55	391.432
1008	844.693
1012.44	919.82
1016.89	421.264
1021.33	324.438
1025.77	605.045
1030.21	1230.31
1034.64	1622.68
1039.07	696.141
1043.5	449.318
1047.93	334.264
1052.35	589.219
1056.78	952.342
1061.19	1398.49
1065.61	535.316
1070.02	246.632
1074.43	448.001
1078.84	764.426
1083.25	536.926
1087.65	411.496
1092.05	82.1426
1096.45	104.902
1100.85	21.6748
1105.24	17.4893
1109.63	106.153
1114.02	69.3975
1118.4	222.044
1122.78	88.5684
1127.16	300.203
1131.54	103.975
1135.92	120.855
1140.29	258.32
1144.66	103.87
1149.02	175.018
1153.39	219.272
1157.75	141.736
1162.11	266.318
1166.46	216.018
1170.82	307.336
1175.17	157.486
1179.52	310.656
1183.86	166.678
1188.21	368.148
1192.55	122.744
1196.89	259.406
1201.22	97.1269
1205.55	199.908
1209.88	296.75
1214.21	393.647
1218.54	234.606
1222.86	262.619
1227.18	247.891
1231.5	333.012
1235.81	246.127
1240.12	181.291
1244.43	279.717
1248.74	253.08
1253.04	194.51
1257.34	64.0019
1261.64	110.742
1265.94	168.356
1270.23	256.148
1274.52	98.8809
1278.81	249.885
1283.1	236.731
1287.38	183.631
1291.66	34.877
1295.94	158.955
1300.21	11.8594
1304.48	140.457
1308.75	41.1211
1313.02	240.365
1317.29	189.373
1321.55	228.625
1325.81	132.9
1330.06	222.217
1334.32	145.574
1338.57	221.971
1342.82	120.414
1347.06	235.906
1351.31	94.3281
1355.55	262.789
1359.79	134.248
1364.02	112.746
1368.26	13.543
1372.49	51.2812
1376.71	205.078
1380.94	290.916
1385.16	213.756
1389.38	161.549
1393.6	1.37891
1397.81	201.258
1402.02	119.199
1406.23	133.207
1410.44	220.295
1414.64	228.478
1418.85	292.795
1423.04	105.268
1427.24	157.742
1431.43	131.461
1435.62	261.029
1439.81	45.5
1444	149.315
1448.18	267.656
1452.36	177.19
1456.54	164.863
1460.71	243.609
1464.89	211.428
1469.06	330.324
1473.22	257.92
1477.39	66.7324
1481.55	293.301
1485.71	251.856
1489.86	323.287
1494.02	335.049
1498.17	252.758
1502.32	147.693
1506.46	307.738
1510.61	542.654
1514.75	134.635
1518.88	173.728
1523.02	272.91
1527.15	215.82
1531.28	207.432
1535.41	270.59
1539.53	201.025
1543.66	334.9
1547.78	270.344
1551.89	222.723
1556.01	390.705
1560.12	302.248
1564.23	239.356
1568.33	327.066
1572.43	0
