Measurement: Raman, 514 nm, ccw, Raman Data Processed
Mineral: Fluorophlogopite
Rruff sample: R040042
Ideal chemistry: KMg_3_(Si_3_Al)O_10_F_2_
Locality: Franklin, Sussex County, New Jersey, USA
Source: University of Arizona Mineral Museum
Description: Brown flattened hexagonal prism, polytype 1M
Measured chemistry: (K_0.92_Na_0.08_)_Σ=1_(Mg_2.95_Fe_0.05_)_Σ=3_(Si_3.00_Al_1.00_)O_10_(F_1.40_(OH)_0.60_)_Σ=2_; trace amounts of Ti; OH estimated by charge balance
Pin_id: L00540
Orientation: Laser parallel to -a* (-1 0 0). Fiducial mark perpendicular to laser is parallel to -b [0 -1 0]
Raman shift (cm-1)	intensity
128.807	0
133.726	793.234
138.642	247.125
143.556	552.586
148.468	401.836
153.377	165.094
158.283	1179.13
163.187	3001.83
168.088	4643.23
172.987	8644.46
177.884	15542.5
182.778	31783.2
187.67	71252.1
192.559	144306
197.445	224648
202.33	170366
207.211	68803.8
212.091	29263.6
216.967	15304.8
221.842	8658.7
226.713	5682.59
231.583	3950.93
236.449	1660.99
241.314	1625.67
246.176	1934.14
251.035	1881.99
255.892	2806.17
260.746	4359.5
265.598	8317.52
270.448	17140.8
275.295	32437
280.139	48029.9
284.981	35140.8
289.82	16966.1
294.657	9952.33
299.492	8563.27
304.324	11123.1
309.153	18357.7
313.98	26770.2
318.805	31393.8
323.627	31763.3
328.446	26598.2
333.263	18021
338.078	11005.2
342.89	7434.83
347.699	4599.27
352.506	3864.81
357.311	3360.21
362.113	2880.45
366.912	2788.72
371.709	2863.04
376.504	2772.04
381.295	2180.67
386.085	1244.44
390.872	587.695
395.656	1359.97
400.438	1248.03
405.218	741.25
409.994	1014.19
414.769	580.914
419.541	44.8594
424.31	205.648
429.077	593.133
433.841	69.5469
438.603	49.1797
443.362	633.57
448.119	550.32
452.873	592.344
457.625	465
462.374	549.188
467.121	621.844
471.865	254.125
476.607	638.438
481.346	456.531
486.082	151.891
490.816	291.156
495.548	543.094
500.277	72.0781
505.003	501.703
509.727	77.5
514.449	121.641
519.168	19.1094
523.884	23.3594
528.598	113.766
533.309	96.2656
538.018	60.5156
542.724	304.875
547.428	56.8125
552.129	387.797
556.828	330.078
561.524	523.938
566.217	205.719
570.909	1095.08
575.597	823.156
580.283	767.016
584.966	741.219
589.647	942.891
594.326	1292.95
599.001	1663.19
603.675	2098.19
608.345	2437.56
613.014	4780.45
617.679	6743.33
622.342	9859.3
627.003	12893.1
631.661	18842.7
636.316	24417.2
640.969	25871.9
645.62	25038.9
650.267	24573.4
654.913	24964.5
659.555	26834.8
664.196	32354.2
668.833	40715.2
673.468	58952.5
678.101	85133.1
682.731	104487
687.358	95024.9
691.983	68707
696.605	42611.9
701.225	23379.8
705.842	13275.3
710.457	8402.36
715.069	6336.34
719.679	4179.11
724.286	3125.48
728.89	1987.42
733.492	1980.84
738.091	1659.72
742.688	1831.72
747.282	1253.31
751.874	1646.28
756.463	842.016
761.05	538.25
765.634	550.312
770.215	1445.89
774.794	1255.52
779.37	262.016
783.944	485.688
788.515	927.516
793.084	538.938
797.65	1115.48
802.213	1197.62
806.774	1649.89
811.332	1234.56
815.888	668.75
820.441	1105.11
824.992	988.891
829.54	280.312
834.085	573.797
838.628	703.766
843.169	919.516
847.706	59.2188
852.242	555.031
856.774	242.547
861.304	395.359
865.832	115.391
870.357	40.5469
874.879	291.609
879.399	632.203
883.916	253.656
888.431	189.375
892.943	936.141
897.452	924.562
901.959	1006.31
906.463	1418.97
910.965	1099.23
915.464	839.797
919.961	968.641
924.455	2238.94
928.946	942.219
933.435	987.828
937.922	1379.7
942.405	1565.66
946.886	545.984
951.365	1287.67
955.841	844.438
960.314	1185.62
964.785	1579.89
969.253	1762.84
973.719	1053.61
978.182	1857.59
982.642	2198.03
987.1	2346.69
991.556	3034.11
996.008	3441.41
1000.46	3445.41
1004.91	4687.34
1009.35	5537.61
1013.79	7309.08
1018.23	8709.86
1022.67	11683.9
1027.11	20623.2
1031.54	38834.1
1035.97	54515
1040.39	47077.6
1044.82	28791.5
1049.24	17952.3
1053.66	13263.5
1058.08	9060.86
1062.49	6458
1066.9	5430.81
1071.31	3532.98
1075.71	2371.78
1080.12	2383.52
1084.52	3328.22
1088.92	3261.05
1093.31	3467.62
1097.71	2103.83
1102.1	1373
1106.48	1449
1110.87	1187.97
1115.25	645.484
1119.63	45.7031
1124.01	458.156
1128.39	924.266
1132.76	666.797
1137.13	172.016
1141.5	5.04688
1145.86	492.469
1150.22	223.609
1154.58	219.828
1158.94	351.828
1163.29	222.453
1167.64	535.969
1171.99	406.188
1176.34	952.516
1180.68	133.766
1185.03	732.344
1189.36	411.891
1193.7	59.0312
1198.03	269.297
1202.36	562.406
1206.69	1182.8
1211.02	1018.61
1215.34	892.172
1219.66	86.5156
1223.98	900.016
1228.3	406.594
1232.61	375.734
1236.92	79.4844
1241.22	398.812
1245.53	973.719
1249.83	1332.75
1254.13	729.844
1258.43	1079.03
1262.72	53.2812
1267.02	557.719
1271.3	726.531
1275.59	751.312
1279.88	104.594
1284.16	1275.97
1288.43	1025.38
1292.71	201.625
1296.98	1447.28
1301.26	177
1305.52	1067.94
1309.79	739.438
1314.05	1109.47
1318.31	1389.91
1322.57	747.781
1326.83	986.125
1331.08	779.688
1335.33	1321.81
1339.58	1212.59
1343.82	758.469
1348.07	582.969
1352.31	1651.69
1356.54	469.625
1360.78	1065.06
1365.01	1656.22
1369.24	1341.72
1373.46	1144.88
1377.69	189.969
1381.91	766.344
1386.13	1046.88
1390.35	4.5625
1394.56	800.719
1398.77	337.656
1402.98	1100.75
1407.18	536.594
1411.39	285.281
1415.59	1238.44
1419.79	323.812
1423.98	1405.88
1428.17	1049.53
1432.36	218.875
1436.55	1712.78
1440.74	325.781
1444.92	980.5
1449.1	702.438
1453.28	1019.03
1457.45	1121.56
1461.62	1707.5
1465.79	1558.53
1469.96	1906.81
1474.12	955.438
1478.28	1906.97
1482.44	878.656
1486.6	1233.94
1490.75	339.25
1494.9	393.812
1499.05	713.719
1503.19	1280.16
1507.34	1460.38
1511.48	1334.69
1515.62	1034.47
1519.75	1241.97
1523.88	1146.75
1528.02	1307.03
1532.14	1550.53
1536.27	2123.34
1540.39	3455.12
1544.51	1832.09
1548.62	2717.25
1552.74	1673.53
1556.85	1436.69
1560.96	1599.56
1565.07	977.062
1569.17	267.25
1573.27	808.75
1577.37	1460.16
