Measurement: Raman, 514 nm, depolarized, Raman Data Processed
Mineral: Fluorophlogopite
Rruff sample: R040039
Ideal chemistry: KMg_3_(Si_3_Al)O_10_F_2_
Locality: Franklin, Sussex County, New Jersey, USA
Source: University of Arizona Mineral Museum
Description: Brown hexagonal sheets
Measured chemistry: (K_0.92_Na_0.06_[box]_0.02_)_Σ=1_(Mg_2.94_Fe_0.04_Ti_0.02_)_Σ=3_(Si_2.98_Al_1.02_)O_10_(F_1.24_(OH)_0.76_)_Σ=2_; OH estimated by charge balance
Pin_id: L00415
Orientation: Laser parallel to [-1 0 -1]. Fiducial mark perpendicular to laser is parallel to b* (0 1 0)
Raman shift (cm-1)	intensity
96.233	0
100.418	1480.13
104.6	2958.28
108.781	2967.32
112.959	2233.2
117.136	2037.03
121.31	1680.75
125.482	1235.53
129.653	902.919
133.821	648.663
137.987	508.213
142.152	262.154
146.314	141.363
150.474	54.686
154.633	132.246
158.789	161.911
162.943	0.774
167.095	182.281
171.246	372.396
175.394	1076.37
179.54	1680.07
183.684	3095.47
187.826	6914.19
191.967	14914.4
196.105	20776
200.241	15378.8
204.375	7322.75
208.507	3420.59
212.638	1792.82
216.766	967.973
220.892	440.489
225.016	230.251
229.139	142.242
233.259	47.557
237.377	7.839
241.493	25.589
245.608	252.779
249.72	193.884
253.83	90.834
257.939	89.116
262.045	337.857
266.15	1031.61
270.252	2495.45
274.353	5085.27
278.451	6898.28
282.548	5012.54
286.642	2653.61
290.735	1541.06
294.826	1165.23
298.914	1511.58
303.001	2225
307.086	3606.38
311.168	5339.75
315.249	6699.76
319.328	7284.44
323.405	6764.27
327.48	5456.19
331.553	3849.67
335.624	2643.44
339.693	1668.63
343.76	1189.16
347.826	1122.78
351.889	1006.46
355.95	950.185
360.01	1099.93
364.067	1481.56
368.123	2120.39
372.176	2340.24
376.228	1716.83
380.277	1134.48
384.325	852.887
388.371	614.568
392.415	611.575
396.457	562.362
400.497	552.097
404.535	417.649
408.571	289.933
412.605	202.087
416.638	230.678
420.668	71.685
424.697	56.448
428.723	114.428
432.748	214.715
436.77	252.765
440.791	267.519
444.81	363.371
448.827	571.545
452.842	733.369
456.855	617.95
460.867	599.286
464.876	698.371
468.883	550.204
472.889	58.22
476.892	164.205
480.894	74.116
484.894	75.987
488.892	130.417
492.888	338.505
496.882	612.339
500.874	869.938
504.865	1109.31
508.853	1066.46
512.84	1084.39
516.824	840.09
520.807	754.558
524.788	418.795
528.767	151.8
532.744	248.609
536.719	258.237
540.693	210.719
544.664	116.968
548.634	97.958
552.601	201.638
556.567	216.054
560.531	152.425
564.493	48.856
568.453	204.443
572.412	134.33
576.368	113.077
580.323	28.847
584.275	11.936
588.226	2.137
592.175	28.661
596.122	37.453
600.068	582.807
604.011	16.903
607.952	346.697
611.892	512.256
615.83	636.601
619.766	842.738
623.7	1355.66
627.632	2198.38
631.563	2774.34
635.491	3169.14
639.418	3636.25
643.343	3748.99
647.266	4016.88
651.187	4252.49
655.106	4468.08
659.024	5093.52
662.939	6118.82
666.853	8053.99
670.765	10799
674.675	15433.9
678.583	21858.9
682.49	25873.6
686.394	24148.2
690.297	19189.6
694.198	13520.9
698.097	8526.05
701.995	5850.47
705.89	3992.8
709.784	2971.99
713.675	2225.36
717.565	1910.73
721.453	1670.67
725.34	1650.16
729.224	1653.25
733.107	1573.85
736.988	1560.94
740.867	1515.88
744.744	1697.08
748.62	1487.6
752.493	1346.33
756.365	1095.36
760.235	899.207
764.103	1076.07
767.969	1058.67
771.834	986.882
775.697	876.379
779.558	1172.83
783.417	1347.23
787.274	1578.8
791.13	1571.46
794.983	1419.32
798.835	1228.58
802.686	1178
806.534	940.392
810.38	847.756
814.225	543.095
818.068	469.408
821.909	343.7
825.749	462.973
829.586	368.226
833.422	153.46
837.256	19.679
841.088	87.121
844.919	29.922
848.748	110.892
852.575	100.743
856.4	53.554
860.223	1.434
864.045	85.601
867.864	10.23
871.682	56.998
875.499	141.725
879.313	19.229
883.126	139.413
886.937	35.724
890.746	229.953
894.553	247.358
898.359	269.066
902.163	43.185
905.965	55.474
909.765	59.894
913.564	179.296
917.361	257.749
921.156	266.231
924.949	110.728
928.74	170.24
932.53	131.781
936.318	200.36
940.104	265.947
943.889	197.533
947.672	200.067
951.453	95.579
955.232	45.103
959.01	162.634
962.785	229.178
966.559	380.734
970.332	324.298
974.102	197.878
977.871	211.476
981.638	435.08
985.404	538.547
989.167	592.006
992.929	611.064
996.689	604.887
1000.45	773.265
1004.2	1036.49
1007.96	1088.56
1011.71	1110.42
1015.46	1160.13
1019.21	934.401
1022.96	818.112
1026.71	908.567
1030.45	1522.54
1034.19	2153.53
1037.94	2256.57
1041.68	1837.85
1045.41	1314.44
1049.15	1052.08
1052.88	966.743
1056.62	1288.05
1060.35	1362.28
1064.08	1446.35
1067.8	1550.49
1071.53	1675.22
1075.25	1839.29
1078.97	2043.86
1082.7	2448.93
1086.41	3092.83
1090.13	3465.63
1093.85	3699.9
1097.56	3480.04
1101.27	3274.09
1104.98	3108.16
1108.69	2522.33
1112.4	1906.66
1116.1	1490.36
1119.81	1144.07
1123.51	1739.4
1127.21	502.865
1130.91	322.653
1134.61	230.237
1138.3	353.624
1141.99	279.179
1145.68	422.668
1149.38	255.711
1153.06	168.66
1156.75	116.185
1160.43	56.642
1164.12	19.323
1167.8	151.615
1171.48	283.787
1175.16	226.167
1178.83	259.405
1182.51	61.373
1186.18	96.489
1189.85	78.682
1193.52	84.392
1197.19	266.813
1200.86	237.226
1204.52	297.572
1208.19	244.281
1211.85	165.456
1215.51	60.229
1219.17	80.588
1222.82	271.389
1226.48	419.397
1230.13	571.918
1233.78	503.556
1237.43	547.707
1241.08	350.344
1244.73	198.457
1248.37	213.487
1252.01	277.742
1255.66	475.431
1259.3	532.855
1262.93	520.549
1266.57	527.641
1270.21	524.391
1273.84	221.19
1277.47	177.724
1281.1	245.663
1284.73	241.625
1288.36	431.092
1291.98	604.101
1295.6	607.348
1299.23	521.203
1302.85	426.711
1306.46	209.645
1310.08	291.95
1313.7	249.292
1317.31	366.726
1320.92	388.631
1324.53	448.85
1328.14	479.133
1331.75	462.257
1335.35	286.021
1338.96	227.804
1342.56	154.07
1346.16	122.569
1349.76	111.614
1353.36	259.911
1356.95	317.914
1360.55	335.245
1364.14	402.637
1367.73	410.517
1371.32	128.122
1374.91	55.827
1378.49	50.523
1382.08	28.229
1385.66	164.271
1389.24	225.521
1392.82	427.312
1396.4	586.473
1399.97	546.881
1403.55	544.597
1407.12	374.441
1410.69	231.44
1414.26	110.588
1417.83	130.417
1421.4	17.681
1424.96	226.671
1428.53	203.262
1432.09	499.649
1435.65	508.19
1439.21	697.497
1442.76	740.728
1446.32	681.418
1449.87	581.141
1453.43	455.757
1456.98	377.276
1460.53	447.807
1464.07	426.023
1467.62	643.5
1471.16	684.953
1474.71	676.251
1478.25	1009.82
1481.79	674.211
1485.32	470.09
1488.86	488.077
1492.39	276.367
1495.93	3.804
1499.46	30.785
1502.99	39.729
1506.52	93.517
1510.05	290.051
1513.57	371.362
