Measurement: Raman, 514 nm, depolarized, Raman Data Processed
Mineral: Fluorapatite
Rruff sample: R050194
Ideal chemistry: Ca_5_(PO_4_)_3_F
Locality: Siglo XX mine, Llallagua, Bolivia
Source: Dave Bunk Minerals
Description: Purple crystal fragments
Measured chemistry: Ca_5.00_(P_1.00_O_4_)_3_F_1.00_
Pin_id: L01968
Orientation: Laser parallel to -a* (-1 0 0). Fiducial mark perpendicular to laser is parallel to -c [0 0 -1]
Raman shift (cm-1)	intensity
136.585	0
141.5	82.3506
146.412	52.2383
151.321	44.061
156.229	117.929
161.134	90.6333
166.036	55.1567
170.936	57.085
175.834	74.6499
180.729	131.409
185.622	78.2178
190.512	5.12158
195.4	130.142
200.286	130.996
205.169	24.3662
210.049	128.09
214.928	68.5586
219.803	86.5737
224.677	35.7744
229.548	72.4941
234.416	141.64
239.282	47.1812
244.146	2.22852
249.007	116.236
253.866	133.826
258.722	179.855
263.576	109.109
268.427	11.8516
273.276	111.64
278.123	36.5903
282.967	139.731
287.809	75.6904
292.648	41.9883
297.485	120.243
302.319	65.4785
307.151	75.3315
311.98	13.8633
316.807	66.3272
321.631	83.6123
326.454	15.6914
331.273	28.5098
336.09	117.783
340.905	73.3906
345.717	22.5947
350.527	67.9556
355.334	58.9043
360.139	37.3027
364.941	7.46777
369.741	69.8252
374.538	158.208
379.333	103.471
384.126	65.7188
388.916	155.15
393.703	106.041
398.488	130.953
403.271	92.0352
408.051	0.228516
412.828	108.181
417.603	196.564
422.376	235.119
427.146	360.772
431.914	230.173
436.679	213.698
441.442	224.72
446.202	256.528
450.96	208.84
455.715	214.419
460.467	168.489
465.218	93.8281
469.965	182.507
474.711	194.704
479.454	78.9228
484.194	194.472
488.932	70.8389
493.667	131.325
498.4	191.944
503.13	27.1943
507.858	5.52734
512.583	7.75098
517.306	184.653
522.026	112.57
526.744	90.1953
531.459	30.1797
536.172	58.5469
540.882	96.1377
545.59	24.2852
550.295	98.9893
554.998	63.8955
559.698	230.447
564.396	42.9883
569.091	246.603
573.784	124.7
578.474	261.985
583.162	195.538
587.847	235.211
592.529	334.658
597.209	165.773
601.887	183.064
606.562	151.579
611.235	260.706
615.905	130.918
620.572	67.3584
625.237	140.235
629.9	189.79
634.56	47.96
639.217	216.694
643.872	192.855
648.524	162.973
653.174	276.136
657.821	68.1221
662.466	171.901
667.108	97.5469
671.748	115.5
676.385	117.867
681.02	33.7803
685.652	157.838
690.281	105.506
694.908	77.7812
699.533	79.0195
704.155	124.164
708.774	86.3887
713.391	216.445
718.005	133.141
722.617	209.432
727.226	94.1777
731.833	92.6973
736.437	368.506
741.039	127.693
745.638	189.547
750.234	153.494
754.828	27.2969
759.419	316.881
764.008	178.35
768.595	32.373
773.178	56.3945
777.759	308.816
782.338	322.139
786.914	280.467
791.488	148.1
796.059	211.734
800.627	87.6856
805.193	120.299
809.756	141.856
814.317	96.6953
818.875	361.287
823.431	232.773
827.984	256.072
832.534	197.029
837.082	209.912
841.627	209.502
846.17	114.666
850.71	154.58
855.248	157.33
859.783	138.065
864.316	204.633
868.846	67.7656
873.373	173.676
877.898	218.033
882.42	157.541
886.94	30.6504
891.457	125.242
895.971	159.549
900.483	32.8145
904.993	276.244
909.5	5.18164
914.004	206.49
918.505	172.406
923.004	315.203
927.501	161.75
931.995	181.459
936.486	125.699
940.975	180.738
945.461	203.644
949.945	209.857
954.426	377.838
958.904	704.356
963.38	2169.95
967.853	1209.74
972.324	383.705
976.792	131.625
981.258	335.914
985.72	6.22461
990.181	132.805
994.639	338.65
999.094	33.7051
1003.55	235.236
1008	23.9023
1012.44	222.668
1016.89	222.891
1021.33	105.041
1025.77	136.879
1030.21	262.916
1034.64	298.43
1039.07	189.83
1043.5	139.338
1047.93	172.822
1052.35	318.371
1056.78	205.231
1061.19	205.566
1065.61	340.672
1070.02	81.5156
1074.43	229.367
1078.84	201.418
1083.25	397.738
1087.65	240.566
1092.05	308.297
1096.45	154.004
1100.85	34.4961
1105.24	340.371
1109.63	147.414
1114.02	253.086
1118.4	85.832
1122.78	279.469
1127.16	252.121
1131.54	81.668
1135.92	350.504
1140.29	70.6992
1144.66	166.43
1149.02	214.238
1153.39	55.2695
1157.75	352.695
1162.11	290.453
1166.46	174.922
1170.82	575.164
1175.17	133.609
1179.52	80.2812
1183.86	230.656
1188.21	61.6836
1192.55	99.5117
1196.89	248.945
1201.22	233.57
1205.55	206.547
1209.88	72.7734
1214.21	304.246
1218.54	270.43
1222.86	192.457
1227.18	331.223
1231.5	266.141
1235.81	188.055
1240.12	195.289
1244.43	360.848
1248.74	384.469
1253.04	91.7461
1257.34	100.375
1261.64	143.125
1265.94	241.945
1270.23	100.871
1274.52	299.477
1278.81	51.5
1283.1	71.6953
1287.38	156.789
1291.66	293.602
1295.94	166.758
1300.21	497.309
1304.48	289.277
1308.75	314.68
1313.02	46.0039
1317.29	458.484
1321.55	366.356
1325.81	324.621
1330.06	581.25
1334.32	444.266
1338.57	337.863
1342.82	219.652
1347.06	132.856
1351.31	236.477
1355.55	122.519
1359.79	104
1364.02	287.914
1368.26	331.262
1372.49	549.148
1376.71	229.519
1380.94	166.379
1385.16	637.535
1389.38	526.289
1393.6	311.516
1397.81	466.496
1402.02	519.715
1406.23	395.019
1410.44	351.992
1414.64	291.703
1418.85	79.1758
1423.04	487.637
1427.24	372.848
1431.43	381.984
1435.62	301.43
1439.81	13.5703
1444	267.598
1448.18	555.051
1452.36	527.875
1456.54	166.336
1460.71	218.465
1464.89	342.238
1469.06	406.973
1473.22	148.742
1477.39	345.465
1481.55	149.769
1485.71	329.598
1489.86	372.832
1494.02	468.246
1498.17	463.492
1502.32	557.41
1506.46	166.875
1510.61	432.738
1514.75	202.484
1518.88	77.4453
1523.02	260.699
1527.15	170.328
1531.28	276.492
1535.41	325.383
1539.53	285.09
1543.66	316.176
1547.78	195.121
1551.89	516.379
1556.01	425.352
1560.12	164.781
1564.23	117.641
1568.33	188.059
