Measurement: Raman, 514 nm, depolarized, Raman Data Processed
Mineral: Fluorapatite
Rruff sample: R060070
Ideal chemistry: Ca_5_(PO_4_)_3_F
Locality: Panasqueira, Portugal
Source: Dave Bunk
Description: Green hexagonal tablet
Measured chemistry: (Ca_0.99_Mn_0.01_)_5_(P_1.00_O_4_)_3_F_1.00_
Pin_id: L01870
Orientation: Laser parallel to -c* (0 0 -1). Fiducial mark perpendicular to laser is parallel to -a [-1 0 0]
Raman shift (cm-1)	intensity
127.979	0
132.898	0.941162
137.814	56.989
142.728	77.6616
147.639	57.8674
152.549	138.708
157.455	83.5464
162.359	56.9968
167.261	33.4263
172.161	104.485
177.058	33.9717
181.952	97.7158
186.845	100.115
191.734	30.3208
196.622	96.7456
201.507	118.629
206.389	108.505
211.269	110.886
216.147	52.2197
221.022	88.2647
225.895	44.8574
230.765	81.25
235.633	147.027
240.498	185.402
245.361	23.4795
250.222	86.0371
255.08	75.7544
259.936	129.055
264.789	119.393
269.64	60.352
274.488	50.5283
279.334	114.491
284.178	143.625
289.019	103.384
293.857	44.7041
298.693	52.3931
303.527	67.7822
308.358	75.9673
313.187	9.84863
318.013	139.192
322.837	52.2344
327.659	8.09619
332.478	130.635
337.294	117.651
342.108	40.7241
346.92	21.8701
351.729	27.9062
356.535	3.4624
361.34	113.873
366.141	91.9375
370.94	133.814
375.737	148.693
380.531	94.2852
385.323	5.60889
390.113	105.463
394.9	137.958
399.684	22.4868
404.466	160.228
409.245	127.725
414.022	122.983
418.797	154.393
423.569	174.243
428.338	123.901
433.105	147.203
437.87	140.518
442.632	154.667
447.391	147.34
452.149	110.856
456.903	10.0156
461.655	184.047
466.405	107.866
471.152	116.067
475.897	194.974
480.639	88.251
485.378	149.822
490.116	81.167
494.85	159.688
499.582	98.2529
504.312	107.498
509.039	102.076
513.764	56.3232
518.486	13.2549
523.206	199.372
527.923	51.7188
532.638	83.7129
537.35	127.724
542.059	27.6846
546.766	56.3848
551.471	87.2842
556.173	34.2539
560.873	30.002
565.57	51.5234
570.264	173.451
574.957	159.071
579.646	234.202
584.333	152.845
589.018	7.00684
593.7	114.61
598.379	205.952
603.056	72.4785
607.73	176.481
612.402	205.143
617.072	115.436
621.739	201.527
626.403	189.355
631.065	50.5303
635.724	139.575
640.381	84.7256
645.035	192.791
649.687	232.415
654.336	149.163
658.983	6.01172
663.627	69.9609
668.268	141.224
672.907	82.0205
677.544	37.5352
682.178	13.0703
686.809	170.569
691.438	57.4443
696.065	33.8145
700.688	37.2871
705.31	117.508
709.929	125.637
714.545	60.8418
719.158	161.853
723.77	89.5625
728.378	171.602
732.984	171.115
737.588	22.1055
742.189	285.022
746.787	200.272
751.383	199.215
755.976	8.01172
760.567	191.297
765.155	0.597656
769.741	135.062
774.324	28.1094
778.904	130.322
783.482	175.316
788.058	96.0781
792.631	227.533
797.201	125.029
801.769	54.3301
806.334	109.697
810.897	170.697
815.457	74.1992
820.014	112.541
824.569	131.422
829.122	208.547
833.671	74.1934
838.219	202.375
842.763	81.6484
847.306	24.6934
851.845	236.978
856.382	160.383
860.917	192.428
865.448	324.69
869.978	239.863
874.505	194.676
879.029	8.59375
883.55	206.709
888.069	220.15
892.586	75.3281
897.1	210.144
901.611	197.828
906.12	69.7422
910.626	160.66
915.129	41.6328
919.63	171.66
924.129	224.685
928.625	273.103
933.118	132.574
937.609	164.644
942.097	325.459
946.582	116.615
951.065	391.262
955.546	240.691
960.023	675.066
964.499	830.557
968.971	499.09
973.441	250.984
977.909	183.18
982.374	431.328
986.836	310.022
991.295	134.5
995.753	110.199
1000.21	202.088
1004.66	112.016
1009.11	186.428
1013.55	142.867
1018	78.5195
1022.44	270.562
1026.88	100.168
1031.32	124.188
1035.75	41.6191
1040.18	243.623
1044.61	238.977
1049.04	103.893
1053.46	20.0859
1057.88	352.49
1062.3	268.443
1066.71	112.018
1071.13	1.57422
1075.54	76.043
1079.94	209.785
1084.35	75.2812
1088.75	104.312
1093.15	104.828
1097.55	164.945
1101.94	86.0781
1106.34	32.1719
1110.73	122.949
1115.11	228.398
1119.5	379.953
1123.88	311.684
1128.26	116.887
1132.63	334.746
1137.01	294.734
1141.38	243.258
1145.75	340.488
1150.12	148.547
1154.48	427.141
1158.84	103.086
1163.2	1.76172
1167.55	439.5
1171.91	219.57
1176.26	216.356
1180.61	284.426
1184.95	467.953
1189.29	306.762
1193.63	107.769
1197.97	357.086
1202.31	401.93
1206.64	305.93
1210.97	459.484
1215.29	288.148
1219.62	422.887
1223.94	553.535
1228.26	200.582
1232.57	161.019
1236.89	360.602
1241.2	229.742
1245.51	206.121
1249.81	343.219
1254.12	272.816
1258.42	241.93
1262.72	494.09
1267.01	310.273
1271.3	292.906
1275.59	245
1279.88	149.621
1284.17	337.773
1288.45	95.4883
1292.73	126.519
1297.01	191.836
1301.28	258.219
1305.55	306.543
1309.82	176.242
1314.09	114.176
1318.35	304.199
1322.61	272.402
1326.87	326.113
1331.13	215.379
1335.38	546.188
1339.63	377.508
1343.88	265.367
1348.12	301.789
1352.37	583.844
1356.61	262.445
1360.85	438.609
1365.08	314.441
1369.31	381.027
1373.54	249.266
1377.77	284.34
1381.99	305.047
1386.22	512.234
1390.43	265.934
1394.65	425.266
1398.87	136.566
1403.08	295.223
1407.29	133.578
1411.49	248.461
1415.69	352.91
1419.89	404.016
1424.09	390.394
1428.29	447.922
1432.48	452.258
1436.67	164.527
1440.86	442.809
1445.04	265.656
1449.23	497.684
1453.4	68.3281
1457.58	180.828
1461.76	313.188
1465.93	361.406
1470.1	468.496
1474.26	73.4336
1478.43	268.191
1482.59	213.051
1486.75	420.836
1490.9	586.519
1495.06	158.008
1499.21	550.606
1503.35	516.043
1507.5	381.949
1511.64	130.371
1515.78	357.148
1519.92	239.535
1524.05	314.613
1528.18	485.516
1532.31	39.6445
1536.44	269.348
1540.56	347.82
1544.69	72.4883
1548.8	305
1552.92	101.008
1557.03	3.70312
1561.14	318.543
1565.25	123.203
1569.36	172.133
