Measurement: Raman, 514 nm, ccw, Raman Data Processed
Mineral: Fluorophlogopite
Rruff sample: R040042
Ideal chemistry: KMg_3_(Si_3_Al)O_10_F_2_
Locality: Franklin, Sussex County, New Jersey, USA
Source: University of Arizona Mineral Museum
Description: Brown flattened hexagonal prism, polytype 1M
Measured chemistry: (K_0.92_Na_0.08_)_Σ=1_(Mg_2.95_Fe_0.05_)_Σ=3_(Si_3.00_Al_1.00_)O_10_(F_1.40_(OH)_0.60_)_Σ=2_; trace amounts of Ti; OH estimated by charge balance
Pin_id: L00310
Orientation: Laser parallel to c* (0 0 1). Fiducial mark perpendicular to laser is parallel to -a [-1 0 0]
Raman shift (cm-1)	intensity
128.807	0
133.726	258.66
138.642	474.871
143.556	501.562
148.468	482.027
153.377	119.805
158.283	388.738
163.187	30.6367
168.088	904.922
172.987	1377.35
177.884	2652.71
182.778	4732.11
187.67	10490.9
192.559	23291.7
197.445	42183.9
202.33	33774.2
207.211	13980.8
212.091	5904.55
216.967	3259.59
221.842	1997.34
226.713	1158.28
231.583	876.176
236.449	462.176
241.314	221.043
246.176	593.141
251.035	248.867
255.892	468.242
260.746	956.258
265.598	2189.18
270.448	4930.66
275.295	10456.2
280.139	17406.6
284.981	12783.9
289.82	6713.01
294.657	4829.34
299.492	5368.92
304.324	7723.42
309.153	12289.2
313.98	18268.5
318.805	20096.1
323.627	19631.1
328.446	15167.9
333.263	9384.13
338.078	5813.76
342.89	3725.02
347.699	2545.61
352.506	2315.67
357.311	1985.93
362.113	2087.53
366.912	2296.5
371.709	2630.83
376.504	2252.48
381.295	1682.4
386.085	1465.46
390.872	1152.65
395.656	1481.36
400.438	1151.76
405.218	1081.48
409.994	1310.56
414.769	1206.1
419.541	1180.52
424.31	653.211
429.077	859.875
433.841	121.039
438.603	496.789
443.362	323.484
448.119	620.164
452.873	1022.88
457.625	556.023
462.374	66.2734
467.121	502.445
471.865	148.961
476.607	220.523
481.346	124.867
486.082	223.43
490.816	153.516
495.548	538.633
500.277	965.695
505.003	961.688
509.727	1601.57
514.449	2258.34
519.168	1901.41
523.884	747.555
528.598	760.977
533.309	372.266
538.018	231.406
542.724	29.7109
547.428	611.758
552.129	408.719
556.828	734.461
561.524	507.117
566.217	372.523
570.909	18.4609
575.597	281.273
580.283	521.664
584.966	448.992
589.647	65.0078
594.326	152.125
599.001	280.554
603.675	238.305
608.345	30.9062
613.014	616.078
617.679	1490.05
622.342	2243.03
627.003	3305.05
631.661	5008.2
636.316	7181.16
640.969	8371.34
645.62	8000.63
650.267	8427.86
654.913	9281.02
659.555	10787.1
664.196	13589
668.833	18422.1
673.468	26768.2
678.101	40793.9
682.731	54580.1
687.358	53192.5
691.983	40621.8
696.605	26378.2
701.225	15883.2
705.842	9440.15
710.457	5499.66
715.069	4270.19
719.679	3313.13
724.286	2562.26
728.89	2441.41
733.492	1744.78
738.091	1856.05
742.688	1587.07
747.282	1137.08
751.874	1679.15
756.463	1221.11
761.05	1127.5
765.634	834.391
770.215	889.031
774.794	1247.27
779.37	527.227
783.944	922.867
788.515	1485.51
793.084	915.703
797.65	1298.19
802.213	1101.19
806.774	1075.75
811.332	958.375
815.888	849.523
820.441	623.922
824.992	139.086
829.54	352.625
834.085	282.266
838.628	242.75
843.169	182.992
847.706	210.336
852.242	573.898
856.774	565.75
861.304	648.5
865.832	76.7734
870.357	287.367
874.879	49.5156
879.399	34.6562
883.916	91.0156
888.431	581.859
892.943	524.617
897.452	1226.95
901.959	747.305
906.463	919.531
910.965	355.625
915.464	97.6406
919.961	475.359
924.455	607.914
928.946	684.664
933.435	844.297
937.922	72.2734
942.405	0.476563
946.886	46.3438
951.365	453.094
955.841	322.852
960.314	21.1953
964.785	710.023
969.253	906.445
973.719	1147.24
978.182	351.539
982.642	550.523
987.1	732.023
991.556	319.594
996.008	1003.41
1000.46	520.5
1004.91	779.172
1009.35	504.781
1013.79	789.109
1018.23	848.734
1022.67	658.477
1027.11	1576.77
1031.54	2972.88
1035.97	3868.75
1040.39	4034.92
1044.82	2637.96
1049.24	2004.17
1053.66	1836.48
1058.08	1571.85
1062.49	1591.44
1066.9	1793.01
1071.31	1881.56
1075.71	2657.75
1080.12	3750.56
1084.52	5278.61
1088.92	6852.38
1093.31	6488.58
1097.71	6400.38
1102.1	6654.08
1106.48	6158.95
1110.87	4761.66
1115.25	3283.33
1119.63	2515.22
1124.01	1351.38
1128.39	470
1132.76	888.438
1137.13	185.578
1141.5	108.844
1145.86	194.938
1150.22	39.5625
1154.58	208.703
1158.94	154.172
1163.29	88.9219
1167.64	335.453
1171.99	460.172
1176.34	564.188
1180.68	205.391
1185.03	576.906
1189.36	22.4844
1193.7	56.0781
1198.03	494.844
1202.36	192.297
1206.69	1001.53
1211.02	465.172
1215.34	702.844
1219.66	921.234
1223.98	478.328
1228.3	930.031
1232.61	928.672
1236.92	469.766
1241.22	750.5
1245.53	682.719
1249.83	586.422
1254.13	16.75
1258.43	312.297
1262.72	563.016
1267.02	145.516
1271.3	296.734
1275.59	386.453
1279.88	8.42188
1284.16	679.438
1288.43	75.2031
1292.71	901.5
1296.98	689.703
1301.26	218.703
1305.52	1130.2
1309.79	504.516
1314.05	447.578
1318.31	1203
1322.57	629.438
1326.83	1082.12
1331.08	1050.02
1335.33	553.125
1339.58	901.422
1343.82	744.516
1348.07	992.797
1352.31	1298.97
1356.54	51.9531
1360.78	813.25
1365.01	838.078
1369.24	571.328
1373.46	1015.47
1377.69	783.219
1381.91	150.078
1386.13	1031.48
1390.35	837.531
1394.56	904.953
1398.77	278.812
1402.98	867.125
1407.18	871.156
1411.39	243.266
1415.59	1073.05
1419.79	182
1423.98	226.047
1428.17	731.984
1432.36	178.016
1436.55	568.125
1440.74	214.609
1444.92	448.5
1449.1	877.828
1453.28	554.719
1457.45	404.703
1461.62	215.281
1465.79	16.9531
1469.96	738.578
1474.12	284.797
1478.28	720.125
1482.44	188.109
1486.6	71.5156
1490.75	214.297
1494.9	60.2188
1499.05	802.484
1503.19	370.828
1507.34	902.125
1511.48	1378.48
1515.62	843.312
1519.75	1508.31
1523.88	631.203
1528.02	1215.36
1532.14	848.781
1536.27	764.828
1540.39	961.703
1544.51	503.875
1548.62	896.266
1552.74	446.125
1556.85	1106.78
1560.96	964.656
1565.07	511.297
1569.17	817.703
1573.27	848.875
1577.37	13.2656
