Measurement: Raman, 514 nm, depolarized, Raman Data Processed
Mineral: Fluorite
Rruff sample: R060548
Ideal chemistry: CaF_2_
Locality: unknown
Source: Gemological Institute of America
Description: Pale blue fragment
Measured chemistry: Ca_1.00_F_2.00_
Pin_id: L01039
Orientation: Laser parallel to -a* (-1 0 0). Fiducial mark perpendicular to laser is parallel to b [0 1 0]
Raman shift (cm-1)	intensity
185.146	0
190.053	81.6397
194.958	93.6924
199.859	220.333
204.758	96.3672
209.654	218.783
214.547	308.644
219.438	561.837
224.326	686.16
229.211	736.131
234.093	633.818
238.972	963.184
243.849	1431.95
248.723	743.378
253.594	735.239
258.462	941.61
263.328	1306.76
268.191	440.821
273.051	188.62
277.908	117.259
282.763	97.834
287.615	47.6465
292.464	200.551
297.31	94.8584
302.154	123.919
306.995	593.585
311.833	1653.04
316.668	3869.85
321.501	7828.71
326.331	5421.96
331.158	2381.35
335.983	1302.26
340.804	1030.82
345.623	1007.64
350.44	1059.16
355.253	1151.67
360.064	987.787
364.872	970.225
369.677	728.814
374.48	745.975
379.28	811.074
384.077	709.67
388.872	626.596
393.663	549.297
398.452	587.441
403.239	265.24
408.022	129.281
412.803	198
417.581	51.0156
422.357	97.918
427.129	163.92
431.899	22.9121
436.667	46.4746
441.431	214.838
446.193	47.5469
450.952	343.041
455.709	220.557
460.463	186.674
465.214	435.17
469.962	390.055
474.708	600.682
479.451	871.264
484.191	352.328
488.929	569.004
493.663	459.691
498.396	544.486
503.125	150.457
507.852	91.6367
512.576	412.269
517.298	366.375
522.016	96.8613
526.732	180.848
531.446	3.08203
536.156	50.4531
540.865	0.140625
545.57	15.2422
550.273	83.3965
554.973	49.209
559.67	40.9746
564.364	249.951
569.056	195.074
573.746	99.4922
578.432	143.332
583.116	117.158
587.798	268.062
592.476	289.051
597.152	92.0527
601.825	350.728
606.496	309.514
611.164	165.565
615.829	252.072
620.492	743.631
625.152	947.521
629.809	919.873
634.464	59.2461
639.116	319.682
643.765	509.856
648.412	739.988
653.056	453.1
657.697	311.092
662.336	282.602
666.972	623.227
671.605	570.896
676.236	517.191
680.864	480.266
685.49	1015.17
690.113	1459.55
694.733	1404.1
699.351	1122.86
703.965	1443.8
708.578	1579.83
713.187	1258.43
717.794	1016.86
722.399	569.232
727.001	588.09
731.6	284.701
736.196	134.682
740.79	84.1934
745.381	24.6328
749.97	212.69
754.556	284.522
759.139	138.016
763.72	137.289
768.298	13.8203
772.874	139.984
777.447	278.184
782.017	553.178
786.585	433.977
791.15	569.316
795.712	1074.19
800.272	1205.66
804.829	1855.7
809.384	1748.32
813.936	2047.75
818.485	1934.89
823.032	1963.94
827.576	2247.78
832.118	3337.44
836.657	5430.67
841.193	5026.91
845.727	5584.95
850.258	4622.5
854.787	3700.2
859.313	2415.77
863.836	1741.58
868.357	764.814
872.875	514.316
877.391	572.16
881.904	243.707
886.414	97.5215
890.922	70.7305
895.427	428.664
899.93	631.211
904.43	1507.85
908.927	5679.78
913.422	13178.5
917.914	6087.83
922.404	11731
926.891	14072.8
931.376	10260.5
935.858	7906.99
940.337	8199.35
944.814	10655.6
949.289	24395.8
953.76	5229.99
958.229	1223.11
962.696	943.197
967.16	825.287
971.621	629.418
976.08	1.14844
980.537	314.953
984.99	268.309
989.442	254.207
993.89	5.875
998.336	661.113
1002.78	1250.42
1007.22	997.848
1011.66	780.084
1016.1	1230.13
1020.53	1664.48
1024.96	2310.52
1029.39	2331.64
1033.81	2518.5
1038.24	2097.32
1042.66	2477.31
1047.07	2429.27
1051.49	2409.17
1055.9	2186.07
1060.31	1768
1064.72	1574.01
1069.13	1524.7
1073.53	1440.49
1077.93	1233.8
1082.33	1393.92
1086.72	1291.83
1091.12	658.758
1095.51	385.941
1099.89	164.394
1104.28	34.8477
1108.66	272.668
1113.04	30.3945
1117.42	396.223
1121.79	348.07
1126.16	1004.77
1130.53	1208.34
1134.9	1548.44
1139.27	2210.2
1143.63	2900.61
1147.99	3105.68
1152.35	3117.9
1156.7	2675
1161.05	2748.03
1165.4	2773.65
1169.75	2424.29
1174.09	1805.94
1178.44	1533.26
1182.78	863.555
1187.11	598.531
1191.45	379.984
1195.78	51.1211
1200.11	95.1797
1204.44	100.133
1208.76	228.859
1213.08	36.1211
1217.4	293.731
1221.72	400.668
1226.03	544.918
1230.35	650.453
1234.66	1153.69
1238.96	1566.68
1243.27	1935.95
1247.57	2450.47
1251.87	2739.96
1256.17	3219.18
1260.46	3500.41
1264.75	3393.23
1269.04	3427.53
1273.33	3663.24
1277.62	3814.57
1281.9	3441.09
1286.18	3804.56
1290.45	4949.44
1294.73	5247.04
1299	5069
1303.27	4403.94
1307.54	4451.91
1311.8	4216.45
1316.07	4295.5
1320.33	4443.36
1324.58	3758.92
1328.84	3247.02
1333.09	2671.36
1337.34	2418.62
1341.59	2096.01
1345.83	2307.72
1350.08	2282.46
1354.32	3935.99
1358.55	8568.28
1362.79	9556.03
1367.02	4123.63
1371.25	2318.29
1375.48	2480.05
1379.71	2751.06
1383.93	3411.15
1388.15	3629.03
1392.37	4446.36
1396.58	6302.72
1400.8	2392.55
1405.01	384.883
1409.21	215.746
1413.42	461.547
1417.62	584.762
1421.83	59.9961
1426.02	1314.27
1430.22	977.992
1434.41	524.125
1438.61	990.094
1442.79	2860.91
1446.98	3811.67
1451.16	3543.78
1455.35	3001.19
1459.52	3054.48
1463.7	3827.39
1467.87	3335.98
1472.05	2876.34
1476.21	2932.89
1480.38	3018.97
1484.55	3001.23
1488.71	2627.28
1492.87	2350.02
1497.03	1741.61
1501.18	1980.44
1505.33	1840.16
1509.48	2261.74
1513.63	2219.1
1517.77	1765.15
1521.92	1166.05
1526.06	1035.4
1530.19	720.246
1534.33	203.445
1538.46	265.508
1542.59	71.7227
1546.72	40.2227
1550.85	166.125
1554.97	312.652
1559.09	8.98047
1563.21	97.4336
