Measurement: Raman, 514 nm, ccw, Raman Data Processed
Mineral: Fluorophlogopite
Rruff sample: R040042
Ideal chemistry: KMg_3_(Si_3_Al)O_10_F_2_
Locality: Franklin, Sussex County, New Jersey, USA
Source: University of Arizona Mineral Museum
Description: Brown flattened hexagonal prism, polytype 1M
Measured chemistry: (K_0.92_Na_0.08_)_Σ=1_(Mg_2.95_Fe_0.05_)_Σ=3_(Si_3.00_Al_1.00_)O_10_(F_1.40_(OH)_0.60_)_Σ=2_; trace amounts of Ti; OH estimated by charge balance
Pin_id: L00305
Orientation: Laser parallel to (1 0 1). Fiducial mark perpendicular to laser is parallel to b [0 1 0]
Raman shift (cm-1)	intensity
81.746	0
86.728	9043.21
91.706	33997.5
96.682	67800.6
101.654	101512
106.623	90095.4
111.59	43070.4
116.553	23459
121.513	16923.4
126.47	10693.1
131.423	6950.03
136.374	3326.11
141.322	2495.64
146.267	92.7305
151.208	1464.59
156.147	1798.44
161.083	1360.49
166.015	647.002
170.944	3605.82
175.871	7637.41
180.794	17147
185.715	43480.7
190.632	96421.6
195.546	155669
200.458	131235
205.366	57704
210.271	23559.6
215.173	11703.7
220.073	5724.74
224.969	3721.39
229.862	1074.17
234.752	629.559
239.64	218.346
244.524	225.488
249.405	490.232
254.284	359.078
259.159	1536.54
264.031	4864.98
268.901	11541.4
273.767	23474.9
278.63	34073.7
283.491	25538.1
288.348	13838.8
293.203	10546.6
298.054	11584.5
302.903	16625.8
307.749	26634.7
312.591	38154.4
317.431	42348.1
322.268	38982.8
327.102	30115.7
331.933	19818.7
336.761	12335.6
341.586	8278.91
346.408	6300.5
351.228	5788.53
356.044	6064.35
360.857	8461.83
365.668	13586.8
370.476	19690.3
375.28	17370.7
380.082	9379.67
384.881	5433.4
389.677	3665.74
394.47	2479.93
399.261	2110.62
404.048	1704.59
408.832	1247.87
413.614	1457.52
418.393	40.1699
423.169	28.2559
427.942	23.0449
432.712	2.90039
437.479	620.729
442.243	1255.97
447.005	2493.7
451.764	3601.06
456.52	5581.36
461.273	6156.28
466.023	7344.06
470.77	4142.8
475.514	604.443
480.256	243.754
484.995	125.764
489.731	1631.69
494.464	3691.53
499.194	6058.31
503.922	7114.05
508.646	7613.77
513.368	7928.46
518.087	5456.18
522.804	2882.26
527.517	1536.85
532.228	779.938
536.935	172.482
541.64	166.75
546.343	194.816
551.042	343.625
555.739	217.762
560.433	717.506
565.124	406.785
569.812	485.377
574.498	144.5
579.18	155.109
583.86	355.957
588.538	574.768
593.212	571.766
597.884	159.783
602.553	670.43
607.219	1374.7
611.882	2643.64
616.543	4801.39
621.201	7610.85
625.856	11932.9
630.509	16404
635.158	21645.1
639.805	25665.6
644.45	25611.2
649.091	26341.9
653.73	28448.8
658.366	32654.8
662.999	40326.1
667.63	53721.6
672.258	78759.8
676.883	118540
681.506	155716
686.125	153308
690.742	117715
695.357	76210.6
699.968	45243.3
704.577	27519.2
709.184	18262.4
713.787	14247.1
718.388	11946.8
722.987	9983.32
727.582	8907.36
732.175	7809.8
736.765	7782.57
741.353	7253.89
745.938	7005.62
750.52	6125.68
755.099	5639.48
759.676	5100.29
764.251	4496.68
768.822	4678.21
773.391	4804.58
777.957	5375.8
782.521	6433.9
787.082	6230.88
791.64	6499.77
796.196	6373.79
800.749	5587.01
805.299	4066.04
809.847	2768.44
814.392	2299.83
818.935	2294.74
823.475	1787.34
828.012	1403.63
832.547	510.08
837.079	285.789
841.609	482.66
846.135	235.699
850.66	122.897
855.181	86.3691
859.7	282.092
864.217	66.1426
868.731	348.666
873.242	311.268
877.751	303.637
882.257	261.281
886.76	94.1914
891.261	143.324
895.76	216.008
900.255	206.861
904.749	304.094
909.239	411.769
913.727	474.746
918.213	511.816
922.696	344.941
927.176	487.117
931.654	310.342
936.129	257.615
940.602	396.934
945.072	191.213
949.54	191.387
954.005	363.678
958.468	440.002
962.928	944.252
967.385	1374.68
971.84	2366.03
976.293	2829.36
980.743	3506.68
985.19	4638.93
989.635	5515.95
994.077	7201.16
998.517	11200.4
1002.95	15377.3
1007.39	11973.9
1011.82	9728.68
1016.25	8164.22
1020.68	7060.78
1025.1	8549.09
1029.53	14386.2
1033.94	19108.1
1038.36	16242.8
1042.78	10762
1047.19	8482.26
1051.6	6614.15
1056.01	6114.86
1060.41	6540.4
1064.81	6702.75
1069.21	7743.13
1073.61	9214.2
1078.01	11032.2
1082.4	13365
1086.79	16027.6
1091.18	17597.4
1095.56	18427.5
1099.94	18192.2
1104.33	16584.8
1108.7	13060
1113.08	9142.1
1117.45	5814.93
1121.82	2986.66
1126.19	1389.22
1130.56	765.732
1134.92	434.394
1139.28	35.0156
1143.64	83.6934
1147.99	102.273
1152.35	1.44336
1156.7	308.412
1161.05	54.1211
1165.39	3.29492
1169.73	182.779
1174.08	82.3809
1178.42	300.141
1182.75	436.408
1187.09	568.428
1191.42	642.201
1195.75	247.728
1200.07	236
1204.4	308.416
1208.72	63.8418
1213.04	47.3867
1217.36	409.539
1221.67	209.441
1225.98	720.104
1230.3	805.537
1234.6	978.744
1238.91	797.715
1243.21	830.812
1247.51	509.945
1251.81	712.242
1256.11	696.039
1260.4	699.938
1264.69	1341.46
1268.98	1501.36
1273.27	1761.81
1277.55	2528.31
1281.83	3399.76
1286.11	4540.54
1290.39	4891.32
1294.66	4411.4
1298.94	4074.97
1303.21	3006.5
1307.47	2775.71
1311.74	2848.46
1316	2194.07
1320.26	1613.48
1324.52	1350.63
1328.78	1165.22
1333.03	1233.74
1337.28	818.527
1341.53	865.748
1345.78	951.732
1350.02	877.943
1354.27	598.975
1358.51	319.312
1362.74	724.752
1366.98	543.662
1371.21	218.988
1375.44	492.039
1379.67	191.998
1383.9	12.8223
1388.12	347.793
1392.34	90.6856
1396.56	76.5039
1400.78	196.779
1404.99	156.627
1409.2	233.65
1413.41	333.123
1417.62	242.535
1421.83	1145.31
1426.03	1312.5
1430.23	2363.25
1434.43	3325.91
1438.63	5000.92
1442.82	5771.21
1447.01	5087.16
1451.2	4943.31
1455.39	4639.81
1459.58	3917.15
1463.76	3055.8
1467.94	2434.67
1472.12	2043.7
1476.29	1926.97
1480.47	1516.38
1484.64	1428
1488.81	1605.8
1492.97	642.299
1497.14	434.398
1501.3	321.912
1505.46	525.281
1509.62	322.719
1513.78	265.883
1517.93	380.676
1522.08	568.482
1526.23	290.059
1530.38	356.01
1534.53	418.746
1538.67	309.154
1542.81	200.785
1546.95	770.586
1551.08	97.1309
1555.22	472.57
1559.35	824.807
1563.48	149.734
1567.61	190.301
1571.73	84.4453
1575.85	69.7617
