Measurement: Raman, 514 nm, ccw, Raman Data Processed
Mineral: Fluorapophyllite-(K)
Rruff sample: R040095
Ideal chemistry: KCa_4_Si_8_O_20_F8H_2_O
Locality: unknown
Source: University of Arizona Mineral Museum
Description: Colorless crystals
Measured chemistry: (K_0.90_Na_0.04_)Ca_3.96_Si_8.00_O_20_(F_0.82_(OH)_0.18_)Â·8H_2_O
Pin_id: L00946
Orientation: Laser parallel to c* (0 0 1). Fiducial mark perpendicular to laser is parallel to a [1 0 0]
Raman shift (cm-1)	intensity
81.949	0
86.913	23475.2
91.874	15573.6
96.832	266.609
101.788	3420
106.74	19665.4
111.689	10219.6
116.636	5825.24
121.579	7957.11
126.52	9213.75
131.457	10838.6
136.392	9704.02
141.324	1284.51
146.253	811.468
151.179	537.999
156.102	1467.52
161.022	5214.84
165.939	4787.85
170.854	1617.04
175.765	615.062
180.674	2511.3
185.579	6558.31
190.482	6974.81
195.382	9925.94
200.279	17826.6
205.173	31803.9
210.064	46983
214.953	33640.1
219.838	18295.4
224.721	14678.5
229.6	15310.2
234.477	11348.1
239.351	5670.76
244.222	2958.23
249.091	1599.98
253.956	1340.52
258.819	1449.25
263.678	1958.63
268.535	2429.08
273.389	2240.88
278.241	2476.76
283.089	4060.12
287.935	7143.77
292.777	12847.6
297.617	17850.8
302.454	14483.7
307.289	7736.97
312.12	4315.99
316.949	3223.77
321.774	3069.61
326.597	4427.93
331.418	6274.65
336.235	7961.91
341.05	6836.71
345.861	3692.78
350.67	1457.18
355.477	559.846
360.28	630.517
365.081	1780.1
369.878	4384.41
374.673	5650.33
379.466	2528.49
384.255	323.053
389.042	430.542
393.826	328.392
398.607	49.4131
403.386	534.555
408.161	1195.67
412.934	1705.07
417.704	3186.26
422.472	7530.09
427.236	18364.1
431.998	32387.4
436.757	19496.1
441.514	6879.02
446.267	2015.85
451.018	533.294
455.766	45.2671
460.512	34.0718
465.255	121.953
469.995	467.502
474.732	493.427
479.467	121.883
484.198	1106
488.927	1066.52
493.654	392.02
498.378	470.274
503.099	879.855
507.817	1747.26
512.532	2413.67
517.245	2581.45
521.956	2639.67
526.663	3033.06
531.368	3658.45
536.07	4698.91
540.769	4780.41
545.466	4313.23
550.16	3767.98
554.852	3817.71
559.54	4328.86
564.226	5599.42
568.91	8219.17
573.591	13052.3
578.269	20262.1
582.944	26399.2
587.617	23862.5
592.287	15273
596.954	8901.47
601.619	5668.44
606.281	4014.43
610.941	3235.69
615.597	2908.95
620.252	2970.05
624.903	3216.92
629.552	3552.83
634.198	4150.77
638.842	5024.87
643.483	6445.26
648.121	8683.81
652.757	11729.3
657.39	15539.8
662.021	17802.3
666.649	16634.7
671.274	12434.5
675.897	8103.32
680.517	5107.77
685.134	3294.21
689.749	2193.41
694.362	1310.3
698.971	845.826
703.578	531.958
708.183	268.665
712.785	132.91
717.384	101.567
721.981	12.4082
726.575	45.7437
731.167	87.6758
735.756	166.182
740.342	200.184
744.926	175.724
749.507	126.234
754.086	70.1929
758.662	365.464
763.236	681.262
767.807	761.485
772.375	601.134
776.941	586.207
781.505	1171.7
786.066	2266.1
790.624	3426.14
795.18	2723.44
799.733	1402.91
804.284	740.864
808.832	547.86
813.377	620.283
817.92	717.065
822.461	961.23
826.999	1190.78
831.534	1418.73
836.067	1764.08
840.598	2226.84
845.126	2576.02
849.651	2895.07
854.174	2738.73
858.695	2543.7
863.213	1930.13
867.728	1512.43
872.241	1138.71
876.751	922.485
881.259	658.707
885.765	562.898
890.268	375.346
894.768	336.091
899.266	304.585
903.761	131.067
908.254	65.6323
912.745	124.445
917.233	5.71436
921.718	58.2109
926.202	74.1567
930.682	17.5674
935.16	27.0459
939.636	77.7764
944.109	0.083984
948.58	24.4302
953.048	131.976
957.514	150.564
961.978	191.212
966.438	362.933
970.897	599.735
975.353	293.193
979.807	290.104
984.258	338.845
988.707	524.218
993.153	760.961
997.597	1290.42
1002.04	1780.71
1006.48	1927.99
1010.91	1449.62
1015.35	957.855
1019.78	874.21
1024.21	1158.74
1028.64	1607.1
1033.06	2329.52
1037.48	3470.13
1041.9	5304.53
1046.32	9243.8
1050.73	18447.5
1055.15	37694.2
1059.56	51454.1
1063.96	31830.2
1068.37	13788.8
1072.77	6458.7
1077.17	3375.52
1081.57	1916.03
1085.97	1225.49
1090.36	1005.5
1094.75	843.933
1099.14	856.771
1103.53	1312.54
1107.91	2801.41
1112.29	4737.28
1116.67	3664.76
1121.05	1488.88
1125.42	653.696
1129.79	220.779
1134.16	191.748
1138.53	72.2769
1142.89	25.9736
1147.26	10.6118
1151.62	47.833
1155.97	15.6299
1160.33	11.7593
1164.68	102.08
1169.03	17.6782
1173.38	72.3159
1177.73	63.7607
1182.07	38.0347
1186.41	85.7783
1190.75	49.4453
1195.09	73.2612
1199.42	51.4204
1203.76	50.8828
1208.09	114.537
1212.41	92.8213
1216.74	164.901
1221.06	144.239
1225.38	92.0913
1229.7	182.45
1234.02	71.5049
1238.33	49.627
1242.64	63.9858
1246.95	210.315
1251.26	241.886
1255.56	122.978
1259.86	75.7637
1264.16	205.921
1268.46	190.988
1272.76	199.28
1277.05	140.988
1281.34	177.165
1285.63	265.731
1289.91	274.357
1294.2	168.69
1298.48	126.602
1302.76	128.635
1307.04	146.492
1311.31	119.669
1315.58	121.6
1319.85	17.6484
1324.12	99.0083
1328.38	282.377
1332.65	97.7622
1336.91	79.228
1341.17	92.3706
1345.42	103.516
1349.68	35.0337
1353.93	101.012
1358.18	90.9346
1362.43	125.038
1366.67	9.67188
1370.92	11.7437
1375.16	2.95654
1379.4	100.4
1383.63	4.17822
1387.87	18.978
1392.1	22.0649
1396.33	37.4795
1400.56	5.42529
1404.78	5.91553
1409.01	0.251465
1413.23	16.6836
1417.44	6.87793
1421.66	62.3037
1425.88	70.0659
1430.09	15.7754
1434.3	32.4228
1438.51	134.074
1442.71	207.456
1446.91	140.838
1451.11	48.5625
1455.31	71.7725
1459.51	184.96
1463.7	91.5664
1467.9	193.786
1472.09	181.073
1476.27	206.293
1480.46	265.981
1484.64	151.241
1488.82	346.412
1493	295.263
1497.18	319.349
1501.36	325.54
1505.53	471.613
1509.7	426.205
1513.87	496.877
1518.03	423.843
1522.2	461.396
1526.36	439.331
1530.52	274.972
1534.67	293.832
1538.83	239.287
1542.98	206.743
1547.13	195.63
1551.28	274.058
1555.43	179.715
1559.57	163.236
1563.72	72.9365
1567.86	75.2266
1571.99	28.6362
1576.13	0.003418
