Measurement: Raman, 785 nm, ccw, Raman Data Processed
Mineral: Fluorophlogopite
Rruff sample: R040042
Ideal chemistry: KMg_3_(Si_3_Al)O_10_F_2_
Locality: Franklin, Sussex County, New Jersey, USA
Source: University of Arizona Mineral Museum
Description: Brown flattened hexagonal prism, polytype 1M
Measured chemistry: (K_0.92_Na_0.08_)_Σ=1_(Mg_2.95_Fe_0.05_)_Σ=3_(Si_3.00_Al_1.00_)O_10_(F_1.40_(OH)_0.60_)_Σ=2_; trace amounts of Ti; OH estimated by charge balance
Pin_id: L00305
Orientation: Laser parallel to (1 0 1). Fiducial mark perpendicular to laser is parallel to b [0 1 0]
Raman shift (cm-1)	intensity
82.992	0
87.973	11256.1
92.951	43555.1
97.925	89326.1
102.897	129929
107.865	98305.1
112.831	43903.3
117.793	25327.2
122.752	19051
127.708	11482.7
132.661	6890.03
137.612	3625.15
142.558	1060.2
147.502	702.938
152.443	1977.28
157.381	2355.14
162.316	1097.48
167.248	2124.46
172.176	6079.84
177.102	12861
182.025	30309.1
186.944	75556.4
191.861	159965
196.774	221855
201.685	152656
206.593	62818
211.497	26998.4
216.399	13449.5
221.297	6698.36
226.193	2780.94
231.085	1636.12
235.975	873.711
240.861	365.685
245.745	258.807
250.625	405.305
255.503	79.6269
260.377	2254.56
265.249	6381.64
270.117	14919.8
274.983	30387.8
279.846	38944.3
284.705	25709.5
289.562	15991.3
294.416	14346.5
299.267	17124.2
304.115	26277.3
308.96	41533.8
313.802	54629.4
318.641	54044.1
323.477	46581.9
328.31	33970
333.14	21146.7
337.968	12926.4
342.792	8785.6
347.613	6967.77
352.432	6622.88
357.248	7862.14
362.06	12485.4
366.87	21176.5
371.677	28955.5
376.481	21122.5
381.282	10931.6
386.08	6714.28
390.876	4202.58
395.668	3067.67
400.458	2415.7
405.244	2333.38
410.028	1588.9
414.809	1084.75
419.587	196.125
424.362	217.559
429.134	358.209
433.904	11.375
438.67	773.215
443.434	1628.92
448.195	2655.95
452.953	4081.17
457.708	6426.64
462.46	8962.9
467.21	9047.37
471.956	4073.21
476.7	692.439
481.441	505.793
486.179	315.148
490.914	2137.77
495.647	4155.86
500.376	6035.48
505.103	7775.64
509.827	9144.36
514.548	8527.68
519.267	5698.55
523.982	2644.04
528.695	1440.74
533.405	1147.21
538.112	79.7402
542.816	72.3125
547.518	189.697
552.217	93.9082
556.913	191.31
561.606	187.231
566.296	435.244
570.984	260.584
575.669	125.578
580.351	372.273
585.03	540.311
589.706	399.787
594.38	239.555
599.051	449.373
603.72	1276.15
608.385	2572.16
613.048	4337.71
617.708	8019.32
622.365	11162.9
627.02	16624.3
631.671	23706.9
636.32	30545.8
640.967	33960.7
645.61	34076.9
650.251	35228.2
654.889	38843.9
659.525	44722.8
664.157	55715.1
668.787	76499.8
673.414	113408
678.039	169334
682.661	207790
687.28	191063
691.896	139546
696.51	87614.3
701.121	51354.1
705.729	31505.7
710.335	22363.8
714.938	17382.6
719.538	14269
724.136	12666
728.731	10861.1
733.323	9928
737.912	9508.09
742.499	9057.55
747.083	8362.5
751.665	7853.27
756.244	7050.65
760.82	5908.56
765.394	5401.83
769.965	5320.25
774.533	5654.65
779.098	6879.05
783.661	7382.84
788.222	7657.93
792.779	8330.45
797.334	8164.04
801.887	6078.7
806.437	4474.46
810.984	3454.93
815.528	2731.62
820.07	2501.31
824.61	1490.48
829.146	911.029
833.68	346.045
838.212	449.435
842.741	491.227
847.267	118.305
851.79	31.2695
856.311	19.3359
860.83	104.387
865.346	9.21289
869.859	219.65
874.369	356.31
878.877	12.4766
883.383	234.191
887.886	55.457
892.386	44.0762
896.884	146.775
901.379	387.982
905.872	381.135
910.362	370.316
914.849	433.852
919.334	558.51
923.816	518.256
928.296	481.074
932.773	253.961
937.248	89.9277
941.72	589.951
946.19	1236.79
950.657	289.609
955.121	163.656
959.583	560.756
964.042	1278.86
968.499	1945.93
972.954	2962.97
977.405	4024.95
981.855	5143.88
986.301	6312.96
990.746	7349.24
995.187	10197.4
999.627	15720.6
1004.06	19730.3
1008.5	14837.8
1012.93	12267.5
1017.36	9894.26
1021.78	9305.14
1026.21	12368
1030.63	19977.7
1035.05	25087.9
1039.47	19426.7
1043.88	12773
1048.29	9276.48
1052.7	7982.28
1057.11	7594.49
1061.51	7451.4
1065.91	8060.48
1070.31	9025.25
1074.71	10873.6
1079.11	13470
1083.5	16666.9
1087.89	19033
1092.27	20947.3
1096.66	21333.6
1101.04	21342.5
1105.42	18822.5
1109.8	14445.1
1114.17	9944.95
1118.54	5970.37
1122.91	3075.52
1127.28	1149.63
1131.65	723.512
1136.01	339.373
1140.37	68.0898
1144.73	77.4316
1149.08	363.541
1153.43	33.4121
1157.78	218.293
1162.13	190.322
1166.48	324.394
1170.82	173.777
1175.16	226.102
1179.5	341.818
1183.84	526.307
1188.17	799.385
1192.5	689.523
1196.83	366.332
1201.15	299.18
1205.48	56.6094
1209.8	73.7148
1214.12	65.918
1218.44	371.658
1222.75	355.615
1227.06	1016.62
1231.37	1140.04
1235.68	980.086
1239.98	742.768
1244.29	609.084
1248.59	617.254
1252.88	748.791
1257.18	870.914
1261.47	886.447
1265.76	1726.62
1270.05	2067.61
1274.34	2217.55
1278.62	3131.23
1282.9	4595.57
1287.18	5718.21
1291.46	5613.99
1295.73	5084.44
1300	4241.9
1304.27	3400.93
1308.54	3021.67
1312.81	3098.33
1317.07	2784.1
1321.33	1777.69
1325.59	1454.56
1329.84	1165.04
1334.09	985.184
1338.35	773.84
1342.59	860.172
1346.84	805.969
1351.08	768.857
1355.33	270.33
1359.57	433.363
1363.8	493.113
1368.04	283.519
1372.27	474.865
1376.5	55.8379
1380.73	90.332
1384.95	9.75586
1389.17	172.223
1393.4	88.4863
1397.62	31.8711
1401.83	72.584
1406.05	95.2266
1410.26	128.441
1414.47	229.068
1418.67	441.01
1422.88	733.102
1427.08	1281.53
1431.28	2258.07
1435.48	3689.34
1439.68	5503.2
1443.87	5848.69
1448.06	5237.13
1452.25	4805.03
1456.44	4320.84
1460.62	3357.9
1464.8	3022.88
1468.98	2446.22
1473.16	1610.86
1477.34	1542.9
1481.51	1522.03
1485.68	1247.8
1489.85	792.705
1494.02	449.74
1498.18	419.004
1502.34	521.131
1506.5	364.945
1510.66	416.756
1514.82	29.2969
1518.97	282.852
1523.12	115.709
1527.27	354.203
1531.42	201.908
1535.56	38.1855
1539.7	300.043
1543.84	152.117
1547.98	530.211
1552.12	210.227
1556.25	819.164
1560.38	77.5586
1564.51	165.5
1568.64	328.512
1572.76	361.371
1576.88	334.488
