Measurement: Raman, 514 nm, depolarized, Raman Data Processed
Mineral: Fluorapophyllite-(K)
Rruff sample: R060554
Ideal chemistry: KCa_4_Si_8_O_20_F8H_2_O
Locality: unknown
Source: Gemological Institute of America
Description: Colorless polished fragment
Measured chemistry: (K_0.88_Na_0.12_)Ca_4.00_Si_8.00_O_20_F_1.00_Â·8H2O
Pin_id: L00812
Orientation: Laser parallel to -a* (-1 0 0). Fiducial mark perpendicular to laser is parallel to -c [0 0 -1]
Raman shift (cm-1)	intensity
53.91	0
58.864	194.1
63.817	61.012
68.767	33.6035
73.714	273.378
78.659	1722.19
83.602	5250.28
88.542	8339.66
93.48	8878.61
98.416	11382.2
103.349	24991.9
108.28	29844.4
113.208	11026.9
118.134	7020.12
123.058	8406.83
127.979	8468.78
132.898	8519.1
137.814	10539.3
142.728	7810.94
147.639	5457.79
152.549	6238.41
157.455	10308.1
162.359	16027.3
167.261	14803.9
172.161	7377.22
177.058	5615.15
181.952	8028.7
186.845	8984.86
191.734	6909.61
196.622	7650.23
201.507	11770.4
206.389	18345.6
211.269	19640
216.147	12964.3
221.022	9750.42
225.895	10034.6
230.765	8952.81
235.633	5067.93
240.498	2427.55
245.361	1034.1
250.222	507.883
255.08	460.594
259.936	1397
264.789	2046.91
269.64	1953.15
274.488	968.601
279.334	828.175
284.178	1289.8
289.019	2895.25
293.857	5382.4
298.693	6369.16
303.527	4904.54
308.358	3711.54
313.187	3538.16
318.013	3910.97
322.837	4147.19
327.659	3698.59
332.478	3954.56
337.294	4337.09
342.108	3232.15
346.92	1370.77
351.729	290.572
356.535	455.494
361.34	570.976
366.141	532.707
370.94	227.138
375.737	271.618
380.531	270.234
385.323	272.985
390.113	1218.72
394.9	2643.22
399.684	3172.45
404.466	2393.38
409.245	1602.98
414.022	1348.23
418.797	2255.12
423.569	5933.66
428.338	14484.1
433.105	16627.8
437.87	6948.65
442.632	2082.03
447.391	608.925
452.149	164.214
456.903	518.957
461.655	1009.2
466.405	1251.67
471.152	2177.3
475.897	5628.82
480.639	12553.9
485.378	15965.4
490.116	8443.18
494.85	3828.27
499.582	2579.74
504.312	1859.74
509.039	1522.47
513.764	1674.6
518.486	2411.3
523.206	3840.41
527.923	6447.99
532.638	9640.08
537.35	11847.6
542.059	11725.5
546.766	10579.4
551.471	9707.15
556.173	9961.91
560.873	11016.2
565.57	13804.2
570.264	19172.9
574.957	27399.2
579.646	37400.6
584.333	40024.7
589.018	29972.2
593.7	17955.6
598.379	10848.7
603.056	6693.26
607.73	4741.43
612.402	3660.91
617.072	2936.37
621.739	2755.7
626.403	2661.75
631.065	2607.89
635.724	2613.08
640.381	2887.64
645.035	3423.96
649.687	4307.48
654.336	5485.59
658.983	6516.41
663.627	6858.18
668.268	5501.49
672.907	3887.6
677.544	2558.3
682.178	1522.59
686.809	818.444
691.438	503.805
696.065	203.531
700.688	77.876
705.31	126.623
709.929	147.673
714.545	150.603
719.158	88.9053
723.77	79.7842
728.378	98.4248
732.984	60.6616
737.588	103.699
742.189	6.396
746.787	25.8662
751.383	44.9141
755.976	225.852
760.567	613.792
765.155	897.892
769.741	878.488
774.324	609.305
778.904	692.977
783.482	1099.41
788.058	1732.82
792.631	1956.87
797.201	1185.91
801.769	618.39
806.334	593.606
810.897	515.687
815.457	454.64
820.014	525.473
824.569	703.195
829.122	653.818
833.671	825.352
838.219	977.848
842.763	990.629
847.306	886.099
851.845	877.026
856.382	805.646
860.917	691.21
865.448	569.692
869.978	317.93
874.505	233.357
879.029	160.848
883.55	48.7661
888.069	26.2148
892.586	117.595
897.1	128.394
901.611	99.0791
906.12	11.5249
910.626	88.5845
915.129	62.5767
919.63	19.0068
924.129	30.6724
928.625	73.4741
933.118	10.4673
937.609	74.6304
942.097	289.669
946.582	412.627
951.065	511.679
955.546	759.741
960.023	762.924
964.499	843.963
968.971	1145.65
973.441	1587.11
977.909	1365.83
982.374	997.218
986.836	1007.38
991.295	1049.59
995.753	1011.88
1000.21	1387.38
1004.66	1753
1009.11	1894.88
1013.55	1265.93
1018	1086.99
1022.44	1078.93
1026.88	1162.81
1031.32	1738.83
1035.75	2593.15
1040.18	4141.91
1044.61	6839.81
1049.04	12885.6
1053.46	28151.7
1057.88	52055.4
1062.3	50796.8
1066.71	28111.5
1071.13	14485.9
1075.54	8296.58
1079.94	5440.48
1084.35	3988.97
1088.75	3390.7
1093.15	2460.78
1097.55	1597.8
1101.94	1318.95
1106.34	1182.44
1110.73	1162.01
1115.11	1259.07
1119.5	852.663
1123.88	525.224
1128.26	335
1132.63	243.8
1137.01	171.942
1141.38	204.219
1145.75	127.668
1150.12	86.231
1154.48	18.085
1158.84	11.6328
1163.2	22.4453
1167.55	41.6777
1171.91	8.24072
1176.26	126.786
1180.61	57.9756
1184.95	43.1753
1189.29	41.5244
1193.63	1.11182
1197.97	119.212
1202.31	8.91797
1206.64	0.0625
1210.97	1.07861
1215.29	15.4395
1219.62	69.4302
1223.94	22.1216
1228.26	82.7222
1232.57	54.8096
1236.89	74.7676
1241.2	79.1328
1245.51	118.21
1249.81	156.038
1254.12	83.3867
1258.42	79.5508
1262.72	136.661
1267.01	144.359
1271.3	181.886
1275.59	226.994
1279.88	182.214
1284.17	169.23
1288.45	167.868
1292.73	179.165
1297.01	172.113
1301.28	249.239
1305.55	183.186
1309.82	235.456
1314.09	212.066
1318.35	252.442
1322.61	215.394
1326.87	82.4067
1331.13	25.5737
1335.38	138.457
1339.63	122.643
1343.88	74.8828
1348.12	131.214
1352.37	55.7197
1356.61	42.3374
1360.85	1.26269
1365.08	5.77686
1369.31	153.791
1373.54	53.1724
1377.77	7.90479
1381.99	117.158
1386.22	24.2305
1390.43	80.7451
1394.65	65.8799
1398.87	29.1035
1403.08	76.8623
1407.29	5.02539
1411.49	40.1855
1415.69	10.2275
1419.89	26.9326
1424.09	108.714
1428.29	1.80371
1432.48	147.621
1436.67	212.394
1440.86	355.529
1445.04	404.206
1449.23	448.938
1453.4	523.393
1457.58	327.403
1461.76	380.236
1465.93	267.548
1470.1	263.197
1474.26	176.605
1478.43	175.895
1482.59	208.997
1486.75	247.553
1490.9	165.098
1495.06	101.069
1499.21	287.726
1503.35	170.539
1507.5	88.3018
1511.64	170.055
1515.78	191.523
1519.92	30.6221
1524.05	215.568
1528.18	233.135
1532.31	210.597
1536.44	165.873
1540.56	149.762
1544.69	321.95
1548.8	262.247
1552.92	192.024
1557.03	114.476
1561.14	52.9365
1565.25	36.1309
1569.36	121.714
