Measurement: Raman, 514 nm, ccw, Raman Data Processed
Mineral: Fluorapatite
Rruff sample: R040098
Ideal chemistry: Ca_5_(PO_4_)_3_F
Locality: Cerro de Mercado mine, Durango, Mexico
Source: Marcus Origlieri
Description: Pale yellow short hexagonal prism
Measured chemistry: Ca_5.00_((P_0.98_Si_0.01_S_0.01_)O_4_)_3_F_1.00_
Pin_id: M00032
Orientation: Laser parallel to [-1 -1 0]. Fiducial mark perpendicular to laser is parallel to c [0 0 1]
Raman shift (cm-1)	intensity
59.679	0
64.661	292.702
69.641	262.856
74.618	250.177
79.593	322.991
84.564	200.862
89.532	5.52576
94.498	58.6707
99.461	53.9437
104.421	3.20129
109.378	70.2566
114.332	170.528
119.283	221.549
124.232	51.6569
129.178	63.4797
134.12	279.178
139.061	454.932
143.998	170.494
148.932	52.1298
153.864	118.429
158.792	266.827
163.718	161.226
168.641	183.411
173.562	201.403
178.479	335.292
183.394	334.978
188.305	285.557
193.214	143.554
198.12	108.81
203.024	199.028
207.924	420.315
212.822	581.235
217.717	422.235
222.609	329.284
227.498	451.52
232.385	536.323
237.269	441.853
242.149	212.194
247.027	171.171
251.903	121.899
256.775	111.939
261.645	220.191
266.512	408.582
271.376	349.97
276.237	385.785
281.096	440.618
285.952	560.936
290.805	525.602
295.655	488.894
300.502	405.686
305.347	392.174
310.189	307.584
315.028	219.768
319.864	154.955
324.698	30.0189
329.528	22.9502
334.356	63.7424
339.182	18.3356
344.004	9.57727
348.824	13.2738
353.641	6.36487
358.455	48.7362
363.266	69.4719
368.075	40.0923
372.881	38.6054
377.684	22.0791
382.484	23.324
387.282	44.8431
392.077	72.2823
396.869	89.9757
401.658	138.543
406.445	160.757
411.229	228.823
416.01	434.066
420.788	816.543
425.564	1838.61
430.337	3390.3
435.107	2675.81
439.875	1558.16
444.639	1078.37
449.401	1065.39
454.161	876.219
458.917	602.652
463.671	401.305
468.422	259.112
473.17	187.374
477.916	157.312
482.659	121.336
487.399	93.6959
492.137	25.5005
496.872	76.0065
501.604	6.63989
506.333	15.3561
511.06	5.66333
515.784	26.1429
520.505	0.480103
525.223	6.43933
529.939	22.767
534.652	19.4659
539.363	53.5055
544.07	18.9049
548.775	61.821
553.478	62.787
558.177	112.466
562.874	59.3524
567.568	178.772
572.26	227.957
576.949	485.884
581.635	1029.18
586.319	1281.72
590.999	3126.82
595.677	1839.97
600.353	663.5
605.026	1545.52
609.696	1329.97
614.363	478.793
619.028	434.172
623.69	270.797
628.349	234.066
633.006	150.508
637.66	135.107
642.311	145.241
646.96	149.382
651.606	175.773
656.25	164.938
660.89	190.697
665.528	64.779
670.164	25.1672
674.797	63.7537
679.427	51.6821
684.054	2.7644
688.679	40.8188
693.301	55.8677
697.921	69.9675
702.537	6.74634
707.152	0.554688
711.763	54.4822
716.372	81.3208
720.978	78.9045
725.582	61.6174
730.183	20.2346
734.781	33.7188
739.377	69.616
743.97	30.9065
748.561	64.6528
753.149	60.0335
757.734	121.239
762.316	28.0962
766.896	89.8662
771.474	30.842
776.048	55.1936
780.62	99.561
785.19	53.8774
789.757	43.5615
794.321	91.2913
798.883	30.8125
803.442	37.1721
807.998	66.5019
812.552	15.5276
817.103	47.2957
821.652	67.8272
826.198	7.58569
830.741	140.098
835.282	97.1968
839.82	24.1714
844.355	104.087
848.888	0.687988
853.419	78.6086
857.946	152.658
862.472	202.233
866.994	38.4753
871.514	61.2942
876.032	67.2288
880.546	54.7703
885.059	55.564
889.568	60.2454
894.075	60.0627
898.58	184.737
903.082	16.7918
907.581	38.2075
912.078	25.3389
916.572	110.293
921.063	19.4636
925.552	33.0042
930.039	3.76392
934.523	88.082
939.004	178.334
943.483	403.221
947.959	783.787
952.432	1275.66
956.903	3377.79
961.372	13916.7
965.838	31331.1
970.301	9153.13
974.762	2760.01
979.22	964.603
983.676	433.789
988.129	170.578
992.58	124.633
997.028	164.864
1001.47	153.711
1005.92	305.207
1010.36	385.022
1014.79	332.899
1019.23	163.494
1023.66	278.015
1028.09	441.108
1032.52	820.616
1036.94	974.198
1041.37	1598.33
1045.79	1711.04
1050.2	3040.75
1054.62	3442.85
1059.03	1364.09
1063.44	777.778
1067.85	501.561
1072.26	549.03
1076.66	732.505
1081.06	1366.45
1085.45	866.168
1089.85	415.782
1094.24	186.191
1098.63	174.421
1103.02	6.13574
1107.4	125.803
1111.79	112.725
1116.17	167.804
1120.54	70.5269
1124.92	162.737
1129.29	103.617
1133.66	165.152
1138.03	98.1709
1142.39	167.814
1146.75	98.1157
1151.11	163.211
1155.47	125.471
1159.83	153.505
1164.18	97.4111
1168.53	68.1421
1172.87	44.1997
1177.22	67.23
1181.56	38.6103
1185.9	41.5742
1190.24	25.8652
1194.57	12.9766
1198.9	39.919
1203.23	68.73
1207.56	44.1611
1211.89	49.208
1216.21	99.7627
1220.53	79.2964
1224.85	159.501
1229.16	100.468
1233.47	108.758
1237.78	216.738
1242.09	114.206
1246.4	167.568
1250.7	48.3062
1255	88.8677
1259.3	33.1763
1263.59	5.76025
1267.88	28.9546
1272.17	35.0815
1276.46	14.9795
1280.75	87.3979
1285.03	111.165
1289.31	131.695
1293.59	47.397
1297.87	119.914
1302.14	40.1841
1306.41	233.624
1310.68	195.009
1314.94	98.2148
1319.21	189.284
1323.47	199.532
1327.72	248.802
1331.98	127.302
1336.23	146.635
1340.49	5.125
1344.73	53.3643
1348.98	200.707
1353.22	118.154
1357.47	85.3672
1361.7	145.384
1365.94	185.567
1370.17	119.686
1374.41	173.957
1378.64	132.927
1382.86	233.821
1387.09	150.475
1391.31	36.5674
1395.53	233.705
1399.75	398.028
1403.96	106.629
1408.17	169.727
1412.38	154.585
1416.59	161.118
1420.8	262.535
1425	251.812
1429.2	166.633
1433.4	159.441
1437.59	157.678
1441.78	166.345
1445.97	129.306
1450.16	87.7978
1454.35	110.124
1458.53	113.072
1462.71	13.958
1466.89	287.339
1471.07	13.877
1475.24	30.6182
1479.41	106.86
1483.58	86.6406
1487.75	64.8398
1491.91	165.426
1496.07	149.065
1500.23	74.3799
1504.39	124.349
1508.55	272.911
1512.7	86.5879
1516.85	303.864
1520.99	265.655
1525.14	48.4551
1529.28	70.6562
1533.42	448.782
1537.56	248.851
1541.7	273.005
1545.83	229.797
1549.96	94.2012
1554.09	246.599
1558.22	236.992
1562.34	167.659
1566.46	136.075
1570.58	176.805
1574.7	199.625
