Measurement: Raman, 514 nm, ccw, Raman Data Processed
Mineral: Fluorophlogopite
Rruff sample: R040042
Ideal chemistry: KMg_3_(Si_3_Al)O_10_F_2_
Locality: Franklin, Sussex County, New Jersey, USA
Source: University of Arizona Mineral Museum
Description: Brown flattened hexagonal prism, polytype 1M
Measured chemistry: (K_0.92_Na_0.08_)_Σ=1_(Mg_2.95_Fe_0.05_)_Σ=3_(Si_3.00_Al_1.00_)O_10_(F_1.40_(OH)_0.60_)_Σ=2_; trace amounts of Ti; OH estimated by charge balance
Pin_id: L00305
Orientation: Laser parallel to (1 0 1). Fiducial mark perpendicular to laser is parallel to b [0 1 0]
Raman shift (cm-1)	intensity
80.5	0
85.483	5941.29
90.462	18113.4
95.438	28215.7
100.411	32909
105.381	31186.3
110.348	23993.7
115.312	18433
120.273	14557.2
125.231	9839.02
130.185	6342.18
135.137	3772.84
140.085	2256.45
145.031	531.566
149.973	514.748
154.913	1226
159.849	1059.92
164.782	113.758
169.712	1284.06
174.64	3421.81
179.564	7895.95
184.485	20342.8
189.403	47568.7
194.318	81498.9
199.23	81012.3
204.139	40294.5
209.045	15106.9
213.948	6196.81
218.848	2648.38
223.745	813.439
228.639	57.9805
233.53	134.918
238.418	384.879
243.303	413.07
248.185	571.4
253.064	56.9531
257.94	2218.23
262.813	6552.72
267.683	16136.2
272.551	34072.5
277.415	52818.5
282.276	43568.1
287.134	20308.1
291.989	9929.86
296.842	7161.08
301.691	9182.4
306.538	15062.5
311.381	25676.8
316.222	37302.2
321.059	44630
325.894	42024.8
330.726	29211
335.554	18199.5
340.38	12231.8
345.203	9005.8
350.023	7205.57
354.84	6436.23
359.654	6591.74
364.466	7939.85
369.274	10258.5
374.079	9842.91
378.882	7173.57
383.682	5184.18
388.478	4088.59
393.272	3313.98
398.063	2709.81
402.851	2345.87
407.637	1937.45
412.419	1416.62
417.198	963.277
421.975	896.84
426.749	980.307
431.52	1753.82
436.288	1820.6
441.053	2113.45
445.815	2046.37
450.574	2406.44
455.331	2775.4
460.085	2858.78
464.835	2809.38
469.583	1943.3
474.329	34.0859
479.071	601.133
483.81	387.315
488.547	311.787
493.281	1333.4
498.012	2348.9
502.74	3484.39
507.466	5170.9
512.188	5894.44
516.908	5176.33
521.625	3388.9
526.339	2325.68
531.05	1714.77
535.759	1524.17
540.464	1230.9
545.167	1387.85
549.868	1049.11
554.565	1353.22
559.259	1645.74
563.951	1694.69
568.64	1368.04
573.327	1039.95
578.01	629.572
582.691	80.832
587.369	325.568
592.044	409.553
596.716	253.553
601.386	130.188
606.053	540.809
610.717	1547.45
615.378	3018.79
620.037	5152.02
624.693	7839
629.346	11469.3
633.996	15703.4
638.644	19106.3
643.289	20459.6
647.931	21050.3
652.57	22727.4
657.207	26782.9
661.841	32536.9
666.473	43158.4
671.101	62618.4
675.727	94731.4
680.35	128974
684.971	136090
689.588	109306
694.203	73463
698.816	44239
703.425	26449.5
708.032	17354.4
712.637	13050.3
717.238	10503.2
721.837	8938.33
726.434	8147.55
731.027	7659.12
735.618	7421.82
740.206	7378.05
744.792	7028.85
749.375	6183.96
753.955	5746.72
758.532	4831.97
763.107	4691.32
767.679	4554.9
772.249	4985.04
776.816	6058.15
781.38	7346.47
785.942	7722.9
790.501	7812.42
795.057	7599.05
799.611	6602.8
804.162	4885.22
808.711	3972.88
813.256	2866.64
817.8	2427.72
822.34	1433.89
826.878	1024.29
831.414	343.807
835.946	373.44
840.476	251.195
845.004	76.0801
849.529	83.9297
854.051	179.434
858.571	178.31
863.088	125.686
867.603	168.203
872.114	108.918
876.624	58.5957
881.131	179.549
885.635	206.742
890.136	74.0117
894.635	139.178
899.132	180.576
903.626	48.4629
908.117	32.8125
912.606	188.269
917.092	156.603
921.575	279.891
926.056	383.088
930.535	208.18
935.011	73.166
939.484	65.0977
943.955	130.961
948.423	41.375
952.889	155.4
957.352	170.324
961.813	181.082
966.271	507.685
970.727	801.121
975.18	635.394
979.63	1120.49
984.078	1685.55
988.524	2172.29
992.967	2856.18
997.407	5587.6
1001.85	8184.54
1006.28	5948.48
1010.71	3959.05
1015.14	3135.18
1019.57	2820.03
1024	3541.82
1028.42	6386.5
1032.84	9583.76
1037.26	9497.05
1041.67	6850.25
1046.09	5217.88
1050.5	5128.16
1054.9	5135.89
1059.31	5362.53
1063.71	6078.76
1068.11	6798.55
1072.51	8331.11
1076.91	10161.5
1081.3	12264.8
1085.69	14732.8
1090.08	16438.6
1094.47	17595.1
1098.85	17556.6
1103.23	16303.2
1107.61	13623
1111.98	9524.56
1116.36	5935.02
1120.73	3362.73
1125.1	1607.59
1129.46	371.947
1133.83	188.758
1138.19	416.199
1142.55	346.928
1146.9	439.258
1151.26	32.6367
1155.61	530.428
1159.96	308.295
1164.31	141.236
1168.65	77.8711
1172.99	75.2148
1177.33	45.9434
1181.67	185.285
1186	346.312
1190.34	378.065
1194.66	455.559
1198.99	186.783
1203.32	318.115
1207.64	521.303
1211.96	175.049
1216.28	323.826
1220.59	312.797
1224.91	681.766
1229.22	470.051
1233.53	650.297
1237.83	712.426
1242.14	691.691
1246.44	692.271
1250.74	552.816
1255.03	376.773
1259.33	715.785
1263.62	1103.27
1267.91	1250.87
1272.19	1295.96
1276.48	1795.23
1280.76	2731.48
1285.04	3548.84
1289.32	3551.04
1293.6	3511.68
1297.87	3131.08
1302.14	2458.99
1306.41	2191.43
1310.67	2082.04
1314.94	2043.95
1319.2	1465.37
1323.46	1036.64
1327.71	1471.42
1331.97	925.969
1336.22	740.969
1340.47	667.062
1344.72	622.836
1348.96	538.465
1353.2	546.797
1357.44	251.426
1361.68	3.78516
1365.92	304.004
1370.15	162.988
1374.38	372.5
1378.61	58.8477
1382.84	39.3906
1387.06	234.762
1391.29	306.793
1395.51	67.3125
1399.72	53.625
1403.94	13.9492
1408.15	162.578
1412.36	60.9648
1416.57	613.609
1420.78	475.004
1424.98	540.387
1429.18	990.812
1433.38	1844.76
1437.58	2960.61
1441.77	3536.68
1445.96	3161.72
1450.15	3143.45
1454.34	2903.74
1458.53	2625.29
1462.71	1978.93
1466.89	1666.47
1471.07	1341.03
1475.25	1091.87
1479.42	1049.2
1483.6	774.289
1487.77	1043.73
1491.93	595.453
1496.1	256.769
1500.26	109.168
1504.42	318.426
1508.58	284.031
1512.74	179.941
1516.89	364.969
1521.05	585.144
1525.2	308.258
1529.34	120.359
1533.49	174.672
1537.63	70.0391
1541.77	1.33203
1545.91	72.6914
1550.05	485.695
1554.18	529.606
1558.32	660.293
1562.45	200.676
1566.57	578.894
1570.7	54.6406
1574.82	2.8125
1578.94	0
