Measurement: Raman, 514 nm, depolarized, Raman Data Processed
Mineral: Fluoro-richterite
Rruff sample: R040019
Ideal chemistry: Na(NaCa)Mg_5_Si_8_O_22_F_2_
Locality: Wilberforce, Ontario, Canada
Source: University of Arizona Mineral Museum
Description: Brown prismatic crystals
Measured chemistry: (Na_0.59_K_0.27_[box]_0.14_)_Σ=1_(Ca_1.30_Na_0.70_)_Σ=2_(Mg_4.67_Fe_0.17_Fe^3+^_0.10_Ti_0.03_Mn_0.02_Al_0.01_)_Σ=5_(Si_7.67_Al_0.33_)_Σ=8_(F_1.12_(OH)_0.88_)_Σ=2_; OH estimated by charge balance
Pin_id: L00217
Orientation: Laser parallel to -b* (0 -1 0). Fiducial mark perpendicular to laser is parallel to c [0 0 1]
Raman shift (cm-1)	intensity
69.651	0
73.842	11.057
78.031	17.682
82.218	138.634
86.404	236.089
90.587	519.623
94.768	982.553
98.947	1354.86
103.124	2226.55
107.3	3581.22
111.473	4168.88
115.644	3887.63
119.813	2618.6
123.981	1237.74
128.146	629.513
132.309	318.423
136.47	244.354
140.63	144.236
144.787	190.912
148.942	470.213
153.096	1587.95
157.247	3333.99
161.396	4426.21
165.544	3779.94
169.689	3596.42
173.833	4148.66
177.974	4531.3
182.114	4382.85
186.251	3910.82
190.387	3382.77
194.52	3487.59
198.652	3687.54
202.782	4253.59
206.909	4842.64
211.035	5588.46
215.159	6453.67
219.281	8035.38
223.4	9125.55
227.518	9708.17
231.634	9334.2
235.748	7495.05
239.86	5056.64
243.97	3153.35
248.079	2036.38
252.185	1288.2
256.289	801.321
260.391	368.545
264.492	173.723
268.59	7.258
272.687	9.494
276.781	54.027
280.874	94.801
284.964	132.276
289.053	372.587
293.14	761.405
297.225	1189.04
301.308	1678.31
305.389	2345.99
309.468	2982.85
313.545	3365.47
317.62	3098.93
321.693	2703.67
325.765	2161.63
329.834	2053.7
333.902	1921.57
337.967	1631.37
342.031	1391.52
346.093	1273.85
350.153	1246.38
354.21	1412.09
358.267	1812.98
362.321	2404.03
366.373	2865.23
370.423	3068.55
374.471	3090.99
378.518	3367.53
382.563	3428.17
386.605	3322.89
390.646	3203.7
394.685	3094.58
398.722	2886.55
402.757	2598.75
406.79	2066.18
410.821	1621.82
414.851	1079.62
418.878	801.569
422.904	606.64
426.927	592.819
430.949	523.033
434.969	350.95
438.987	320.451
443.003	64.461
447.018	5.314
451.03	76.71
455.041	90.598
459.049	19.25
463.056	66.52
467.061	96.209
471.064	67.877
475.065	25.51
479.064	48.047
483.062	24.812
487.057	27.16
491.051	9.086
495.043	29.657
499.032	44.424
503.02	97.395
507.007	198.334
510.991	275.271
514.973	480.245
518.954	669.231
522.933	861.163
526.91	1000
530.885	1014.9
534.858	980.478
538.829	894.052
542.799	851.477
546.766	716.749
550.732	682.856
554.696	745.79
558.658	725.54
562.618	654.098
566.576	546.455
570.533	434.601
574.488	385.532
578.44	420.241
582.391	418.722
586.341	396.972
590.288	299.985
594.233	56.762
598.177	12.855
602.119	93.145
606.059	35.555
609.997	44.132
613.933	143.513
617.868	276.14
621.801	370.928
625.731	570.825
629.66	688.749
633.588	805.407
637.513	1023.08
641.437	1252.67
645.358	1539.8
649.278	2002.72
653.196	2682.36
657.113	3586.01
661.027	5088.34
664.94	7806.74
668.851	12460.1
672.76	21682.2
676.667	37006.4
680.572	48386.9
684.476	40823.6
688.378	23891.5
692.278	13186.6
696.176	7612.73
700.072	5016.24
703.967	3503.26
707.86	2769.64
711.751	2160.26
715.64	1871.41
719.527	1800.04
723.413	1569.29
727.297	1508.26
731.179	1431.96
735.059	1274.39
738.937	1225.54
742.814	989.436
746.689	830.067
750.562	699.068
754.433	612.182
758.303	515.814
762.17	332.455
766.036	226.94
769.901	171.885
773.763	101.109
777.624	62.28
781.482	45.216
785.339	32.886
789.195	38.322
793.048	0.578
796.9	12.687
800.75	9.666
804.598	39.5
808.445	0.714
812.289	1.911
816.132	58.725
819.973	55.74
823.813	4.195
827.65	23.113
831.486	2.476
835.32	25.102
839.152	71.029
842.983	3.294
846.812	7.807
850.639	44.464
854.464	31.559
858.288	65.447
862.11	97.264
865.93	110.922
869.748	175.48
873.564	248.955
877.379	372.365
881.192	422.751
885.004	464.142
888.813	637.478
892.621	695.816
896.427	719.195
900.232	813.58
904.034	968.012
907.835	1079.59
911.634	1301.69
915.432	1678.06
919.227	2092.55
923.021	2734.03
926.813	3395.12
930.604	3775.16
934.393	3737.8
938.18	3374.12
941.965	3046.76
945.749	2821.78
949.53	2734.21
953.311	2544.56
957.089	2208.03
960.866	1600.92
964.641	1276.55
968.414	1080.19
972.185	975.306
975.955	905.065
979.723	752.547
983.49	792.696
987.254	658.979
991.017	702.117
994.779	651.156
998.538	741.763
1002.3	792.392
1006.05	941.938
1009.81	1149.39
1013.56	1250.95
1017.31	1309.86
1021.06	1497.48
1024.81	1618.15
1028.55	1852.91
1032.3	2169.13
1036.04	2509.76
1039.78	2873.94
1043.52	3353.62
1047.26	3891.57
1050.99	4443.5
1054.73	5357.91
1058.46	6585.81
1062.19	8277.2
1065.92	10105.8
1069.65	11221.5
1073.37	11436
1077.1	10242.2
1080.82	8250.06
1084.54	6545.96
1088.26	4861.48
1091.97	3479.56
1095.69	2574.3
1099.4	2024.12
1103.12	1635.7
1106.83	1371.54
1110.54	1196.16
1114.24	1038.73
1117.95	936.74
1121.65	997.659
1125.35	947.118
1129.06	726.329
1132.75	735.876
1136.45	591.837
1140.15	534.869
1143.84	499.387
1147.53	478.519
1151.22	308.989
1154.91	295.59
1158.6	223.973
1162.28	136.966
1165.97	88.958
1169.65	27.234
1173.33	20.492
1177.01	27.312
1180.69	10.859
1184.36	9.879
1188.04	37.245
1191.71	25.982
1195.38	49.229
1199.05	44.18
1202.71	59.772
1206.38	30.935
1210.04	37.477
1213.71	32.98
1217.37	3.489
1221.03	1.143
1224.68	50.093
1228.34	33.192
1231.99	6.156
1235.65	95.327
1239.3	47.544
1242.95	24.205
1246.59	68.793
1250.24	79.183
1253.88	68.74
1257.53	9.68
1261.17	34.73
1264.81	115.995
1268.45	47.148
1272.08	123.188
1275.72	85.603
1279.35	89.746
1282.98	83.267
1286.61	116.375
1290.24	77.996
1293.87	84.273
1297.49	48.776
1301.11	149.119
1304.73	111.78
1308.36	136.541
1311.97	68.206
1315.59	115.885
1319.2	178.672
1322.82	54.837
1326.43	117.476
1330.04	31.917
1333.65	77.118
1337.26	80.78
1340.86	86.663
1344.47	82.138
1348.07	41.712
1351.67	180.321
1355.27	108.017
1358.87	79.689
1362.46	35.621
1366.06	1.375
1369.65	91.906
1373.24	28.292
1376.83	62.029
1380.42	81.31
1384	38.788
1387.59	40.545
1391.17	99.286
1394.75	67.467
1398.33	57.139
1401.91	67.236
1405.49	22.994
1409.06	81.641
1412.64	168.976
1416.21	55.68
1419.78	103.139
1423.35	95.688
1426.91	110.695
1430.48	36.994
1434.05	80.06
1437.61	255.931
1441.17	229.412
1444.73	198.235
1448.29	189.437
1451.84	77.663
1455.4	322.521
1458.95	222.249
1462.5	54.238
1466.05	93.229
1469.6	73.631
1473.15	64.026
1476.69	46.659
1480.24	120.714
1483.78	139.746
1487.32	125.93
1490.86	82.695
1494.39	267.723
1497.93	44.129
1501.46	79.813
1505	82.358
1508.53	14.162
