Measurement: Raman, 514 nm, depolarized, Raman Data Processed
Mineral: Fluorapophyllite-(K)
Rruff sample: R040095
Ideal chemistry: KCa_4_Si_8_O_20_F8H_2_O
Locality: unknown
Source: University of Arizona Mineral Museum
Description: Colorless crystals
Measured chemistry: (K_0.90_Na_0.04_)Ca_3.96_Si_8.00_O_20_(F_0.82_(OH)_0.18_)Â·8H_2_O
Pin_id: L00450
Orientation: Laser parallel to -a* (-1 0 0). Fiducial mark perpendicular to laser is parallel to c [0 0 1]
Raman shift (cm-1)	intensity
79.421	0
84.352	1369.3
89.281	9477.86
94.207	11135
99.131	13981.3
104.053	50621.9
108.973	59971.9
113.891	9799.47
118.806	240.75
123.72	3643.71
128.631	3836.26
133.539	4651.54
138.446	11424
143.35	5144.45
148.252	590.766
153.152	3733.63
158.05	13838.4
162.945	27821.3
167.838	24696.9
172.729	9757.23
177.618	6330.05
182.504	12881
187.388	14199.4
192.27	8466.37
197.149	10163.4
202.027	18209.9
206.902	30529.1
211.775	31545.3
216.645	19576.7
221.513	15173.7
226.379	16502.2
231.243	13113.6
236.104	4826.05
240.963	55.2959
245.82	1868.48
250.674	2156.84
255.527	1365.8
260.376	609.706
265.224	3256.44
270.069	3071.03
274.912	949.539
279.753	418.846
284.591	1665.24
289.427	5116.13
294.261	10066.2
299.092	11758.8
303.921	8796.96
308.748	8017.87
313.572	8754.95
318.394	9880.91
323.214	10706.4
328.032	9593.29
332.847	9763.53
337.659	10181.5
342.47	7356.22
347.278	3668.74
352.083	1641.17
356.887	467.503
361.688	274.109
366.486	192.802
371.282	163.653
376.076	33.2285
380.868	757.215
385.657	2313.49
390.444	4714.59
395.228	7630.39
400.01	8065.51
404.79	6083.21
409.567	4169.93
414.342	4000.45
419.114	7194.93
423.885	16463.4
428.652	35132.9
433.418	31244.6
438.18	11323.5
442.941	3829.78
447.699	1609.78
452.455	1474.56
457.208	2590.8
461.959	3700.01
466.708	3993.07
471.454	6205.82
476.197	14836.6
480.939	32647
485.678	36939
490.414	18367.5
495.148	9150.75
499.88	6354.12
504.609	4918.01
509.335	3934.07
514.06	4508.12
518.781	5993.75
523.501	9963.05
528.218	16112.8
532.932	23731
537.644	29075.1
542.354	28448.1
547.061	25067.7
551.766	22601.7
556.468	22864.5
561.168	25446
565.865	31724.5
570.56	44514.8
575.253	65138.5
579.943	88134.1
584.63	88981.8
589.315	62410.9
593.998	35616.5
598.678	20843.5
603.355	13138.3
608.031	8659
612.703	6446.52
617.373	5384.56
622.041	4799.17
626.706	4693.88
631.369	4362.36
636.029	4828.63
640.687	5335.81
645.342	6352.26
649.995	8127.57
654.645	10358.4
659.293	12545.4
663.938	12600.3
668.581	9964.65
673.221	6384.29
677.859	4003.99
682.494	2171.99
687.126	1199.21
691.756	590.472
696.384	205.059
701.009	34.2285
705.632	194.891
710.252	270.901
714.869	323.279
719.484	274.767
724.097	157.668
728.707	158.133
733.314	372.148
737.919	327.651
742.521	372.123
747.121	13.9199
751.718	29.7969
756.313	470.214
760.905	1244.68
765.494	1639.71
770.081	1320.96
774.666	940.572
779.248	1286.81
783.827	2037.44
788.404	3724.81
792.978	3877.79
797.55	2242.43
802.119	1275.43
806.685	932.283
811.249	1053.86
815.811	1049.41
820.37	1153.24
824.926	1440.04
829.479	1690.12
834.031	1684.04
838.579	1849.9
843.125	1666.74
847.668	1505.97
852.209	1312.2
856.747	1195.8
861.283	1127.66
865.816	794.741
870.346	619.983
874.874	318.103
879.399	276.857
883.921	107.959
888.441	33.46
892.959	166.035
897.473	209.254
901.986	143.519
906.495	7.11231
911.002	83.2666
915.506	38.2178
920.008	126.625
924.507	95.082
929.004	41.9834
933.497	8.98438
937.989	142.367
942.477	2.25781
946.963	105.051
951.446	280.621
955.927	322.358
960.405	306.775
964.881	432.874
969.353	960.702
973.824	736.389
978.291	400.279
982.756	498.837
987.218	564.605
991.678	829.832
996.135	2020.77
1000.59	2280.39
1005.04	3733.76
1009.49	3505.3
1013.94	1859.1
1018.38	1026.69
1022.82	1169.08
1027.26	1898.38
1031.69	3197.26
1036.13	5218.7
1040.56	7926.99
1044.99	13743.8
1049.41	27805.5
1053.83	61459.8
1058.25	116994
1062.67	110089
1067.09	56244
1071.5	27684.7
1075.9	15473.5
1080.31	10158.3
1084.71	8160.98
1089.12	7000.2
1093.52	4974.38
1097.91	3322.77
1102.3	2422.03
1106.69	1745.68
1111.08	1783.05
1115.47	1871.92
1119.85	1335.26
1124.23	808.126
1128.6	712.364
1132.98	461.981
1137.35	237.033
1141.72	410.57
1146.08	151.757
1150.45	237.352
1154.81	292.331
1159.17	300.603
1163.52	46.9131
1167.87	194.814
1172.22	105.836
1176.57	18.0742
1180.91	138.889
1185.26	165.358
1189.6	18.7852
1193.93	32.5498
1198.27	160.487
1202.6	47.1025
1206.92	95.2852
1211.25	60.0566
1215.57	29.3965
1219.89	69.1963
1224.21	121.821
1228.52	23.5244
1232.83	79.1123
1237.14	185.04
1241.45	65.4082
1245.75	78.8467
1250.05	320.002
1254.35	124.564
1258.65	252.82
1262.94	187.038
1267.23	235.686
1271.52	365.562
1275.8	535.114
1280.08	333.543
1284.36	251.804
1288.64	223.117
1292.91	359.457
1297.18	334.888
1301.45	285.637
1305.71	198.265
1309.97	310.562
1314.23	276.292
1318.49	460.473
1322.74	287.872
1327	189.911
1331.24	145.117
1335.49	93.9385
1339.73	274.38
1343.97	201.253
1348.21	18.9248
1352.44	32.2559
1356.68	237.246
1360.91	171.231
1365.13	224.798
1369.36	201.245
1373.58	195.236
1377.79	98.6689
1382.01	202.809
1386.22	203.247
1390.43	94.8789
1394.64	40.7334
1398.84	96.541
1403.04	68.1709
1407.24	153.747
1411.44	90.624
1415.63	180.857
1419.82	98.4668
1424.01	40.4492
1428.19	203.938
1432.37	310.816
1436.55	372.949
1440.73	521.197
1444.9	283.933
1449.07	571.89
1453.24	687.491
1457.4	522.162
1461.57	541.799
1465.72	488.727
1469.88	551.913
1474.04	400.344
1478.19	375.697
1482.33	391.885
1486.48	375.964
1490.62	228.066
1494.76	388.747
1498.9	157.467
1503.03	346.635
1507.16	255.079
1511.29	286.378
1515.42	346.911
1519.54	305.114
1523.66	427.884
1527.78	284.149
1531.89	312.158
1536	115.203
1540.11	23.0273
1544.21	149.241
1548.32	257.389
1552.42	84.1973
1556.52	188.242
1560.61	126.293
1564.7	269.654
1568.79	7.79297
1572.88	4.16602
1576.96	0
