Measurement: Raman, 514 nm, depolarized, Raman Data Processed
Mineral: Fluorophlogopite
Rruff sample: R040075
Ideal chemistry: KMg_3_(Si_3_Al)O_10_F_2_
Locality: unknown
Source: University of Arizona Mineral Museum
Description: Green hexagonal tablet
Measured chemistry: (K_0.93_[box]_0.04_Na_0.03_)(Mg_0.66_Fe_0.30_Ti_0.02_)_3_(Si_0.75_Al_0.25_)_4_O_10_(F_0.90_(OH)_0.06_Cl_0.04_)
Pin_id: L00287
Orientation: Laser parallel to c [0 0 1]. Fiducial mark perpendicular to laser is parallel to -b* (0 -1 0)
Raman shift (cm-1)	intensity
166.996	0
171.152	298.781
175.305	200.401
179.456	632.541
183.605	1023.6
187.752	1340.98
191.898	1226.3
196.041	1012.85
200.182	615.63
204.321	519.863
208.457	387.197
212.592	351.591
216.725	243.092
220.856	134.752
224.984	123.737
229.111	43.979
233.236	10.623
237.358	41.815
241.479	76.689
245.597	54.903
249.713	21.423
253.828	39.696
257.94	72.707
262.05	27.263
266.159	141.601
270.265	312.746
274.369	371.115
278.471	487.975
282.572	443.743
286.67	435.416
290.766	330.483
294.86	289.661
298.952	283.481
303.042	338.77
307.13	375.712
311.216	401.822
315.3	447.419
319.382	594.438
323.462	517.433
327.54	397.374
331.616	420.747
335.69	457.418
339.762	435.614
343.832	345.684
347.9	480.395
351.965	420.621
356.029	417.228
360.091	452.349
364.151	434.84
368.209	466.672
372.265	464.565
376.319	409.766
380.371	415.571
384.421	449.813
388.469	430.32
392.515	444.75
396.559	423.397
400.601	522.154
404.641	499.542
408.679	443.481
412.715	438.267
416.749	471.396
420.781	319.63
424.811	196.608
428.839	204.865
432.866	197.235
436.89	136.893
440.912	71.519
444.932	37.607
448.951	11.111
452.967	8.684
456.981	82.485
460.994	98.643
465.004	76.922
469.013	23.953
473.019	15.689
477.024	29.13
481.026	191.295
485.027	251.248
489.026	373.558
493.023	422.715
497.017	454.722
501.01	554.557
505.001	556.229
508.99	513.777
512.977	567.284
516.962	630.775
520.945	620.32
524.927	713.941
528.906	612.714
532.883	777.625
536.858	657.646
540.832	729.793
544.803	764.104
548.773	755.621
552.741	737.267
556.706	716.003
560.67	758.852
564.632	603.894
568.592	447.145
572.55	352.593
576.506	324.207
580.46	303.931
584.412	180.711
588.363	204.54
592.311	145.284
596.258	94.75
600.202	45.109
604.145	64.794
608.086	96.468
612.024	114.912
615.961	182.091
619.896	78.911
623.829	218.688
627.761	291.174
631.69	330.188
635.617	298.199
639.543	359.167
643.466	390.157
647.388	537.169
651.308	659.203
655.226	644.257
659.142	813.381
663.056	1133.31
666.968	1493.25
670.879	2019.97
674.787	2520.59
678.694	3112.16
682.598	3117.12
686.501	2627.22
690.402	2143.45
694.301	1861.34
698.198	1591.62
702.093	1651.03
705.987	1881.1
709.878	1924.07
713.768	2249.29
717.656	2395.49
721.542	2419.43
725.426	2345.26
729.308	2238.03
733.188	2117.75
737.067	1818.4
740.943	1655.98
744.818	1577.5
748.691	1558.96
752.562	1378.35
756.431	1471.67
760.298	1640.65
764.163	1659.91
768.027	1644.93
771.888	1701.45
775.748	1482.85
779.606	1359.31
783.462	1101.81
787.317	1057.26
791.169	745.647
795.019	634.962
798.868	540.201
802.715	378.36
806.56	245.441
810.403	186.442
814.245	140.361
818.084	75.188
821.922	67.126
825.758	17.747
829.592	44.636
833.424	53.89
837.254	31.574
841.082	80.718
844.909	43.232
848.734	19.046
852.557	54.144
856.378	49.135
860.197	0.56
864.015	124.833
867.831	41.61
871.645	95.51
875.457	171.334
879.267	163.085
883.075	139.766
886.882	209.378
890.687	439.922
894.49	364.401
898.291	323.817
902.09	393.172
905.888	423.467
909.683	378.704
913.477	590.78
917.269	704.019
921.06	466.093
924.848	415.114
928.635	484.08
932.42	535.153
936.203	483.846
939.984	516.668
943.764	535.541
947.541	473.423
951.317	503.26
955.091	477.771
958.864	474.796
962.634	475.499
966.403	453.112
970.17	490.808
973.935	470.384
977.698	420.43
981.46	403.786
985.22	444.304
988.978	427.421
992.734	393.011
996.488	440.121
1000.24	389.125
1003.99	372.402
1007.74	361.102
1011.49	351
1015.23	409.805
1018.98	307.29
1022.72	405.208
1026.46	391.329
1030.2	436.473
1033.93	533.708
1037.67	533.03
1041.4	472.422
1045.13	473.891
1048.86	542.489
1052.59	633.096
1056.32	550.762
1060.04	536.497
1063.77	672.295
1067.49	611.146
1071.2	594.053
1074.92	654.016
1078.64	667.6
1082.35	616.083
1086.06	661.248
1089.78	693.59
1093.48	627.773
1097.19	668.402
1100.89	577.363
1104.6	381.795
1108.3	407.275
1112	286.883
1115.7	259.468
1119.39	294.114
1123.09	325.84
1126.78	164.795
1130.47	37.88
1134.16	126.292
1137.85	101.098
1141.54	138.421
1145.22	134.065
1148.9	81.226
1152.58	67.137
1156.26	44.598
1159.94	28.452
1163.62	30.907
1167.29	77.224
1170.96	67.806
1174.63	20.63
1178.3	44.598
1181.97	68.106
1185.63	21.428
1189.3	31.464
1192.96	5.812
1196.62	32.662
1200.28	108.025
1203.93	119.936
1207.59	78.771
1211.24	39.581
1214.89	98.121
1218.54	2.626
1222.19	66.262
1225.84	89.944
1229.48	45.766
1233.13	13.873
1236.77	33.502
1240.41	21.08
1244.05	132.048
1247.68	102.033
1251.32	72.022
1254.95	78.19
1258.58	136.424
1262.21	113.628
1265.84	134.7
1269.46	65.384
1273.09	60.736
1276.71	65.453
1280.33	12.962
1283.95	12.207
1287.57	71.443
1291.18	51.381
1294.8	98.193
1298.41	100.848
1302.02	16.612
1305.63	9.787
1309.24	40.976
1312.84	32.025
1316.45	29.125
1320.05	14.438
1323.65	46.941
1327.25	81.237
1330.85	1.662
1334.44	42.273
1338.04	13.995
1341.63	9.354
1345.22	28.146
1348.81	10.481
1352.4	49.744
1355.98	82.859
1359.57	93.859
1363.15	84.747
1366.73	69.561
1370.31	42.917
1373.89	44.214
1377.46	8.132
1381.04	48.901
1384.61	44.796
1388.18	1.247
1391.75	105.479
1395.32	83.654
1398.88	102.67
1402.45	129.357
1406.01	78.813
1409.57	146.998
1413.13	100.167
1416.69	59.834
1420.24	58.794
1423.8	199.526
1427.35	70.353
1430.9	81.144
1434.45	126.181
1438	152.29
1441.55	151.839
1445.09	112.348
1448.63	97.73
1452.18	87.008
1455.71	81.149
1459.25	78.361
1462.79	71.99
1466.32	149.907
1469.86	121.614
1473.39	154.617
1476.92	117.319
1480.45	167.621
1483.97	183.885
1487.5	186.805
1491.02	168.99
1494.54	33.377
1498.06	61.43
1501.58	84.104
1505.1	37.244
1508.62	4.802
1512.13	2.807
1515.64	77.806
1519.15	134.433
1522.66	0
