Measurement: Raman, 514 nm, depolarized, Raman Data Processed
Mineral: Fluorapatite
Rruff sample: R050401
Ideal chemistry: Ca_5_(PO_4_)_3_F
Locality: Urbano mine, Golconda District, Minas Gerais, Brazil
Source: Bob Downs
Description: Pale purple hexagonal prism associated with albite R050402
Measured chemistry: (Ca_0.99_Mn_0.01_)_5_(P_1.00_O_4_)_3_F_1.00_
Pin_id: L00654
Orientation: Laser parallel to c* (0 0 1). Fiducial mark perpendicular to laser is parallel to a [1 0 0]
Raman shift (cm-1)	intensity
134.127	0
139.043	95.7461
143.956	55.585
148.867	27.2007
153.775	124.189
158.681	13.9214
163.585	118.754
168.486	129.786
173.385	23.0708
178.282	7.72217
183.176	131.97
188.067	39.7905
192.956	137.46
197.843	145.493
202.727	169.079
207.609	162.988
212.489	10.4834
217.366	25.6304
222.24	65.3091
227.112	113.786
231.982	161.951
236.849	106.287
241.714	65.7519
246.577	9.50146
251.437	66.8804
256.294	59.1079
261.149	97.8613
266.002	33.4658
270.852	197.784
275.7	26.1782
280.545	103.098
285.388	52.4053
290.229	6.97607
295.067	133.073
299.902	157.321
304.735	150.985
309.566	28.0806
314.394	13.1611
319.22	27.4697
324.043	10.4834
328.864	111.757
333.682	131.107
338.498	69.1108
343.311	34.8125
348.122	131.316
352.931	63.6621
357.737	133.486
362.54	49.3408
367.341	183.045
372.14	70.333
376.936	106.684
381.73	112.533
386.521	52.1895
391.31	158.811
396.096	36.1631
400.88	44.7002
405.661	14.0957
410.44	13.6846
415.216	56.0547
419.99	122.249
424.761	178.894
429.53	151.389
434.297	174.44
439.061	228.804
443.822	85.9541
448.581	51.1191
453.337	120.033
458.091	45.959
462.843	61.2861
467.592	18.9844
472.338	74.0801
477.082	134.046
481.824	227.971
486.563	87.9893
491.3	96.3027
496.034	157.237
500.765	42.7402
505.494	142.417
510.221	20.7031
514.945	109.698
519.666	149.557
524.385	133.155
529.102	33.1992
533.816	306.04
538.527	151.371
543.236	156.871
547.943	121.328
552.647	6.02246
557.348	114.832
562.047	134.33
566.744	134.775
571.438	169.942
576.129	4.0332
580.818	162.71
585.504	51.4375
590.188	99.0107
594.87	177.42
599.549	185.361
604.225	155.367
608.899	184.897
613.57	350.764
618.239	163.83
622.905	152.105
627.569	195.214
632.23	235.132
636.889	58.5859
641.545	66.8106
646.198	153.098
650.849	29.8496
655.498	125.445
660.144	34.3242
664.787	217.152
669.428	218.025
674.067	110.371
678.703	28.1992
683.336	59.0117
687.967	180.865
692.595	139.643
697.221	84.9121
701.844	149.504
706.465	105.891
711.083	102.297
715.698	76.8652
720.311	111.209
724.922	26.2871
729.53	352.43
734.135	122.908
738.738	44.9297
743.338	285.568
747.936	246.014
752.531	239.662
757.124	9.17773
761.714	248.359
766.302	218.938
770.887	237.137
775.469	71.418
780.049	147.281
784.626	120.543
789.201	7.51172
793.773	330.272
798.343	285.289
802.91	159.531
807.475	205.293
812.037	330.904
816.596	230.084
821.153	453.029
825.707	205.519
830.259	335.154
834.808	387.938
839.355	183.721
843.899	449.666
848.441	31.6582
852.98	273.775
857.516	206.256
862.05	204.955
866.581	267.887
871.11	252.938
875.636	170.252
880.159	354.529
884.68	245.6
889.199	93.0801
893.714	437.815
898.228	166.688
902.738	88.4492
907.246	67.6953
911.752	232.32
916.255	338.549
920.755	69.5098
925.253	276.086
929.748	100.439
934.241	282.215
938.731	168.17
943.218	537
947.703	254.859
952.186	339.309
956.665	199.707
961.142	795.998
965.617	1605.86
970.089	524.924
974.558	443.32
979.025	348.961
983.489	155.406
987.951	316.205
992.41	116.152
996.866	50.625
1001.32	244.209
1005.77	355.602
1010.22	121.894
1014.67	96.6602
1019.11	246.184
1023.55	205.527
1027.99	203.992
1032.42	343.234
1036.86	247.117
1041.29	161.223
1045.72	116.516
1050.14	103.93
1054.56	245.922
1058.98	379.691
1063.4	327.953
1067.82	182.234
1072.23	337.727
1076.64	311.773
1081.05	346.164
1085.45	192.738
1089.85	57.3281
1094.25	438.461
1098.65	150.324
1103.04	130.293
1107.43	145.34
1111.82	113.664
1116.21	127.461
1120.59	274.477
1124.97	197.094
1129.35	317.949
1133.73	158.957
1138.1	46.9883
1142.47	240.519
1146.84	196.422
1151.21	412.102
1155.57	254.113
1159.93	148.129
1164.29	106.816
1168.64	461.797
1172.99	326.234
1177.34	173.969
1181.69	150.805
1186.04	42.4766
1190.38	0.152344
1194.72	124.688
1199.05	89.7148
1203.39	185.953
1207.72	140.594
1212.05	48.2578
1216.37	163.32
1220.7	169.934
1225.02	161.633
1229.34	322.894
1233.65	253.734
1237.97	42.1289
1242.28	572.863
1246.59	101.414
1250.89	280.57
1255.19	451.32
1259.49	189.723
1263.79	751.691
1268.09	249.227
1272.38	452.644
1276.67	642.199
1280.95	236.715
1285.24	635.438
1289.52	628.269
1293.8	206.316
1298.08	455.738
1302.35	392.805
1306.62	305.227
1310.89	115.465
1315.15	375.504
1319.42	308.793
1323.68	508.383
1327.94	282.566
1332.19	158.144
1336.44	630.144
1340.69	373.41
1344.94	408.469
1349.19	530.781
1353.43	277.07
1357.67	538.117
1361.9	440.938
1366.14	209.312
1370.37	455.711
1374.6	277.285
1378.83	223.523
1383.05	148.375
1387.27	520.047
1391.49	449.551
1395.7	29.0586
1399.92	538.34
1404.13	814.457
1408.34	71.4805
1412.54	104.453
1416.74	278.394
1420.94	41.4609
1425.14	386.676
1429.34	81.125
1433.53	735.254
1437.72	257.664
1441.9	398.84
1446.09	347.238
1450.27	471.199
1454.45	191.121
1458.63	291.984
1462.8	386.043
1466.97	277.258
1471.14	182.113
1475.31	481.59
1479.47	461.621
1483.63	72.9102
1487.79	753.438
1491.94	223.531
1496.09	158.273
1500.24	680.141
1504.39	791.039
1508.54	629.633
1512.68	398.848
1516.82	896.094
1520.95	756.5
1525.09	707.539
1529.22	644.473
1533.35	673.027
1537.47	702.062
1541.6	275.254
1545.72	656.352
1549.83	431.738
1553.95	188.328
1558.06	320.121
1562.17	217.262
1566.28	713.731
1570.38	41.5391
