Measurement: Raman, 514 nm, ccw, Raman Data Processed
Mineral: Fluorophlogopite
Rruff sample: R040042
Ideal chemistry: KMg_3_(Si_3_Al)O_10_F_2_
Locality: Franklin, Sussex County, New Jersey, USA
Source: University of Arizona Mineral Museum
Description: Brown flattened hexagonal prism, polytype 1M
Measured chemistry: (K_0.92_Na_0.08_)_Σ=1_(Mg_2.95_Fe_0.05_)_Σ=3_(Si_3.00_Al_1.00_)O_10_(F_1.40_(OH)_0.60_)_Σ=2_; trace amounts of Ti; OH estimated by charge balance
Pin_id: L01769
Orientation: Laser parallel to b* (0 1 0). Fiducial mark perpendicular to laser is parallel to -c [0 0 -1]
Raman shift (cm-1)	intensity
63.968	0
68.967	198.051
73.963	3112.46
78.956	11179.6
83.945	22978.2
88.931	38070.6
93.913	65718
98.892	109268
103.868	151492
108.841	113159
113.81	50278
118.777	27189
123.74	18991.4
128.699	13956.6
133.656	11405
138.609	9312.98
143.559	7452
148.505	6904.4
153.449	5624.34
158.389	5485.4
163.326	5990.99
168.26	6685.32
173.19	8350.91
178.118	12576.7
183.042	23191.2
187.963	49776.5
192.881	93742.9
197.796	122167
202.707	85793.1
207.615	37501.7
212.52	16745.7
217.422	8337.98
222.321	4254.19
227.217	2280.47
232.109	987.09
236.999	314.602
241.885	390.328
246.768	1096.14
251.648	1060.93
256.525	882.621
261.399	428.523
266.269	3754.85
271.137	10696.5
276.001	21392.4
280.862	26166.1
285.721	16483
290.576	7806.53
295.428	5382.89
300.277	6464.41
305.123	10999.7
309.966	18564
314.805	25903.2
319.642	27752.9
324.476	24699.4
329.306	17951.9
334.134	10519.4
338.959	6405.06
343.78	2820.52
348.599	1800.66
353.414	1157.31
358.226	1648.84
363.036	3031.32
367.842	6129.84
372.646	8157.32
377.446	6060.74
382.244	2679.33
387.038	1070.35
391.83	675.344
396.618	308.059
401.404	428.738
406.186	344.004
410.966	126.836
415.742	383.734
420.516	196.008
425.287	689.332
430.055	459.856
434.819	241.582
439.581	333.875
444.34	118.516
449.096	758.5
453.85	989.426
458.6	1731.37
463.347	3596.51
468.091	3550.53
472.833	1722.71
477.572	17.4727
482.307	287.356
487.04	240.254
491.77	292.719
496.497	812.398
501.221	1228.25
505.943	1888.14
510.661	2984.53
515.377	2639.72
520.089	2202.56
524.799	1371.92
529.506	842.637
534.21	811.168
538.912	867.906
543.61	767.023
548.306	932.449
552.999	835.121
557.689	826.527
562.376	964.773
567.061	687.688
571.742	826.953
576.421	390.949
581.097	195.223
585.77	439.734
590.441	522.184
595.108	864.113
599.773	1135.48
604.435	1763.95
609.095	2487.73
613.751	3640.69
618.405	5130.84
623.056	6993.31
627.705	10073.3
632.35	13790
636.993	17849.8
641.633	18618.6
646.271	18558.5
650.905	18801.4
655.537	19903.4
660.166	22553.5
664.793	27958.8
669.416	37508.1
674.038	54521.6
678.656	78996.2
683.272	94568.5
687.885	86019.2
692.495	62453.9
697.102	39290.2
701.707	22524.1
706.31	13509.7
710.909	9496.19
715.506	6619.26
720.1	5651.91
724.692	4217.18
729.281	3620.11
733.867	3110.3
738.451	2942.64
743.032	2300.03
747.61	2278.58
752.186	1851.22
756.759	1769.34
761.329	960.461
765.897	1050.66
770.462	1098.71
775.025	1453.14
779.585	1489.49
784.142	2097.22
788.697	1803.53
793.249	2099.44
797.799	1790.99
802.346	1356.21
806.89	1152.24
811.432	596.531
815.971	289.262
820.508	402.57
825.042	449.375
829.574	600.211
834.103	176.598
838.63	257.062
843.153	325.504
847.675	35.668
852.194	185.398
856.71	102.129
861.224	62.8359
865.735	275.016
870.244	193.508
874.75	192.785
879.254	192.699
883.755	169.562
888.254	180.875
892.75	280.086
897.244	220.141
901.735	385.769
906.223	544.352
910.71	92.7305
915.193	400.637
919.675	496.676
924.153	719.664
928.63	641.398
933.104	395.965
937.575	606.426
942.044	635.477
946.51	367.25
950.974	622.008
955.436	550.461
959.895	729.418
964.352	900.91
968.806	1907.5
973.258	1781.16
977.707	2643.16
982.154	3075.44
986.599	3820
991.041	3577.8
995.481	6037.62
999.918	7425.15
1004.35	10171.8
1008.78	9193.39
1013.22	8214.5
1017.64	7695.68
1022.07	9120.44
1026.49	14748
1030.91	25666.3
1035.33	30686.3
1039.75	23765.2
1044.16	14927.3
1048.57	9653.18
1052.98	7438.09
1057.39	6001.91
1061.79	5095.75
1066.19	5066.78
1070.59	4510.61
1074.99	4842.22
1079.38	5726.64
1083.78	6190.84
1088.16	7478.85
1092.55	8126.67
1096.94	8174.31
1101.32	7561.78
1105.7	7169.09
1110.08	5712.25
1114.46	3609.27
1118.83	2298.64
1123.2	739.727
1127.57	640.336
1131.94	334.406
1136.3	452.109
1140.66	297.789
1145.03	116.898
1149.38	80.0234
1153.74	174.227
1158.09	44.6094
1162.44	85.1016
1166.79	137.125
1171.14	36.7891
1175.48	145.703
1179.82	225.609
1184.16	459.438
1188.5	129.789
1192.84	303.68
1197.17	465.117
1201.5	196.555
1205.83	510.055
1210.15	528.719
1214.48	250.914
1218.8	453.773
1223.12	430.148
1227.44	387.898
1231.75	271.43
1236.07	479.758
1240.38	407.125
1244.68	871.875
1248.99	552.758
1253.3	540.875
1257.6	537.148
1261.9	264.57
1266.2	409.82
1270.49	751.156
1274.79	1027.66
1279.08	1433.67
1283.37	1904.92
1287.65	1993.3
1291.94	2567.37
1296.22	1979.31
1300.5	1632.88
1304.78	1485.12
1309.05	1235.84
1313.33	860.336
1317.6	1253.54
1321.87	982.688
1326.14	661.18
1330.4	981.539
1334.67	557.773
1338.93	389.023
1343.19	584.328
1347.44	445.672
1351.7	816.07
1355.95	13.5
1360.2	539.922
1364.45	577.766
1368.7	641
1372.94	302.672
1377.18	14.2734
1381.42	51.1328
1385.66	264.219
1389.9	44.8438
1394.13	352.539
1398.37	55.7812
1402.6	713.703
1406.82	119.094
1411.05	227.852
1415.27	259.359
1419.49	146.117
1423.71	357.055
1427.93	928.602
1432.15	869.938
1436.36	1333.98
1440.57	2043.77
1444.78	2494.16
1448.99	2075.94
1453.19	1993.68
1457.4	1349.24
1461.6	1310.25
1465.8	1256.41
1469.99	697.062
1474.19	845.914
1478.38	682.555
1482.58	998.25
1486.77	246.133
1490.95	963.938
1495.14	650.523
1499.32	670.438
1503.5	651.523
1507.68	941.836
1511.86	758.93
1516.03	894.453
1520.21	631.594
1524.38	575.188
1528.55	659.75
1532.72	595.945
1536.88	310.18
1541.05	289.352
1545.21	429.898
1549.37	522.352
1553.53	328.211
1557.68	559.484
1561.84	678.367
1565.99	354.281
1570.14	678.156
1574.29	472.242
1578.43	4.3125
