Measurement: Raman, 514 nm, ccw, Raman Data Processed
Mineral: Fluorophlogopite
Rruff sample: R040042
Ideal chemistry: KMg_3_(Si_3_Al)O_10_F_2_
Locality: Franklin, Sussex County, New Jersey, USA
Source: University of Arizona Mineral Museum
Description: Brown flattened hexagonal prism, polytype 1M
Measured chemistry: (K_0.92_Na_0.08_)_Σ=1_(Mg_2.95_Fe_0.05_)_Σ=3_(Si_3.00_Al_1.00_)O_10_(F_1.40_(OH)_0.60_)_Σ=2_; trace amounts of Ti; OH estimated by charge balance
Pin_id: L00310
Orientation: Laser parallel to c* (0 0 1). Fiducial mark perpendicular to laser is parallel to -a [-1 0 0]
Raman shift (cm-1)	intensity
148.468	0
153.377	72.3594
158.283	197.424
163.187	195.727
168.088	192.156
172.987	760.307
177.884	1056.17
182.778	2363.03
187.67	5382.48
192.559	13052.1
197.445	23924.1
202.33	21712.8
207.211	9240.16
212.091	3726.8
216.967	1467.27
221.842	617.252
226.713	295.103
231.583	260.768
236.449	8.7168
241.314	52.209
246.176	19.4375
251.035	72.6035
255.892	375.377
260.746	478.383
265.598	1929.43
270.448	4397.46
275.295	8814.55
280.139	15235.6
284.981	11369.7
289.82	4686.77
294.657	2104.24
299.492	2186.56
304.324	2439.77
309.153	4308.36
313.98	7239.99
318.805	10167.6
323.627	12329
328.446	11052.9
333.263	7810.23
338.078	4432.36
342.89	3096.38
347.699	2150.52
352.506	1884.41
357.311	1700.72
362.113	1899.37
366.912	2141.5
371.709	3013.68
376.504	2556.91
381.295	1741.17
386.085	1165.92
390.872	930.092
395.656	855.99
400.438	820.51
405.218	703.24
409.994	611.049
414.769	257.424
419.541	394.594
424.31	237.736
429.077	375.473
433.841	336.252
438.603	599.418
443.362	632.711
448.119	1043.96
452.873	984.525
457.625	1214.45
462.374	801.793
467.121	880.449
471.865	413.613
476.607	42.5547
481.346	465.035
486.082	17.1055
490.816	36.8906
495.548	506.531
500.277	624.805
505.003	954.055
509.727	1150.38
514.449	1617.65
519.168	1322.59
523.884	840.188
528.598	363.445
533.309	33.6641
538.018	205.684
542.724	161.731
547.428	217.359
552.129	338.57
556.828	313.418
561.524	310.008
566.217	241.441
570.909	492.707
575.597	266.141
580.283	104.516
584.966	131.316
589.647	150.719
594.326	93.2695
599.001	80.4492
603.675	58.7266
608.345	332.32
613.014	734.731
617.679	887.68
622.342	1326.99
627.003	1905.58
631.661	3383.17
636.316	4549
640.969	5394.65
645.62	5589.98
650.267	5474.03
654.913	6127.73
659.555	7140.14
664.196	8900.19
668.833	11623.9
673.468	17155.8
678.101	26586
682.731	35886.7
687.358	37374.3
691.983	28691.2
696.605	18559.2
701.225	10976.6
705.842	6537.33
710.457	4368.61
715.069	3181.77
719.679	2380.15
724.286	2105.52
728.89	1871.3
733.492	1482.01
738.091	2010.05
742.688	1449.62
747.282	1508.99
751.874	1212.88
756.463	1621.16
761.05	1128.1
765.634	1219.67
770.215	1248.27
774.794	959.684
779.37	1141.83
783.944	1618.4
788.515	1600.35
793.084	1417.02
797.65	1489.66
802.213	969.406
806.774	864.559
811.332	888.508
815.888	771.481
820.441	688.297
824.992	171.691
829.54	171.238
834.085	221.832
838.628	278.461
843.169	163.75
847.706	55.5579
852.242	124.211
856.774	31.5117
861.304	221.894
865.832	78.7578
870.357	59.7305
874.879	10.9023
879.399	23.8398
883.916	109.379
888.431	294.363
892.943	316.953
897.452	384.945
901.959	354.383
906.463	240.215
910.965	370.375
915.464	222.914
919.961	209.824
924.455	456.133
928.946	522.082
933.435	369.578
937.922	555.273
942.405	353.16
946.886	445.199
951.365	529.453
955.841	339.734
960.314	251.992
964.785	675.688
969.253	260.535
973.719	315.094
978.182	650.992
982.642	703.231
987.1	663.731
991.556	703.484
996.008	721.562
1000.46	1021.93
1004.91	1109.79
1009.35	1130.49
1013.79	1222.08
1018.23	1002.66
1022.67	1042.17
1027.11	1053.76
1031.54	1423.72
1035.97	2671.13
1040.39	1959.18
1044.82	1492.59
1049.24	1412
1053.66	1201.32
1058.08	1346.97
1062.49	1142.04
1066.9	1380.52
1071.31	1553.38
1075.71	2031.34
1080.12	2535.45
1084.52	3679.5
1088.92	4897.31
1093.31	5129.58
1097.71	5011.68
1102.1	4796.17
1106.48	4688.55
1110.87	3536.35
1115.25	2266.32
1119.63	1605.23
1124.01	1152.27
1128.39	638.481
1132.76	203.426
1137.13	142.66
1141.5	47.1484
1145.86	8.39453
1150.22	120.812
1154.58	58.4688
1158.94	74.4688
1163.29	7.71094
1167.64	176.406
1171.99	254.082
1176.34	342.441
1180.68	225.481
1185.03	230.981
1189.36	249.953
1193.7	237.094
1198.03	70.0039
1202.36	139.598
1206.69	327.59
1211.02	439.508
1215.34	115.019
1219.66	293.949
1223.98	10.3203
1228.3	3.83594
1232.61	198.688
1236.92	277.863
1241.22	275.641
1245.53	498.144
1249.83	508.387
1254.13	211.57
1258.43	447.543
1262.72	97.0312
1267.02	293.391
1271.3	358.852
1275.59	825.434
1279.88	757.582
1284.16	541.445
1288.43	636.742
1292.71	722.965
1296.98	560.371
1301.26	738.988
1305.52	1013.53
1309.79	750.484
1314.05	580.719
1318.31	632.391
1322.57	807.273
1326.83	725.25
1331.08	336.008
1335.33	470.812
1339.58	671.094
1343.82	383.125
1348.07	390.539
1352.31	943.844
1356.54	351.82
1360.78	521.969
1365.01	67.9688
1369.24	625.023
1373.46	661.188
1377.69	238.273
1381.91	667.492
1386.13	417.555
1390.35	550.789
1394.56	348.57
1398.77	188.555
1402.98	454.758
1407.18	31.3047
1411.39	199.359
1415.59	341.555
1419.79	350.07
1423.98	487.43
1428.17	484.531
1432.36	516
1436.55	334.844
1440.74	467.109
1444.92	363.75
1449.1	199.68
1453.28	59.6641
1457.45	325.891
1461.62	60.6328
1465.79	241.984
1469.96	556.227
1474.12	138.984
1478.28	481.258
1482.44	45.4062
1486.6	185.055
1490.75	187
1494.9	525.438
1499.05	406.07
1503.19	255.633
1507.34	425.281
1511.48	378.703
1515.62	352.531
1519.75	611.852
1523.88	620.383
1528.02	1138.6
1532.14	367.953
1536.27	472.492
1540.39	960.5
1544.51	205.109
1548.62	782.977
1552.74	716.672
1556.85	902.492
1560.96	490.539
1565.07	378.82
1569.17	150.195
1573.27	389.734
1577.37	425.531
