Measurement: Raman, 514 nm, ccw, Raman Data Processed
Mineral: Fluorapatite
Rruff sample: R040098
Ideal chemistry: Ca_5_(PO_4_)_3_F
Locality: Cerro de Mercado mine, Durango, Mexico
Source: Marcus Origlieri
Description: Pale yellow short hexagonal prism
Measured chemistry: Ca_5.00_((P_0.98_Si_0.01_S_0.01_)O_4_)_3_F_1.00_
Pin_id: L00293
Orientation: Laser parallel to c* (0 0 1). Fiducial mark perpendicular to laser is parallel to -a [-1 0 0]
Raman shift (cm-1)	intensity
59.652	0
64.623	13.8444
69.591	43.3171
74.557	348.872
79.52	323.81
84.48	45.9948
89.438	1.67505
94.393	41.526
99.345	101.582
104.294	21.1062
109.241	47.5968
114.185	392.327
119.126	280.66
124.064	41.8319
129	183.218
133.933	462.849
138.864	1047.99
143.791	589.414
148.716	311.946
153.638	472.506
158.558	669.044
163.475	415.541
168.389	347.91
173.3	301.026
178.209	69.886
183.115	15.4904
188.018	12.8395
192.918	12.0682
197.816	10.032
202.711	78.8832
207.604	140.962
212.494	180.426
217.381	116.582
222.265	121.123
227.147	165.206
232.026	302.014
236.902	304.166
241.775	196.706
246.646	182.626
251.514	180.828
256.38	268.8
261.243	571.593
266.103	940.313
270.96	725.079
275.815	428.793
280.667	220.235
285.516	203.501
290.363	158.589
295.207	195.489
300.048	307.197
304.887	449.707
309.723	460.018
314.556	388.126
319.387	193.031
324.215	175.643
329.04	123.284
333.862	75.9618
338.682	87.8092
343.5	36.9225
348.314	29.7352
353.126	67.9601
357.935	9.92883
362.742	21.1584
367.546	61.4563
372.347	22.2803
377.145	41.6355
381.941	6.0249
386.735	50.5283
391.525	42.6853
396.313	71.834
401.098	56.8074
405.881	94.9722
410.661	37.0251
415.438	154.599
420.213	153.494
424.985	238.344
429.754	384.801
434.521	613.003
439.285	1065.96
444.046	1553.67
448.805	1657.14
453.561	1074.38
458.315	606.363
463.065	439.099
467.813	236.606
472.559	168.826
477.302	133.475
482.042	122.406
486.78	119.654
491.515	37.0339
496.247	5.45068
500.977	22.967
505.704	69.865
510.428	14.9011
515.15	22.5425
519.869	7.18042
524.586	57.6194
529.3	70.5305
534.011	2.80103
538.719	12.8633
543.425	62.156
548.129	12.8196
552.83	25.9783
557.528	88.0239
562.223	118.103
566.916	160.729
571.607	367.545
576.294	1177.64
580.979	2531.31
585.662	886.885
590.341	587.076
595.019	441.111
599.693	503.543
604.365	1493.45
609.035	1334.44
613.701	839.063
618.366	646.807
623.027	314.934
627.686	210.912
632.342	105.322
636.996	78.3276
641.647	80.9851
646.296	184.369
650.942	204.425
655.585	227.742
660.226	195.25
664.864	222.39
669.499	114.805
674.132	90.717
678.763	88.5059
683.39	67.2004
688.015	97.5083
692.638	13.5708
697.258	60.957
701.875	48.376
706.49	40.3677
711.102	45.106
715.712	51.6543
720.319	32.9292
724.923	60.5464
729.525	30.352
734.124	99.7607
738.721	45.9688
743.315	23.5669
747.907	4.26269
752.496	10.3462
757.082	113.188
761.666	59.5527
766.247	33.9429
770.826	3.62695
775.402	26.8794
779.975	64.9829
784.546	47.7886
789.115	79.0684
793.681	8.52783
798.244	92.0273
802.804	27.7734
807.363	6.57471
811.918	40.2983
816.471	2.76318
821.022	39.1719
825.569	30.6724
830.115	132.665
834.657	65.2256
839.198	67.9268
843.735	154.307
848.27	36.7319
852.803	234.04
857.333	286.107
861.86	223.575
866.385	162.49
870.907	86.4492
875.427	102.952
879.944	84.2481
884.459	7.6958
888.971	2.29541
893.481	36.9932
897.988	11.6729
902.492	47.5
906.994	69.145
911.493	21.3623
915.99	82.4038
920.485	4.31836
924.976	69.4443
929.466	83.314
933.952	93.6548
938.436	204.775
942.918	555.924
947.397	981.018
951.874	1930.47
956.348	6047.23
960.819	25566.2
965.288	36191.1
969.755	10138.5
974.219	3114.26
978.68	1061.7
983.139	468.402
987.595	303.043
992.049	135.07
996.501	76.7559
1000.95	59.4482
1005.4	300.925
1009.84	523.027
1014.28	289.703
1018.72	151.596
1023.16	359.435
1027.59	680.426
1032.02	1388.77
1036.45	722.472
1040.88	347.581
1045.3	213.087
1049.72	346.057
1054.14	377.485
1058.56	1194.15
1062.97	656.841
1067.38	191.076
1071.79	255.87
1076.19	552.7
1080.6	809.898
1085	288.971
1089.4	75.3887
1093.79	120.454
1098.19	60.8086
1102.58	26.0293
1106.97	30.5586
1111.35	190.602
1115.74	202.572
1120.12	84.2852
1124.5	181.47
1128.87	87.8311
1133.25	169.951
1137.62	166.073
1141.99	227.78
1146.35	217.065
1150.72	198.096
1155.08	178.043
1159.44	251.667
1163.79	146.932
1168.15	49.9492
1172.5	131.101
1176.85	195.762
1181.19	182.236
1185.54	152.998
1189.88	85.6582
1194.22	33.6435
1198.55	142.881
1202.89	39.75
1207.22	72.0684
1211.55	188.248
1215.88	180.481
1220.2	86.5693
1224.52	182.955
1228.84	243.023
1233.16	247.447
1237.47	256.396
1241.78	134.228
1246.09	137.043
1250.4	97.9658
1254.7	212.556
1259.01	126.126
1263.31	146.927
1267.6	136.827
1271.9	296.517
1276.19	192.09
1280.48	294.948
1284.77	121.058
1289.05	164.144
1293.33	29.0283
1297.61	7.48731
1301.89	131.717
1306.16	221.256
1310.44	303.899
1314.71	199.499
1318.97	187.467
1323.24	168.65
1327.5	127.566
1331.76	114.293
1336.02	27.0439
1340.28	16.0537
1344.53	201.826
1348.78	210.098
1353.03	133.757
1357.27	229.643
1361.52	60.9541
1365.76	145.832
1370	119.522
1374.23	144.572
1378.47	252.633
1382.7	238.451
1386.93	177.781
1391.15	333.353
1395.38	51.7676
1399.6	200.992
1403.82	392.736
1408.03	237.519
1412.25	295.162
1416.46	282.254
1420.67	162.307
1424.88	198.961
1429.08	196.471
1433.28	53.9805
1437.48	246.721
1441.68	215.307
1445.87	143.357
1450.07	127.885
1454.26	168.801
1458.44	165.959
1462.63	34.5371
1466.81	57.0664
1470.99	8.50391
1475.17	29.7461
1479.34	152.473
1483.52	190.305
1487.69	144.887
1491.86	112.029
1496.02	121.359
1500.19	142.42
1504.35	114.482
1508.51	47.8672
1512.66	225.918
1516.82	60.8809
1520.97	397.477
1525.12	175.701
1529.26	242.49
1533.41	295.797
1537.55	170.986
1541.69	157.312
1545.83	312.769
1549.96	212.611
1554.09	258.412
1558.22	181.188
1562.35	247.865
1566.48	19.0254
1570.6	347.066
1574.72	142.141
