Measurement: Raman, 514 nm, depolarized, Raman Data Processed
Mineral: Fluorapatite
Rruff sample: R060333
Ideal chemistry: Ca_5_(PO_4_)_3_F
Locality: Lovozero Massif, Kola Peninsula, U.S.S.R.
Source: Michael Scott
Description: Colorless fragment associated with red villiaumite
Measured chemistry: (Ca_4.29_Sr_0.47_Na_0.12_Ce_0.07_La_0.06_)_Σ=5_((P_0.99_Si_0.01_)_Σ=1_O_4_)_3_F_1.00_
Pin_id: L00852
Orientation: Laser parallel to c* (0 0 1). Fiducial mark perpendicular to laser is parallel to -a [-1 0 0]
Raman shift (cm-1)	intensity
164.221	0
169.145	56.668
174.066	20.894
178.984	33.2866
183.9	35.0395
188.812	55.7539
193.722	52.1582
198.628	71.5752
203.532	132.003
208.433	128.044
213.331	114.857
218.226	93.9517
223.118	136.063
228.007	163.877
232.893	210.711
237.777	317.231
242.657	215.027
247.535	287.748
252.41	473.063
257.281	554.44
262.15	550.821
267.017	501.706
271.88	265.338
276.74	227.293
281.598	305.032
286.453	262.607
291.304	247.102
296.153	224.334
301	309.207
305.843	412.066
310.683	303.14
315.521	191.759
320.356	168.018
325.188	129.003
330.017	149.611
334.843	30.1514
339.666	62.0444
344.487	36.9536
349.305	98.8916
354.12	18.1602
358.932	128.243
363.741	40.2725
368.548	164.94
373.352	201.101
378.153	160.401
382.951	55.2798
387.746	155.553
392.539	139.76
397.328	48.919
402.115	58.8852
406.899	84.813
411.681	175.439
416.459	156.657
421.235	246.323
426.008	218.247
430.779	444.688
435.546	836.484
440.311	1089.47
445.073	1480.88
449.832	1250.62
454.588	940.621
459.342	680.297
464.093	502.965
468.841	272.99
473.587	281.619
478.329	214.654
483.069	247.226
487.806	141.755
492.541	140.605
497.272	172.478
502.001	49.4072
506.728	44.9902
511.451	99.583
516.172	151.665
520.89	30.0957
525.605	252.702
530.318	17.8818
535.028	118.601
539.735	1.5166
544.44	202.197
549.141	228.14
553.841	125.805
558.537	6.05273
563.231	371.095
567.922	469.392
572.61	926.644
577.296	1442.62
581.979	1751.27
586.659	752.384
591.336	690.587
596.011	716.046
600.683	995.724
605.353	1298.39
610.02	1331.62
614.684	706.084
619.345	557.989
624.004	187.535
628.661	83.666
633.314	264.256
637.965	211.068
642.613	315.411
647.259	482.603
651.902	238.089
656.542	494.386
661.18	426.978
665.815	349.969
670.447	226.188
675.077	282.348
679.704	132.686
684.328	149.298
688.95	157.945
693.569	120.753
698.186	101.553
702.8	6.26953
707.411	161.188
712.02	198.148
716.626	15.4307
721.23	151.598
725.83	119.959
730.429	162.047
735.024	95.209
739.618	71.1465
744.208	120.922
748.796	143.453
753.381	59.6113
757.964	27.6914
762.544	28.0723
767.122	156.848
771.697	67.2441
776.269	212.152
780.839	92.5371
785.406	80.6602
789.971	217.799
794.533	183.484
799.093	388.516
803.65	318.039
808.204	127.478
812.756	85.2148
817.305	124.568
821.852	72.6699
826.396	83.4863
830.938	175.703
835.477	187.738
840.013	235.678
844.547	157.141
849.079	145.586
853.608	27.6699
858.134	83.2324
862.658	153.012
867.179	251.998
871.698	158.293
876.214	91.207
880.728	305.914
885.239	254.908
889.748	358.269
894.254	323.576
898.758	194.717
903.259	16.1523
907.758	243.275
912.254	133.742
916.748	74.4473
921.239	73.8359
925.728	305.773
930.214	422.516
934.698	226.127
939.179	374.893
943.657	1148.49
948.134	2030.28
952.607	5705.36
957.079	15249.4
961.548	26170.1
966.014	19372.6
970.478	7911.29
974.939	2636.78
979.398	841.062
983.854	226.266
988.308	45.9219
992.76	9.90625
997.209	227.748
1001.65	7.76758
1006.1	131.94
1010.54	381.182
1014.98	12.8164
1019.42	484.193
1023.85	564.385
1028.28	494.57
1032.71	792.019
1037.14	393.277
1041.56	343.582
1045.99	384.897
1050.41	634.916
1054.82	644.949
1059.24	610.311
1063.65	360.092
1068.06	291.435
1072.47	438.242
1076.87	520.016
1081.28	494.728
1085.68	243.451
1090.08	153.121
1094.47	78.7559
1098.86	182.231
1103.25	103.654
1107.64	150.203
1112.03	66.9492
1116.41	174.758
1120.79	416.152
1125.17	277.664
1129.55	26.9492
1133.92	341.141
1138.29	41.6406
1142.66	67.2031
1147.03	62.9375
1151.39	52.6406
1155.76	272.891
1160.12	354.191
1164.47	719.984
1168.83	330.945
1173.18	421.586
1177.53	200.676
1181.88	408.906
1186.22	478.16
1190.57	391.543
1194.91	603.914
1199.25	485.269
1203.58	215.617
1207.92	354.941
1212.25	254.258
1216.58	615.559
1220.9	451.856
1225.23	379.148
1229.55	488.227
1233.87	254.43
1238.19	586.762
1242.5	101.457
1246.81	22.2031
1251.12	91.1211
1255.43	182.387
1259.74	406.734
1264.04	519.223
1268.34	369.766
1272.64	253.426
1276.94	248.188
1281.23	413.992
1285.52	89.7031
1289.81	279.301
1294.1	124.816
1298.39	156.75
1302.67	80.5938
1306.95	383.469
1311.23	639.473
1315.5	475.559
1319.78	391.672
1324.05	720.82
1328.32	486.008
1332.58	642.227
1336.85	619.492
1341.11	704.809
1345.37	494.156
1349.63	476.559
1353.88	657.309
1358.13	655.941
1362.38	458.769
1366.63	382.602
1370.88	363.715
1375.12	475.051
1379.36	442.32
1383.6	549.902
1387.84	509.656
1392.08	701.59
1396.31	549.719
1400.54	484.066
1404.77	594.5
1408.99	438.012
1413.21	514.391
1417.44	451.219
1421.66	395.652
1425.87	706.715
1430.09	421.785
1434.3	525.809
1438.51	425.039
1442.72	562.348
1446.92	664.594
1451.13	408.984
1455.33	321.34
1459.53	466.199
1463.72	507.027
1467.92	243.828
1472.11	134.746
1476.3	23.9766
1480.49	613.391
1484.67	185.809
1488.86	38.4023
1493.04	410.301
1497.22	143.852
1501.39	53.8047
1505.57	298.055
1509.74	400.231
1513.91	332.766
1518.08	240.231
1522.25	216.887
1526.41	137.094
1530.57	315.828
1534.73	370.094
1538.89	308.016
1543.04	239.773
1547.2	81.875
1551.35	274.512
1555.49	34.4531
1559.64	323.57
1563.79	0
