Measurement: Raman, 514 nm, depolarized, Raman Data Processed
Mineral: Fluorophlogopite
Rruff sample: R040042
Ideal chemistry: KMg_3_(Si_3_Al)O_10_F_2_
Locality: Franklin, Sussex County, New Jersey, USA
Source: University of Arizona Mineral Museum
Description: Brown flattened hexagonal prism, polytype 1M
Measured chemistry: (K_0.92_Na_0.08_)_Σ=1_(Mg_2.95_Fe_0.05_)_Σ=3_(Si_3.00_Al_1.00_)O_10_(F_1.40_(OH)_0.60_)_Σ=2_; trace amounts of Ti; OH estimated by charge balance
Pin_id: L00305
Orientation: Laser parallel to (1 0 1). Fiducial mark perpendicular to laser is parallel to b [0 1 0]
Raman shift (cm-1)	intensity
82.992	0
87.973	10850
92.951	36866.6
97.925	69681.1
102.897	97115.1
107.865	78264.9
112.831	37637.7
117.793	22880.2
122.752	17215.6
127.708	10508.7
132.661	6215.28
137.612	3659.44
142.558	1687.8
147.502	372.562
152.443	1450.69
157.381	1991.07
162.316	1235.17
167.248	763.297
172.176	3861.99
177.102	8610.23
182.025	20759.3
186.944	52073.9
191.861	111896
196.774	164649
201.685	119640
206.593	49588.9
211.497	20406.4
216.399	9885.91
221.297	4886.78
226.193	1908.15
231.085	916.714
235.975	604.586
240.861	93.3086
245.745	545.019
250.625	283.883
255.503	298.906
260.377	2945.62
265.249	7578.48
270.117	17731.2
274.983	36066
279.846	47147.2
284.705	30367.2
289.562	15398.7
294.416	11358.7
299.267	12491.1
304.115	18122.2
308.96	29613.1
313.802	42536.7
318.641	48053.6
323.477	45999.1
328.31	35683.8
333.14	22567.7
337.968	13849.8
342.792	9952.77
347.613	7463.76
352.432	6451
357.248	7224.6
362.06	9703.62
366.87	14905.9
371.677	20515.4
376.481	15820.7
381.282	8791.16
386.08	5402.56
390.876	3824.7
395.668	2621.04
400.458	2806.58
405.244	2056.23
410.028	1725.54
414.809	551.402
419.587	191.75
424.362	63.4023
429.134	437.156
433.904	595.195
438.67	931.719
443.434	1500.95
448.195	2676.82
452.953	3825.25
457.708	4946.31
462.46	5977.04
467.21	5903.43
471.956	3264.94
476.7	53.0273
481.441	948.285
486.179	81.8125
490.914	1530
495.647	3541.72
500.376	5342.44
505.103	6474.03
509.827	7453.66
514.548	6892.95
519.267	4968.98
523.982	2539.2
528.695	1399.98
533.405	623.125
538.112	327.887
542.816	652.773
547.518	195.348
552.217	659.863
556.913	586.082
561.606	629.074
566.296	491.152
570.984	634.508
575.669	29.5938
580.351	283.328
585.03	210.367
589.706	697.527
594.38	374.375
599.051	184.527
603.72	554.008
608.385	1719.97
613.048	3275.75
617.708	5653.08
622.365	8786.83
627.02	13174.1
631.671	18879
636.32	24444.5
640.967	27470.2
645.61	28028
650.251	28965.8
654.889	31924.9
659.525	37279.2
664.157	46319.8
668.787	63612.6
673.414	94018.6
678.039	140813
682.661	175048
687.28	163171
691.896	121084
696.51	76786.8
701.121	45362.7
705.729	27710.8
710.335	18982
714.938	15157.8
719.538	12933
724.136	10740
728.731	9472.2
733.323	8623.96
737.912	8641.17
742.499	7888.68
747.083	7486.6
751.665	6969.29
756.244	6095.37
760.82	5536.23
765.394	5444.19
769.965	4841.12
774.533	5621.37
779.098	6659.84
783.661	7685.28
788.222	7435.7
792.779	7559.11
797.334	7359.53
801.887	5896.97
806.437	4266.17
810.984	3125.51
815.528	2873.25
820.07	2338.28
824.61	1360.11
829.146	1220.45
833.68	312.922
838.212	390.551
842.741	485.309
847.267	134.231
851.79	116.348
856.311	80.7188
860.83	132.363
865.346	102.195
869.859	19.4961
874.369	43.4961
878.877	430.641
883.383	384.762
887.886	98.9609
892.386	77.3555
896.884	445.488
901.379	166.66
905.872	515.043
910.362	461.945
914.849	312.988
919.334	522.926
923.816	405.738
928.296	418.418
932.773	592.945
937.248	400.312
941.72	36.5859
946.19	64.0469
950.657	231.731
955.121	85.207
959.583	204.469
964.042	1735.51
968.499	1648.31
972.954	2813.85
977.405	2770.14
981.855	3566.15
986.301	4133.37
990.746	5470.44
995.187	7882.23
999.627	12220.9
1004.06	16744.9
1008.5	11161.3
1012.93	8972.89
1017.36	7277.95
1021.78	6975.75
1026.21	9334.72
1030.63	15339.8
1035.05	19847.8
1039.47	16035.9
1043.88	10411
1048.29	8130.66
1052.7	7299.22
1057.11	6566.94
1061.51	6801.62
1065.91	7582.43
1070.31	8636.53
1074.71	10063.5
1079.11	12528.5
1083.5	15571.2
1087.89	17645.7
1092.27	19314.7
1096.66	20028.8
1101.04	19673.5
1105.42	17743.6
1109.8	13847.2
1114.17	9200.34
1118.54	5532.03
1122.91	2650.41
1127.28	1281.7
1131.65	768.922
1136.01	152.828
1140.37	101.672
1144.73	338.648
1149.08	165.617
1153.43	172.945
1157.78	446.215
1162.13	77.8906
1166.48	0.78125
1170.82	135.652
1175.16	151.812
1179.5	540.516
1183.84	377.062
1188.17	902.336
1192.5	742.082
1196.83	383.441
1201.15	502.992
1205.48	192.367
1209.8	38.3594
1214.12	166.894
1218.44	298.84
1222.75	609.285
1227.06	1244.29
1231.37	1249.88
1235.68	969.027
1239.98	859.738
1244.29	860.84
1248.59	761.848
1252.88	749.43
1257.18	906.43
1261.47	1125.79
1265.76	1655.05
1270.05	1988.69
1274.34	2211.07
1278.62	3068.13
1282.9	4398.48
1287.18	5531.14
1291.46	5613.57
1295.73	5144.81
1300	4936.6
1304.27	3707.09
1308.54	3192.23
1312.81	3023.98
1317.07	2402.77
1321.33	1869.77
1325.59	1719.41
1329.84	1456.48
1334.09	1220.6
1338.35	947.828
1342.59	940.496
1346.84	764.106
1351.08	1107.04
1355.33	376.129
1359.57	614.352
1363.8	844.469
1368.04	333.707
1372.27	303.219
1376.5	74.2969
1380.73	218.097
1384.95	31.2773
1389.17	76.7734
1393.4	38.3203
1397.62	67.4688
1401.83	28.2695
1406.05	289.211
1410.26	33.0508
1414.47	399.227
1418.67	354.891
1422.88	909.082
1427.08	1045.52
1431.28	2232.17
1435.48	3911.11
1439.68	5301.23
1443.87	5949.41
1448.06	5418.84
1452.25	4705.34
1456.44	4454.13
1460.62	4018.51
1464.8	3152.49
1468.98	1992.65
1473.16	1958.97
1477.34	1310.97
1481.51	1578.11
1485.68	1523.8
1489.85	878.535
1494.02	582.269
1498.18	466.039
1502.34	705.383
1506.5	478.066
1510.66	404.438
1514.82	237.059
1518.97	760.094
1523.12	273.008
1527.27	554.629
1531.42	523.656
1535.56	347.723
1539.7	17.9805
1543.84	121.211
1547.98	278.016
1552.12	542.133
1556.25	1542.25
1560.38	297.227
1564.51	398.266
1568.64	515.523
1572.76	500.383
1576.88	281.383
