Measurement: Raman, 514 nm, depolarized, Raman Data Processed
Mineral: Fluorite
Rruff sample: R040099
Ideal chemistry: CaF_2_
Locality: Rock Candy mine, Grand Forks, British Columbia, Canada
Source: Bob Downs
Description: Pale purple fragment
Measured chemistry: Ca_0.99_F_2.00_
Pin_id: L01716
Orientation: Laser parallel to a* (1 0 0). Fiducial mark perpendicular to laser is parallel to -c [0 0 -1]
Raman shift (cm-1)	intensity
82.15	0
87.101	107.106
92.049	149.124
96.995	270.637
101.939	513.445
106.879	666.588
111.818	544.696
116.753	768.34
121.686	569.427
126.617	426.366
131.545	323.214
136.471	515.002
141.393	1438.4
146.314	2179.3
151.232	1416.91
156.147	386.373
161.06	172.254
165.97	189.992
170.877	174.947
175.782	32.2532
180.685	3.21509
185.585	41.6626
190.482	252.661
195.377	444.498
200.269	267.874
205.158	296.708
210.045	101.904
214.93	178.419
219.812	298.259
224.691	687.467
229.568	715.909
234.442	519.815
239.314	560.192
244.183	1045.45
249.049	379.011
253.913	373.567
258.775	263.827
263.633	1083.63
268.49	287.865
273.343	76.5618
278.194	83.2495
283.043	88.9998
287.889	33.7009
292.732	90.53
297.573	235.722
302.411	539.988
307.247	985.399
312.08	2315.96
316.91	6408.68
321.738	17747.4
326.563	14060
331.386	5447.47
336.206	2783.05
341.024	1975.85
345.839	1679.9
350.651	1639.29
355.461	1816.27
360.268	1836.82
365.073	1731.97
369.875	1631.74
374.674	1409.91
379.471	1224.41
384.266	977.124
389.057	902.007
393.846	619.281
398.633	444.675
403.417	353.904
408.198	251.214
412.977	154.593
417.753	116.221
422.527	76.6646
427.298	90.5376
432.067	35.1567
436.832	25.1016
441.596	29.335
446.356	159.628
451.115	207.975
455.87	154.374
460.623	229.785
465.373	295.913
470.121	307.169
474.866	488.278
479.609	514.852
484.349	466.334
489.086	580.644
493.821	661.586
498.553	686.277
503.283	404.204
508.01	345.487
512.734	226.27
517.456	143.805
522.175	197.173
526.892	92.8149
531.606	44.6172
536.317	54.7651
541.026	84.9556
545.732	85.0225
550.436	88.9531
555.137	268.735
559.835	287.442
564.531	475.538
569.224	362.05
573.915	475.287
578.603	539.095
583.288	335.438
587.971	224.111
592.651	232.583
597.329	212.497
602.004	65.7949
606.676	29.6362
611.346	54.3403
616.013	120.318
620.678	106.463
625.34	86.4443
629.999	10.1592
634.656	81.2588
639.31	37.5767
643.962	88.7793
648.611	35.4888
653.257	117.394
657.901	248.293
662.542	513.467
667.181	1158.97
671.817	1222.32
676.45	1338.63
681.081	1433.74
685.709	2219.35
690.334	2974.19
694.957	3377.22
699.578	3386.44
704.195	4058.83
708.811	4411.45
713.423	4063.27
718.033	3098.48
722.64	2230.07
727.245	1724.82
731.847	1528.9
736.446	1376.47
741.043	1305.56
745.637	1135.1
750.229	1272.33
754.818	1415.88
759.404	1446.6
763.988	1460.8
768.569	1438.35
773.148	1395.1
777.724	1607.6
782.297	1814.49
786.868	1995.95
791.436	2113.89
796.001	2364.4
800.564	2603.9
805.125	2762.22
809.682	2929.61
814.237	3105.66
818.79	3366.78
823.339	3645.49
827.887	3646.78
832.431	4850.71
836.973	8132.42
841.513	8965.26
846.049	8002.3
850.583	6338.93
855.115	4554.68
859.644	1636.73
864.17	547.144
868.694	18.5879
873.215	212.151
877.733	139.85
882.249	54.1094
886.762	275.146
891.273	204.876
895.781	452.693
900.286	615.041
904.789	543.527
909.289	3492.42
913.786	15300.9
918.281	6575.03
922.773	13067
927.263	13905.6
931.75	10643.8
936.234	7287.57
940.716	8105.9
945.195	7055.88
949.672	29089.6
954.146	5111.03
958.617	1967.35
963.086	2216.59
967.552	2357.1
972.015	1729.92
976.476	786.1
980.934	383.74
985.39	82.4502
989.843	50.0283
994.293	61.4268
998.741	238.151
1003.19	766.913
1007.63	1103
1012.07	1517.44
1016.5	2208.66
1020.94	2585.8
1025.37	3169.39
1029.8	3844.7
1034.23	4048.84
1038.65	4076.54
1043.07	4287.41
1047.49	4449.28
1051.91	4427.22
1056.32	4017.32
1060.73	3402.66
1065.14	3056.29
1069.55	2578.29
1073.95	1902.69
1078.35	1667.56
1082.75	1079.95
1087.14	599.908
1091.54	439.478
1095.93	15.292
1100.31	148.458
1104.7	333.376
1109.08	404.567
1113.46	16.0234
1117.84	244.359
1122.21	791.643
1126.58	1540.24
1130.95	1985.09
1135.32	3022.19
1139.68	4706.44
1144.04	6105.61
1148.4	6714.25
1152.76	7145.79
1157.11	6412.34
1161.46	5979.55
1165.81	5572.05
1170.16	5137.12
1174.5	4167.32
1178.84	3221.9
1183.18	1933.2
1187.51	1276.62
1191.84	923.162
1196.17	616.768
1200.5	378.899
1204.83	300.623
1209.15	502.903
1213.47	630.583
1217.78	862.597
1222.1	1087.9
1226.41	1403.2
1230.72	1693.4
1235.02	1963.83
1239.33	2426.64
1243.63	3128.44
1247.92	3991.43
1252.22	4892.48
1256.51	5586.76
1260.8	5771
1265.09	5844.01
1269.38	5688.62
1273.66	5798.62
1277.94	6134.71
1282.21	6417.79
1286.49	7180.85
1290.76	8246.09
1295.03	8818.24
1299.3	8365.72
1303.56	7471.89
1307.82	6714.38
1312.08	6768.48
1316.34	7044.32
1320.59	6942.56
1324.84	6273.88
1329.09	5153.96
1333.34	4641.93
1337.58	3988.73
1341.82	3510.28
1346.06	3249.73
1350.29	3292.93
1354.53	4397.54
1358.76	8436.06
1362.98	11313.2
1367.21	5217.64
1371.43	2649.43
1375.65	2514.78
1379.87	3597.13
1384.08	5130.7
1388.29	7131.77
1392.5	5386.68
1396.71	7369.22
1400.91	3002.42
1405.11	725.345
1409.31	293.405
1413.51	456.057
1417.7	512.298
1421.89	281.747
1426.08	745.316
1430.26	720.483
1434.44	82.1123
1438.62	198.413
1442.8	1863.14
1446.98	4245.31
1451.15	3020.62
1455.32	2227.92
1459.49	2366.8
1463.65	3658.01
1467.81	3854.01
1471.97	4007.86
1476.13	4450.45
1480.28	4943.34
1484.43	5050.28
1488.58	4651.05
1492.73	4535.81
1496.87	4493.97
1501.01	4407.15
1505.15	4897.39
1509.29	5321.42
1513.42	5525.2
1517.55	4656.89
1521.67	3233.28
1525.8	2109.12
1529.92	1226.7
1534.04	602.817
1538.16	324.523
1542.27	55.1504
1546.39	11.669
1550.49	2.94336
1554.6	91.1055
