Measurement: Raman, 514 nm, depolarized, Raman Data Processed
Mineral: Fluorapatite
Rruff sample: R050340
Ideal chemistry: Ca_5_(PO_4_)_3_F
Locality: Buckingham, Quebec, Canada
Source: California Institute of Technology
Description: Blue fragment
Measured chemistry: Ca_5.00_((P_0.98_Si_0.02_)O_4_)_3_F_1.00_
Pin_id: L00565
Orientation: Laser parallel to -a* (-1 0 0). Fiducial mark perpendicular to laser is parallel to -c [0 0 -1]
Raman shift (cm-1)	intensity
108.28	0
113.208	3.30518
118.134	90.3577
123.058	22.012
127.979	315.461
132.898	607.064
137.814	977.123
142.728	981.201
147.639	629.685
152.549	481.521
157.455	588.031
162.359	492.841
167.261	447.702
172.161	466.146
177.058	426.856
181.952	410.601
186.845	318.029
191.734	348.289
196.622	343.601
201.507	591.055
206.389	824.69
211.269	881.514
216.147	703.523
221.022	520.704
225.895	534.038
230.765	646.118
235.633	496.49
240.498	472.912
245.361	330.676
250.222	343.641
255.08	324.328
259.936	532.181
264.789	714.744
269.64	736.398
274.488	680.918
279.334	623.661
284.178	710.961
289.019	647.581
293.857	657.449
298.693	737.513
303.527	677.735
308.358	611.086
313.187	592.544
318.013	362.082
322.837	213.662
327.659	160.249
332.478	59.8398
337.294	80.4414
342.108	2.05176
346.92	73.001
351.729	7.83496
356.535	76.8818
361.34	18.3379
366.141	31.6352
370.94	83.2485
375.737	49.1519
380.531	42.5269
385.323	12.9893
390.113	25.0024
394.9	74.0181
399.684	107.144
404.466	148.009
409.245	323.313
414.022	390.428
418.797	797.436
423.569	1757.42
428.338	2788.39
433.105	2637.33
437.87	1943.21
442.632	1902.03
447.391	1994.78
452.149	1619.46
456.903	1124.1
461.655	723.664
466.405	524.143
471.152	244.54
475.897	275.904
480.639	205.231
485.378	158.453
490.116	151.846
494.85	49.6562
499.582	58.1401
504.312	0.134766
509.039	53.2559
513.764	48.8047
518.486	57.958
523.206	28.8227
527.923	104.939
532.638	70.731
537.35	1.31006
542.059	1.94873
546.766	85.9995
551.471	31.042
556.173	125.697
560.873	125.71
565.57	292.75
570.264	493.401
574.957	1072.78
579.646	2255.25
584.333	2674.41
589.018	4176.9
593.7	2552.56
598.379	1465
603.056	2020.24
607.73	1999.39
612.402	959.236
617.072	600.716
621.739	364.552
626.403	307.079
631.065	298.095
635.724	263.685
640.381	212.818
645.035	174.416
649.687	313.683
654.336	139.606
658.983	197.369
663.627	55.8257
668.268	62.9214
672.907	115.361
677.544	56.0293
682.178	194.419
686.809	17.0684
691.438	118.217
696.065	5.60205
700.688	155.471
705.31	110.675
709.929	50.8198
714.545	94.7925
719.158	118.777
723.77	52.8535
728.378	181.623
732.984	140.565
737.588	91.1509
742.189	55.4273
746.787	15.5952
751.383	137.434
755.976	53.9546
760.567	143.466
765.155	53.9766
769.741	156.087
774.324	111.09
778.904	109.8
783.482	14.335
788.058	185.004
792.631	36.1773
797.201	121.752
801.769	113.674
806.334	20.2329
810.897	9.84473
815.457	165.515
820.014	45.6348
824.569	56.7861
829.122	19.9072
833.671	88.0654
838.219	0.040039
842.763	40.9033
847.306	41.5322
851.845	93.4668
856.382	158.848
860.917	179.783
865.448	210.559
869.978	262.513
874.505	267.552
879.029	33.6719
883.55	71.7656
888.069	21.7041
892.586	36.7715
897.1	58.3643
901.611	12.2842
906.12	62.207
910.626	45.1035
915.129	47.5068
919.63	109.19
924.129	54.916
928.625	122.093
933.118	165.367
937.609	412.609
942.097	805.581
946.582	1504.27
951.065	2784.11
955.546	8717.97
960.023	29888.2
964.499	52525.6
968.971	19972.3
973.441	5013.98
977.909	1357.73
982.374	472.481
986.836	269.692
991.295	195.065
995.753	122.582
1000.21	288.162
1004.66	563.798
1009.11	1004.94
1013.55	609.352
1018	323.217
1022.44	383.852
1026.88	774.558
1031.32	1250.3
1035.75	1600.03
1040.18	2047.43
1044.61	2135.98
1049.04	3675.73
1053.46	4714.45
1057.88	2631.66
1062.3	1493.64
1066.71	1127.71
1071.13	1327.82
1075.54	1913.07
1079.94	2173.42
1084.35	1284.91
1088.75	745.695
1093.15	313.098
1097.55	178.133
1101.94	56.1807
1106.34	18.542
1110.73	44.9092
1115.11	31.3672
1119.5	43.5488
1123.88	205.422
1128.26	92.9971
1132.63	119.758
1137.01	18.2236
1141.38	75.7266
1145.75	241.018
1150.12	152.743
1154.48	37.3799
1158.84	142.071
1163.2	177.571
1167.55	121.341
1171.91	40.5176
1176.26	2.71777
1180.61	5.24023
1184.95	0.764648
1189.29	134.017
1193.63	117.086
1197.97	96.1397
1202.31	131.069
1206.64	137.78
1210.97	162.622
1215.29	69.6699
1219.62	223.412
1223.94	92.126
1228.26	155.765
1232.57	127.609
1236.89	166.955
1241.2	134.957
1245.51	82.541
1249.81	10.5879
1254.12	206.964
1258.42	49.1055
1262.72	81.1416
1267.01	11.1924
1271.3	178.841
1275.59	69.9082
1279.88	166.712
1284.17	140.555
1288.45	122.537
1292.73	26.7422
1297.01	87.4053
1301.28	118.371
1305.55	75.7197
1309.82	27.8984
1314.09	137.855
1318.35	172.909
1322.61	207.843
1326.87	89.6758
1331.13	156.738
1335.38	198.621
1339.63	24.7803
1343.88	190.306
1348.12	124.859
1352.37	162.582
1356.61	149.047
1360.85	89.1787
1365.08	11.251
1369.31	226.989
1373.54	194.688
1377.77	247.447
1381.99	176.94
1386.22	138.586
1390.43	86.1602
1394.65	309.668
1398.87	41.332
1403.08	60.835
1407.29	172.822
1411.49	280.5
1415.69	116.58
1419.89	245.784
1424.09	251.848
1428.29	250.131
1432.48	167.183
1436.67	178.767
1440.86	175.824
1445.04	232.368
1449.23	121.164
1453.4	265.742
1457.58	91.9834
1461.76	63.2402
1465.93	120.392
1470.1	120.901
1474.26	138.685
1478.43	92.1162
1482.59	311.8
1486.75	158.997
1490.9	171.579
1495.06	215.024
1499.21	104.178
1503.35	202.523
1507.5	64.1182
1511.64	189.752
1515.78	36.6621
1519.92	112.824
1524.05	185.103
1528.18	299.93
1532.31	82.2324
1536.44	144.941
1540.56	117.703
1544.69	132.451
1548.8	61.5371
1552.92	280.719
1557.03	90.8242
1561.14	230.207
1565.25	8.36523
1569.36	65.8594
