Measurement: Raman, 514 nm, depolarized, Raman Data Processed
Mineral: Fluorapatite
Rruff sample: R050274
Ideal chemistry: Ca_5_(PO_4_)_3_F
Locality: Minas Gerais, Brazil
Source: Marcus Origlieri
Description: Aggregate of blue crystal fragments separated by veins of quartz
Measured chemistry: Ca_5.00_((P_0.97_Si_0.02_S_0.01_)O_4_)_3_(F_0.90_Cl_0.10_)
Pin_id: L01565
Orientation: Laser parallel to -a* (-1 0 0). Fiducial mark perpendicular to laser is parallel to -c [0 0 -1]
Raman shift (cm-1)	intensity
108.28	0
111.976	51.335
115.671	79.7456
119.365	178.086
123.058	244.521
126.749	259.204
130.439	432.128
134.127	505.808
137.814	590.229
141.5	529.082
145.184	519.167
148.867	530.912
152.549	445.757
156.229	495.302
159.908	321.295
163.585	335.94
167.261	373.741
170.936	343.312
174.61	370.187
178.282	347.938
181.952	365.647
185.622	279.963
189.29	294.839
192.956	254.189
196.622	220.016
200.286	340.355
203.948	403.211
207.609	301.619
211.269	303.699
214.928	304.44
218.585	441.994
222.24	332.202
225.895	245.297
229.548	350.621
233.199	336.824
236.849	251.566
240.498	325.416
244.146	243.606
247.792	324.385
251.437	358.185
255.08	276.018
258.722	301.697
262.363	381.488
266.002	412.16
269.64	444.815
273.276	444.953
276.912	406.031
280.545	264.97
284.178	329.703
287.809	380.153
291.438	332.268
295.067	356.013
298.693	368.356
302.319	318.275
305.943	352.75
309.566	186.759
313.187	249.283
316.807	168.065
320.426	93.6958
324.043	3.28467
327.659	75.7378
331.273	35.4194
334.886	82.043
338.498	49.7676
342.108	0.018555
345.717	5.77051
349.324	99.8354
352.931	156.651
356.535	53.5942
360.139	5.65723
363.741	154.898
367.341	43.0967
370.94	48.2315
374.538	51.7539
378.135	79.0068
381.73	114.329
385.323	77.0918
388.916	142.07
392.506	25.8213
396.096	99.7734
399.684	220.79
403.271	81.7656
406.856	261.463
410.44	385.776
414.022	576.041
417.603	722.898
421.183	1093.93
424.761	1576.49
428.338	1723.19
431.914	1687.79
435.488	1477.51
439.061	1285.34
442.632	1217.28
446.202	1135.33
449.77	1011.1
453.337	771.362
456.903	518.179
460.467	427.267
464.03	284.825
467.592	224.811
471.152	265.708
474.711	96.3438
478.268	63.1025
481.824	149.315
485.378	46.4727
488.932	96.3877
492.483	223.219
496.034	13.3105
499.582	12.4092
503.13	47.291
506.676	61.3115
510.221	34.1338
513.764	34.5537
517.306	84.2119
520.846	69.1367
524.385	59.5986
527.923	99.0508
531.459	115.116
534.994	121.367
538.527	108.295
542.059	87.6445
545.59	2.69043
549.119	51.8037
552.647	6.76465
556.173	189.337
559.698	191.456
563.222	235.352
566.744	316.491
570.264	667.058
573.784	819.548
577.302	1379.89
580.818	1506.87
584.333	1506.62
587.847	1674.14
591.359	1251.89
594.87	964.296
598.379	752.454
601.887	696.148
605.394	802.096
608.899	926.265
612.402	749.876
615.905	516.923
619.406	388.527
622.905	379.315
626.403	407.563
629.9	457.799
633.395	303.76
636.889	197.002
640.381	476.74
643.872	440.34
647.361	561.982
650.849	220.758
654.336	571.539
657.821	412.984
661.305	314.201
664.787	238.815
668.268	364.106
671.748	424.674
675.226	413.508
678.703	507.451
682.178	380.09
685.652	367.588
689.124	236.861
692.595	358.562
696.065	392.477
699.533	194.519
702.999	397.799
706.465	250.348
709.929	329.992
713.391	212.508
716.852	431.115
720.311	181.072
723.77	526.916
727.226	500.117
730.681	391.543
734.135	463.963
737.588	338.065
741.039	306.693
744.488	281.516
747.936	537.488
751.383	257.435
754.828	158.049
758.272	437.863
761.714	494.478
765.155	330.975
768.595	372.74
772.033	332.732
775.469	345.164
778.904	434.947
782.338	242.486
785.77	383.041
789.201	422.772
792.631	320.527
796.059	304.932
799.485	384.211
802.91	404.541
806.334	389.139
809.756	433.941
813.177	172
816.596	395.664
820.014	166.5
823.431	289.84
826.846	398.816
830.259	148.365
833.671	225.262
837.082	115.303
840.491	52.6055
843.899	30.8652
847.306	217.435
850.71	40.3965
854.114	73.3613
857.516	67.9102
860.917	116.295
864.316	106.211
867.713	289.119
871.11	148.303
874.505	493.58
877.898	197.424
881.29	47.6211
884.68	201.242
888.069	34.4238
891.457	18.2012
894.843	24.7852
898.228	10.3516
901.611	133.969
904.993	229.473
908.373	55.7832
911.752	155.312
915.129	71.457
918.505	100.074
921.88	56.2812
925.253	208.662
928.625	137.236
931.995	316.975
935.364	121.961
938.731	461.154
942.097	720.023
945.461	1198.94
948.824	2078.77
952.186	4948.62
955.546	11171.6
958.904	18500.1
962.261	20216.8
965.617	15177.5
968.971	7488.79
972.324	3270.68
975.675	1428.57
979.025	587.078
982.374	530.914
985.72	199.457
989.066	207.941
992.41	0.824219
995.753	56.6172
999.094	69.8125
1002.43	126.617
1005.77	281.117
1009.11	104.941
1012.44	408.465
1015.78	200.981
1019.11	470.469
1022.44	599.582
1025.77	730.883
1029.1	809.84
1032.42	1005.05
1035.75	855.133
1039.07	1228.44
1042.4	1212.95
1045.72	1457.52
1049.04	1482.47
1052.35	947.551
1055.67	928.887
1058.98	806.527
1062.3	604.152
1065.61	474.117
1068.92	384.75
1072.23	500.023
1075.54	573.125
1078.84	653.258
1082.15	474.496
1085.45	415.508
1088.75	166.211
1092.05	326.215
1095.35	124.426
1098.65	354.812
1101.94	116.598
1105.24	498.66
1108.53	44.9922
1111.82	268.746
1115.11	194.672
1118.4	410.461
1121.69	363.582
1124.97	521.254
1128.26	211.938
1131.54	221.977
1134.82	371.727
1138.1	181.769
1141.38	315.066
1144.66	449.957
1147.93	487.844
1151.21	389.566
