Measurement: Raman, 514 nm, ccw, Raman Data Processed
Mineral: Fluorapophyllite-(K)
Rruff sample: R040095
Ideal chemistry: KCa_4_Si_8_O_20_F8H_2_O
Locality: unknown
Source: University of Arizona Mineral Museum
Description: Colorless crystals
Measured chemistry: (K_0.90_Na_0.04_)Ca_3.96_Si_8.00_O_20_(F_0.82_(OH)_0.18_)Â·8H_2_O
Pin_id: L00946
Orientation: Laser parallel to c* (0 0 1). Fiducial mark perpendicular to laser is parallel to a [1 0 0]
Raman shift (cm-1)	intensity
81.949	0
86.913	6946.23
91.874	17378.2
96.832	7357.92
101.788	7825.13
106.74	24223.1
111.689	14818.2
116.636	10009.7
121.579	13551.9
126.52	12131.5
131.457	9591.46
136.392	2350.6
141.324	1438.48
146.253	1353.2
151.179	2223.17
156.102	10559.7
161.022	23073.9
165.939	16388.5
170.854	4788.65
175.765	4063.19
180.674	13126.7
185.579	28149.6
190.482	18754.9
195.382	11825.9
200.279	17562.4
205.173	35437.7
210.064	54446.5
214.953	43647.5
219.838	29508.3
224.721	26572.5
229.6	25250.6
234.477	15668
239.351	6904.8
244.222	3025.3
249.091	1649.65
253.956	1540.06
258.819	2680.89
263.678	5370.75
268.535	6857.6
273.389	4549.31
278.241	3126.98
283.089	4080.39
287.935	7134.49
292.777	12921.7
297.617	18403.8
302.454	14242.7
307.289	7280.23
312.12	3778.02
316.949	2905.9
321.774	3279.52
326.597	4553.39
331.418	6649.62
336.235	8953.49
341.05	7797.45
345.861	4224.47
350.67	1545.5
355.477	287.41
360.28	72.5967
365.081	65.042
369.878	563.286
374.673	264.976
379.466	461.768
384.255	632.463
389.042	684.547
393.826	353.94
398.607	28.5776
403.386	236.471
408.161	436.836
412.934	922.044
417.704	2216.9
422.472	6683.56
427.236	17721.5
431.998	32701.3
436.757	18335.5
441.514	6116.48
446.267	2768.41
451.018	1923.94
455.766	2527.35
460.512	3793.67
465.255	3988.15
469.995	2546.53
474.732	1374.14
479.467	1542.8
484.198	2259.54
488.927	1932.36
493.654	1053.3
498.378	675.822
503.099	615.21
507.817	750.674
512.532	805.126
517.245	1157.64
521.956	1613.86
526.663	2414.83
531.368	3645.87
536.07	4746.18
540.769	5218.2
545.466	4856.31
550.16	4415.67
554.852	4371.26
559.54	4866.18
564.226	6389.68
568.91	9192.81
573.591	14643.5
578.269	22605.2
582.944	29794.9
587.617	27309
592.287	17816.1
596.954	10857.8
601.619	6689.46
606.281	4922.36
610.941	4054.39
615.597	3811.08
620.252	4078.86
624.903	4443.75
629.552	4815.77
634.198	5212.92
638.842	6026.4
643.483	7344.69
648.121	9747.17
652.757	13191.6
657.39	17021.7
662.021	20101.8
666.649	18736.9
671.274	14069.6
675.897	9125.68
680.517	5593.63
685.134	3481.21
689.749	2233.17
694.362	1375.4
698.971	723.758
703.578	429.173
708.183	200.628
712.785	13.103
717.384	22.5146
721.981	186.676
726.575	206.129
731.167	200.38
735.756	181.7
740.342	173.269
744.926	98.1826
749.507	47.3481
754.086	498.594
758.662	1424.76
763.236	2502.84
767.807	2708.84
772.375	1865.75
776.941	1347.76
781.505	1420.39
786.066	2627.85
790.624	4052.08
795.18	3074.14
799.733	1670.73
804.284	930.642
808.832	706.617
813.377	864.598
817.92	909.136
822.461	1323.21
826.999	1727.81
831.534	2050.94
836.067	2354.58
840.598	2463.73
845.126	2135.4
849.651	1981.55
854.174	1587.17
858.695	1383.57
863.213	1175.21
867.728	784.253
872.241	537.295
876.751	424.822
881.259	298.046
885.765	237.664
890.268	183.27
894.768	134.858
899.266	224.352
903.761	171.717
908.254	100.939
912.745	42.0142
917.233	130.902
921.718	96.4688
926.202	98.4536
930.682	29.1099
935.16	71.4351
939.636	78.6689
944.109	51.7075
948.58	140.477
953.048	236.224
957.514	286.58
961.978	553.6
966.438	1014.19
970.897	1618.72
975.353	821.196
979.807	459.627
984.258	579.017
988.707	704.462
993.153	1129.24
997.597	1861.69
1002.04	3225.24
1006.48	4267.57
1010.91	3057.2
1015.35	1811.96
1019.78	1461.82
1024.21	1477.74
1028.64	1870.2
1033.06	2643
1037.48	3777.79
1041.9	5856.76
1046.32	9976.4
1050.73	19848.1
1055.15	40459.8
1059.56	56725.2
1063.96	35757.4
1068.37	15855.6
1072.77	7143.9
1077.17	3676.7
1081.57	2122.72
1085.97	1358.03
1090.36	1002.29
1094.75	803.896
1099.14	662.145
1103.53	929.736
1107.91	1491.7
1112.29	2452.87
1116.67	2136.24
1121.05	936.352
1125.42	282.402
1129.79	226.583
1134.16	43.419
1138.53	6.17871
1142.89	4.68066
1147.26	13.3145
1151.62	99.1455
1155.97	33.7666
1160.33	38.3394
1164.68	10.1323
1169.03	70.5654
1173.38	1.47168
1177.73	69.7612
1182.07	72.833
1186.41	24.4429
1190.75	43.6152
1195.09	77.5483
1199.42	85.4546
1203.76	63.5498
1208.09	38.6235
1212.41	75.6221
1216.74	112.99
1221.06	65.6992
1225.38	87.5562
1229.7	108.86
1234.02	13.6685
1238.33	111.437
1242.64	176.289
1246.95	109.537
1251.26	211.204
1255.56	117.925
1259.86	167.795
1264.16	149.248
1268.46	103.756
1272.76	133.553
1277.05	123.319
1281.34	119.201
1285.63	111.271
1289.91	176.522
1294.2	216.292
1298.48	244.518
1302.76	212.213
1307.04	214.131
1311.31	164.574
1315.58	222.514
1319.85	136.825
1324.12	80.2983
1328.38	19.355
1332.65	173.555
1336.91	91.8574
1341.17	136.496
1345.42	82.5078
1349.68	89.9072
1353.93	33.8774
1358.18	112.819
1362.43	59.0859
1366.67	157.282
1370.92	75.7974
1375.16	53.2124
1379.4	48.5703
1383.63	52.2554
1387.87	54.6416
1392.1	48.7964
1396.33	141.375
1400.56	25.418
1404.78	50.4502
1409.01	46.835
1413.23	68.3003
1417.44	73.0644
1421.66	3.93799
1425.88	120.458
1430.09	43.0772
1434.3	122.171
1438.51	91.2588
1442.71	178.509
1446.91	22.5762
1451.11	199.613
1455.31	286.282
1459.51	148.387
1463.7	193.006
1467.9	209.68
1472.09	225.572
1476.27	271.29
1480.46	249.425
1484.64	354.026
1488.82	394.737
1493	398.563
1497.18	321.913
1501.36	378.472
1505.53	370.802
1509.7	517.448
1513.87	527.92
1518.03	546.749
1522.2	378.804
1526.36	489.872
1530.52	410.995
1534.67	339.709
1538.83	383.573
1542.98	253.386
1547.13	119.791
1551.28	302.848
1555.43	157.355
1559.57	152.606
1563.72	125.006
1567.86	18.5288
1571.99	5.89356
1576.13	0.130859
