Measurement: Raman, 514 nm, depolarized, Raman Data Processed
Mineral: Fluoro-richterite
Rruff sample: R040019
Ideal chemistry: Na(NaCa)Mg_5_Si_8_O_22_F_2_
Locality: Wilberforce, Ontario, Canada
Source: University of Arizona Mineral Museum
Description: Brown prismatic crystals
Measured chemistry: (Na_0.59_K_0.27_[box]_0.14_)_Σ=1_(Ca_1.30_Na_0.70_)_Σ=2_(Mg_4.67_Fe_0.17_Fe^3+^_0.10_Ti_0.03_Mn_0.02_Al_0.01_)_Σ=5_(Si_7.67_Al_0.33_)_Σ=8_(F_1.12_(OH)_0.88_)_Σ=2_; OH estimated by charge balance
Pin_id: L00117
Orientation: Laser parallel to [-1 0 -1]. Fiducial mark perpendicular to laser is parallel to -b* (0 -1 0)
Raman shift (cm-1)	intensity
86.404	0
90.587	178.229
94.768	282.889
98.947	426.143
103.124	816.931
107.3	1849.45
111.473	2066.61
115.644	2364.02
119.813	1408.28
123.981	519.388
128.146	35.698
132.309	0.438
136.47	26.678
140.63	57.546
144.787	19.062
148.942	284.424
153.096	1203.06
157.247	2984.66
161.396	4398.06
165.544	3350.1
169.689	2428.62
173.833	2679.69
177.974	3145.23
182.114	3407.37
186.251	2923.27
190.387	2327.78
194.52	2118.45
198.652	2267.06
202.782	2754.83
206.909	3372.96
211.035	4095.31
215.159	5201.05
219.281	7413.44
223.4	11549.5
227.518	17245.1
231.634	20804.3
235.748	18194.1
239.86	12636.4
243.97	8241.15
248.079	5927.41
252.185	4115.12
256.289	2573.27
260.391	2402.52
264.492	754.049
268.59	351.505
272.687	165.762
276.781	50.704
280.874	94.945
284.964	121.198
289.053	443.716
293.14	785.928
297.225	1200.51
301.308	1688.81
305.389	2430.91
309.468	3143.7
313.545	3501.25
317.62	3247.65
321.693	2666.45
325.765	1872.83
329.834	1559.01
333.902	1461
337.967	1635.96
342.031	1799.02
346.093	2054.36
350.153	2169.97
354.21	2356.84
358.267	3088.63
362.321	4217.29
366.373	5102.84
370.423	4907.6
374.471	4364.51
378.518	4456.58
382.563	4671.77
386.605	4760.09
390.646	4888.52
394.685	5080.05
398.722	5092.68
402.757	4671.38
406.79	3947.14
410.821	3158.96
414.851	2445.85
418.878	2178.91
422.904	2159.13
426.927	2371.49
430.949	2414.97
434.969	2114.54
438.987	1473.47
443.003	680.285
447.018	339.037
451.03	162.795
455.041	64.652
459.049	83.449
463.056	146.204
467.061	167.07
471.064	164.183
475.065	69.736
479.064	95.108
483.062	86.617
487.057	84.888
491.051	59.753
495.043	1.922
499.032	192.27
503.02	395.383
507.007	802.292
510.991	1368
514.973	2017.5
518.954	2652.79
522.933	2923.86
526.91	2521.77
530.885	2054.57
534.858	1631.25
538.829	1338.95
542.799	1125.55
546.766	1049.94
550.732	1052.6
554.696	1044.08
558.658	1103.68
562.618	1028.96
566.576	1012.89
570.533	1025.47
574.488	1092.27
578.44	1083.58
582.391	1237.08
586.341	1167.21
590.288	1313.96
594.233	430.316
598.177	60.253
602.119	181.636
606.059	141.03
609.997	78.082
613.933	73.641
617.868	52.542
621.801	145.905
625.731	277.688
629.66	425.982
633.588	598.747
637.513	907.487
641.437	1119.39
645.358	1467.29
649.278	1968.82
653.196	2730.15
657.113	3695.75
661.027	5393.76
664.94	8291.61
668.851	12907.8
672.76	22377.9
676.667	38654
680.572	50431.5
684.476	43477.9
688.378	25860.5
692.278	14676.5
696.176	8726.59
700.072	5735.19
703.967	4126.4
707.86	3456.42
711.751	2947.24
715.64	2882.83
719.527	3101.9
723.413	3133.56
727.297	3212.83
731.179	3361.71
735.059	3240.19
738.937	3102.3
742.814	2691.03
746.689	2229.4
750.562	1849.41
754.433	1550.97
758.303	1419.65
762.17	1070.09
766.036	1461.69
769.901	691.252
773.763	452.638
777.624	408.082
781.482	334.814
785.339	349.417
789.195	331.839
793.048	319.163
796.9	277.608
800.75	349.159
804.598	296.702
808.445	222.176
812.289	193.533
816.132	71.708
819.973	17.685
823.813	84.442
827.65	17.989
831.486	9.31
835.32	70.595
839.152	21.934
842.983	126.641
846.812	124.969
850.639	49.968
854.464	27.413
858.288	5.847
862.11	365.944
865.93	266.398
869.748	195.802
873.564	270.11
877.379	405.662
881.192	523.458
885.004	551.978
888.813	649.263
892.621	805.668
896.427	990.243
900.232	1125
904.034	1274.87
907.835	1395.85
911.634	1425.33
915.432	1560.49
919.227	1763.38
923.021	2130.83
926.813	2747.66
930.604	3057.65
934.393	3038.71
938.18	3042.78
941.965	2980.86
945.749	2818.92
949.53	2934.95
953.311	2858.95
957.089	2325.91
960.866	1759.38
964.641	1289.04
968.414	1017.4
972.185	896.765
975.955	919.799
979.723	845.998
983.49	957.877
987.254	943.408
991.017	1021.73
994.779	1202.21
998.538	1430.13
1002.3	1677.22
1006.05	2105.48
1009.81	2609.59
1013.56	2933.18
1017.31	3144.17
1021.06	3411.97
1024.81	3618.7
1028.55	3915.24
1032.3	4350.4
1036.04	5121.05
1039.78	5540
1043.52	5869.6
1047.26	5935.81
1050.99	6052.35
1054.73	6453.87
1058.46	6705.06
1062.19	7163.26
1065.92	7495.36
1069.65	7746.98
1073.37	7296.69
1077.1	6517.8
1080.82	5875.6
1084.54	5272.53
1088.26	4529.64
1091.97	3769.09
1095.69	3047.34
1099.4	2348.3
1103.12	2062.08
1106.83	1547.11
1110.54	1492.2
1114.24	1243.67
1117.95	1086.22
1121.65	1089.46
1125.35	1083.98
1129.06	795.789
1132.75	633.656
1136.45	639.626
1140.15	491.498
1143.84	396.617
1147.53	383.254
1151.22	362.279
1154.91	266.267
1158.6	140.646
1162.28	140.426
1165.97	114.945
1169.65	59.348
1173.33	73.148
1177.01	49.175
1180.69	59.207
1184.36	50.483
1188.04	95.561
1191.71	71.542
1195.38	69.066
1199.05	33.895
1202.71	80.621
1206.38	34.036
1210.04	15.983
1213.71	50.208
1217.37	56.109
1221.03	35.085
1224.68	169.231
1228.34	97.037
1231.99	157.676
1235.65	163.628
1239.3	167.412
1242.95	176.938
1246.59	154.008
1250.24	207.758
1253.88	210.312
1257.53	137.459
1261.17	111.787
1264.81	150.596
1268.45	164.254
1272.08	179.098
1275.72	168.476
1279.35	205.605
1282.98	199.889
1286.61	140.863
1290.24	122.211
1293.87	120.123
1297.49	165.285
1301.11	129.992
1304.73	222.493
1308.36	182.034
1311.97	62.487
1315.59	249.556
1319.2	45.505
1322.82	136.407
1326.43	37.152
1330.04	6.133
1333.65	36.058
1337.26	72.648
1340.86	26.221
1344.47	10.623
1348.07	61.543
1351.67	92.568
1355.27	2.279
1358.87	70.202
1362.46	36.356
1366.06	5.822
1369.65	36.598
1373.24	11.047
1376.83	85.494
1380.42	6.449
1384	45.929
1387.59	40.494
1391.17	155.616
1394.75	118.005
1398.33	168.853
1401.91	78.98
1405.49	106.766
1409.06	61.971
1412.64	165.485
1416.21	247.205
1419.78	147.669
1423.35	99.049
1426.91	71.991
1430.48	166.75
1434.05	133.456
1437.61	337.33
1441.17	175.062
1444.73	207.441
1448.29	214.266
1451.84	300.257
1455.4	355.109
1458.95	188.273
1462.5	24.664
1466.05	18.741
1469.6	215.23
1473.15	87.674
1476.69	67.4
1480.24	149.715
1483.78	173.908
1487.32	53.895
1490.86	171.885
1494.39	267.012
1497.93	115.398
1501.46	0
