Measurement: Raman, 514 nm, depolarized, Raman Data Processed
Mineral: Fluoro-richterite
Rruff sample: R040019
Ideal chemistry: Na(NaCa)Mg_5_Si_8_O_22_F_2_
Locality: Wilberforce, Ontario, Canada
Source: University of Arizona Mineral Museum
Description: Brown prismatic crystals
Measured chemistry: (Na_0.59_K_0.27_[box]_0.14_)_Σ=1_(Ca_1.30_Na_0.70_)_Σ=2_(Mg_4.67_Fe_0.17_Fe^3+^_0.10_Ti_0.03_Mn_0.02_Al_0.01_)_Σ=5_(Si_7.67_Al_0.33_)_Σ=8_(F_1.12_(OH)_0.88_)_Σ=2_; OH estimated by charge balance
Pin_id: L00352
Orientation: Laser parallel to a [1 0 0]. Fiducial mark perpendicular to laser is parallel to -b* (0 -1 0)
Raman shift (cm-1)	intensity
79.427	0
83.614	222.232
87.798	100.472
91.981	695.317
96.161	1137.94
100.34	2180.8
104.516	3963.79
108.691	6183.45
112.864	7087.87
117.034	6280.6
121.203	3621.6
125.369	1701.36
129.534	775.584
133.696	403.982
137.857	190.341
142.016	39.268
146.172	108.721
150.327	67.045
154.48	1211.03
158.63	2730.22
162.779	3521.53
166.926	2311.89
171.07	1884.56
175.213	2393.84
179.354	2996.89
183.493	3141.3
187.63	2524.79
191.765	2120.57
195.898	2038.42
200.029	2559.15
204.158	3179.17
208.285	3876.27
212.41	4451.47
216.533	5573.58
220.654	8268.52
224.773	12779.3
228.891	19024.7
233.006	21976.9
237.119	17617.8
241.231	11844.3
245.34	8437.82
249.448	6110.6
253.553	3866.97
257.657	2528.92
261.758	1717.71
265.858	879.829
269.956	180.061
274.052	51.73
278.146	188.085
282.237	242.151
286.327	157.044
290.416	79.354
294.502	391.07
298.586	864.883
302.668	1373.48
306.749	2103.82
310.827	2802.46
314.903	3122.7
318.978	2516.52
323.051	1957.23
327.121	1574.34
331.19	1252.78
335.257	1190.75
339.322	1115.73
343.385	1146.87
347.446	1306.36
351.505	1720.85
355.563	2052.65
359.618	3100.73
363.672	4297.09
367.723	5173.7
371.773	5411.55
375.821	5830.62
379.866	6290.89
383.91	6920.36
387.952	7069.01
391.992	7004.82
396.031	6938.8
400.067	6531.91
404.101	5692.15
408.134	4340.54
412.165	3045.22
416.193	2603.15
420.22	2625.27
424.245	2962.57
428.268	3426
432.289	3194.55
436.309	2732.45
440.326	1539.35
444.342	811.926
448.355	343.173
452.367	134.751
456.377	39.939
460.385	115.682
464.391	194.071
468.395	233.696
472.398	178.927
476.398	76.471
480.397	56.64
484.394	135.556
488.389	206.279
492.382	129.81
496.373	72.129
500.362	236.18
504.349	418.991
508.335	792.592
512.319	1310.99
516.3	2030.18
520.28	2764.19
524.259	3213.97
528.235	2675.57
532.209	1969.1
536.182	1660.59
540.152	1499.03
544.121	1370.36
548.088	1383.62
552.053	1322.51
556.017	1380.15
559.978	1314.48
563.938	1147.48
567.895	1100.13
571.851	1166.44
575.805	1239.38
579.758	1243.95
583.708	1353.15
587.657	1222.95
591.603	786.366
595.548	265.388
599.491	66.943
603.432	214.282
607.372	151.319
611.309	151.174
615.245	74.843
619.179	43.172
623.111	254.182
627.041	251.568
630.97	450.428
634.896	658.834
638.821	869.35
642.744	1318.01
646.665	1749.12
650.584	2216.8
654.502	3207.57
658.418	4612.73
662.331	6718.6
666.244	10449.6
670.154	17818.5
674.062	31197.6
677.969	48830.3
681.874	55959.6
685.777	42016.1
689.678	24612.1
693.577	13609.8
697.475	8907.41
701.371	6278.89
705.265	4849.47
709.157	4139.06
713.047	3921.53
716.936	3719.39
720.823	3831.36
724.708	3948.69
728.591	4057.58
732.472	4165.04
736.352	4119.08
740.23	3854.69
744.106	3278.89
747.98	2781.69
751.853	2436.26
755.723	2141.95
759.592	1775.74
763.459	1548.14
767.325	1229.33
771.188	975.449
775.05	676.834
778.91	680.611
782.768	556.099
786.625	477.265
790.479	498.779
794.332	453.494
798.183	438.886
802.033	431.104
805.88	318.157
809.726	248.057
813.57	324.835
817.413	140.462
821.253	78.92
825.092	10.792
828.929	13.275
832.764	7.134
836.598	79.183
840.429	93.874
844.259	121.097
848.088	105.883
851.914	15.243
855.739	34.057
859.562	12.801
863.383	18.439
867.203	22.23
871.02	80.844
874.836	206.464
878.65	230.159
882.463	314.945
886.274	461.576
890.083	712.763
893.89	894.909
897.695	1093.23
901.499	1306.82
905.301	1467.64
909.102	1683.78
912.9	1885.68
916.697	2189.52
920.492	2742.27
924.285	3294.14
928.077	3972.78
931.867	4499.07
935.655	4280.52
939.442	3727.05
943.226	3505.62
947.009	3362.22
950.791	3149.81
954.57	2857.39
958.348	2523.01
962.124	2121.65
965.899	1895.32
969.671	1829.21
973.442	1833.61
977.211	1763.17
980.979	1757.41
984.745	1696.04
988.509	1689.8
992.271	1718.06
996.032	1808.6
999.791	2000.28
1003.55	2235
1007.3	2525.76
1011.06	2829.64
1014.81	3203.73
1018.56	3412.48
1022.31	3504.84
1026.06	3677.81
1029.8	4168.97
1033.55	4785.98
1037.29	5461.57
1041.03	5836.43
1044.77	6105.09
1048.5	6172.96
1052.24	6540.54
1055.97	6964.82
1059.7	7177.43
1063.43	7669.59
1067.16	8046.33
1070.89	7991.72
1074.61	7547.67
1078.34	6616.44
1082.06	5936.36
1085.78	5434.74
1089.5	4622.13
1093.21	3604.16
1096.93	2850.67
1100.64	2466.92
1104.35	1917.67
1108.06	1750.81
1111.77	1504.76
1115.48	1357.97
1119.18	1266.4
1122.89	1514.33
1126.59	1134.97
1130.29	790.631
1133.99	686.417
1137.68	518.2
1141.38	602.796
1145.07	469.839
1148.76	397.2
1152.45	347.794
1156.14	277.529
1159.83	205.013
1163.51	181.897
1167.19	64.939
1170.88	11.069
1174.56	101.765
1178.23	16.478
1181.91	40.265
1185.59	42.567
1189.26	72.161
1192.93	27.291
1196.6	134.568
1200.27	2.409
1203.94	30.482
1207.6	6.313
1211.27	9.783
1214.93	62.117
1218.59	94.499
1222.25	31.88
1225.9	69.001
1229.56	47.893
1233.21	81.044
1236.86	120.684
1240.51	301.194
1244.16	574.218
1247.81	352.899
1251.45	133.737
1255.1	183.364
1258.74	206.355
1262.38	273.118
1266.02	212.487
1269.66	173.592
1273.29	172.528
1276.93	229.357
1280.56	189.943
1284.19	161.542
1287.82	106.885
1291.45	190.268
1295.07	177.015
1298.7	163.458
1302.32	134.535
1305.94	184.044
1309.56	218.905
1313.18	135.534
1316.8	236.509
1320.41	116.383
1324.02	91.178
1327.63	135.006
1331.24	122.441
1334.85	144.583
1338.46	119.929
1342.06	113.904
1345.67	141.984
1349.27	104.217
1352.87	57.08
1356.47	16.217
1360.07	16.758
1363.66	13.549
1367.25	29.161
1370.85	61.373
1374.44	32.768
1378.03	34.178
1381.61	12.24
1385.2	33.17
1388.78	71.314
1392.37	48.754
1395.95	146.916
1399.53	180.897
1403.1	126.606
1406.68	85.099
1410.26	103.273
1413.83	99.943
1417.4	158.761
1420.97	164.148
1424.54	98.354
1428.1	117.415
1431.67	124.786
1435.23	8.642
1438.8	249.712
1442.36	161.204
1445.91	445.229
1449.47	275.741
1453.03	254.437
1456.58	118.237
1460.13	234.857
1463.68	205.843
1467.23	221.495
1470.78	228.828
1474.33	291.121
1477.87	296.76
1481.42	287.373
1484.96	230.6
1488.5	328.675
1492.04	219.102
1495.57	132.137
1499.11	267.353
1502.64	181.437
1506.17	23.657
1509.71	87.499
1513.23	124.007
1516.76	143.635
