Measurement: Raman, 514 nm, ccw, Raman Data Processed
Mineral: Fluorapatite
Rruff sample: R040098
Ideal chemistry: Ca_5_(PO_4_)_3_F
Locality: Cerro de Mercado mine, Durango, Mexico
Source: Marcus Origlieri
Description: Pale yellow short hexagonal prism
Measured chemistry: Ca_5.00_((P_0.98_Si_0.01_S_0.01_)O_4_)_3_F_1.00_
Pin_id: M00032
Orientation: Laser parallel to [-1 -1 0]. Fiducial mark perpendicular to laser is parallel to c [0 0 1]
Raman shift (cm-1)	intensity
59.679	0
64.661	72.9916
69.641	141.091
74.618	364.427
79.593	256.54
84.564	52.1504
89.532	27.6352
94.498	33.3864
99.461	66.4221
104.421	49.3858
109.378	34.6754
114.332	439.114
119.283	209.027
124.232	42.6248
129.178	1.50677
134.12	44.442
139.061	62.7868
143.998	80.7635
148.932	59.9913
153.864	165.102
158.792	278.775
163.718	213.057
168.641	117.931
173.562	57.6912
178.479	88.4042
183.394	95.0763
188.305	128.711
193.214	188.307
198.12	353.671
203.024	600.382
207.924	1241.89
212.822	1559.21
217.717	919.145
222.609	674.72
227.498	441.021
232.385	422.88
237.269	406.167
242.149	249.548
247.027	179.58
251.903	148.643
256.775	142.115
261.645	113.676
266.512	151.139
271.376	120.477
276.237	174.54
281.096	143.626
285.952	224.719
290.805	258.102
295.655	410.382
300.502	551.648
305.347	606.924
310.189	519.167
315.028	360.377
319.864	256.554
324.698	136.667
329.528	131.776
334.356	86.8637
339.182	77.9215
344.004	48.9506
348.824	46.6964
353.641	5.95404
358.455	40.9008
363.266	24.4924
368.075	7.96051
372.881	4.67865
377.684	2.63605
382.484	8.16187
387.282	11.0132
392.077	51.3308
396.869	8.35223
401.658	43.4141
406.445	61.5641
411.229	23.3436
416.01	95.3672
420.788	170.206
425.564	242.135
430.337	431.053
435.107	432.959
439.875	565.852
444.639	716.736
449.401	1178.6
454.161	1198.46
458.917	842.3
463.671	499.132
468.422	316.954
473.17	269.764
477.916	139.578
482.659	70.3817
487.399	38.1844
492.137	24.9596
496.872	52.6555
501.604	23.2419
506.333	82.7305
511.06	0.383606
515.784	4.5047
520.505	22.9064
525.223	24.3728
529.939	20.6829
534.652	53.4005
539.363	0.595093
544.07	10.347
548.775	45.3561
553.478	71.3765
558.177	79.967
562.874	90.2131
567.568	202.727
572.26	255.196
576.949	414.803
581.635	812.398
586.319	2008.89
590.999	5099.16
595.677	3546.67
600.353	1173.26
605.026	2004.72
609.696	1924.99
614.363	637.285
619.028	407.803
623.69	330.224
628.349	242.368
633.006	162.774
637.66	189.604
642.311	177.782
646.96	173.441
651.606	167.972
656.25	156.678
660.89	171.775
665.528	101.201
670.164	93.6665
674.797	14.21
679.427	26.7401
684.054	82.8821
688.679	54.0056
693.301	22.2372
697.921	51.5452
702.537	14.7837
707.152	77.059
711.763	19.2278
716.372	41.2224
720.978	33.1747
725.582	78.8911
730.183	49.3805
734.781	14.6287
739.377	71.6585
743.97	65.6178
748.561	16.4609
753.149	37.0536
757.734	53.8167
762.316	32.816
766.896	38.2614
771.474	12.9956
776.048	53.5054
780.62	22.1146
785.19	26.7113
789.757	8.88342
794.321	63.6638
798.883	90.9225
803.442	22.7347
807.998	40.4019
812.552	29.8503
817.103	2.177
821.652	13.8925
826.198	15.5182
830.741	1.40466
835.282	4.6875
839.82	13.3794
844.355	19.6769
848.888	42.0617
853.419	120.317
857.946	225.153
862.472	179.996
866.994	163.474
871.514	100.373
876.032	121.268
880.546	52.7137
885.059	75.8669
889.568	31.959
894.075	9.48535
898.58	36.8081
903.082	42.8444
907.581	65.6199
912.078	56.7076
916.572	42.4429
921.063	51.0507
925.552	47.0618
930.039	109.667
934.523	201.696
939.004	254.066
943.483	606.731
947.959	1186.66
952.432	2084.84
956.903	6024.51
961.372	26751.3
965.838	46076.2
970.301	12197.9
974.762	3830.11
979.22	1260.24
983.676	525.728
988.129	166.03
992.58	141.816
997.028	71.5251
1001.47	200.158
1005.92	422.727
1010.36	667.237
1014.79	480.364
1019.23	314.243
1023.66	344.498
1028.09	475.983
1032.52	597.655
1036.94	804.612
1041.37	1341.19
1045.79	2228.6
1050.2	6241.82
1054.62	6297.45
1059.03	2630.52
1063.44	1411.9
1067.85	894.624
1072.26	934.621
1076.66	2015.76
1081.06	3184.33
1085.45	1830.91
1089.85	900.489
1094.24	346.137
1098.63	213.82
1103.02	62.562
1107.4	52.334
1111.79	53.123
1116.17	72.8696
1120.54	155.596
1124.92	148.319
1129.29	108.035
1133.66	124.514
1138.03	118.164
1142.39	83.1706
1146.75	208.226
1151.11	190.112
1155.47	154.963
1159.83	45.562
1164.18	194.569
1168.53	3.40478
1172.87	41.2781
1177.22	39.0549
1181.56	4.22144
1185.9	6.46265
1190.24	18.124
1194.57	42.3496
1198.9	64.9392
1203.23	54.0908
1207.56	9.31226
1211.89	37.1506
1216.21	133.099
1220.53	203.137
1224.85	241.166
1229.16	224.251
1233.47	270.299
1237.78	229.408
1242.09	162.288
1246.4	159.283
1250.7	103.565
1255	135.593
1259.3	16.9504
1263.59	9.85425
1267.88	87.0303
1272.17	84.6997
1276.46	48.2163
1280.75	80.6257
1285.03	98.9565
1289.31	7.79712
1293.59	118.214
1297.87	104.096
1302.14	114.048
1306.41	202.342
1310.68	333.606
1314.94	198.997
1319.21	258.703
1323.47	126.362
1327.72	238.363
1331.98	213.492
1336.23	218.595
1340.49	174.868
1344.73	149.24
1348.98	97.2539
1353.22	76.6411
1357.47	67.7524
1361.7	84.9477
1365.94	57.9692
1370.17	80.3174
1374.41	64.7998
1378.64	64.7529
1382.86	197.394
1387.09	223.998
1391.31	158.27
1395.53	262.856
1399.75	184.554
1403.96	164.728
1408.17	198.919
1412.38	111.726
1416.59	161.239
1420.8	164.491
1425	119.507
1429.2	118.217
1433.4	68.7134
1437.59	125.952
1441.78	62.9683
1445.97	89.8057
1450.16	50.0845
1454.35	43.7266
1458.53	34.8706
1462.71	48.2168
1466.89	49.4175
1471.07	28.8027
1475.24	22.269
1479.41	22.23
1483.58	80.7261
1487.75	67.106
1491.91	58.5772
1496.07	63.0952
1500.23	33.7188
1504.39	108.51
1508.55	193.403
1512.7	136.705
1516.85	26.459
1520.99	103.091
1525.14	191.838
1529.28	160.39
1533.42	76.3472
1537.56	80.3291
1541.7	75.5347
1545.83	39.1167
1549.96	99.293
1554.09	119.773
1558.22	73.0122
1562.34	162.428
1566.46	2.21484
1570.58	145.995
1574.7	149.016
