Measurement: Raman, 514 nm, depolarized, Raman Data Processed
Mineral: Fluorapatite
Rruff sample: R060070
Ideal chemistry: Ca_5_(PO_4_)_3_F
Locality: Panasqueira, Portugal
Source: Dave Bunk
Description: Green hexagonal tablet
Measured chemistry: (Ca_0.99_Mn_0.01_)_5_(P_1.00_O_4_)_3_F_1.00_
Pin_id: L01695
Orientation: Laser parallel to -a* (-1 0 0). Fiducial mark perpendicular to laser is parallel to -c [0 0 -1]
Raman shift (cm-1)	intensity
127.979	0
132.898	56.4648
137.814	8.52734
142.728	73.3745
147.639	60.3442
152.549	87.6211
157.455	120.787
162.359	111.026
167.261	63.9565
172.161	109.018
177.058	96.4922
181.952	128.592
186.845	147.55
191.734	135.235
196.622	157.42
201.507	135.405
206.389	78.0606
211.269	75.2588
216.147	89.3769
221.022	64.2148
225.895	140.29
230.765	76.4023
235.633	28.4482
240.498	132.348
245.361	29.7285
250.222	95.0615
255.08	37.7251
259.936	71.3667
264.789	63.4932
269.64	10.3452
274.488	37.4273
279.334	7.74463
284.178	265.838
289.019	198.007
293.857	108.74
298.693	49.5625
303.527	115.828
308.358	109.956
313.187	84.4414
318.013	21.1865
322.837	47.1504
327.659	29.9414
332.478	72.2285
337.294	48.7627
342.108	113.201
346.92	119.11
351.729	46.5059
356.535	136.053
361.34	65.9668
366.141	126.098
370.94	21.8779
375.737	145.345
380.531	0.12793
385.323	59.2471
390.113	143.702
394.9	5.0293
399.684	195.191
404.466	23.2412
409.245	180.49
414.022	216.569
418.797	110.741
423.569	238.667
428.338	305.123
433.105	217.999
437.87	142.008
442.632	168.051
447.391	122.57
452.149	258.263
456.903	115.379
461.655	170.065
466.405	41.9092
471.152	248.988
475.897	165.518
480.639	154.386
485.378	0.4375
490.116	31.6885
494.85	173.882
499.582	149.344
504.312	141.481
509.039	20.9912
513.764	82.0518
518.486	284.161
523.206	27.6406
527.923	167.8
532.638	59.6065
537.35	16.373
542.059	232.237
546.766	30.2246
551.471	11.1943
556.173	198.494
560.873	77.6172
565.57	165.961
570.264	128.607
574.957	75.1133
579.646	206.1
584.333	178.887
589.018	349.935
593.7	113.844
598.379	130.852
603.056	15.2949
607.73	143.701
612.402	80.4414
617.072	272.006
621.739	152.361
626.403	116.551
631.065	30.0059
635.724	9.71289
640.381	93.4141
645.035	170.109
649.687	140.783
654.336	229.992
658.983	262.168
663.627	179.744
668.268	235.322
672.907	190.598
677.544	10.2422
682.178	296.379
686.809	50.1504
691.438	146.315
696.065	226.01
700.688	173.494
705.31	174.184
709.929	83.1602
714.545	170.584
719.158	136.934
723.77	170.963
728.378	74.1484
732.984	101.764
737.588	178.94
742.189	188.127
746.787	281.781
751.383	3.22461
755.976	65.1875
760.567	165.627
765.155	70.2891
769.741	88.4375
774.324	332.873
778.904	206.609
783.482	349.185
788.058	207.227
792.631	74.5469
797.201	172.102
801.769	27.6211
806.334	84.584
810.897	37.6641
815.457	350.959
820.014	160.338
824.569	472.158
829.122	157.244
833.671	96.0156
838.219	291.834
842.763	365.928
847.306	192.871
851.845	234.371
856.382	277.115
860.917	355.922
865.448	268.535
869.978	135.562
874.505	290.781
879.029	118.668
883.55	229.887
888.069	84.9824
892.586	341.35
897.1	109.625
901.611	141.203
906.12	95.2246
910.626	5.25
915.129	399.973
919.63	156.834
924.129	39.1113
928.625	10.8066
933.118	32.6133
937.609	276.154
942.097	91.043
946.582	105.508
951.065	103.773
955.546	331.894
960.023	1310.55
964.499	2371.7
968.971	1454.19
973.441	340.672
977.909	192.977
982.374	75.9922
986.836	324.684
991.295	77.7891
995.753	171.742
1000.21	164.731
1004.66	135.777
1009.11	25.2969
1013.55	210.391
1018	228.172
1022.44	168.785
1026.88	40.8594
1031.32	295.809
1035.75	321.016
1040.18	399.789
1044.61	305.336
1049.04	213.008
1053.46	436.008
1057.88	468.594
1062.3	51.5078
1066.71	68.1016
1071.13	254.148
1075.54	202.152
1079.94	260.289
1084.35	332.961
1088.75	376.891
1093.15	76.1992
1097.55	339.918
1101.94	30.2617
1106.34	189.492
1110.73	80.4102
1115.11	121.894
1119.5	283.641
1123.88	526.504
1128.26	194.18
1132.63	186.336
1137.01	153.941
1141.38	516.117
1145.75	172.504
1150.12	48.1875
1154.48	214.672
1158.84	474.703
1163.2	327.691
1167.55	313.684
1171.91	184.481
1176.26	349.789
1180.61	310.793
1184.95	297.641
1189.29	324.402
1193.63	500.766
1197.97	296.531
1202.31	175.812
1206.64	296.894
1210.97	509.394
1215.29	43.1562
1219.62	575.574
1223.94	212.637
1228.26	401.356
1232.57	603.66
1236.89	683.434
1241.2	365.766
1245.51	330.848
1249.81	287.617
1254.12	356.137
1258.42	55.4062
1262.72	412.379
1267.01	327.062
1271.3	449.629
1275.59	419.008
1279.88	289.332
1284.17	102.164
1288.45	294.731
1292.73	50.9453
1297.01	194.172
1301.28	215.051
1305.55	92
1309.82	41.3516
1314.09	48.8711
1318.35	326.832
1322.61	364.602
1326.87	939.066
1331.13	482.223
1335.38	554.473
1339.63	433.469
1343.88	439.574
1348.12	407.344
1352.37	440.797
1356.61	662.922
1360.85	535.519
1365.08	384.516
1369.31	372.816
1373.54	547.898
1377.77	414.711
1381.99	299.25
1386.22	465.531
1390.43	410.559
1394.65	564.359
1398.87	543.945
1403.08	368.359
1407.29	187.613
1411.49	392.781
1415.69	377.887
1419.89	168.805
1424.09	452.703
1428.29	405.394
1432.48	375.844
1436.67	391.356
1440.86	371.863
1445.04	288.898
1449.23	441.074
1453.4	289.852
1457.58	667.625
1461.76	709.391
1465.93	693.156
1470.1	292.215
1474.26	178.367
1478.43	407.531
1482.59	250.707
1486.75	326.129
1490.9	453.012
1495.06	205.082
1499.21	206.539
1503.35	538.106
1507.5	272.793
1511.64	413.348
1515.78	685.586
1519.92	110.871
1524.05	296.316
1528.18	499.367
1532.31	363.473
1536.44	211.859
1540.56	108.727
1544.69	580.961
1548.8	298.547
1552.92	66.832
1557.03	261
1561.14	368.633
1565.25	179.535
1569.36	312.816
