Measurement: Raman, 514 nm, depolarized, Raman Data Processed
Mineral: Fluorophlogopite
Rruff sample: R040075
Ideal chemistry: KMg_3_(Si_3_Al)O_10_F_2_
Locality: unknown
Source: University of Arizona Mineral Museum
Description: Green hexagonal tablet
Measured chemistry: (K_0.93_[box]_0.04_Na_0.03_)(Mg_0.66_Fe_0.30_Ti_0.02_)_3_(Si_0.75_Al_0.25_)_4_O_10_(F_0.90_(OH)_0.06_Cl_0.04_)
Pin_id: L00455
Orientation: Laser parallel to [1 0 1]. Fiducial mark perpendicular to laser is parallel to b* (0 1 0)
Raman shift (cm-1)	intensity
153.13	0
157.292	4.851
161.452	72.7
165.611	80.943
169.767	376.371
173.921	494.691
178.073	785.986
182.222	1168.48
186.37	1733.49
190.516	1747.35
194.66	1525.3
198.801	1125.15
202.941	814.104
207.079	581.895
211.214	358.936
215.348	328.88
219.479	195.032
223.608	90.184
227.736	107.078
231.861	82.313
235.984	65.63
240.105	15.095
244.224	34.754
248.342	4.523
252.457	18.873
256.57	12.82
260.681	92.39
264.79	201.096
268.896	134.677
273.001	214.127
277.104	357.365
281.205	357.137
285.304	338.533
289.401	238.76
293.495	183.583
297.588	155.152
301.679	138.581
305.767	211.058
309.854	304.122
313.939	336.063
318.021	374.486
322.102	397.878
326.181	366.995
330.257	337.198
334.332	316.607
338.405	341.186
342.475	362.782
346.544	394.404
350.61	391.005
354.675	435.564
358.738	478.051
362.798	462.407
366.857	415.783
370.913	460.669
374.968	421.852
379.021	417.036
383.071	405.72
387.12	454.587
391.166	438.283
395.211	453.173
399.254	451.792
403.294	445.639
407.333	516.397
411.37	621.988
415.405	422.154
419.437	396.055
423.468	312.606
427.497	159.774
431.524	214.107
435.549	144.084
439.572	72.459
443.593	24.011
447.611	44.709
451.628	23.059
455.644	11.96
459.657	35.089
463.668	19.458
467.677	89.473
471.684	90.046
475.689	43.346
479.692	104.297
483.694	169.951
487.693	350.058
491.691	367.311
495.686	409.852
499.68	480.411
503.671	506.411
507.661	555.491
511.648	568.582
515.634	558.622
519.618	609.681
523.6	691.213
527.58	629.741
531.558	575.317
535.534	627.908
539.508	608.629
543.48	743.33
547.45	723.402
551.418	730.045
555.385	633
559.349	561.005
563.312	526.114
567.272	516.333
571.231	419.671
575.187	278.116
579.142	170.661
583.095	156.063
587.046	96.079
590.995	81.964
594.942	112.626
598.888	49.786
602.831	85.399
606.772	35.396
610.712	106.761
614.649	201.654
618.585	167.974
622.519	186.534
626.45	243.107
630.38	268.086
634.308	389.934
638.235	377.239
642.159	402.69
646.081	470.961
650.002	587.203
653.92	782.487
657.837	880.785
661.752	1097.29
665.664	1408.47
669.575	1881.45
673.484	2543
677.392	3072.14
681.297	3337.23
685.2	2916.55
689.102	2400.14
693.002	1923.27
696.899	1699.94
700.795	1557.94
704.689	1710.67
708.581	1834.11
712.472	2031.6
716.36	2122
720.247	2281.14
724.131	2173.24
728.014	2122.3
731.895	1954.31
735.774	1908.28
739.651	1524.19
743.526	1480.06
747.4	1391.7
751.271	1355.22
755.141	1379.52
759.009	1408.11
762.875	1437.46
766.739	1524.18
770.601	1565.95
774.462	1558.79
778.32	1392.7
782.177	1237.67
786.032	1106.76
789.885	901.854
793.736	640.947
797.585	483.001
801.433	368.003
805.279	243.951
809.122	164.678
812.964	121.68
816.804	23.457
820.643	52.164
824.479	10.243
828.314	42.851
832.147	63.792
835.977	40.911
839.807	30.646
843.634	90.545
847.459	81.773
851.283	24.726
855.105	0.014
858.925	13.036
862.743	15.111
866.559	53.596
870.373	85.245
874.186	108.839
877.997	176.4
881.806	228.919
885.613	142.387
889.419	245.809
893.222	177.188
897.024	297.529
900.824	343.832
904.622	388.274
908.418	356.315
912.213	382.499
916.005	485.645
919.796	447.756
923.585	516.834
927.373	506.877
931.158	422.877
934.942	466.834
938.724	477.75
942.504	515.621
946.282	552.468
950.059	589.289
953.833	476.096
957.606	460.863
961.377	428.595
965.147	352.288
968.914	392.47
972.68	494.831
976.444	408.026
980.206	442.829
983.967	439.765
987.725	386.213
991.482	437.187
995.237	426.473
998.99	461.033
1002.74	423.597
1006.49	372.242
1010.24	379.085
1013.99	268.141
1017.73	433.249
1021.47	431.894
1025.21	454.725
1028.95	451.836
1032.69	497.764
1036.42	458.73
1040.16	530.205
1043.89	555.542
1047.62	561.54
1051.35	510.745
1055.08	561.971
1058.8	600.227
1062.53	607.575
1066.25	585.765
1069.97	592.916
1073.68	606.319
1077.4	587.606
1081.11	690.089
1084.83	623.687
1088.54	638.225
1092.25	657.341
1095.95	562.075
1099.66	522.006
1103.36	449.687
1107.07	316.701
1110.77	256.553
1114.47	265.255
1118.16	249.083
1121.86	164.924
1125.55	124.841
1129.24	160.908
1132.93	44.128
1136.62	57.488
1140.31	59.033
1143.99	93.901
1147.68	60.523
1151.36	77.704
1155.04	17.658
1158.71	8.283
1162.39	0.872
1166.07	14.186
1169.74	1.622
1173.41	55.883
1177.08	0.882
1180.75	36.708
1184.41	21.324
1188.08	23.812
1191.74	23.681
1195.4	11.323
1199.06	22.883
1202.71	46.701
1206.37	48.606
1210.02	32.553
1213.68	14.95
1217.33	12.474
1220.98	2.016
1224.62	34.457
1228.27	38.932
1231.91	61.118
1235.55	19.936
1239.19	111.918
1242.83	68.863
1246.47	42.636
1250.1	13.818
1253.74	16.689
1257.37	79.508
1261	59.289
1264.63	74.036
1268.25	88.663
1271.88	66.09
1275.5	62.294
1279.12	20.359
1282.74	90.254
1286.36	41.044
1289.98	20.565
1293.59	14.9
1297.21	25.888
1300.82	114.137
1304.43	14.886
1308.04	45.526
1311.64	40.02
1315.25	29.699
1318.85	0.862
1322.45	12.963
1326.05	21.753
1329.65	32.285
1333.24	18.194
1336.84	2.248
1340.43	49.219
1344.03	74.04
1347.61	9.719
1351.2	47.253
1354.79	10.407
1358.37	46.195
1361.96	34.782
1365.54	130.559
1369.12	107.453
1372.69	82.9
1376.27	27.605
1379.85	4.979
1383.42	225.954
1386.99	148.116
1390.56	1.923
1394.13	74.409
1397.7	131.372
1401.26	78.918
1404.82	55.202
1408.38	91.542
1411.94	177.102
1415.5	151.192
1419.06	145.758
1422.62	85.226
1426.17	97.715
1429.72	105.634
1433.27	127.564
1436.82	87.878
1440.37	78.422
1443.91	144.435
1447.45	85.419
1450.99	133
1454.54	124.96
1458.07	123.491
1461.61	62.541
1465.15	93.149
1468.68	141.209
1472.21	93.175
1475.74	112.551
1479.27	129.036
1482.8	125.727
1486.32	133.562
1489.85	136.833
1493.37	94.313
1496.89	68.656
1500.41	97.531
1503.93	74.501
1507.44	99.277
1510.96	42.161
1514.47	137.874
1517.98	30.768
1521.49	0.172
