Measurement: Raman, 514 nm, depolarized, Raman Data Processed
Mineral: Fluor-buergerite
Rruff sample: R060132
Ideal chemistry: NaFe^3+^_3_Al_6_(Si_6_O_18_)(BO_3_)_3_O_3_F
Locality: 20 km. south of San Luis Potasi, Mexico
Source: University of Arizona Mineral Museum
Description: Brown short prismatic
Measured chemistry: (Na_0.87_Ca_0.03_[box]_0.10_)(Fe^3+^_0.82_Al_0.12_Mg_0.04_Ti_0.02_)_3_Al_6_(BO_3_)_3_(Si_0.98_Al_0.02_)_6_O_18_(O_0.66_F_0.19_(OH)_0.15_)_4_
Pin_id: L00828
Orientation: Laser parallel to -c* (0 0 -1). Fiducial mark perpendicular to laser is parallel to -a [-1 0 0]
Raman shift (cm-1)	intensity
131.668	0
136.585	71.6465
141.5	248.335
146.412	10.294
151.321	627.837
156.229	672.239
161.134	594.929
166.036	1050.1
170.936	1178.69
175.834	1406.83
180.729	1764.31
185.622	1811.35
190.512	2124.63
195.4	1933.05
200.286	1936.18
205.169	1411.7
210.049	361.262
214.928	200.519
219.803	36.6016
224.677	49.6397
229.548	9.14551
234.416	0.637695
239.282	253.13
244.146	414.554
249.007	816.454
253.866	1528.74
258.722	2945.44
263.576	2909.56
268.427	2996.69
273.276	3227.8
278.123	3230.89
282.967	2568.34
287.809	2099.63
292.648	1772.53
297.485	1714.97
302.319	1687.07
307.151	1327.41
311.98	1014.16
316.807	1312.63
321.631	1801.49
326.454	2123.6
331.273	1898.47
336.09	1549.51
340.905	1648.17
345.717	1676.49
350.527	2044.19
355.334	1876.96
360.139	1852.04
364.941	1268.74
369.741	1243.01
374.538	911.922
379.333	703.006
384.126	741.604
388.916	1291.09
393.703	2141.51
398.488	3017.43
403.271	3351.03
408.051	2913.42
412.828	1984.6
417.603	851.617
422.376	147.512
427.146	398.422
431.914	203.965
436.679	108.715
441.442	657.273
446.202	1253.88
450.96	1754.56
455.715	2243.37
460.467	2612.33
465.218	2362.64
469.965	2118.88
474.711	1408.56
479.454	761.564
484.194	208.906
488.932	85.418
493.667	92.5586
498.4	59.4004
503.13	235.598
507.858	741.35
512.583	1326.74
517.306	1341.85
522.026	830.898
526.744	429.647
531.459	4.73047
536.172	23.1367
540.882	145.793
545.59	748.771
550.295	1224.49
554.998	1617.61
559.698	1612.09
564.396	1766.35
569.091	1959.78
573.784	2380.19
578.474	2953.33
583.162	3480.02
587.847	4485.41
592.529	5811.32
597.209	7938.67
601.887	10636.6
606.562	13668.7
611.235	16659
615.905	18409.3
620.572	20635.6
625.237	23549.8
629.9	27289.8
634.56	31444.6
639.217	32681.8
643.872	28781.2
648.524	22950.8
653.174	18742
657.821	15661.5
662.466	12055.4
667.108	8995.64
671.748	6316.03
676.385	4312.38
681.02	2173.8
685.652	739.965
690.281	285.35
694.908	553.861
699.533	668.969
704.155	1265.72
708.774	1371.14
713.391	1053.89
718.005	991.812
722.617	620.119
727.226	722.338
731.833	660.121
736.437	820.887
741.039	675.299
745.638	1087.77
750.234	1684.29
754.828	2040.09
759.419	1923.13
764.008	1362.44
768.595	726.555
773.178	479.359
777.759	931.061
782.338	1637.44
786.914	2548.88
791.488	2956.32
796.059	1790.7
800.627	879.971
805.193	645.076
809.756	702.969
814.317	304.592
818.875	237.932
823.431	145.215
827.984	243.121
832.534	185.777
837.082	174.248
841.627	31.8301
846.17	2.96094
850.71	184.725
855.248	106.867
859.783	54.8652
864.316	155.94
868.846	156.648
873.373	71.8242
877.898	276.391
882.42	286.877
886.94	424.275
891.457	485.779
895.971	635.729
900.483	491.963
904.993	697.332
909.5	894.047
914.004	1010.41
918.505	1017.2
923.004	1093.33
927.501	1140.79
931.995	1219.57
936.486	1219.72
940.975	1499.81
945.461	1573.9
949.945	1830.97
954.426	1888.56
958.904	2178.36
963.38	2082.91
967.853	2163.89
972.324	2355.88
976.792	2267.2
981.258	2411.83
985.72	2343.12
990.181	2463.29
994.639	2383.75
999.094	2341.81
1003.55	2468.44
1008	2643.67
1012.44	2618.07
1016.89	2780.9
1021.33	2167.12
1025.77	2143.5
1030.21	2498.68
1034.64	1941.85
1039.07	1882.72
1043.5	1862.8
1047.93	1859.57
1052.35	2192.05
1056.78	2535.64
1061.19	2700.7
1065.61	2482.76
1070.02	2136.53
1074.43	1974.9
1078.84	1491.9
1083.25	1378.57
1087.65	1217.94
1092.05	1306.19
1096.45	1377.09
1100.85	989.91
1105.24	860.805
1109.63	875.797
1114.02	924.684
1118.4	780.414
1122.78	502.975
1127.16	533.137
1131.54	119.756
1135.92	443.67
1140.29	288.106
1144.66	129.83
1149.02	73.9609
1153.39	7.80273
1157.75	99.5938
1162.11	75.9414
1166.46	248.459
1170.82	58.9121
1175.17	22.3438
1179.52	163.037
1183.86	1.33789
1188.21	168.301
1192.55	84.0684
1196.89	70.0078
1201.22	70.0684
1205.55	19.3613
1209.88	38.8906
1214.21	316.736
1218.54	182.957
1222.86	428.707
1227.18	863.873
1231.5	862.346
1235.81	1587.16
1240.12	2073.26
1244.43	2320.59
1248.74	2843.15
1253.04	2723.89
1257.34	2568.79
1261.64	2770.88
1265.94	2865.59
1270.23	2790.49
1274.52	2541.99
1278.81	2671.62
1283.1	2756.62
1287.38	2954.43
1291.66	3237.41
1295.94	2909.35
1300.21	2422.94
1304.48	2125.83
1308.75	2685.02
1313.02	2615.73
1317.29	2518.68
1321.55	2215.52
1325.81	2053.6
1330.06	2155.55
1334.32	2143.33
1338.57	1806.6
1342.82	1884.43
1347.06	1805.51
1351.31	1890.53
1355.55	1717.03
1359.79	1741.09
1364.02	1608.39
1368.26	1184.33
1372.49	1093.97
1376.71	837.025
1380.94	783.182
1385.16	763.266
1389.38	677.543
1393.6	782.623
1397.81	526.285
1402.02	564.061
1406.23	361.6
1410.44	604.797
1414.64	504.523
1418.85	228.779
1423.04	197.352
1427.24	353.475
1431.43	291.769
1435.62	320.967
1439.81	37.8516
1444	219.502
1448.18	42.5156
1452.36	117.266
1456.54	158.941
1460.71	144.635
1464.89	117.678
1469.06	56.4824
1473.22	176.791
1477.39	3.92969
1481.55	30.7129
1485.71	2.60742
1489.86	1.68555
1494.02	63.0215
1498.17	269.617
1502.32	215.586
1506.46	271.484
1510.61	166.49
1514.75	348.617
1518.88	271.152
1523.02	262.047
1527.15	220.244
1531.28	229.461
1535.41	181.467
1539.53	159.877
1543.66	84.5684
1547.78	198.565
1551.89	283.721
1556.01	492.344
1560.12	34.3984
1564.23	232.107
1568.33	0.699219
