Measurement: Raman, 514 nm, depolarized, Raman Data Processed
Mineral: Fluorapatite
Rruff sample: R050617
Ideal chemistry: Ca_5_(PO_4_)_3_F
Locality: Santa Cruz, Sonora, Mexico
Source: University of Arizona Mineral Museum
Description: Tan colored hexagonal prism
Measured chemistry: Ca_5.00_(P_1.00_O_4_)_3_(F_0.99_Cl_0.01_)
Pin_id: L00921
Orientation: Laser parallel to -a* (-1 0 0). Fiducial mark perpendicular to laser is parallel to c [0 0 1]
Raman shift (cm-1)	intensity
105.815	0
110.744	0.413574
115.671	193.807
120.596	280.242
125.519	878.275
130.439	2310.32
135.356	5904.31
140.271	9534.09
145.184	4764.5
150.094	1879.19
155.002	975.368
159.908	431.298
164.811	202.048
169.711	41.9463
174.61	33.228
179.505	89.7129
184.399	22.1455
189.29	140.471
194.178	182.521
199.064	4.38965
203.948	68.9092
208.829	108.983
213.708	62.0478
218.585	62.3804
223.459	77.6201
228.33	83.1987
233.199	42.9175
238.066	121.52
242.93	13.0532
247.792	33.5845
252.651	28.8296
257.508	25.0137
262.363	178.046
267.215	198.602
272.064	340.307
276.912	393.064
281.756	454.784
286.598	178.849
291.438	149.584
296.276	103.961
301.111	64.9766
305.943	158.623
310.773	193.875
315.601	121.776
320.426	53.1548
325.248	76.6274
330.068	6.05615
334.886	10.3154
339.701	40.0142
344.514	40.5576
349.324	75.7749
354.132	61.6313
358.938	71.6602
363.741	128.586
368.541	71.1543
373.339	110.894
378.135	256.035
382.928	346.05
387.718	593.118
392.506	577.379
397.292	581.349
402.075	463.474
406.856	99.9062
411.634	269.147
416.41	261.372
421.183	626.665
425.954	902.735
430.722	909.337
435.488	645.773
440.251	631.899
445.012	579.345
449.77	592.824
454.526	368.726
459.28	342.04
464.03	189.428
468.779	166.866
473.525	6.20264
478.268	91.0644
483.009	37.7769
487.747	46.0908
492.483	68.9365
497.217	81.1245
501.948	195.764
506.676	340.374
511.402	523.942
516.125	458.317
520.846	176.001
525.565	318.347
530.281	47.9912
534.994	112.032
539.705	111.657
544.413	88.1602
549.119	2.66113
553.822	6.23633
558.523	29.5283
563.222	98.0938
567.917	17.2979
572.611	354.925
577.302	490.129
581.99	661.869
586.676	1048.23
591.359	953.605
596.04	478.979
600.718	322.906
605.394	760.912
610.067	343.795
614.737	342.358
619.406	341.894
624.071	653.992
628.734	714.973
633.395	1028.3
638.053	1060.59
642.708	842.312
647.361	505.082
652.012	523.447
656.66	439.086
661.305	186.918
665.948	186.519
670.588	133.176
675.226	211.227
679.861	170.336
684.494	72.5986
689.124	24.0674
693.752	53.5908
698.377	144.206
702.999	1.09277
707.619	137.205
712.237	209.193
716.852	112.839
721.464	102.23
726.074	165.962
730.681	51.7168
735.286	46.4902
739.888	115.347
744.488	131.539
749.085	147.066
753.68	63.584
758.272	65.3848
762.861	1.0918
767.448	34.9717
772.033	211.964
776.614	245.615
781.194	48.1113
785.77	87.4951
790.345	189.954
794.916	195.83
799.485	57.9707
804.052	142.388
808.616	207.526
813.177	207.768
817.736	89.6318
822.292	149.394
826.846	10.3018
831.397	202.91
835.945	124.355
840.491	88.3818
845.035	98.4932
849.576	265.879
854.114	286.754
858.65	213.715
863.183	161.607
867.713	71.5859
872.241	118.551
876.767	111.162
881.29	200.428
885.81	33.0879
890.328	47.2715
894.843	308.549
899.356	142.701
903.866	58.3262
908.373	194.84
912.878	34.8789
917.38	159.014
921.88	92.1758
926.377	46.918
930.872	35.1074
935.364	60.9043
939.853	176.576
944.34	307.717
948.824	591.594
953.306	1216.87
957.785	5528.1
962.261	12786.4
966.735	8139.5
971.207	2085.07
975.675	482.527
980.141	312.787
984.605	309.004
989.066	270.01
993.524	194.09
997.98	48.2891
1002.43	127.074
1006.88	159.828
1011.33	72.1777
1015.78	263.197
1020.22	9.38672
1024.66	251.502
1029.1	390.359
1033.53	354.861
1037.97	558.904
1042.4	838.271
1046.82	1431.81
1051.25	1523.57
1055.67	878.492
1060.09	439.631
1064.51	226.654
1068.92	111.113
1073.33	645.869
1077.74	942.686
1082.15	1387.15
1086.55	1557.23
1090.95	248.326
1095.35	171.494
1099.75	251.633
1104.14	240.555
1108.53	227.572
1112.92	19.2559
1117.31	132.303
1121.69	259.93
1126.07	364.701
1130.45	188.603
1134.82	177.33
1139.19	255.348
1143.57	23.1641
1147.93	87.3848
1152.3	126.232
1156.66	448.4
1161.02	64.6641
1165.38	34.9121
1169.73	116.553
1174.08	192.371
1178.43	225.824
1182.78	115.129
1187.12	499.127
1191.46	343.463
1195.8	34.4434
1200.14	253.592
1204.47	71.375
1208.8	264.539
1213.13	36.0547
1217.46	234.008
1221.78	197.852
1226.1	55.2285
1230.42	272.326
1234.73	205.688
1239.04	380.076
1243.35	377.123
1247.66	58.2422
1251.97	92.3711
1256.27	80.957
1260.57	40.1172
1264.86	324.254
1269.16	206.277
1273.45	152.074
1277.74	280.59
1282.03	133.734
1286.31	323.824
1290.59	67.0508
1294.87	82.5391
1299.14	334.156
1303.42	323.356
1307.69	198.769
1311.95	485.121
1316.22	101.606
1320.48	327.379
1324.74	249.832
1329	356.738
1333.26	213
1337.51	419.086
1341.76	160.496
1346	355.062
1350.25	175.512
1354.49	21.7852
1358.73	266.562
1362.96	452.977
1367.2	128.359
1371.43	151.344
1375.66	88.5039
1379.88	221.637
1384.11	8.58984
1388.33	154.203
1392.54	140.141
1396.76	264.109
1400.97	24.8594
1405.18	409.637
1409.39	38.5312
1413.59	265.688
1417.8	31.8633
1421.99	83.3516
1426.19	254.18
1430.38	7.77734
1434.58	313.777
1438.77	631.066
1442.95	112.527
1447.13	295.82
1451.32	297.805
1455.49	298.496
1459.67	209.152
1463.84	290.891
1468.01	282.574
1472.18	78.543
1476.35	299.465
1480.51	436.977
1484.67	254.867
1488.83	199.926
1492.98	377.82
1497.13	401.238
1501.28	199.574
1505.43	135.953
1509.57	421.703
1513.71	175.633
1517.85	269.68
1521.99	276.059
1526.12	170.367
1530.25	227.473
1534.38	165.711
1538.5	424.32
1542.62	294.434
1546.74	98.1914
1550.86	301.199
1554.98	279.949
1559.09	357.43
1563.2	18.3555
1567.31	112.172
1571.41	0
