Measurement: Raman, 514 nm, depolarized, Raman Data Processed
Mineral: Fluorite
Rruff sample: R050115
Ideal chemistry: CaF_2_
Locality: Isthak Valley Iskardu, N.A. Gilgit, Pakistan
Source: Syed Shah
Description: Colorless fragment
Measured chemistry: CaF_2_
Pin_id: L00441
Orientation: Laser parallel to -a* (-1 0 0). Fiducial mark perpendicular to laser is parallel to b [0 1 0]
Raman shift (cm-1)	intensity
97.628	0
101.812	39.906
105.994	150.622
110.174	164.675
114.351	276.099
118.527	213.71
122.701	228.601
126.873	256.524
131.042	346.089
135.21	1032.54
139.376	2413.11
143.539	3783.99
147.701	3740.86
151.861	1362.64
156.018	467.854
160.174	334.594
164.327	556.775
168.479	201.275
172.628	4.908
176.776	2.237
180.922	19.062
185.065	65.562
189.207	46.401
193.346	46.765
197.484	23.24
201.619	38.461
205.753	26.005
209.884	117.55
214.014	310.227
218.141	603.073
222.267	1412.83
226.391	1577.29
230.512	1191.49
234.632	1287.61
238.749	1922.99
242.865	2280.7
246.979	1322.69
251.09	1286.92
255.2	1170.7
259.308	2102.47
263.414	2308.92
267.517	1249.91
271.619	1091.68
275.719	974.137
279.817	1168.11
283.913	1230.52
288.007	1336.88
292.099	1150.72
296.189	972.496
300.277	918.205
304.363	855.527
308.447	822.462
312.529	887.105
316.609	1008.55
320.687	1203.6
324.764	1046.21
328.838	901.311
332.91	947.745
336.981	943.275
341.049	903.313
345.116	909.025
349.18	1032.34
353.243	987.208
357.304	940.161
361.362	1001.88
365.419	966.314
369.474	829.936
373.527	661.915
377.578	640.99
381.627	463.896
385.674	442.263
389.719	316.655
393.762	315.314
397.804	267.284
401.843	164.96
405.881	90.306
409.916	25.87
413.95	42.771
417.981	111.579
422.011	64.736
426.039	33.303
430.065	56.314
434.089	16.621
438.111	40.03
442.131	90.868
446.149	167.364
450.166	141.644
454.18	76.01
458.193	96.307
462.203	128.554
466.212	235.245
470.219	194.572
474.224	235.107
478.227	353.576
482.228	534.905
486.227	588.142
490.224	736.432
494.22	857.054
498.213	742.315
502.205	661.488
506.194	473.434
510.182	416.787
514.168	463.678
518.152	512.07
522.134	377.092
526.114	226.518
530.093	191.381
534.069	267.626
538.044	218.231
542.017	282.18
545.987	175.475
549.956	200.098
553.923	192.04
557.889	256.294
561.852	216.862
565.813	245.737
569.773	310.548
573.731	350.412
577.686	280.989
581.64	284.079
585.593	269.284
589.543	300.919
593.491	344.138
597.438	248.773
601.382	233.367
605.325	226.154
609.266	160.589
613.205	123.011
617.142	62.966
621.078	32.46
625.011	221.835
628.943	177.716
632.872	93.823
636.8	230.873
640.726	90.965
644.651	122.804
648.573	8.312
652.494	72.823
656.412	38.804
660.329	302.703
664.244	895.866
668.157	1310.02
672.069	785.477
675.978	478.357
679.886	733.368
683.792	1463.72
687.696	2096.09
691.598	2180.23
695.498	1457.87
699.397	985.305
703.293	946.417
707.188	1035.2
711.081	971.615
714.972	829.063
718.862	622.4
722.749	541.372
726.635	445.286
730.519	313.76
734.401	172.834
738.281	39.206
742.16	0.597
746.036	62.961
749.911	86.691
753.784	34.157
757.655	255.911
761.525	495.039
765.392	431.808
769.258	353.469
773.122	476.772
776.984	844.32
780.844	1157.25
784.703	1264.77
788.56	1480.32
792.415	1636.3
796.268	1982.8
800.119	2461.6
803.969	2924.52
807.816	3002.43
811.662	2863.52
815.506	2671.47
819.349	2713.85
823.189	3156.18
827.028	4021.21
830.865	5599.99
834.7	8820.8
838.534	5651.48
842.365	4979.24
846.195	6089.77
850.023	8062.28
853.85	8813
857.674	9758.82
861.497	11964.1
865.318	15089
869.137	19113.3
872.955	21487.2
876.77	21180.7
880.584	18973.8
884.396	15925.8
888.207	13433.9
892.015	11357.2
895.822	9369.45
899.627	7854.52
903.43	6963.12
907.232	10570.8
911.032	32369.3
914.83	13860
918.626	11119.8
922.42	19209.4
926.213	27009.7
930.004	19720.5
933.793	13701.2
937.581	22222.1
941.366	10683.2
945.15	26954.9
948.932	43327.2
952.713	9810
956.491	3203.25
960.268	2756.85
964.044	770.725
967.817	14.842
971.589	411.559
975.359	519.726
979.127	550.036
982.893	282.612
986.658	136.96
990.421	97.372
994.183	101.2
997.942	275.105
1001.7	719.396
1005.46	904.14
1009.21	1349.37
1012.96	1605.1
1016.71	1961.41
1020.46	2168.32
1024.21	2095.83
1027.96	2343.98
1031.7	2712.79
1035.44	2862.31
1039.18	3342.6
1042.92	3523.72
1046.66	3635.86
1050.39	3759.22
1054.13	3684.01
1057.86	3910.09
1061.59	4077.18
1065.32	3755.22
1069.05	3514.22
1072.77	3044.23
1076.49	2675.25
1080.22	2827.31
1083.94	2820.43
1087.65	3164.63
1091.37	3199.94
1095.09	2756.38
1098.8	2623.96
1102.51	2762.71
1106.22	2872.63
1109.93	3103.75
1113.63	3196.1
1117.34	3371.42
1121.04	2961.91
1124.74	2400.93
1128.44	2483.28
1132.14	2550.21
1135.84	2728.95
1139.53	2981.92
1143.22	2917.68
1146.91	2711.8
1150.61	2760.28
1154.29	2560.48
1157.98	2172.4
1161.66	2306.11
1165.35	2094.34
1169.03	2332.11
1172.71	2241.14
1176.38	1861.98
1180.06	1444.67
1183.73	1069.19
1187.41	605.557
1191.08	653.758
1194.75	593.822
1198.41	885.785
1202.08	869.646
1205.74	675.416
1209.41	463.061
1213.07	312.59
1216.73	284.051
1220.38	277.434
1224.04	402.723
1227.69	639.93
1231.35	1049.05
1235	750.115
1238.65	753.09
1242.3	447.826
1245.94	634.336
1249.59	782.646
1253.23	922.777
1256.87	1184.75
1260.51	1478.54
1264.15	1534.24
1267.78	1423.46
1271.42	1096.47
1275.05	1105.88
1278.68	914.963
1282.31	595.031
1285.94	577.707
1289.56	822.619
1293.19	779.512
1296.81	688.309
1300.43	479.016
1304.05	171.635
1307.67	213.832
1311.29	67.42
1314.9	160.914
1318.52	481.207
1322.13	963.477
1325.74	1197.53
1329.34	1271.37
1332.95	1255.92
1336.56	1512.26
1340.16	1463.66
1343.76	1825.33
1347.36	2181.41
1350.96	3664.65
1354.56	5839.43
1358.15	12126.1
1361.74	18558.5
1365.34	14328
1368.93	6279.28
1372.52	3371.85
1376.1	3176.88
1379.69	3594.12
1383.27	3059.81
1386.85	2935.95
1390.43	3984.99
1394.01	8726.96
1397.59	13181.6
1401.17	6277.05
1404.74	2314.2
1408.31	313.744
1411.88	454.387
1415.45	540.283
1419.02	538.465
1422.59	19.93
1426.15	2130.42
1429.71	3033.13
1433.28	1157.97
1436.84	384.762
1440.39	1103.62
1443.95	2154.43
1447.5	2707.26
1451.06	1962.12
1454.61	769.446
1458.16	280.254
1461.71	1054.47
1465.26	2332.27
1468.8	1727.15
1472.34	777.958
1475.89	586.209
1479.43	565.196
1482.97	474.292
1486.5	312.681
1490.04	239.128
1493.57	91.29
1497.11	80.139
1500.64	17.327
1504.17	210.393
1507.69	282.731
1511.22	294.405
1514.74	561.044
1518.27	663.027
1521.79	0
