Measurement: Raman, 514 nm, depolarized, Raman Data Processed
Mineral: Fluorophlogopite
Rruff sample: R040042
Ideal chemistry: KMg_3_(Si_3_Al)O_10_F_2_
Locality: Franklin, Sussex County, New Jersey, USA
Source: University of Arizona Mineral Museum
Description: Brown flattened hexagonal prism, polytype 1M
Measured chemistry: (K_0.92_Na_0.08_)_Σ=1_(Mg_2.95_Fe_0.05_)_Σ=3_(Si_3.00_Al_1.00_)O_10_(F_1.40_(OH)_0.60_)_Σ=2_; trace amounts of Ti; OH estimated by charge balance
Pin_id: L00540
Orientation: Laser parallel to -a* (-1 0 0). Fiducial mark perpendicular to laser is parallel to -b [0 -1 0]
Raman shift (cm-1)	intensity
128.807	0
133.726	850.672
138.642	3.32812
143.556	13.1875
148.468	722.672
153.377	360.469
158.283	529.203
163.187	1088
168.088	2803.97
172.987	4808.36
177.884	7476.19
182.778	14486.4
187.67	31009.8
192.559	61483.8
197.445	91548.8
202.33	71056.6
207.211	30108.8
212.091	14220.3
216.967	8505.41
221.842	5738.33
226.713	3328.48
231.583	2645.02
236.449	2674.45
241.314	2210.64
246.176	2904.83
251.035	1894.69
255.892	2449.06
260.746	3231.88
265.598	6077.36
270.448	10251.2
275.295	18960.8
280.139	26893.7
284.981	20118.1
289.82	9984.97
294.657	6369.66
299.492	5698.89
304.324	7256.86
309.153	9991.64
313.98	14643.2
318.805	18340.7
323.627	19069.9
328.446	16010.7
333.263	11629.3
338.078	7616.17
342.89	5842.16
347.699	4366.34
352.506	4003.02
357.311	4015.23
362.113	4214.23
366.912	4314.09
371.709	4638.67
376.504	3830.84
381.295	2575.42
386.085	2037.2
390.872	1946.25
395.656	1515.52
400.438	1730.25
405.218	1377.94
409.994	947.266
414.769	963.297
419.541	543.625
424.31	1037.45
429.077	1349.41
433.841	634.281
438.603	1266.88
443.362	1204.39
448.119	1794.44
452.873	2477.62
457.625	1724.35
462.374	1279.92
467.121	631.281
471.865	171.344
476.607	33.7188
481.346	464.422
486.082	55.9688
490.816	16.6719
495.548	278.844
500.277	330.016
505.003	504.281
509.727	216.922
514.449	1087.81
519.168	499.938
523.884	438.188
528.598	725.469
533.309	362.469
538.018	94.7188
542.724	454.188
547.428	1078.55
552.129	34.9531
556.828	50.6094
561.524	21.9688
566.217	375.297
570.909	970.609
575.597	758.594
580.283	388.094
584.966	27.9844
589.647	322.203
594.326	595.594
599.001	1018.69
603.675	574.594
608.345	811.609
613.014	1918.34
617.679	2716.47
622.342	3909.39
627.003	5957.42
631.661	8737.16
636.316	11318.2
640.969	12186.8
645.62	11432.1
650.267	11800.8
654.913	12427.2
659.555	13541.6
664.196	16432
668.833	21898
673.468	31741.1
678.101	45938.9
682.731	56672.9
687.358	52005.8
691.983	39205.4
696.605	24591.8
701.225	13429.5
705.842	8181.58
710.457	6155.95
715.069	4211.72
719.679	3026.94
724.286	2267.44
728.89	1371.84
733.492	1586.64
738.091	1765
742.688	824.891
747.282	1139.67
751.874	1087.86
756.463	1819.98
761.05	819.625
765.634	570.391
770.215	1081.73
774.794	1171.17
779.37	1925.42
783.944	1953.72
788.515	2151.38
793.084	1232.88
797.65	1938.44
802.213	1535.41
806.774	1243.55
811.332	1215
815.888	214.5
820.441	697.75
824.992	1346.66
829.54	800.25
834.085	710.406
838.628	1045.38
843.169	1194.12
847.706	251.031
852.242	717.375
856.774	1118.28
861.304	113.469
865.832	196.312
870.357	218.562
874.879	353.375
879.399	539.812
883.916	311.344
888.431	317.969
892.943	1525.88
897.452	1718.72
901.959	1081.62
906.463	1787.34
910.965	1347.91
915.464	1409.44
919.961	1593.41
924.455	1755.62
928.946	1457.44
933.435	2255.91
937.922	1712.97
942.405	937.219
946.886	842.688
951.365	1821.5
955.841	801.094
960.314	128.594
964.785	2617.69
969.253	1702.69
973.719	1762.9
978.182	2061.78
982.642	2073
987.1	847.75
991.556	1979.94
996.008	1820.62
1000.46	1600.59
1004.91	1888.28
1009.35	3367.09
1013.79	3950.03
1018.23	3974.75
1022.67	4756.72
1027.11	9206.81
1031.54	15499.2
1035.97	23112.5
1040.39	18512.8
1044.82	11705.3
1049.24	7490.75
1053.66	4839.62
1058.08	3154.34
1062.49	2607.03
1066.9	1830.09
1071.31	2078.28
1075.71	3002.06
1080.12	1903.78
1084.52	2546.28
1088.92	2619.44
1093.31	4022.59
1097.71	3397.72
1102.1	2356.81
1106.48	3082.88
1110.87	2149.94
1115.25	1665
1119.63	2012.28
1124.01	446.594
1128.39	492.062
1132.76	803.906
1137.13	66.25
1141.5	493.125
1145.86	574.25
1150.22	511.469
1154.58	258.188
1158.94	1183.25
1163.29	590.031
1167.64	1301.22
1171.99	1337.25
1176.34	1609.31
1180.68	642.188
1185.03	1106.94
1189.36	263.719
1193.7	761.719
1198.03	1445.88
1202.36	733.719
1206.69	1491.69
1211.02	1688.94
1215.34	912.344
1219.66	837.875
1223.98	797.438
1228.3	544.844
1232.61	974.344
1236.92	581.344
1241.22	203.625
1245.53	1385
1249.83	1137.56
1254.13	964.406
1258.43	1591.5
1262.72	299.25
1267.02	1153.03
1271.3	1059.03
1275.59	749.812
1279.88	788.188
1284.16	1613.22
1288.43	356.375
1292.71	1983.59
1296.98	1276.53
1301.26	1274.53
1305.52	1470.03
1309.79	1515.5
1314.05	2346.81
1318.31	2190.44
1322.57	1619.44
1326.83	2619.97
1331.08	1084.06
1335.33	1106.81
1339.58	1741.28
1343.82	738.438
1348.07	2270.97
1352.31	1955.91
1356.54	1215.84
1360.78	2619.66
1365.01	948.688
1369.24	1276.31
1373.46	2585.5
1377.69	849.25
1381.91	885.688
1386.13	999.094
1390.35	615.531
1394.56	1482.28
1398.77	134.344
1402.98	1715.84
1407.18	390.031
1411.39	461.969
1415.59	1296.22
1419.79	428.156
1423.98	228.438
1428.17	360.75
1432.36	150.312
1436.55	1653.16
1440.74	633.188
1444.92	1524.41
1449.1	1115.5
1453.28	544.969
1457.45	1347.12
1461.62	896.438
1465.79	1560.88
1469.96	2286
1474.12	866.531
1478.28	1537.5
1482.44	81
1486.6	1540.19
1490.75	233.75
1494.9	9.125
1499.05	1410.72
1503.19	172.469
1507.34	1741.59
1511.48	1886.34
1515.62	2165.91
1519.75	2351.12
1523.88	1332.62
1528.02	3183.22
1532.14	1937.72
1536.27	2730.06
1540.39	1894.78
1544.51	2255.47
1548.62	2954.91
1552.74	1491.78
1556.85	2158.47
1560.96	2259.94
1565.07	701.406
1569.17	1422.44
1573.27	1389.31
1577.37	2375.44
