Measurement: Raman, 514 nm, depolarized, Raman Data Processed
Mineral: Fluorapophyllite-(K)
Rruff sample: R050084
Ideal chemistry: KCa_4_Si_8_O_20_F8H_2_O
Locality: near Ahmednagar, Maharashtra, India
Source: Rock Currier
Description: Greenish-white prismatic single crystal associated with scolecite
Measured chemistry: (K_0.98_Na_0.02_)Ca_4.00_Si_8.00_O_20_F_1.00_Â·8H_2_O
Pin_id: L00295
Orientation: Laser parallel to -a* (-1 0 0). Fiducial mark perpendicular to laser is parallel to -c [0 0 -1]
Raman shift (cm-1)	intensity
81.728	0
85.929	17.978
90.128	110.979
94.324	847.295
98.519	452.78
102.712	1121.89
106.902	8400.98
111.09	8207.19
115.277	1310.79
119.461	1431.69
123.643	619.763
127.823	983.089
132.001	1121.61
136.176	762.227
140.35	2398.93
144.521	1369.48
148.691	393.497
152.858	157.472
157.024	418.514
161.187	2115.98
165.348	4880.69
169.507	4773.58
173.664	1635.24
177.819	755.546
181.971	801.481
186.122	2515.49
190.271	2321.59
194.417	1194.76
198.562	1098.91
202.704	1673.89
206.844	3245.64
210.983	5739.9
215.119	4378.37
219.253	2593.84
223.385	2057.84
227.515	2305.76
231.643	2466.39
235.769	1664.53
239.893	642.85
244.014	0.958
248.134	297.729
252.252	315.696
256.367	224.814
260.481	170.678
264.592	238.617
268.702	709.293
272.809	575.281
276.915	130.386
281.018	10.555
285.119	145.241
289.218	261.95
293.316	677.399
297.411	1630.43
301.504	2145.18
305.595	1352.78
309.684	985.354
313.771	1172.01
317.856	1345.3
321.939	1397.32
326.02	1443.61
330.099	1433.24
334.176	1493.76
338.251	1514.03
342.323	1566.45
346.394	1102.35
350.463	664.366
354.53	327.966
358.594	195.279
362.657	134.28
366.718	100.937
370.777	73.242
374.833	118.217
378.888	186.889
382.941	189.26
386.992	238.271
391.04	443.838
395.087	943.095
399.132	1523.12
403.174	1576.84
407.215	1240.4
411.254	1032.12
415.29	793.107
419.325	637.342
423.358	735.483
427.389	1861.32
431.417	5106.66
435.444	6991.36
439.469	2518.46
443.492	1023.72
447.512	539.953
451.531	295.389
455.548	266.812
459.563	275.96
463.576	656.893
467.587	737.623
471.596	483.168
475.603	640.539
479.608	1670.76
483.611	4287.84
487.612	6901.76
491.611	3932.57
495.608	1961.28
499.603	1318.96
503.596	1032.64
507.587	728.317
511.577	692.999
515.564	785.351
519.549	888.927
523.533	1062.33
527.514	1385.78
531.493	2383.78
535.471	3687.86
539.447	4456.44
543.42	4262.3
547.392	3991.43
551.362	3751.98
555.329	3334.07
559.295	3004.4
563.259	2967.31
567.221	3822.57
571.181	5033.48
575.139	6389.09
579.095	8412.36
583.049	13947.6
587.002	15655.6
590.952	12626.2
594.9	7206.42
598.847	4138.71
602.792	2866.15
606.734	2073.8
610.675	1555.17
614.614	1057.64
618.55	783.161
622.485	808.722
626.418	852.501
630.349	813.148
634.279	642.826
638.206	703.525
642.131	883.244
646.055	974.982
649.976	1062.74
653.896	1113.68
657.814	1456.99
661.729	1988.16
665.643	2246.21
669.555	1838.23
673.465	1210.07
677.373	872.964
681.28	657.92
685.184	443.974
689.087	254.125
692.987	123.346
696.886	11.378
700.783	23.022
704.677	89.318
708.57	16.353
712.462	84.229
716.351	95.208
720.238	30.599
724.124	22.142
728.007	29.456
731.889	94.145
735.769	111.526
739.647	67.872
743.523	3.314
747.397	42.789
751.269	47.382
755.139	47.8
759.008	48.465
762.875	232.737
766.739	393.508
770.602	294.072
774.463	172.719
778.323	140.19
782.18	219.259
786.035	321.061
789.889	447.272
793.741	613.249
797.591	517.071
801.439	313.751
805.285	247.289
809.129	153.68
812.971	83.914
816.812	90.99
820.651	133.913
824.488	209.687
828.323	265.31
832.156	223.784
835.987	236.11
839.817	147.284
843.644	263.306
847.47	299.175
851.294	319.382
855.116	187.083
858.936	113.808
862.755	168.082
866.571	174.36
870.386	196.135
874.199	143.766
878.01	51.996
881.82	34.628
885.627	73.129
889.433	71.69
893.236	143.036
897.038	86.111
900.838	31.813
904.637	10.019
908.433	47.78
912.228	65.786
916.021	88.032
919.812	31.38
923.601	57.587
927.388	30.301
931.174	4.724
934.958	73.475
938.739	131.309
942.52	76.073
946.298	22.784
950.074	16.447
953.849	78.064
957.622	138.638
961.393	157.035
965.162	175.801
968.93	99.944
972.696	148.343
976.459	113.606
980.222	128.015
983.982	199.404
987.74	241.774
991.497	192.141
995.252	137.488
999.005	201.065
1002.76	287.393
1006.51	662.63
1010.25	905.888
1014	693.298
1017.74	397.764
1021.49	290.226
1025.23	338.965
1028.96	485.247
1032.7	576.666
1036.44	804.908
1040.17	902.368
1043.9	1231.34
1047.63	1799.72
1051.36	3226.72
1055.09	6911.24
1058.81	14589.5
1062.54	22365.1
1066.26	15293.5
1069.97	7419.13
1073.69	4172.02
1077.41	2723.62
1081.12	1986.07
1084.84	1615.36
1088.55	1465.45
1092.25	1242.03
1095.96	804.748
1099.67	524.63
1103.37	462.561
1107.07	473.576
1110.77	474.384
1114.47	445.263
1118.16	416.202
1121.86	262.76
1125.55	285.366
1129.24	112.174
1132.93	120.293
1136.62	221.631
1140.31	265.761
1143.99	169.118
1147.67	68.472
1151.35	16.779
1155.03	27.107
1158.71	30.483
1162.39	94.052
1166.06	141.701
1169.73	179.091
1173.4	143.253
1177.07	35.19
1180.74	4.449
1184.4	10.461
1188.07	31.878
1191.73	93.904
1195.39	138.218
1199.05	48.872
1202.7	77.907
1206.36	7.152
1210.01	42.331
1213.66	16.82
1217.31	13.945
1220.96	78.632
1224.6	134.691
1228.25	236.573
1231.89	174.861
1235.53	91.482
1239.17	29.483
1242.81	7.354
1246.44	24.386
1250.08	81.481
1253.71	157.165
1257.34	118.694
1260.97	204.291
1264.6	157.047
1268.22	83.777
1271.85	0.512
1275.47	41.241
1279.09	91.318
1282.71	161.923
1286.33	209.734
1289.94	124.805
1293.56	148.163
1297.17	98.706
1300.78	30.723
1304.39	7.099
1307.99	4.099
1311.6	17.249
1315.2	132.958
1318.8	15.616
1322.4	192.451
1326	180.776
1329.6	124.498
1333.19	49.323
1336.79	3.859
1340.38	20.7
1343.97	10.859
1347.56	65.444
1351.14	94.552
1354.73	190.957
1358.31	136.558
1361.89	153.029
1365.47	113.179
1369.05	112.493
1372.63	13.535
1376.2	11.466
1379.78	39.965
1383.35	107.938
1386.92	139.558
1390.49	176.012
1394.05	195.572
1397.62	151.248
1401.18	98.833
1404.74	92.323
1408.3	23.621
1411.86	20.93
1415.42	23.434
1418.97	98.865
1422.53	140.782
1426.08	163.851
1429.63	202.912
1433.18	189.611
1436.72	182.125
1440.27	137.578
1443.81	108.676
1447.36	124.561
1450.89	92.084
1454.43	37.5
1457.97	63.204
1461.51	167.932
1465.04	234.228
1468.57	231.829
1472.1	270.569
1475.63	262.66
1479.16	214.107
1482.68	201.194
1486.21	81.095
1489.73	4.734
1493.25	64.491
1496.77	48.908
1500.29	78.365
1503.8	111.27
1507.32	176.047
1510.83	202.315
1514.34	204.072
1517.85	150.049
1521.36	0
