Measurement: Raman, 514 nm, depolarized, Raman Data Processed
Mineral: Fluor-uvite
Rruff sample: R050172
Ideal chemistry: CaMg_3_(Al_5_Mg)(Si_6_O_18_)(BO_3_)_3_(OH)_3_F
Locality: Pierrepont, New York, USA
Source: Marcus Origlieri
Description: Black prismatic crystal
Measured chemistry: (Ca_0.64_Na_0.36_)(Mg_0.56_Fe^2+^_0.34_Al_0.08_Ti_0.02_)_3_(Mg_1.00_Al_5.00_)(BO_3_)_3_Si_6.00_O_18_((OH)_3.45_F_0.55_)
Pin_id: M00231
Orientation: Laser parallel to c* (0 0 1). Fiducial mark perpendicular to laser is parallel to -a [-1 0 0]
Raman shift (cm-1)	intensity
153.864	0
158.792	111.047
163.718	182.416
168.641	1748.26
173.562	333.147
178.479	339.295
183.394	627.072
188.305	951.262
193.214	1441.49
198.12	2159.12
203.024	2948.97
207.924	2397.2
212.822	2612.93
217.717	2331.19
222.609	2203.93
227.498	2202.16
232.385	2061.75
237.269	1621.82
242.149	1390.69
247.027	763.257
251.903	661.682
256.775	465.563
261.645	415.743
266.512	314.07
271.376	255.712
276.237	220.868
281.096	64.2432
285.952	107.058
290.805	434.041
295.655	272.94
300.502	195.706
305.347	195.419
310.189	478.601
315.028	819.971
319.864	1251.66
324.698	1685.52
329.528	1966.49
334.356	2251.85
339.182	2426.79
344.004	2754.19
348.824	2902.95
353.641	3504.07
358.455	3940.9
363.266	4771.91
368.075	5426.61
372.881	5295.43
377.684	4804.63
382.484	4004.61
387.282	3472.32
392.077	3179.32
396.869	2671.14
401.658	2240.21
406.445	2005.52
411.229	1868.51
416.01	1603.38
420.788	1336.04
425.564	1131.58
430.337	748.626
435.107	535.347
439.875	388.76
444.639	350.401
449.401	156.641
454.161	143.044
458.917	313.796
463.671	346.129
468.422	542.644
473.17	651.65
477.916	627.269
482.659	795.262
487.399	834.062
492.137	933.423
496.872	933.043
501.604	967.089
506.333	917.514
511.06	881.896
515.784	1024.56
520.505	1249.87
525.223	1450.05
529.939	1697.99
534.652	1659.07
539.363	1764.77
544.07	1845.81
548.775	1811.94
553.478	1572.13
558.177	1531.29
562.874	1457.06
567.568	1282.98
572.26	1530.85
576.949	1371.26
581.635	1155.43
586.319	1094.32
590.999	988.577
595.677	1014.88
600.353	752.115
605.026	675.878
609.696	733.929
614.363	713.18
619.028	675.579
623.69	214.086
628.349	54.6982
633.006	11.5908
637.66	171.045
642.311	140.45
646.96	73.6856
651.606	273.791
656.25	516.935
660.89	771.098
665.528	550.25
670.164	378.366
674.797	463.412
679.427	563.438
684.054	704.137
688.679	978.395
693.301	1261.88
697.921	1607.62
702.537	2265.07
707.152	3162.07
711.763	4312.49
716.372	5996.74
720.978	8123.6
725.582	9242.71
730.183	9174.57
734.781	9368.33
739.377	8968.26
743.97	9172.57
748.561	9180.75
753.149	9425.35
757.734	9788.31
762.316	9820.25
766.896	10168.7
771.474	10009.9
776.048	9232.6
780.62	7774.03
785.19	6526.09
789.757	5879.53
794.321	5121.45
798.883	4065.68
803.442	2847.18
807.998	2101.92
812.552	1485.87
817.103	961.984
821.652	456.242
826.198	372.617
830.741	54.2539
835.282	132.395
839.82	287.453
844.355	223.01
848.888	112.426
853.419	98.1992
857.946	39.1963
862.472	149.155
866.994	197.333
871.514	247.93
876.032	293.25
880.546	278.353
885.059	303.245
889.568	510.933
894.075	534.533
898.58	606.188
903.082	526.843
907.581	844.471
912.078	942.193
916.572	972.225
921.063	1059.59
925.552	1129.09
930.039	1312.74
934.523	1469.47
939.004	1643.35
943.483	1796.35
947.959	1956.38
952.432	2261.48
956.903	2352.64
961.372	2638.98
965.838	2709.01
970.301	2676.01
974.762	2775.77
979.22	2692.58
983.676	2696.71
988.129	2491.75
992.58	2292.4
997.028	2027.26
1001.47	2116.86
1005.92	2017.45
1010.36	1846.78
1014.79	2024.94
1019.23	2039.35
1023.66	2069.82
1028.09	2188.49
1032.52	2199.75
1036.94	2431.43
1041.37	2382.79
1045.79	2578.51
1050.2	2339.13
1054.62	2412.43
1059.03	2577.26
1063.44	2507.75
1067.85	2463.36
1072.26	2462.71
1076.66	2155.79
1081.06	1917.88
1085.45	1763
1089.85	1654.18
1094.24	1628.44
1098.63	1543.88
1103.02	1157.93
1107.4	1148.13
1111.79	784.125
1116.17	841.954
1120.54	483.442
1124.92	402.918
1129.29	433.242
1133.66	336.081
1138.03	277.357
1142.39	286.946
1146.75	258.948
1151.11	273.318
1155.47	58.0215
1159.83	46.0801
1164.18	101.851
1168.53	31.8984
1172.87	66.6367
1177.22	118.623
1181.56	95.9756
1185.9	58.4531
1190.24	12.0713
1194.57	42.3857
1198.9	114.711
1203.23	16.9258
1207.56	116.759
1211.89	252.883
1216.21	466.302
1220.53	302.749
1224.85	458.031
1229.16	575.337
1233.47	659.925
1237.78	761.775
1242.09	709.863
1246.4	651.162
1250.7	771.648
1255	587.304
1259.3	471.114
1263.59	400.068
1267.88	530.159
1272.17	602.582
1276.46	506.351
1280.75	426.931
1285.03	407.765
1289.31	459.902
1293.59	319.776
1297.87	242.634
1302.14	356.054
1306.41	259.312
1310.68	498.044
1314.94	248.944
1319.21	355.468
1323.47	401.073
1327.72	85.5752
1331.98	153.135
1336.23	136.38
1340.49	94.791
1344.73	113.366
1348.98	94.0723
1353.22	131.714
1357.47	120.311
1361.7	282.746
1365.94	260.997
1370.17	365.313
1374.41	183.721
1378.64	344.185
1382.86	213.266
1387.09	231.241
1391.31	201.381
1395.53	285.888
1399.75	20.5605
1403.96	13.5352
1408.17	134.523
1412.38	26.2637
1416.59	52.9863
1420.8	36.9385
1425	164.527
1429.2	12.1846
1433.4	226.884
1437.59	212.023
1441.78	152.106
1445.97	313.478
1450.16	226.85
1454.35	321.007
1458.53	350.41
1462.71	406.104
1466.89	280.685
1471.07	337.514
1475.24	225.559
1479.41	394.55
1483.58	311.888
1487.75	366.056
1491.91	239.272
1496.07	206.131
1500.23	371.633
1504.39	253.589
1508.55	261.713
1512.7	311.057
1516.85	147.865
1520.99	183.495
1525.14	343.474
1529.28	199.143
1533.42	238.506
1537.56	131.655
1541.7	62.625
1545.83	35.7617
