Measurement: Raman, 514 nm, depolarized, Raman Data Processed
Mineral: Fluorapatite
Rruff sample: R050401
Ideal chemistry: Ca_5_(PO_4_)_3_F
Locality: Urbano mine, Golconda District, Minas Gerais, Brazil
Source: Bob Downs
Description: Pale purple hexagonal prism associated with albite R050402
Measured chemistry: (Ca_0.99_Mn_0.01_)_5_(P_1.00_O_4_)_3_F_1.00_
Pin_id: L01966
Orientation: Laser parallel to a* (1 0 0). Fiducial mark perpendicular to laser is parallel to c [0 0 1]
Raman shift (cm-1)	intensity
140.271	0
145.184	33.769
150.094	39.479
155.002	91.9341
159.908	87.0508
164.811	118.9
169.711	106.341
174.61	78.6631
179.505	85.9209
184.399	74.5747
189.29	61.4995
194.178	50.5361
199.064	129.81
203.948	137.47
208.829	127.115
213.708	131.167
218.585	78.2925
223.459	47.2437
228.33	112.904
233.199	122.853
238.066	177.329
242.93	97.8467
247.792	59.0596
252.651	126.537
257.508	114.38
262.363	97.6997
267.215	176.123
272.064	134.51
276.912	137.447
281.756	109.738
286.598	62.2285
291.438	45.4756
296.276	171.8
301.111	204.645
305.943	185.594
310.773	90.083
315.601	101.411
320.426	72.2031
325.248	34.2153
330.068	33.2778
334.886	104.248
339.701	70.5303
344.514	67.3628
349.324	51.2046
354.132	99.9927
358.938	127.385
363.741	142.081
368.541	46.291
373.339	138.282
378.135	24.1943
382.928	119.682
387.718	56.709
392.506	84.5606
397.292	144.804
402.075	99.2734
406.856	111.29
411.634	174.797
416.41	102.812
421.183	303.267
425.954	450.719
430.722	391.66
435.488	433.272
440.251	307.979
445.012	324.707
449.77	434.283
454.526	259.261
459.28	94.2852
464.03	141.169
468.779	83.5674
473.525	181.533
478.268	155.517
483.009	63.8242
487.747	176.931
492.483	46.9883
497.217	17.8418
501.948	260.654
506.676	57.8897
511.402	182.347
516.125	54.4853
520.846	207.492
525.565	50.1172
530.281	103.869
534.994	202.913
539.705	68.0439
544.413	43.6611
549.119	282.565
553.822	0.506836
558.523	120.082
563.222	169.816
567.917	173.623
572.611	252.46
577.302	240.414
581.99	240.505
586.676	421.588
591.359	452.757
596.04	349.247
600.718	310.39
605.394	309.63
610.067	232.882
614.737	190.15
619.406	131.13
624.071	204.183
628.734	41.7949
633.395	24.8779
638.053	14.2119
642.708	31.1094
647.361	98.9981
652.012	115.095
656.66	260.269
661.305	89.2519
665.948	177.982
670.588	215.371
675.226	109.541
679.861	191.797
684.494	107.25
689.124	132.539
693.752	174.941
698.377	175.514
702.999	354.412
707.619	52.8848
712.237	186.928
716.852	102.256
721.464	125.834
726.074	141.285
730.681	109.029
735.286	27.6445
739.888	179.469
744.488	275.459
749.085	298.312
753.68	336.773
758.272	50.4551
762.861	220.363
767.448	186.432
772.033	59.9102
776.614	177.963
781.194	53.1914
785.77	408.76
790.345	47.4727
794.916	336.435
799.485	44.5547
804.052	163.1
808.616	225.643
813.177	115.131
817.736	149.139
822.292	100.795
826.846	99.2832
831.397	264.996
835.945	80.3769
840.491	147.266
845.035	153.389
849.576	156.688
854.114	245.307
858.65	162.312
863.183	212.455
867.713	449.769
872.241	298.301
876.767	176.547
881.29	32.4512
885.81	62.6855
890.328	6.75586
894.843	323.359
899.356	166.852
903.866	9.18555
908.373	121.107
912.878	150.994
917.38	45.3438
921.88	30.3086
926.377	200.951
930.872	39.7988
935.364	51.6914
939.853	161.383
944.34	368.432
948.824	348.949
953.306	465.728
957.785	1548.3
962.261	6125.11
966.735	5200.71
971.207	921.707
975.675	136.789
980.141	60.8477
984.605	210.059
989.066	83.9297
993.524	134.394
997.98	158.856
1002.43	87.6211
1006.88	123.863
1011.33	231.594
1015.78	80.2734
1020.22	123.113
1024.66	266.518
1029.1	305.742
1033.53	171.684
1037.97	508.961
1042.4	212.902
1046.82	474.273
1051.25	773.043
1055.67	744.992
1060.09	294.094
1064.51	258.531
1068.92	76.3789
1073.33	244.125
1077.74	381.965
1082.15	558.894
1086.55	168.965
1090.95	141.188
1095.35	91.4805
1099.75	90.8203
1104.14	2.02734
1108.53	316.336
1112.92	124.809
1117.31	339.484
1121.69	28.7812
1126.07	58.3086
1130.45	40.5977
1134.82	80.1328
1139.19	326.641
1143.57	150.113
1147.93	73.0742
1152.3	539.363
1156.66	233.324
1161.02	235.371
1165.38	343.473
1169.73	192.141
1174.08	505.398
1178.43	241.996
1182.78	538.012
1187.12	420.633
1191.46	426.754
1195.8	261.258
1200.14	248.129
1204.47	366.473
1208.8	287.211
1213.13	415.352
1217.46	136.359
1221.78	376.484
1226.1	304.785
1230.42	404.332
1234.73	490.113
1239.04	193.691
1243.35	132.606
1247.66	126.223
1251.97	334.602
1256.27	392.188
1260.57	340.254
1264.86	243.82
1269.16	311.629
1273.45	365.223
1277.74	169.664
1282.03	346.352
1286.31	68.6094
1290.59	160.426
1294.87	25.6602
1299.14	160.746
1303.42	162.144
1307.69	307.438
1311.95	319.394
1316.22	516.938
1320.48	403.082
1324.74	402.504
1329	483.644
1333.26	556.836
1337.51	505.93
1341.76	259.519
1346	319.609
1350.25	353.211
1354.49	505.363
1358.73	185.121
1362.96	461.508
1367.2	497.484
1371.43	595
1375.66	695.059
1379.88	474.68
1384.11	99.8828
1388.33	569.648
1392.54	386.961
1396.76	605
1400.97	231.68
1405.18	688.988
1409.39	388.945
1413.59	323.387
1417.8	284.199
1421.99	160.707
1426.19	570.164
1430.38	474.602
1434.58	539.844
1438.77	334.496
1442.95	33.7812
1447.13	125.672
1451.32	171.492
1455.49	354.781
1459.67	340.848
1463.84	155.699
1468.01	450.336
1472.18	459.75
1476.35	470.953
1480.51	344.93
1484.67	262.641
1488.83	128.098
1492.98	158.254
1497.13	349.012
1501.28	434.121
1505.43	215.188
1509.57	317.523
1513.71	45.3672
1517.85	320.027
1521.99	235.016
1526.12	129.555
1530.25	130.781
1534.38	364.891
1538.5	401.152
1542.62	430.898
1546.74	197.188
1550.86	341.949
1554.98	284.867
1559.09	182.625
1563.2	191.953
1567.31	251.039
1571.41	0
