Measurement: Raman, 514 nm, depolarized, Raman Data Processed
Mineral: Fluorapatite
Rruff sample: R050369
Ideal chemistry: Ca_5_(PO_4_)_3_F
Locality: Russia
Source: Eugene Schlepp
Description: Blueish-green hexagonal prismatic crystal
Measured chemistry: (Ca_0.99_Na_0.01_)_5_((P_0.98_S_0.02_)O_4_)_3_F_1.00_
Pin_id: L01224
Orientation: Laser parallel to a* (1 0 0). Fiducial mark perpendicular to laser is parallel to c [0 0 1]
Raman shift (cm-1)	intensity
53.91	0
58.864	55.2208
63.817	4.05972
68.767	5.61261
73.714	89.9493
78.659	196.257
83.602	317.762
88.542	507.357
93.48	581.287
98.416	700.793
103.349	682.437
108.28	852.964
113.208	742.161
118.134	827.868
123.058	767.958
127.979	846.098
132.898	1159.2
137.814	1331.35
142.728	984.393
147.639	855.298
152.549	962.042
157.455	1123.43
162.359	979.489
167.261	959.207
172.161	845.57
177.058	926.557
181.952	839.148
186.845	792.321
191.734	709.052
196.622	705.317
201.507	965.646
206.389	1128.35
211.269	1302.95
216.147	983.07
221.022	819.064
225.895	834.629
230.765	923.092
235.633	827.717
240.498	653.769
245.361	509.645
250.222	425.916
255.08	498.72
259.936	598.319
264.789	660.93
269.64	787.242
274.488	711.252
279.334	603.326
284.178	800.737
289.019	787.474
293.857	701.52
298.693	735.245
303.527	688.481
308.358	725.371
313.187	519.518
318.013	334.907
322.837	233.529
327.659	83.3694
332.478	106.418
337.294	106.664
342.108	81.0957
346.92	2.71021
351.729	36.876
356.535	13.9509
361.34	2.00391
366.141	48.9468
370.94	33.8552
375.737	31.5088
380.531	33.1624
385.323	48.3032
390.113	22.0327
394.9	10.3442
399.684	74.7461
404.466	142.398
409.245	224.629
414.022	416.936
418.797	890.988
423.569	1745.83
428.338	2791.72
433.105	2391.66
437.87	1714.65
442.632	1780.69
447.391	1816.74
452.149	1526.82
456.903	1090.9
461.655	622.971
466.405	365.037
471.152	292.088
475.897	152.12
480.639	141.135
485.378	75.1145
490.116	21.0637
494.85	68.7634
499.582	51.7295
504.312	16.7461
509.039	51.3547
513.764	27.5686
518.486	106.975
523.206	21.1235
527.923	19.4126
532.638	26.4248
537.35	35.6645
542.059	18.5073
546.766	86.4043
551.471	43.4053
556.173	28.3516
560.873	82.988
565.57	213.279
570.264	510.772
574.957	1077.85
579.646	2200.88
584.333	2479.93
589.018	4032.64
593.7	2422.12
598.379	1373.24
603.056	2051.37
607.73	1958.58
612.402	883.273
617.072	566.953
621.739	228.639
626.403	255.885
631.065	129.92
635.724	180.119
640.381	49.1084
645.035	180.433
649.687	165.598
654.336	157.209
658.983	166.862
663.627	93.5469
668.268	110.988
672.907	0.519043
677.544	35.0542
682.178	77.6226
686.809	118.251
691.438	40.1899
696.065	83.3594
700.688	98.4312
705.31	134.568
709.929	144.735
714.545	121.335
719.158	63.5088
723.77	114.394
728.378	60.9292
732.984	129.984
737.588	152.297
742.189	93.7871
746.787	104.896
751.383	69.6558
755.976	93.8657
760.567	151.373
765.155	17.1108
769.741	163.491
774.324	64.417
778.904	72.7437
783.482	64.0171
788.058	48.6768
792.631	74.8223
797.201	15.6333
801.769	83.1226
806.334	34.106
810.897	79.6773
815.457	59.1279
820.014	49.582
824.569	70.8486
829.122	69.7241
833.671	37.8447
838.219	27.4648
842.763	55.0908
847.306	130.02
851.845	81.9404
856.382	51.2788
860.917	201.645
865.448	170.493
869.978	0.337402
874.505	111.543
879.029	54.9541
883.55	4.98096
888.069	5.00439
892.586	82.8467
897.1	73.7451
901.611	25.3901
906.12	29.5395
910.626	185.558
915.129	121.9
919.63	8.67725
924.129	44.1816
928.625	134.426
933.118	292.681
937.609	340.773
942.097	696.941
946.582	1489.17
951.065	2858.77
955.546	8841.64
960.023	31225
964.499	52104.5
968.971	16162.1
973.441	3711.17
977.909	1092.33
982.374	531.371
986.836	265.543
991.295	103.501
995.753	129.271
1000.21	183.917
1004.66	557.338
1009.11	949.717
1013.55	759.191
1018	733.816
1022.44	476.565
1026.88	647.167
1031.32	1166.23
1035.75	1434.4
1040.18	1909.57
1044.61	2214.89
1049.04	3951.13
1053.46	4686.68
1057.88	2196.4
1062.3	1112.87
1066.71	563.904
1071.13	851.112
1075.54	1747.48
1079.94	2398.03
1084.35	1179.75
1088.75	639.865
1093.15	375.331
1097.55	185.01
1101.94	249.895
1106.34	24.0171
1110.73	1.26807
1115.11	101.193
1119.5	99.835
1123.88	212.165
1128.26	168.921
1132.63	155.134
1137.01	131.402
1141.38	178.026
1145.75	59.5615
1150.12	119.248
1154.48	85.7178
1158.84	251.578
1163.2	177.749
1167.55	147.1
1171.91	217.817
1176.26	155.709
1180.61	162.384
1184.95	70.3789
1189.29	74.5273
1193.63	38.542
1197.97	93.7022
1202.31	17.9521
1206.64	100.287
1210.97	110.707
1215.29	118.127
1219.62	242.587
1223.94	104.11
1228.26	79.6904
1232.57	150.323
1236.89	92.916
1241.2	110.227
1245.51	168.935
1249.81	148.715
1254.12	223.526
1258.42	93.4961
1262.72	26.3867
1267.01	81.8428
1271.3	103.856
1275.59	40.9375
1279.88	3.82324
1284.17	6.11816
1288.45	74.9775
1292.73	172.839
1297.01	64.2236
1301.28	106.667
1305.55	22.5293
1309.82	58.3857
1314.09	106.236
1318.35	39.7725
1322.61	148.651
1326.87	177.506
1331.13	164.349
1335.38	45.0469
1339.63	96.9688
1343.88	107.649
1348.12	69.1631
1352.37	22.8066
1356.61	177.256
1360.85	89.6738
1365.08	134.084
1369.31	66.1133
1373.54	47.583
1377.77	52.9541
1381.99	163.277
1386.22	144.223
1390.43	104.509
1394.65	94.9228
1398.87	157.907
1403.08	68.1055
1407.29	40.5039
1411.49	35.04
1415.69	62.2998
1419.89	95.5791
1424.09	44.082
1428.29	67.2793
1432.48	156.793
1436.67	9.5166
1440.86	243.306
1445.04	17.3584
1449.23	187.748
1453.4	131.256
1457.58	162.198
1461.76	54.3867
1465.93	95.5147
1470.1	88.4941
1474.26	109.505
1478.43	114.442
1482.59	94.8955
1486.75	158.435
1490.9	64.3281
1495.06	183.711
1499.21	49.0156
1503.35	119.272
1507.5	128.559
1511.64	227.201
1515.78	66.4678
1519.92	28.9805
1524.05	191.421
1528.18	105.09
1532.31	163.237
1536.44	334.432
1540.56	55.3389
1544.69	75.3438
1548.8	257.489
1552.92	143.402
1557.03	90.6465
1561.14	141.497
1565.25	159.832
1569.36	110.89
