Measurement: Raman, 514 nm, depolarized, Raman Data Processed
Mineral: Fluorapophyllite-(K)
Rruff sample: R050084
Ideal chemistry: KCa_4_Si_8_O_20_F8H_2_O
Locality: near Ahmednagar, Maharashtra, India
Source: Rock Currier
Description: Greenish-white prismatic single crystal associated with scolecite
Measured chemistry: (K_0.98_Na_0.02_)Ca_4.00_Si_8.00_O_20_F_1.00_Â·8H_2_O
Pin_id: L00128
Orientation: Laser parallel to c* (0 0 1). Fiducial mark perpendicular to laser is parallel to a [1 0 0]
Raman shift (cm-1)	intensity
84.529	0
88.728	187.669
92.926	675.302
97.121	772.859
101.314	727.27
105.505	1763.55
109.694	7501.69
113.881	2252.05
118.066	1256.26
122.249	3462.94
126.43	3120.34
130.608	1725.44
134.785	2643.5
138.959	1009.62
143.131	283.151
147.301	202.978
151.469	5.833
155.635	493.307
159.799	1179.24
163.961	3426.39
168.121	2110.02
172.278	616.622
176.434	257.835
180.587	171.126
184.739	2222.35
188.888	3475.42
193.035	1244.6
197.18	1256.8
201.324	1939.88
205.465	2927.02
209.603	7549.16
213.74	10886.2
217.875	5592.97
222.008	2930.93
226.139	2801.56
230.267	4038.74
234.394	2976.3
238.518	1230.87
242.641	709.401
246.761	496.556
250.879	80.786
254.996	242.565
259.11	201.214
263.222	323.636
267.332	430.06
271.44	502.071
275.546	320.457
279.65	266.041
283.752	40.605
287.852	491.618
291.95	1350.57
296.046	2332.64
300.14	3129.74
304.231	2615.33
308.321	1598.84
312.409	792.14
316.495	221.267
320.578	444.604
324.66	800.345
328.739	603.249
332.817	725.877
336.892	1703.74
340.966	1983.12
345.037	1081.49
349.107	302.438
353.174	356.141
357.24	482.648
361.303	16.113
365.365	159.157
369.424	398.434
373.481	881.823
377.537	568.05
381.59	49.882
385.642	166.877
389.691	361.03
393.738	60.508
397.784	269.292
401.827	204.24
405.868	615.046
409.908	239.346
413.945	4.876
417.98	417.213
422.014	821.372
426.045	1039.15
430.075	2213.18
434.102	7802.21
438.127	4950.22
442.151	1766.08
446.172	434.886
450.192	281.477
454.209	587.898
458.225	627.116
462.238	278.144
466.25	370.996
470.259	809.693
474.267	712.264
478.273	130.644
482.276	11.183
486.278	653.754
490.278	989.536
494.276	448.166
498.271	52.366
502.265	167.907
506.257	719.119
510.247	681.155
514.235	215.064
518.221	304.884
522.205	826.358
526.187	1005.84
530.167	633.839
534.145	611.174
538.122	1085.41
542.096	1710.56
546.068	1383
550.039	533.869
554.007	557.993
557.973	1063.77
561.938	1402.16
565.901	1138.79
569.861	925.977
573.82	1709.61
577.777	3213.4
581.732	4434.95
585.685	4939
589.636	4700.19
593.585	3954.58
597.532	2909.48
601.477	1739.21
605.42	812.141
609.361	638.39
613.301	1129.7
617.238	1322.69
621.174	848.195
625.108	494.231
629.039	851.467
632.969	1554.71
636.897	1517.32
640.823	1120.5
644.747	793.315
648.669	1612.1
652.589	2607.88
656.508	2901.07
660.424	2812.78
664.339	3145.38
668.251	3799.04
672.162	3782.64
676.071	2605.26
679.978	1336.02
683.883	561.89
687.786	856.888
691.687	1171.98
695.586	926.052
699.484	193.163
703.379	49.604
707.273	359.691
711.165	694.235
715.055	645.757
718.943	17.748
722.829	165.449
726.713	262.685
730.595	759.61
734.476	785.838
738.354	104.338
742.231	257.334
746.106	129.372
749.978	718.106
753.849	813.329
757.719	344.732
761.586	32.941
765.451	363.569
769.315	1056.62
773.177	1248.78
777.036	698.231
780.894	36.921
784.75	31.975
788.605	841.199
792.457	1502.3
796.307	1528.31
800.156	601.798
804.003	98.777
807.848	305.707
811.691	836.484
815.532	1063.7
819.371	794.581
823.209	204.443
827.045	101.273
830.878	786.071
834.71	1199.85
838.54	1301.62
842.369	632.67
846.195	310.407
850.02	491
853.842	1101.7
857.663	1556.89
861.482	1277.58
865.299	323.511
869.115	116.054
872.928	364.247
876.74	1060.71
880.55	1115.16
884.358	627.13
888.164	120.561
891.969	119.424
895.771	533.572
899.572	1061.93
903.371	1160.8
907.168	664.978
910.963	109.185
914.757	141.993
918.548	404.937
922.338	960.798
926.126	986.593
929.912	640.338
933.697	39.664
937.479	4.959
941.26	322.787
945.039	904.423
948.816	974.991
952.591	815.587
956.365	185.187
960.136	62.142
963.906	336.159
967.674	903.88
971.441	1378.64
975.205	1046.48
978.968	579.39
982.729	30.593
986.488	21.521
990.245	670.867
994	1034.48
997.754	1052.23
1001.51	695.865
1005.26	372.715
1009	556.549
1012.75	901.016
1016.5	1411.56
1020.24	1516.26
1023.98	1313.51
1027.72	703.711
1031.46	416.098
1035.19	509.084
1038.93	1155.09
1042.66	1928.29
1046.39	2418.26
1050.12	2532.26
1053.85	3087.22
1057.57	5257.35
1061.29	10050.6
1065.02	10224.5
1068.74	6298.03
1072.45	3772.22
1076.17	1992.8
1079.88	897.53
1083.6	319.273
1087.31	492.715
1091.02	1147.34
1094.72	1557.4
1098.43	1632.03
1102.13	996.723
1105.84	489.424
1109.54	237.343
1113.24	348.545
1116.93	957.045
1120.63	1473.21
1124.32	1770.52
1128.01	1288.72
1131.7	519.901
1135.39	87.093
1139.08	13.819
1142.76	484.397
1146.45	1047.05
1150.13	1483.54
1153.81	1342.31
1157.48	963.798
1161.16	325.414
1164.84	12.155
1168.51	221.526
1172.18	731.281
1175.85	1361.19
1179.52	1557.08
1183.18	1233.93
