Measurement: Raman, 514 nm, ccw, Raman Data Processed
Mineral: Fluorapophyllite-(K)
Rruff sample: R040095
Ideal chemistry: KCa_4_Si_8_O_20_F8H_2_O
Locality: unknown
Source: University of Arizona Mineral Museum
Description: Colorless crystals
Measured chemistry: (K_0.90_Na_0.04_)Ca_3.96_Si_8.00_O_20_(F_0.82_(OH)_0.18_)Â·8H_2_O
Pin_id: L00450
Orientation: Laser parallel to -a* (-1 0 0). Fiducial mark perpendicular to laser is parallel to c [0 0 1]
Raman shift (cm-1)	intensity
79.421	0
84.352	764.898
89.281	5865.53
94.207	6347.96
99.131	9734.97
104.053	36567.2
108.973	39121.5
113.891	5720.74
118.806	763.414
123.72	4532.95
128.631	6713.64
133.539	12548.3
138.446	29843.3
143.35	17020.4
148.252	6915.63
153.152	6890.4
158.05	11728.5
162.945	20403.1
167.838	17874.7
172.729	7924.81
177.618	5877.22
182.504	9483.44
187.388	9961.79
192.27	7353.09
197.149	10871.6
202.027	18403
206.902	25033.9
211.775	23094.5
216.645	14176
221.513	10616.5
226.379	11002.9
231.243	8141.43
236.104	2428.24
240.963	961.48
245.82	2038.16
250.674	1966.57
255.527	746.513
260.376	1508.77
265.224	4516.02
270.069	4494.72
274.912	2236.18
279.753	1225.95
284.591	2043.94
289.427	4665.83
294.261	8814.21
299.092	10576.5
303.921	10861.7
308.748	12856.4
313.572	15474.4
318.394	17975.9
323.214	18116.4
328.032	14734.9
332.847	13459.2
337.659	14110.4
342.47	10185.6
347.278	5484.61
352.083	3161.67
356.887	1524.82
361.688	142.077
366.486	78.7705
371.282	160.428
376.076	263.65
380.868	101.044
385.657	1316.56
390.444	2987.35
395.228	4778.96
400.01	5159.48
404.79	4164.64
409.567	3234.07
414.342	4268.5
419.114	9192.25
423.885	21030.9
428.652	39518
433.418	33524
438.18	13782
442.941	5216.59
447.699	2505.61
452.455	2180.28
457.208	3125.82
461.959	3904.7
466.708	3532.7
471.454	5283.78
476.197	12327.3
480.939	26182.1
485.678	29041
490.414	15989.2
495.148	8807.54
499.88	7579.18
504.609	5918.88
509.335	3964.5
514.06	3470.96
518.781	4310.72
523.501	6854.18
528.218	11452.7
532.932	16793.1
537.644	20669
542.354	19993
547.061	17631.2
551.766	16370.5
556.468	16234.8
561.168	18589.7
565.865	23842.4
570.56	33271.6
575.253	49096.1
579.943	65554.8
584.63	65607.9
589.315	45215.7
593.998	26461.5
598.678	15636.3
603.355	9530.25
608.031	6204.68
612.703	4620.29
617.373	3628.5
622.041	3096
626.706	3233.05
631.369	3270.76
636.029	3348.06
640.687	3583.91
645.342	4369.44
649.995	5539.11
654.645	7310.47
659.293	8617.51
663.938	8799.05
668.581	6782.23
673.221	4489.69
677.859	2464.99
682.494	1432.47
687.126	651.099
691.756	191.921
696.384	66.1894
701.009	182.851
705.632	268.046
710.252	268.517
714.869	337.83
719.484	362.507
724.097	365.908
728.707	224.009
733.314	192.624
737.919	275.71
742.521	83.0947
747.121	35.0147
751.718	216.629
756.313	606.153
760.905	1099.28
765.494	1370.37
770.081	1118.04
774.666	954.845
779.248	1048.45
783.827	1908.19
788.404	3063.8
792.978	3098.68
797.55	1882.9
802.119	1099.15
806.685	865.894
811.249	780.173
815.811	885.218
820.37	1039.04
824.926	1219.66
829.479	1319.79
834.031	1461.69
838.579	1408.29
843.125	1350.5
847.668	1419.55
852.209	1089.9
856.747	968.953
861.283	819.849
865.816	645.481
870.346	418.578
874.874	375.68
879.399	193.871
883.921	18.6055
888.441	47.0293
892.959	193.855
897.473	149.676
901.986	123.543
906.495	138.504
911.002	63.5508
915.506	40.7022
920.008	72.9512
924.507	170.151
929.004	6.41406
933.497	49.7598
937.989	32.1602
942.477	192.498
946.963	310.658
951.446	235.105
955.927	297.174
960.405	442.965
964.881	430.479
969.353	714.831
973.824	663.408
978.291	333.631
982.756	524.861
987.218	510.373
991.678	709.426
996.135	1012.15
1000.59	2024.56
1005.04	3388.52
1009.49	3298.23
1013.94	1896.06
1018.38	1355.18
1022.82	1111.08
1027.26	1632.48
1031.69	2722.74
1036.13	4441.4
1040.56	6584.24
1044.99	11576.1
1049.41	23149.9
1053.83	50916.2
1058.25	95678.4
1062.67	86918.6
1067.09	44376.3
1071.5	22021.6
1075.9	12634.6
1080.31	8966.32
1084.71	7737.26
1089.12	7544.11
1093.52	5132.41
1097.91	3153.57
1102.3	2279.6
1106.69	1826.23
1111.08	1832.64
1115.47	1634.54
1119.85	1247.92
1124.23	820.72
1128.6	676.887
1132.98	515.385
1137.35	271.269
1141.72	200.616
1146.08	202.29
1150.45	62.2744
1154.81	209.775
1159.17	59.1289
1163.52	51.0752
1167.87	126.809
1172.22	246.828
1176.57	172.134
1180.91	74.667
1185.26	132.511
1189.6	71.1865
1193.93	51.8125
1198.27	13.1494
1202.6	385.143
1206.92	7.01953
1211.25	109.537
1215.57	52.6562
1219.89	173.489
1224.21	9.77637
1228.52	30.9941
1232.83	26.7803
1237.14	156.284
1241.45	70.1406
1245.75	131.634
1250.05	197.895
1254.35	166.506
1258.65	258.719
1262.94	174.724
1267.23	382.863
1271.52	256.246
1275.8	240.61
1280.08	346.45
1284.36	347.913
1288.64	244.222
1292.91	174.001
1297.18	278.097
1301.45	189.249
1305.71	269.155
1309.97	35.1094
1314.23	169.001
1318.49	264.522
1322.74	164.209
1327	98.4326
1331.24	73.5938
1335.49	82.6865
1339.73	168.808
1343.97	102.949
1348.21	34.4443
1352.44	59.1699
1356.68	73.4775
1360.91	130.175
1365.13	146.727
1369.36	112.385
1373.58	18.2256
1377.79	98.5478
1382.01	97.7383
1386.22	107.698
1390.43	58.46
1394.64	52.625
1398.84	115.147
1403.04	0.117188
1407.24	53.5273
1411.44	115.414
1415.63	60.2246
1419.82	21.5801
1424.01	27.9922
1428.19	141.961
1432.37	205.394
1436.55	72.9961
1440.73	201.634
1444.9	228.373
1449.07	420.539
1453.24	245.196
1457.4	448.17
1461.57	369.412
1465.72	291.41
1469.88	296.968
1474.04	434.671
1478.19	192.321
1482.33	279.152
1486.48	202.978
1490.62	276.443
1494.76	293.431
1498.9	159.852
1503.03	235.019
1507.16	231.239
1511.29	322.031
1515.42	254.974
1519.54	310.841
1523.66	317.838
1527.78	311.618
1531.89	125.731
1536	319.339
1540.11	167.061
1544.21	55.5478
1548.32	302.543
1552.42	128.872
1556.52	140.125
1560.61	25.0332
1564.7	114.781
1568.79	3.4707
1572.88	51.1494
1576.96	0
