Measurement: Raman, 514 nm, depolarized, Raman Data Processed
Mineral: Fluorapatite
Rruff sample: R050194
Ideal chemistry: Ca_5_(PO_4_)_3_F
Locality: Siglo XX mine, Llallagua, Bolivia
Source: Dave Bunk Minerals
Description: Purple crystal fragments
Measured chemistry: Ca_5.00_(P_1.00_O_4_)_3_F_1.00_
Pin_id: L01106
Orientation: Laser parallel to -c* (0 0 -1). Fiducial mark perpendicular to laser is parallel to -a [-1 0 0]
Raman shift (cm-1)	intensity
137.814	0
142.728	56.2129
147.639	47.4072
152.549	54.8135
157.455	75.8408
162.359	6.15283
167.261	72.8491
172.161	42.7109
177.058	27.3686
181.952	51.6431
186.845	27.1069
191.734	92.2974
196.622	19.9844
201.507	84.4595
206.389	98.3662
211.269	172.962
216.147	70.0317
221.022	125.487
225.895	68.6172
230.765	26.7886
235.633	80.8906
240.498	71.6352
245.361	7.78906
250.222	19.6484
255.08	99.4258
259.936	21.792
264.789	49.7456
269.64	83.6162
274.488	166.296
279.334	109.085
284.178	48.3032
289.019	2.24707
293.857	41.5337
298.693	18.8105
303.527	154.333
308.358	21.0523
313.187	18.7436
318.013	43.4312
322.837	210.723
327.659	2.31543
332.478	143.25
337.294	4.6665
342.108	145.627
346.92	41.4941
351.729	64.8135
356.535	107.477
361.34	109.981
366.141	116.893
370.94	101.962
375.737	93.9356
380.531	52.1152
385.323	45.3086
390.113	25.5918
394.9	107.894
399.684	56.4932
404.466	48.5586
409.245	8.52734
414.022	112.768
418.797	67.3701
423.569	42.6982
428.338	123.656
433.105	42.2373
437.87	217.54
442.632	67.8633
447.391	176.102
452.149	89.3662
456.903	143.458
461.655	44.4805
466.405	203.469
471.152	110.566
475.897	89.0986
480.639	3.55371
485.378	60.2647
490.116	103.6
494.85	176.898
499.582	279.296
504.312	147.107
509.039	119.499
513.764	126.718
518.486	9.21387
523.206	237.397
527.923	10.5117
532.638	106.359
537.35	216.685
542.059	195.452
546.766	137.53
551.471	109.051
556.173	183.076
560.873	48.9492
565.57	1.70117
570.264	147.769
574.957	41.0244
579.646	336.097
584.333	165.284
589.018	148.244
593.7	183.522
598.379	211.827
603.056	242.345
607.73	288.668
612.402	156.58
617.072	42.459
621.739	309.197
626.403	38.669
631.065	14.0156
635.724	274.082
640.381	177.876
645.035	117.199
649.687	63.4004
654.336	168.096
658.983	41.6484
663.627	104.992
668.268	142.518
672.907	105.162
677.544	143.037
682.178	94.0898
686.809	96.5332
691.438	199.559
696.065	121.838
700.688	1.25977
705.31	37.3262
709.929	116.324
714.545	238.346
719.158	102.688
723.77	191.019
728.378	146.213
732.984	150.9
737.588	314.164
742.189	60.4395
746.787	124.498
751.383	123.088
755.976	18.918
760.567	139.065
765.155	49.4727
769.741	21.3672
774.324	226.06
778.904	9.53125
783.482	139.055
788.058	90.2363
792.631	81.8262
797.201	101.939
801.769	55.418
806.334	188.324
810.897	182.078
815.457	274.635
820.014	134.596
824.569	312.295
829.122	65.2734
833.671	97.7773
838.219	227.81
842.763	207.853
847.306	67.9453
851.845	89.4356
856.382	83.0606
860.917	163.447
865.448	54.3262
869.978	141.004
874.505	301.381
879.029	222.859
883.55	50.2344
888.069	287.369
892.586	113.951
897.1	314.734
901.611	0.009766
906.12	220.262
910.626	203.773
915.129	28.75
919.63	135.117
924.129	198.074
928.625	59.6758
933.118	120.186
937.609	65.3945
942.097	89.8223
946.582	184.275
951.065	216.606
955.546	592.094
960.023	638.195
964.499	1943.39
968.971	1154.19
973.441	258.947
977.909	320.867
982.374	105.07
986.836	161.228
991.295	102.422
995.753	109.123
1000.21	293.041
1004.66	33.1543
1009.11	52.5625
1013.55	150.31
1018	119.539
1022.44	183.68
1026.88	259.856
1031.32	76.4375
1035.75	83.832
1040.18	194.781
1044.61	71.1133
1049.04	113.969
1053.46	287.609
1057.88	167.461
1062.3	36.9297
1066.71	1.84766
1071.13	189.027
1075.54	56.0469
1079.94	195.66
1084.35	162.074
1088.75	276.621
1093.15	352.199
1097.55	148.883
1101.94	142.332
1106.34	14.7773
1110.73	16.125
1115.11	299.68
1119.5	7.41406
1123.88	253.832
1128.26	66.4453
1132.63	369.906
1137.01	262.344
1141.38	268.328
1145.75	89.2383
1150.12	229.422
1154.48	277.531
1158.84	138.316
1163.2	190.789
1167.55	415.695
1171.91	275.828
1176.26	244.758
1180.61	267.461
1184.95	199.66
1189.29	124.547
1193.63	141.5
1197.97	339.266
1202.31	213.891
1206.64	253.836
1210.97	220.57
1215.29	31.6406
1219.62	84.0273
1223.94	66.3555
1228.26	220.391
1232.57	124.734
1236.89	112.019
1241.2	485.898
1245.51	277.387
1249.81	180.508
1254.12	149.031
1258.42	379.41
1262.72	405.231
1267.01	324.496
1271.3	38.1719
1275.59	369.332
1279.88	472.363
1284.17	608.008
1288.45	8.03906
1292.73	623.801
1297.01	169.301
1301.28	326.215
1305.55	326.285
1309.82	116.297
1314.09	111.16
1318.35	426.801
1322.61	426.254
1326.87	330.231
1331.13	503.715
1335.38	23.6875
1339.63	348.082
1343.88	296.062
1348.12	384.539
1352.37	392.57
1356.61	271.969
1360.85	345.16
1365.08	387.203
1369.31	528.484
1373.54	659.441
1377.77	79.9844
1381.99	508.098
1386.22	290.769
1390.43	103.348
1394.65	319.016
1398.87	239.285
1403.08	610.004
1407.29	378.348
1411.49	237.332
1415.69	222.875
1419.89	248.227
1424.09	497.121
1428.29	452.082
1432.48	238.629
1436.67	125.828
1440.86	425.672
1445.04	154.047
1449.23	231.219
1453.4	360.402
1457.58	527.219
1461.76	220.262
1465.93	363.07
1470.1	172.242
1474.26	519.238
1478.43	290.051
1482.59	327.891
1486.75	312.332
1490.9	188.633
1495.06	285.742
1499.21	37.5039
1503.35	202.891
1507.5	424.168
1511.64	432.191
1515.78	527.469
1519.92	474.609
1524.05	374.477
1528.18	571.84
1532.31	410.816
1536.44	531.492
1540.56	205.125
1544.69	221.055
1548.8	158.027
1552.92	302.852
1557.03	276.504
1561.14	321.938
1565.25	42.0508
1569.36	32.4883
