Measurement: Raman, 514 nm, depolarized, Raman Data Processed
Mineral: Fluorophlogopite
Rruff sample: R040075
Ideal chemistry: KMg_3_(Si_3_Al)O_10_F_2_
Locality: unknown
Source: University of Arizona Mineral Museum
Description: Green hexagonal tablet
Measured chemistry: (K_0.93_[box]_0.04_Na_0.03_)(Mg_0.66_Fe_0.30_Ti_0.02_)_3_(Si_0.75_Al_0.25_)_4_O_10_(F_0.90_(OH)_0.06_Cl_0.04_)
Pin_id: L00311
Orientation: Laser parallel to a [1 0 0]. Fiducial mark perpendicular to laser is parallel to b* (0 1 0)
Raman shift (cm-1)	intensity
130.08	0
134.248	91.575
138.413	6.786
142.577	95.749
146.739	210.794
150.898	454.94
155.056	733.296
159.212	1512.23
163.365	2393.4
167.517	4012.23
171.666	6739.8
175.813	10866.8
179.959	16570.3
184.102	21172.5
188.244	20000.6
192.383	13423.8
196.52	8344.31
200.656	4875.8
204.789	2788.37
208.92	1621.38
213.049	925.458
217.176	650.606
221.302	296.458
225.425	112.26
229.546	22.608
233.665	51.738
237.782	64.763
241.898	27.867
246.011	50.203
250.122	222.78
254.231	208.371
258.338	434.998
262.443	864.054
266.546	1414.02
270.647	1940.55
274.747	2284.52
278.844	1983.05
282.939	1369.19
287.032	1013.32
291.123	901.487
295.212	849.747
299.3	1075.87
303.385	1147.17
307.468	1430.74
311.549	1757.73
315.629	1722.37
319.706	1630.75
323.781	1388.63
327.855	1074.74
331.926	919.789
335.995	673.957
340.063	556.961
344.128	709.385
348.192	528.277
352.253	457.703
356.313	511.571
360.37	506.021
364.426	243.866
368.479	282.218
372.531	264.056
376.581	221.356
380.629	190.114
384.674	192.262
388.718	207.822
392.76	96.728
396.8	31.33
400.838	20.203
404.874	62.438
408.908	138.381
412.94	27.099
416.97	33.283
420.999	83.807
425.025	113.635
429.049	117.729
433.072	79.125
437.092	59.743
441.111	63.597
445.127	2.263
449.142	103.061
453.155	10.544
457.166	26.885
461.175	87.608
465.181	10.842
469.186	85.574
473.19	55.91
477.191	175.029
481.19	209.386
485.187	256.185
489.183	291.449
493.176	301.205
497.168	373.472
501.157	433.274
505.145	387.621
509.131	397.558
513.115	340.077
517.097	328.292
521.077	374.106
525.055	488.078
529.031	502.588
533.006	413.262
536.978	335.345
540.949	478.498
544.917	585.091
548.884	439.788
552.849	468.24
556.812	417.762
560.773	369.218
564.732	516.128
568.689	449.733
572.644	331.497
576.598	300.406
580.55	388.597
584.499	489.356
588.447	444.625
592.393	452.15
596.337	718.007
600.279	849.278
604.219	1163.27
608.158	1186.11
612.094	1337.68
616.029	1760.86
619.962	2499.99
623.892	2627.48
627.821	2670.82
631.749	2678.37
635.674	2621.14
639.597	2734.62
643.519	2938.07
647.438	3202.56
651.356	3547.9
655.272	4443.53
659.186	5470.01
663.098	6918.37
667.009	9015.77
670.917	12062.3
674.824	13935.2
678.728	13277.6
682.631	10218.1
686.532	6745.24
690.432	4591.52
694.329	3257.85
698.224	3011.08
702.118	2470.8
706.01	2070.65
709.9	2125.89
713.788	2124.91
717.674	2209.51
721.558	1983.7
725.441	1697.95
729.322	1692.53
733.201	1412.58
737.078	1350.96
740.953	1335.16
744.826	1039.37
748.698	1043.58
752.567	1127.79
756.435	1082.03
760.301	1160.81
764.165	1180.81
768.028	1145.41
771.888	1040.13
775.747	965.067
779.604	840.155
783.459	705.433
787.312	550.803
791.164	356.207
795.013	351.595
798.861	286.962
802.707	272.295
806.551	37.579
810.394	2.807
814.234	57.958
818.073	23.018
821.91	47.936
825.745	147.249
829.578	102.888
833.41	168.837
837.24	14.83
841.068	28.219
844.894	48.775
848.718	66.145
852.54	53.809
856.361	11.649
860.18	80.377
863.997	252.292
867.812	14.213
871.626	156.017
875.438	187.83
879.248	29.643
883.056	161.42
886.862	383.17
890.667	314.893
894.469	336.6
898.27	358.316
902.07	240.007
905.867	341.673
909.663	413.314
913.457	454.923
917.249	436.5
921.039	298.05
924.827	519.562
928.614	601.035
932.399	482.474
936.182	653.867
939.964	635.21
943.744	586.508
947.521	607.757
951.298	658.951
955.072	870.096
958.845	790.286
962.615	760.813
966.384	751.12
970.152	698.966
973.917	817.365
977.681	907.509
981.443	1043.16
985.203	1042.44
988.962	1148.49
992.719	1329.29
996.474	1436.3
1000.23	1425.86
1003.98	1709.25
1007.73	1910.34
1011.48	2317.53
1015.22	2816
1018.97	3712.81
1022.71	4704.71
1026.45	5421.14
1030.19	5182.73
1033.93	4564.55
1037.66	3626.53
1041.4	2899.16
1045.13	2583.68
1048.86	2455.5
1052.59	2387.34
1056.32	2289.68
1060.04	2101.29
1063.77	1752.96
1067.49	1515.16
1071.21	1386.95
1074.93	1318.69
1078.64	1140.62
1082.36	1062.38
1086.07	963.61
1089.78	695.284
1093.49	586.805
1097.2	498.062
1100.91	559.418
1104.61	460.957
1108.32	382.146
1112.02	253.106
1115.72	133.999
1119.41	55.398
1123.11	86.887
1126.8	49.962
1130.5	84.9
1134.19	90.73
1137.88	54.124
1141.56	224.636
1145.25	17.686
1148.93	66.992
1152.62	56.244
1156.3	86.023
1159.98	33.335
1163.65	29.312
1167.33	22.101
1171	65.501
1174.68	5.3
1178.35	48.197
1182.02	51.045
1185.68	92.675
1189.35	185.095
1193.01	212.277
1196.67	112.057
1200.33	33.788
1203.99	83.236
1207.65	175.719
1211.31	24.406
1214.96	62.805
1218.61	274.905
1222.26	333.494
1225.91	241.615
1229.56	220.013
1233.2	218.043
1236.85	135.608
1240.49	133.032
1244.13	191.665
1247.77	258.705
1251.4	305.565
1255.04	282.189
1258.67	418.69
1262.3	145.061
1265.93	110.737
1269.56	3.911
1273.19	27.883
1276.82	77.286
1280.44	2.204
1284.06	104.505
1287.68	248.078
1291.3	120.474
1294.92	17.759
1298.53	121.857
1302.14	5.835
1305.76	25.685
1309.37	9.262
1312.98	209.902
1316.58	296.775
1320.19	175.897
1323.79	155.85
1327.39	135.376
1330.99	74.703
1334.59	76.786
1338.19	139.438
1341.79	167.962
1345.38	155.934
1348.97	113.727
1352.56	482.045
1356.15	379.359
1359.74	266.604
1363.32	125.361
1366.91	112.97
1370.49	39.622
1374.07	97.508
1377.65	169.103
1381.23	451.015
1384.8	261.918
1388.38	343.104
1391.95	482.991
1395.52	326.526
1399.09	127.513
1402.66	84.59
1406.22	195.319
1409.79	207.397
1413.35	2.071
1416.91	95.783
1420.47	404.089
1424.03	313.855
1427.59	227.21
1431.14	407.588
1434.69	275.109
1438.24	132.352
1441.8	94.531
1445.34	85.634
1448.89	337.13
1452.43	255.028
1455.98	154.417
1459.52	222.92
1463.06	453.242
1466.6	270.518
1470.14	767.945
1473.67	477.706
1477.2	258.715
1480.74	89.87
1484.27	101.139
1487.8	152.939
1491.32	75.576
1494.85	78.795
1498.37	163.04
1501.9	359.785
1505.42	238.857
1508.94	312.757
1512.45	185.295
