Measurement: Raman, 514 nm, depolarized, Raman Data Processed
Mineral: Fluoro-richterite
Rruff sample: R040019
Ideal chemistry: Na(NaCa)Mg_5_Si_8_O_22_F_2_
Locality: Wilberforce, Ontario, Canada
Source: University of Arizona Mineral Museum
Description: Brown prismatic crystals
Measured chemistry: (Na_0.59_K_0.27_[box]_0.14_)_Σ=1_(Ca_1.30_Na_0.70_)_Σ=2_(Mg_4.67_Fe_0.17_Fe^3+^_0.10_Ti_0.03_Mn_0.02_Al_0.01_)_Σ=5_(Si_7.67_Al_0.33_)_Σ=8_(F_1.12_(OH)_0.88_)_Σ=2_; OH estimated by charge balance
Pin_id: L00205
Orientation: Laser parallel to c [0 0 1]. Fiducial mark perpendicular to laser is parallel to -b* (0 -1 0)
Raman shift (cm-1)	intensity
146.172	0
150.327	3.04736
154.48	1593.11
158.63	3996.38
162.779	4495.86
166.926	3502.84
171.07	3331.24
175.213	3900.67
179.354	3991.82
183.493	3615.06
187.63	3092.48
191.765	2935.84
195.898	3259.56
200.029	4110.47
204.158	5175.05
208.285	6264.06
212.41	7773.34
216.533	10157.1
220.654	12789.1
224.773	14831.8
228.891	15704.8
233.006	14853
237.119	10856.3
241.231	6936.28
245.34	4579.5
249.448	2986.82
253.553	1847.09
257.657	1197.19
261.758	809.988
265.858	374.166
269.956	93.4409
274.052	312.853
278.146	351.096
282.237	290.203
286.327	121.203
290.416	192.843
294.502	559.574
298.586	1102.97
302.668	1890.66
306.749	2845.53
310.827	3724.45
314.903	3924.51
318.978	3185.23
323.051	2294.73
327.121	1721.2
331.19	1379.42
335.257	1299.97
339.322	1481.8
343.385	1771.91
347.446	1914.96
351.505	1957.81
355.563	1918.49
359.618	2149.02
363.672	2405.41
367.723	2721.64
371.773	2907.66
375.821	3008.69
379.866	2867.83
383.91	2862.43
387.952	2833.09
391.992	2668.75
396.031	2655.35
400.067	2505.89
404.101	2215.31
408.134	1617.6
412.165	1031.73
416.193	828.694
420.22	851.503
424.245	1023.06
428.268	1199.38
432.289	1221.47
436.309	1005.42
440.326	541.901
444.342	214.018
448.355	18.0254
452.367	66.0774
456.377	101.095
460.385	71.7649
464.391	20.4929
468.395	64.0864
472.398	3.8186
476.398	40.9766
480.397	7.68066
484.394	55.9697
488.389	93.0176
492.382	95.5779
496.373	205.688
500.362	383.396
504.349	604.718
508.335	814.843
512.319	1120.65
516.3	1404.1
520.28	1748.17
524.259	1998.84
528.235	1957.12
532.209	1791.81
536.182	1538.64
540.152	1232.89
544.121	953.799
548.088	834.332
552.053	820.504
556.017	778.306
559.978	669.718
563.938	566.727
567.895	394.324
571.851	371.5
575.805	352.252
579.758	514.577
583.708	682.475
587.657	752.944
591.603	510.005
595.548	149.959
599.491	41.0178
603.432	70.2783
607.372	0.267822
611.309	55.9426
615.245	104.518
619.179	208.808
623.111	354.709
627.041	518.583
630.97	722.935
634.896	960.493
638.821	1147
642.744	1537.78
646.665	1982.43
650.584	2695.3
654.502	3701.17
658.418	5124.84
662.331	7334.32
666.244	10970.9
670.154	18087.7
674.062	31263.3
677.969	47639
681.874	51791.8
685.777	36939.6
689.678	20883.3
693.577	11131.7
697.475	6881.28
701.371	4482.07
705.265	3299.82
709.157	2559.69
713.047	2228.8
716.936	2022.8
720.823	1969.22
724.708	1729.88
728.591	1595.01
732.472	1532.79
736.352	1434.31
740.23	1326.53
744.106	1060.46
747.98	977.106
751.853	817.566
755.723	607.679
759.592	501.86
763.459	396.678
767.325	296.396
771.188	128.822
775.05	54.7412
778.91	5.69458
782.768	21.8648
786.625	57.2219
790.479	30.5503
794.332	11.5884
798.183	37.6958
802.033	56.7014
805.88	7.4585
809.726	22.1765
813.57	61.4114
817.413	15.4004
821.253	0.842285
825.092	17.7031
828.929	37.844
832.764	1.73291
836.598	42.9048
840.429	38.8245
844.259	40.0735
848.088	7.35254
851.914	19.4343
855.739	7.57837
859.562	48.5581
863.383	38.8923
867.203	16.616
871.02	0.96875
874.836	74.3762
878.65	173.68
882.463	181.985
886.274	350.321
890.083	552.698
893.89	761.153
897.695	997.646
901.499	1266.3
905.301	1580.08
909.102	1809.04
912.9	2499.46
916.697	2741.33
920.492	3338.46
924.285	4187.58
928.077	4822
931.867	5321.1
935.655	5008.84
939.442	4565.59
943.226	4360.17
947.009	4535.87
950.791	4386.53
954.57	4148.82
958.348	3460.06
962.124	2873.05
965.899	2615.37
969.671	2550.98
973.442	2581.03
977.211	2587.05
980.979	2496.69
984.745	2286.73
988.509	2247.43
992.271	2322.99
996.032	2391.98
999.791	2335.74
1003.55	2445.97
1007.3	2629.89
1011.06	2788.33
1014.81	3018.28
1018.56	3066.02
1022.31	3210.86
1026.06	3398.93
1029.8	3749.75
1033.55	4141.93
1037.29	4800.35
1041.03	5537.09
1044.77	6196.26
1048.5	6674.56
1052.24	7779.35
1055.97	9012.8
1059.7	11170.6
1063.43	13544.6
1067.16	15949.7
1070.89	17408.4
1074.61	16792.8
1078.34	14408.8
1082.06	11482
1085.78	8761.78
1089.5	6653.29
1093.21	4745.56
1096.93	3627.1
1100.64	2923.46
1104.35	2409.09
1108.06	2044.94
1111.77	1801.9
1115.48	1657.97
1119.18	1465.86
1122.89	1495.62
1126.59	1279.95
1130.29	1156.01
1133.99	1005.98
1137.68	916.024
1141.38	853.495
1145.07	727.754
1148.76	665.475
1152.45	575.744
1156.14	476.554
1159.83	298.404
1163.51	181.047
1167.19	93.0781
1170.88	90.8159
1174.56	0.216797
1178.23	54.3345
1181.91	60.0654
1185.59	41.7788
1189.26	11.9531
1192.93	22.6948
1196.6	89.2661
1200.27	34.7256
1203.94	103.972
1207.6	45.9258
1211.27	27.7163
1214.93	24.4219
1218.59	17.9043
1222.25	6.22314
1225.9	7.01172
1229.56	42.1494
1233.21	27.8867
1236.86	32.5786
1240.51	75.0869
1244.16	96.0986
1247.81	128.2
1251.45	42.5283
1255.1	142.425
1258.74	111.928
1262.38	95.7481
1266.02	185.135
1269.66	19.459
1273.29	170.304
1276.93	192.321
1280.56	165.023
1284.19	188.625
1287.82	146.588
1291.45	206.345
1295.07	156.966
1298.7	184.43
1302.32	132.603
1305.94	158.627
1309.56	137.032
1313.18	194.561
1316.8	163.001
1320.41	199.137
1324.02	236.906
1327.63	79.356
1331.24	150.798
1334.85	176.554
1338.46	164.686
1342.06	124.949
1345.67	129.169
1349.27	234.674
1352.87	107.655
1356.47	36.0444
1360.07	2.98975
1363.66	5.56689
1367.25	48.0083
1370.85	22.3916
1374.44	61.1787
1378.03	61.8916
1381.61	37.1377
1385.2	88.2939
1388.78	79.3262
1392.37	80.9131
1395.95	28.5215
1399.53	86.5615
1403.1	70.6406
1406.68	127.699
1410.26	165.866
1413.83	78.1143
1417.4	79.5342
1420.97	119.241
1424.54	107.832
1428.1	89.4277
1431.67	61.8164
1435.23	170.359
1438.8	144.315
1442.36	131.983
1445.91	216.812
1449.47	150.769
1453.03	109.659
1456.58	110.518
1460.13	114.39
1463.68	140.815
1467.23	210.477
1470.78	104.116
1474.33	177.553
1477.87	144.986
1481.42	197.048
1484.96	75.9268
1488.5	89.4912
1492.04	154.385
1495.57	125.37
1499.11	205.991
1502.64	13.1807
1506.17	14.9961
1509.71	133.554
1513.23	138.552
1516.76	63.5723
1520.29	50.3965
