Measurement: Raman, 514 nm, depolarized, Raman Data Processed
Mineral: Forsterite
Rruff sample: R040052
Ideal chemistry: Mg_2_SiO_4_
Locality: Synthetic, Czochralski method
Source: Hideki Kanazawa of Kyoto University, Japan
Description: Colorless crystal fragments obtained from a boule.
Measured chemistry: Mg_2.00_Si_1.00_O_4_
Pin_id: L00366
Orientation: Laser parallel to b* (0 1 0). Fiducial mark perpendicular to laser is parallel to c [0 0 1]
Raman shift (cm-1)	intensity
82.815	0
86.988	0.691
91.158	88.456
95.326	277.26
99.493	212.022
103.657	127.902
107.82	156.345
111.981	101.181
116.14	85.758
120.297	343.734
124.451	188.04
128.604	120.125
132.756	98.166
136.905	81.207
141.052	95.385
145.197	58.653
149.341	78.955
153.482	93.917
157.622	2.909
161.76	52.97
165.896	95.899
170.03	34.073
174.162	16.242
178.292	29.179
182.42	76.835
186.546	93.45
190.671	196.045
194.793	90.407
198.914	37.445
203.032	6.957
207.149	20.265
211.264	68.809
215.377	11.404
219.488	21.08
223.598	90.066
227.705	354.533
231.811	1780.8
235.914	362.611
240.016	148.775
244.116	198.55
248.214	208.291
252.31	98.255
256.404	114.036
260.496	54.332
264.587	37.261
268.675	1.16
272.762	88.024
276.847	104.715
280.93	140.708
285.011	161.825
289.09	223.146
293.167	175.412
297.243	268.072
301.316	485.948
305.388	1717.41
309.458	3340.51
313.526	881.381
317.592	356.105
321.656	302.36
325.719	262.635
329.779	518.714
333.838	1040.32
337.895	592.011
341.95	729.334
346.003	695.813
350.055	313.469
354.104	166.922
358.152	116.378
362.198	93.952
366.242	165.454
370.284	145.676
374.324	54.963
378.362	112.112
382.399	143.901
386.434	97.125
390.467	35.214
394.498	29.111
398.527	74.964
402.554	83.669
406.58	66.246
410.604	56.537
414.625	127.944
418.646	271.455
422.664	467.01
426.68	651.987
430.695	363.657
434.708	287.41
438.719	367.085
442.728	544.532
446.735	374.852
450.741	160.623
454.744	99.266
458.746	24.232
462.746	62.148
466.744	73.954
470.741	61.615
474.735	10.834
478.728	5.382
482.719	80.99
486.708	9.198
490.696	32.369
494.681	12.492
498.665	48.646
502.647	80.801
506.627	25.688
510.606	18.133
514.582	34.774
518.557	80.066
522.53	70.44
526.501	23.361
530.471	62.782
534.438	158.844
538.404	151.401
542.368	249.045
546.33	656.743
550.291	801.706
554.249	392.224
558.206	206.599
562.161	105.409
566.115	122.821
570.066	142.7
574.016	273.844
577.964	249.901
581.91	351.118
585.854	709.305
589.797	1168.47
593.738	862.632
597.677	687.771
601.614	845.881
605.55	1604.96
609.484	3325.02
613.416	3559.91
617.346	1777.42
621.274	880.116
625.201	633.662
629.126	448.36
633.049	299.277
636.97	97.292
640.89	121.398
644.808	201.112
648.724	117.525
652.638	74.737
656.551	29.226
660.462	77.685
664.371	94.807
668.278	66.222
672.184	23.555
676.088	93.083
679.99	19.737
683.89	43.389
687.789	16.659
691.686	17.089
695.581	51.901
699.474	9.242
703.366	77.382
707.256	64.498
711.144	28.474
715.03	74.511
718.915	16.62
722.798	47.284
726.679	61.217
730.559	37.196
734.437	60.224
738.313	100.293
742.187	136.406
746.059	197.594
749.93	128.854
753.799	109.177
757.667	160.551
761.532	242.047
765.396	298.639
769.258	274.305
773.119	213.07
776.978	257.919
780.835	430.847
784.69	479.871
788.544	552.006
792.396	508.278
796.246	583.659
800.094	779.198
803.941	1136.83
807.786	1403.55
811.629	1974.39
815.471	2991.32
819.311	5317.59
823.149	13310.3
826.986	26047.2
830.82	17163.5
834.654	7574.39
838.485	4572.74
842.315	4176.47
846.143	5304.13
849.969	8359.86
853.794	16632.6
857.617	39933.1
861.438	42156
865.257	17981.1
869.075	8420.2
872.891	4952.85
876.706	3541.48
880.518	3612.66
884.33	5514.79
888.139	3757.83
891.947	1886.91
895.753	1170.19
899.557	822.618
903.36	510.923
907.161	465.42
910.96	456.953
914.757	557.792
918.553	460.946
922.348	450.654
926.14	307.094
929.931	297.681
933.72	358.901
937.508	423.218
941.294	473.318
945.078	482.327
948.861	541.534
952.641	928.522
956.421	1444.29
960.198	2604.81
963.974	4834.74
967.748	8700.81
971.521	6136.91
975.292	2552.11
979.061	1210.44
982.828	669.269
986.594	480.824
990.359	283.474
994.121	198.295
997.882	94.881
1001.64	140.933
1005.4	159.127
1009.15	187.435
1012.91	122.837
1016.66	111.424
1020.41	349.143
1024.16	23.041
1027.91	27.847
1031.66	131.806
1035.4	84.791
1039.14	128.809
1042.88	30.86
1046.62	60.657
1050.36	26.289
1054.1	50.76
1057.83	110.091
1061.57	128.151
1065.3	101.093
1069.03	43.992
1072.76	56.126
1076.48	6.334
1080.21	47.447
1083.93	110.244
1087.65	121.302
1091.37	82.052
1095.09	0.283
1098.81	62.637
1102.52	15.888
1106.23	1.4
1109.95	149.882
1113.66	181.261
1117.37	167.62
1121.07	128.359
1124.78	74.053
1128.48	8.664
1132.18	64.957
1135.88	198.425
1139.58	199.675
1143.28	195.877
1146.97	152.221
1150.67	65.865
1154.36	63.961
1158.05	126.442
1161.74	168.607
1165.43	253.156
1169.12	310.781
1172.8	128.965
1176.48	331.2
1180.16	187.697
1183.84	106.9
1187.52	169.421
1191.2	179.944
1194.87	225.906
1198.55	239.727
1202.22	268.066
1205.89	251.772
1209.56	148.097
1213.22	107.076
1216.89	111.405
1220.55	226.591
1224.21	269.703
1227.87	383.747
1231.53	323.668
1235.19	251.316
1238.84	203.726
1242.5	147.52
1246.15	164.175
1249.8	214.857
1253.45	292.071
1257.1	333.388
1260.74	282.846
1264.39	164.359
1268.03	143.616
1271.67	128.585
1275.31	32.312
1278.95	64.199
1282.59	124.687
1286.22	231.219
1289.86	197.551
1293.49	186.995
1297.12	139.462
1300.75	21.213
1304.38	19.158
1308	34.735
1311.63	11.53
1315.25	46.469
1318.87	165.335
1322.49	173.05
1326.11	167.619
1329.72	77.056
1333.34	60.375
1336.95	17.429
1340.56	2.666
1344.17	3.932
1347.78	43.743
1351.39	88.187
1354.99	138.836
1358.6	182.6
1362.2	201.167
1365.8	161.813
1369.4	443.399
1373	17.9
1376.59	48.094
1380.19	34.144
1383.78	127.865
1387.37	152.535
1390.96	200.127
1394.55	278.696
1398.14	232.251
1401.72	241.921
1405.31	66.852
1408.89	67.335
1412.47	176.383
1416.05	13.907
1419.63	29.053
1423.2	141.709
1426.78	233.995
1430.35	230.202
1433.92	277.347
1437.49	271.94
1441.06	159.8
1444.63	155
1448.19	111.503
1451.76	89.9
1455.32	139.603
1458.88	151.377
1462.44	217.461
1466	305.287
1469.55	339.617
1473.11	315.432
1476.66	348.624
1480.21	299.871
1483.76	184.755
1487.31	108.952
1490.86	52.859
1494.4	26.135
1497.95	2.09
1501.49	78.238
1505.03	89.475
1508.57	207.058
1512.11	184.197
1515.64	265.64
1519.18	244.167
