Measurement: Raman, 514 nm, ccw, Raman Data Processed
Mineral: Forsterite
Rruff sample: R060551
Ideal chemistry: Mg_2_SiO_4_
Locality: Kohiston, Pakistan
Source: Gemological Institute of America
Description: Pale green fragment
Measured chemistry: (Mg_1.82_Fe_0.18_)_Î£=2_Si_1.00_O_4_; trace amounts of Mn
Pin_id: M00797
Orientation: Laser parallel to -c* (0 0 -1). Fiducial mark perpendicular to laser is parallel to a [1 0 0]
Raman shift (cm-1)	intensity
100.258	0
105.226	234.876
110.19	313.872
115.152	348.022
120.111	331.739
125.066	300.903
130.018	216.645
134.968	298.509
139.914	381.357
144.857	283.74
149.797	221.43
154.734	222.546
159.668	282.618
164.599	373.218
169.527	331.965
174.451	438.918
179.373	554.492
184.292	657.992
189.207	589.427
194.12	459.539
199.029	351.848
203.936	225.898
208.839	602.307
213.74	1304.63
218.637	2504.65
223.531	3824.27
228.423	3649.38
233.311	2732.96
238.196	1955.95
243.078	1106.9
247.958	608.345
252.834	285.753
257.707	295.46
262.577	197.421
267.445	263.707
272.309	14.415
277.17	147.603
282.029	242.573
286.884	336.345
291.736	471.805
296.586	933.862
301.432	1587.84
306.275	1607.13
311.116	1396.57
315.953	2045.94
320.788	3971.47
325.62	6680.4
330.448	7368.02
335.274	6267.83
340.097	5074.55
344.917	2667.73
349.733	1082.05
354.547	439.508
359.358	298.206
364.166	251.947
368.972	105.798
373.774	16.7246
378.573	0.077148
383.37	25.666
388.163	32.9385
392.954	14.9912
397.742	41.7598
402.526	165.111
407.308	42.6172
412.087	63.9853
416.863	286.719
421.637	426.624
426.407	707.511
431.174	757.352
435.939	417.116
440.701	121.775
445.46	119.297
450.216	8.33887
454.969	35.5273
459.719	86.9414
464.466	213.116
469.211	101.013
473.953	230.619
478.692	217.994
483.428	84.0781
488.161	114.892
492.891	225.442
497.619	81.0147
502.343	197.155
507.065	191.51
511.784	242.81
516.5	432.543
521.214	639.668
525.924	978.333
530.632	1819.08
535.337	4061.22
540.039	8779.72
544.738	11863.4
549.435	6279.31
554.129	2320.69
558.82	1249.47
563.508	836.746
568.193	663.672
572.876	661.048
577.555	611.408
582.232	729.267
586.907	571.234
591.578	611.549
596.247	382.845
600.913	486.585
605.576	680.612
610.236	779.042
614.894	733.589
619.549	410.702
624.201	453.677
628.851	374.951
633.497	199.823
638.141	156.165
642.782	7.79004
647.421	175.682
652.057	63.7363
656.69	8.66211
661.32	42.8701
665.947	107.858
670.572	138.878
675.194	41.9297
679.814	127.258
684.43	78.5283
689.044	63.2842
693.656	58.8027
698.264	36.0879
702.87	152.772
707.473	62.3018
712.074	171.709
716.672	224.04
721.267	287.327
725.859	281.599
730.449	455.887
735.036	347.416
739.62	469.069
744.202	482.906
748.781	675.028
753.358	712.317
757.931	1083.75
762.502	1195.4
767.071	1602.23
771.637	1639.35
776.2	2006.49
780.76	2604.09
785.318	3139.07
789.873	3842.28
794.426	4855.12
798.976	7254.65
803.523	10287.7
808.068	17172.6
812.61	32412.7
817.149	72101.6
821.686	143381
826.22	155129
830.751	82471.9
835.28	42160.3
839.807	28401.3
844.33	28356.8
848.852	39565
853.37	62979.4
857.886	64620.5
862.399	36312.3
866.91	18036.8
871.418	9756.94
875.924	5872.86
880.427	4010.69
884.927	2710.02
889.425	1999.72
893.92	1431.74
898.413	996.16
902.903	939.098
907.391	746.511
911.875	871.533
916.358	1173.06
920.838	1252.67
925.315	952.248
929.79	1098.32
934.262	1306.94
938.732	1890.44
943.199	2664.4
947.663	4379.58
952.125	7058.42
956.585	11153
961.042	14835.1
965.496	13380.7
969.948	8738.52
974.398	4412.25
978.844	2338.51
983.289	1058.29
987.731	613.562
992.17	338.5
996.607	105.714
1001.04	200.376
1005.47	0.475586
1009.9	68.0098
1014.33	83.3457
1018.75	72.875
1023.17	11.6406
1027.59	36.3574
1032.01	39.3877
1036.43	97.21
1040.84	86.4844
1045.25	151.587
1049.65	12.9863
1054.06	96.5859
1058.46	54.9297
1062.86	69.5244
1067.26	201.236
1071.65	53.3711
1076.04	25.9238
1080.43	10.4014
1084.82	263.858
1089.2	101.421
1093.59	205.033
1097.97	164.719
1102.34	398.39
1106.72	108.05
1111.09	170.753
1115.46	247.49
1119.83	250.251
1124.19	247.019
1128.56	444.788
1132.92	277.554
1137.28	343.356
1141.63	398.128
1145.98	312.728
1150.34	300.268
1154.68	481.682
1159.03	450.135
1163.37	403.234
1167.71	536.783
1172.05	433.868
1176.39	435.245
1180.72	400.853
1185.05	262.666
1189.38	503.402
1193.71	295.043
1198.03	433.107
1202.36	440.414
1206.67	456.746
1210.99	437.775
1215.31	389.885
1219.62	558.106
1223.93	518.643
1228.24	415.676
1232.54	420.131
1236.85	627.238
1241.15	585.352
1245.44	203.471
1249.74	466.602
1254.03	263.551
1258.33	143.711
1262.61	147.916
1266.9	329.135
1271.18	215.328
1275.47	97.7773
1279.74	52.332
1284.02	61.7441
1288.3	4.92969
1292.57	65.8516
1296.84	82.7695
1301.11	156.027
1305.37	249.881
1309.64	247.09
1313.9	234.525
1318.16	95.2305
1322.41	213.168
1326.67	123.445
1330.92	70.1856
1335.17	129.961
1339.41	34.9238
1343.66	173.996
1347.9	102.152
1352.14	186.4
1356.38	163.174
1360.61	115.184
1364.85	339.723
1369.08	314.33
1373.31	144.023
1377.53	401.266
1381.76	211.728
1385.98	221.504
1390.2	364.998
1394.42	255.211
1398.63	83.6426
1402.84	166.213
1407.05	213.947
1411.26	81.4961
1415.47	177.988
1419.67	224.734
1423.87	335.658
1428.07	349.535
1432.27	457.859
1436.46	735.096
1440.66	461.994
1444.85	659.914
1449.04	511.654
1453.22	536.822
1457.4	437.273
1461.59	370.621
1465.77	317.119
1469.94	428.539
1474.12	286.486
1478.29	210.357
1482.46	167.357
1486.63	140.379
1490.79	253.199
1494.96	298.412
1499.12	87.375
1503.28	117.022
1507.43	157.641
1511.59	120.385
1515.74	169.185
1519.89	94.2988
1524.04	109.098
1528.18	187.465
1532.33	187.5
1536.47	98.457
1540.61	98.5019
1544.75	384.746
1548.88	211.602
1553.02	119.221
1557.15	248.94
1561.27	82.7207
1565.4	344.623
1569.53	94.6484
1573.65	325.596
1577.77	80.7188
