Measurement: Raman, 514 nm, depolarized, Raman Data Processed
Mineral: Forsterite
Rruff sample: R050117
Ideal chemistry: Mg_2_SiO_4_
Locality: Sapat, Gilgit, Pakistan
Source: Farooq and Nazia Sawal
Description: Fragment of a green crystal
Measured chemistry: (Mg_1.81_Fe_0.18_Ni_0.01_)_Î£=2_Si_1.00_O_4_
Pin_id: M00435
Orientation: Laser parallel to a* (1 0 0). Fiducial mark perpendicular to laser is parallel to -b [0 -1 0]
Raman shift (cm-1)	intensity
46.644	0
50.85	164.094
55.054	560.659
59.255	849.582
63.454	1176.21
67.652	1085.19
71.847	1194.38
76.04	1416.02
80.232	766.243
84.421	553.371
88.608	201.095
92.793	98.584
96.976	22.856
101.157	31.296
105.336	8.004
109.513	375.729
113.688	194.799
117.861	104.665
122.032	62.659
126.201	18.431
130.367	80.206
134.532	76.357
138.695	48.757
142.856	21.914
147.014	55.169
151.171	25.576
155.325	13.603
159.478	18.722
163.629	16.585
167.777	35.648
171.924	9.876
176.068	13.149
180.211	25.902
184.351	18.393
188.49	32.483
192.626	6.637
196.761	17.904
200.893	10.04
205.024	3.702
209.152	61.944
213.279	255.172
217.403	616.745
221.526	1026.1
225.646	1148.12
229.765	1008.49
233.881	794.152
237.996	710.728
242.108	567.959
246.219	421.78
250.328	377.692
254.434	309.62
258.539	313.47
262.641	333.066
266.742	295.25
270.84	289.234
274.937	299.397
279.032	315.745
283.125	346.48
287.215	431.567
291.304	491.709
295.391	806.189
299.476	1493.04
303.558	1912.62
307.639	1253.24
311.718	889.497
315.795	943.157
319.87	1027.03
323.943	1553.1
328.014	1708.73
332.083	1318.97
336.15	1263.11
340.215	1062.97
344.279	639.291
348.34	363.601
352.399	303.282
356.457	265.651
360.512	265.987
364.565	248.919
368.617	397.602
372.666	367.275
376.714	211.136
380.76	153.89
384.803	120.129
388.845	133.631
392.885	87.436
396.923	93.583
400.959	117.125
404.993	181.11
409.025	323.269
413.055	382.073
417.084	487.757
421.11	528.179
425.134	582.419
429.157	946.347
433.177	1032.32
437.196	961.365
441.213	587.568
445.227	273.986
449.24	152.009
453.251	63.069
457.26	51.37
461.267	18.587
465.272	6.733
469.276	30.813
473.277	31.831
477.276	50.817
481.274	19.806
485.27	28.862
489.263	17.99
493.255	11.74
497.245	64.268
501.233	66.032
505.219	49.632
509.203	84.185
513.186	121.656
517.166	103.489
521.145	176.937
525.121	202.864
529.096	286.315
533.069	456.538
537.04	968.726
541.009	2017.52
544.976	1885.74
548.941	832.914
552.905	438.464
556.866	288.091
560.826	217.793
564.784	226.272
568.74	322.499
572.694	485.684
576.646	787.843
580.596	1310.98
584.544	1687.11
588.491	1603.22
592.435	1289.32
596.378	1007.4
600.319	1158.48
604.258	1523.54
608.195	1497.54
612.131	1074.64
616.064	691.451
619.995	407.823
623.925	242.187
627.853	186.716
631.779	101.538
635.703	67.329
639.625	35.946
643.546	15.759
647.464	11.574
651.381	32.506
655.296	36.147
659.209	11.657
663.12	45.419
667.029	45.227
670.937	29.829
674.842	16.406
678.746	3.117
682.648	14.934
686.548	22.881
690.447	3.654
694.343	13.96
698.238	3.859
702.13	2.767
706.021	25.687
709.91	32.86
713.798	50.611
717.683	89.623
721.567	127.658
725.448	88.708
729.328	121.774
733.206	137.862
737.083	205.968
740.957	172.094
744.83	202.243
748.701	260.417
752.57	290.624
756.437	325.863
760.302	378.153
764.166	418.502
768.027	476.915
771.887	572.387
775.745	654.923
779.602	760.544
783.456	842.261
787.309	998.087
791.16	1210.02
795.009	1526.02
798.856	2011.99
802.702	2713.08
806.545	3788.5
810.387	6166.14
814.227	10983.2
818.065	22715.2
821.902	42653.2
825.737	37574.1
829.569	20853.4
833.401	12854
837.23	10037
841.057	9639.12
844.883	11795.5
848.707	19392.4
852.529	33869.7
856.35	40457
860.168	26164.6
863.985	14132.3
867.8	8241.53
871.613	5381.41
875.425	4554.4
879.234	5444.5
883.042	5344.07
886.848	3020.43
890.653	1775.87
894.455	1237.42
898.256	1089.08
902.055	934.409
905.852	895.3
909.648	1031.22
913.442	1607.25
917.233	3380.39
921.024	2895.59
924.812	1279.12
928.599	757.932
932.384	604.141
936.167	594.318
939.948	648.967
943.728	808.919
947.506	1088.47
951.282	1483.91
955.056	2043.2
958.829	2840.62
962.6	2828.23
966.369	2270.01
970.136	1561.93
973.902	918.044
977.666	554.337
981.428	320.824
985.188	181.493
988.947	127.313
992.704	99.424
996.459	103.527
1000.21	78.741
1003.96	40.063
1007.71	21.473
1011.46	0.973
1015.21	17.424
1018.95	34.281
1022.7	26.078
1026.44	28.949
1030.18	3.897
1033.91	2.094
1037.65	25.979
1041.39	8.115
1045.12	9.306
1048.85	28.551
1052.58	11.84
1056.31	3.827
1060.03	16.461
1063.76	17.098
1067.48	6.749
1071.2	1.602
1074.92	6.02
1078.63	14.636
1082.35	18.282
1086.06	25.98
1089.78	24.754
1093.49	7.613
1097.19	6.469
1100.9	3.527
1104.61	13.563
1108.31	33.61
1112.01	16.672
1115.71	13.747
1119.41	33.83
1123.11	60.924
1126.8	60.269
1130.5	50.741
1134.19	80.056
1137.88	12.617
1141.57	49.353
1145.25	64.382
1148.94	81.159
1152.62	120.18
1156.3	93.677
1159.98	102.322
1163.66	91.979
1167.34	100.393
1171.01	95.561
1174.68	87.466
1178.36	126.788
1182.02	91.86
1185.69	114.137
1189.36	88.857
1193.02	99.485
1196.69	114.218
1200.35	89.447
1204.01	97.391
1207.66	131.638
1211.32	134.038
1214.98	142.978
1218.63	144.94
1222.28	172.725
1225.93	139.221
1229.58	106.636
1233.22	120.902
1236.87	138.311
1240.51	133.264
1244.15	146.442
1247.79	125.019
1251.43	87.203
1255.07	66.104
1258.7	65.962
1262.33	34.757
1265.96	57.48
1269.59	38.139
1273.22	17.674
1276.85	39.103
1280.47	23.43
1284.1	13.62
1287.72	2.811
1291.34	6.067
1294.95	0.041
1298.57	23.909
1302.19	9.799
1305.8	4.375
1309.41	18.35
1313.02	26.985
1316.63	14.547
1320.23	18.097
1323.84	10.515
1327.44	7.873
1331.05	29.17
1334.64	49.413
1338.24	32.607
1341.84	22.755
1345.43	30.859
1349.03	51.917
1352.62	39.94
1356.21	61.239
1359.8	17.447
1363.39	38.429
1366.97	28.391
1370.56	58.277
1374.14	54.245
1377.72	67.025
1381.3	60.58
1384.87	64.653
1388.45	57.734
1392.02	25.756
1395.6	50.714
1399.17	53.88
1402.74	71.857
1406.3	67.569
1409.87	53.423
1413.43	65.983
1417	75.106
1420.56	54.138
1424.12	54.171
1427.67	30.979
1431.23	70.394
1434.79	29.598
1438.34	61.422
1441.89	45.508
1445.44	65.663
1448.99	69.734
1452.54	39.61
1456.08	40.423
1459.62	68.799
1463.17	26.119
1466.71	50.471
1470.24	37.227
1473.78	36.123
1477.32	17.234
1480.85	50.423
1484.38	38.577
1487.91	28.446
1491.44	49.782
1494.97	58.284
1498.5	31.98
1502.02	57.856
1505.54	37.991
1509.07	39.939
1512.59	15.597
1516.1	37.406
1519.62	0
