Measurement: Raman, 514 nm, depolarized, Raman Data Processed
Mineral: Forsterite
Rruff sample: R050117
Ideal chemistry: Mg_2_SiO_4_
Locality: Sapat, Gilgit, Pakistan
Source: Farooq and Nazia Sawal
Description: Fragment of a green crystal
Measured chemistry: (Mg_1.81_Fe_0.18_Ni_0.01_)_Î£=2_Si_1.00_O_4_
Pin_id: L00442
Orientation: Laser parallel to c* (0 0 1). Fiducial mark perpendicular to laser is parallel to -a [-1 0 0]
Raman shift (cm-1)	intensity
127.452	0
131.615	118.071
135.777	40.207
139.937	80.49
144.094	40.372
148.25	72.909
152.403	119.232
156.555	163.903
160.705	116.026
164.853	67.735
168.998	101.478
173.142	65.431
177.284	80.363
181.424	92.84
185.562	72.249
189.698	6.051
193.831	3.294
197.963	15.65
202.093	47.1
206.221	64.837
210.347	88.691
214.472	223.714
218.594	462.458
222.714	731.546
226.832	703.759
230.948	478.934
235.063	390.927
239.175	322.152
243.286	166.627
247.394	112.648
251.501	32.727
255.605	3.889
259.708	11.967
263.808	22.423
267.907	6.994
272.004	23.477
276.099	9.749
280.192	15.423
284.283	81.95
288.372	30.884
292.459	226.436
296.544	623.271
300.627	1523.41
304.709	1783.74
308.788	1126.89
312.865	701.222
316.941	746.338
321.015	835.972
325.086	1145.14
329.156	1169.54
333.224	939.229
337.29	818.905
341.354	560.125
345.416	341.768
349.476	166.911
353.534	117.245
357.591	91.941
361.645	65.408
365.698	71.554
369.748	98.414
373.797	39.262
377.844	56.691
381.889	34.252
385.932	86.971
389.973	73.848
394.012	92.55
398.049	68.069
402.084	58.405
406.118	90.235
410.15	203.619
414.179	405.09
418.207	639.421
422.233	493.646
426.257	624.996
430.279	952.956
434.299	727.839
438.318	336.21
442.334	155.557
446.349	77.268
450.361	55.228
454.372	20.766
458.381	45.137
462.388	34.241
466.394	41.552
470.397	42.588
474.398	136.377
478.398	87.946
482.396	4.298
486.391	33.433
490.385	36.624
494.377	19.475
498.368	79.264
502.356	78.935
506.342	103.338
510.327	80.425
514.31	106.113
518.291	133.807
522.27	155.454
526.247	198.331
530.222	285.405
534.196	439.757
538.167	864.533
542.137	1603.67
546.105	1386.32
550.071	714.274
554.035	426.953
557.998	334.257
561.958	307.255
565.917	289.498
569.874	327.382
573.829	451.446
577.782	555.447
581.733	641.395
585.683	638.309
589.63	636.187
593.576	829.058
597.52	1161.95
601.462	1957.81
605.402	2781.7
609.341	2672.4
613.277	1780.65
617.212	1042.25
621.145	614.433
625.076	390.327
629.006	309.409
632.933	187.365
636.859	136.248
640.783	110.955
644.705	53.607
648.625	75.534
652.543	43.246
656.46	19.632
660.375	52.639
664.288	36.328
668.199	35.11
672.108	86.09
676.016	80.563
679.921	46.208
683.825	24.884
687.727	3.833
691.628	22.682
695.526	4.492
699.423	24.304
703.318	7.246
707.211	9.817
711.102	54.548
714.992	39.274
718.879	7.002
722.765	132.732
726.649	94.461
730.532	123.184
734.412	131.906
738.291	179.636
742.168	171.367
746.043	181.101
749.916	261.839
753.788	259.582
757.658	271.337
761.526	365.153
765.392	406.022
769.257	467.945
773.119	485.917
776.98	508.963
780.839	622.074
784.697	779.252
788.552	923.509
792.406	1111.82
796.258	1394.21
800.108	1810.62
803.957	2443.97
807.804	3647.39
811.649	5718.01
815.492	10017.4
819.333	20822.9
823.173	39310.8
827.011	34635.8
830.847	18996
834.681	11296.8
838.514	8379.42
842.345	7605.48
846.174	8864.23
850.001	14093.1
853.827	24881.9
857.651	28670.9
861.473	18300.4
865.293	10290.2
869.112	6022.05
872.928	3680.03
876.744	2422.12
880.557	1754.31
884.369	1400.6
888.178	950.951
891.987	771.452
895.793	605.108
899.598	437.822
903.401	346.643
907.202	324.572
911.001	284.281
914.799	443.9
918.595	522.683
922.389	368.021
926.182	293.996
929.972	224.424
933.761	349.495
937.549	387.552
941.334	507.172
945.118	636.799
948.9	995.539
952.681	1551.03
956.459	2711.66
960.236	4112.08
964.012	4819.86
967.785	4003.49
971.557	2607.28
975.327	1691.18
979.095	975.301
982.862	576.695
986.627	467.484
990.39	321.226
994.152	261.118
997.912	207.156
1001.67	143.426
1005.43	83.653
1009.18	115.283
1012.93	109.727
1016.68	88.253
1020.43	59.847
1024.18	18.376
1027.93	48.258
1031.67	52.113
1035.42	60.1
1039.16	6.144
1042.9	2.762
1046.63	64.413
1050.37	36.675
1054.11	12.998
1057.84	6.366
1061.57	41.742
1065.3	11.076
1069.03	21.601
1072.75	32.288
1076.47	30.997
1080.2	17.244
1083.92	4.518
1087.64	1.68
1091.36	86.833
1095.07	30.931
1098.79	46.001
1102.5	22.007
1106.21	19.952
1109.92	39.923
1113.62	37.897
1117.33	88.936
1121.04	63.957
1124.74	152.114
1128.44	8.8
1132.14	11.964
1135.83	38.936
1139.53	108.218
1143.22	114.397
1146.92	30.231
1150.61	130.188
1154.3	11.591
1157.98	74.455
1161.67	47.777
1165.35	119.471
1169.04	157.118
1172.72	157.066
1176.4	120.055
1180.07	136.694
1183.75	53.039
1187.42	74.579
1191.1	68.687
1194.77	124.779
1198.44	125.206
1202.1	199.273
1205.77	183.539
1209.43	157.975
1213.1	133.674
1216.76	182.042
1220.42	183.177
1224.07	238.199
1227.73	226.934
1231.38	196.053
1235.04	204.733
1238.69	167.296
1242.34	138.766
1245.99	163.386
1249.63	130.718
1253.28	121.286
1256.92	191.154
1260.56	169.347
1264.2	192.123
1267.84	80.841
1271.48	13.766
1275.11	45.142
1278.74	4.811
1282.38	37.885
1286.01	73.822
1289.63	19.613
1293.26	49.18
1296.89	66.5
1300.51	34.7
1304.13	36.927
1307.75	60.026
1311.37	406.013
1314.99	10.158
1318.6	23.929
1322.22	22.914
1325.83	19.09
1329.44	115.354
1333.05	74.491
1336.66	28.478
1340.26	33.56
1343.87	60.192
1347.47	25.85
1351.07	79.397
1354.67	39.881
1358.27	85.312
1361.86	70.403
1365.46	91.727
1369.05	40.023
1372.64	21.225
1376.23	19.541
1379.82	53.577
1383.41	87.263
1386.99	146.61
1390.57	124.949
1394.16	195.181
1397.74	190.977
1401.32	146.986
1404.89	142.291
1408.47	141.418
1412.04	16.051
1415.61	60.861
1419.18	10.874
1422.75	83.823
1426.32	81.105
1429.89	139.071
1433.45	157.486
1437.01	177.15
1440.58	91.689
1444.13	99.215
1447.69	100.219
1451.25	51.549
1454.81	0.007
1458.36	103.195
1461.91	55.351
1465.46	76.172
1469.01	200.101
1472.56	220.727
1476.1	184.712
1479.64	144.488
1483.19	117.008
1486.73	159.836
1490.27	60.593
1493.81	14.273
1497.34	54.881
1500.88	11.558
1504.41	51.187
1507.94	116.588
1511.47	114.994
1515	119.364
1518.53	167.735
1522.05	177.262
