Measurement: Raman, 514 nm, depolarized, Raman Data Processed
Mineral: Forsterite
Rruff sample: R040057
Ideal chemistry: Mg_2_SiO_4_
Locality: Trudy's mine, San Carlos, Gila County, Arizona, USA
Source: Bob Downs
Description: Dark green crystal fragments from xenoliths in a basalt flow
Measured chemistry: (Mg_1.67_Fe_0.32_Ni_0.01_)_Î£=2_Si_1.00_O_4_; trace amounts of Mn and Ca
Pin_id: L00083
Orientation: Laser parallel to c* (0 0 1). Fiducial mark perpendicular to laser is parallel to b [0 1 0]
Raman shift (cm-1)	intensity
85.009	0
89.193	98.414
93.375	114.431
97.554	72.268
101.732	0.853
105.908	78.681
110.082	23.659
114.254	171.494
118.424	225.192
122.592	104.826
126.758	4.152
130.922	12.859
135.083	12.847
139.243	78.958
143.401	121.768
147.557	118.267
151.711	92.914
155.863	138.682
160.013	76.718
164.161	73.357
168.308	50.986
172.452	76.5
176.594	76.491
180.734	92.95
184.872	69.264
189.008	3.709
193.143	56.61
197.275	8.598
201.405	74.622
205.534	196.605
209.66	361.524
213.784	484.375
217.907	562.141
222.027	480.902
226.146	492.23
230.263	428.515
234.377	408.51
238.49	379.771
242.601	243.524
246.709	170.427
250.816	130.365
254.921	78.726
259.024	59.51
263.125	54.402
267.224	76.354
271.321	49.353
275.416	100.372
279.51	143.461
283.601	284.452
287.69	586.625
291.778	1174.55
295.863	2009.57
299.947	2375.91
304.029	1897.42
308.108	1518.54
312.186	1513.86
316.262	1635.81
320.336	1775.12
324.408	1501.34
328.478	1212.48
332.546	999.677
336.612	736.751
340.677	470.437
344.739	282.698
348.799	215.711
352.858	63.429
356.915	55.94
360.969	45.645
365.022	49.523
369.073	35.859
373.122	31.129
377.169	34.862
381.215	25.481
385.258	13.043
389.299	0.718
393.339	29.455
397.376	136.47
401.412	267.276
405.446	558.938
409.478	926.491
413.508	1052.94
417.536	1097.28
421.562	1295.51
425.586	1461.6
429.609	966.302
433.629	447.112
437.648	205.863
441.665	54.487
445.68	41.967
449.693	16.729
453.704	62.668
457.713	0.968
461.721	31.495
465.726	11.783
469.73	17.892
473.731	34.779
477.731	58.512
481.729	74.203
485.725	53.974
489.72	50.812
493.712	77.054
497.703	92.896
501.691	129.643
505.678	135.945
509.663	188.076
513.646	149.485
517.627	266.098
521.607	310.249
525.584	482.879
529.56	733.114
533.534	1289.47
537.506	1979.77
541.476	1934.79
545.444	1042.61
549.41	618.254
553.375	446.004
557.337	359.284
561.298	380.396
565.257	514.33
569.214	623.088
573.17	845.672
577.123	928.083
581.075	926.322
585.024	1040.39
588.972	1422.3
592.918	2027.04
596.863	2928.61
600.805	3483.77
604.746	3354.02
608.685	2471.99
612.621	1630.97
616.557	1076.62
620.49	734.781
624.421	486.489
628.351	342.814
632.279	217.856
636.205	156.02
640.129	99.565
644.051	45.887
647.972	19.168
651.89	2.293
655.807	20.734
659.722	56.595
663.636	13.236
667.547	95.314
671.457	96.27
675.365	2.673
679.271	25.375
683.175	8.653
687.077	52.45
690.978	16.259
694.877	9.822
698.774	30.357
702.669	4.873
706.562	102.38
710.454	74.868
714.344	116.326
718.232	79.757
722.118	126.166
726.002	154.557
729.885	156.935
733.766	225.307
737.645	239.676
741.522	275.047
745.397	364.429
749.271	368.827
753.143	533.243
757.013	559.701
760.881	631.208
764.748	697.871
768.613	776.695
772.476	977.706
776.337	1100.81
780.196	1289.98
784.054	1441.28
787.91	1747.69
791.764	2058.26
795.616	2646.83
799.467	3559.15
803.316	5128.28
807.163	7645.63
811.008	12848.6
814.851	24824.9
818.693	46932
822.533	54976.4
826.371	36630.1
830.208	22620.4
834.042	16110.6
837.875	14107.5
841.706	14982.3
845.536	20066.2
849.363	31061.9
853.189	38358.5
857.013	31569.9
860.836	19978.9
864.656	11953.2
868.475	7286.6
872.292	4633.19
876.108	3123.95
879.922	2315.89
883.733	1655
887.544	1199.29
891.352	925.76
895.159	709.411
898.964	586.693
902.767	524.708
906.568	511.092
910.368	513.329
914.166	548.777
917.962	531.827
921.757	496.418
925.55	479.378
929.341	510.639
933.13	630.914
936.918	886.118
940.703	1264.99
944.488	1790.92
948.27	2697.31
952.051	3906.6
955.83	4896.17
959.607	5105.1
963.383	4549.3
967.156	3649.51
970.928	2522.28
974.699	1862.85
978.468	1260.77
982.234	996.968
986	736.519
989.763	557.447
993.525	459.272
997.285	383.425
1001.04	317.667
1004.8	219.039
1008.55	227.574
1012.31	219.278
1016.06	151.136
1019.81	141.163
1023.56	468.326
1027.31	457.612
1031.05	94.019
1034.79	148.54
1038.53	98.151
1042.27	85.847
1046.01	11.621
1049.75	35.457
1053.48	78.367
1057.22	2.652
1060.95	10.365
1064.68	34.623
1068.4	61.721
1072.13	24.887
1075.86	19.937
1079.58	5.79
1083.3	34.216
1087.02	6.547
1090.74	78.781
1094.45	40.815
1098.17	39.629
1101.88	30.224
1105.59	50.96
1109.3	65.183
1113.01	32.292
1116.71	10.728
1120.42	25.799
1124.12	126.036
1127.82	119.838
1131.52	54.191
1135.22	60.632
1138.91	96.675
1142.61	23.202
1146.3	98.827
1149.99	71.007
1153.68	116.737
1157.37	101.811
1161.06	149.617
1164.74	90.432
1168.42	124.672
1172.1	100.164
1175.78	105.626
1179.46	159.814
1183.14	154.827
1186.81	98.142
1190.48	239.446
1194.15	170.431
1197.83	227.996
1201.49	223.948
1205.16	264.114
1208.82	235.893
1212.49	281.079
1216.15	254.601
1219.81	249.182
1223.46	201.661
1227.12	195.724
1230.78	271.136
1234.43	236.843
1238.08	187.336
1241.73	214.814
1245.38	117.728
1249.03	152.8
1252.67	164.869
1256.31	93.421
1259.95	27.302
1263.6	81.512
1267.23	43.382
1270.87	69.429
1274.51	76.25
1278.14	77.887
1281.77	63.248
1285.4	107.333
1289.03	44.505
1292.66	53.569
1296.28	23.521
1299.91	12.365
1303.53	11.93
1307.15	10.626
1310.77	31.954
1314.38	77.295
1318	31.567
1321.61	47.42
1325.23	25.285
1328.84	103.034
1332.45	29.695
1336.06	56.276
1339.66	82.786
1343.27	46.399
1346.87	79.599
1350.47	90.904
1354.07	113.169
1357.67	89.452
1361.26	66.533
1364.86	107.303
1368.45	154.703
1372.04	71.032
1375.63	114.183
1379.22	121.317
1382.81	157.978
1386.39	114.766
1389.98	60.745
1393.56	149.335
1397.14	72.025
1400.72	135.727
1404.3	114.812
1407.87	131.655
1411.45	112.18
1415.02	434.981
1418.59	142.473
1422.16	106.757
1425.73	105.986
1429.29	138.089
1432.86	198.492
1436.42	151.42
1439.98	162.844
1443.54	151.021
1447.1	177.15
1450.66	157.068
1454.21	201.807
1457.77	169.164
1461.32	140.09
1464.87	67.702
1468.42	135.556
1471.96	191.359
1475.51	119.86
1479.06	7.439
1482.6	180.274
1486.14	63.213
1489.68	75.371
1493.22	92.014
1496.75	67.401
1500.29	70.462
1503.82	71.346
1507.35	38.462
1510.88	124.303
1514.41	40.754
1517.94	50.353
