Measurement: Raman, 514 nm, depolarized, Raman Data Processed
Mineral: Forsterite
Rruff sample: R060551
Ideal chemistry: Mg_2_SiO_4_
Locality: Kohiston, Pakistan
Source: Gemological Institute of America
Description: Pale green fragment
Measured chemistry: (Mg_1.82_Fe_0.18_)_Î£=2_Si_1.00_O_4_; trace amounts of Mn
Pin_id: M00884
Orientation: Laser parallel to a* (1 0 0). Fiducial mark perpendicular to laser is parallel to c [0 0 1]
Raman shift (cm-1)	intensity
96.53	0
101.5	57.0214
106.467	93.7015
111.431	44.8502
116.392	181.684
121.35	110.79
126.304	6.91406
131.256	8.46655
136.205	92.4602
141.15	121.365
146.092	142.812
151.032	187.512
155.968	181.389
160.901	184.327
165.831	149.167
170.758	203.791
175.682	227.023
180.603	248.867
185.521	333.987
190.436	285.318
195.348	256.976
200.256	330.978
205.162	412.606
210.065	751.202
214.964	1487.16
219.861	2762.34
224.754	3421.72
229.645	2465.31
234.532	1660.08
239.417	1005.03
244.299	538.024
249.177	235.386
254.053	128.581
258.925	1.12866
263.795	45.9414
268.661	16.3159
273.525	84.1089
278.385	169.3
283.243	203.927
288.097	374.875
292.949	716.111
297.797	1761.61
302.643	3136.7
307.486	2371.36
312.326	1565.58
317.162	1738.51
321.996	2862.25
326.827	4430.37
331.655	4096.64
336.48	3953.42
341.302	3200.3
346.121	1520.26
350.937	697.29
355.75	316.413
360.561	391.555
365.368	622.738
370.172	1108.99
374.974	812.384
379.773	251.958
384.568	122.796
389.361	45.0564
394.151	80.3972
398.938	31.666
403.722	220.326
408.503	555.603
413.282	455.098
418.057	644.612
422.829	454.283
427.599	329.754
432.366	251.533
437.13	203.026
441.891	105.397
446.649	21.6274
451.404	49.3376
456.157	38.7908
460.906	32.2864
465.653	25.073
470.397	146.619
475.138	114.956
479.876	86.0759
484.611	85.97
489.344	84.6291
494.073	114.045
498.8	78.1064
503.524	134.115
508.245	213.217
512.963	302.3
517.679	337.916
522.392	576.234
527.101	860.346
531.808	1392.4
536.513	3059.54
541.214	6301.01
545.913	6353.14
550.609	2713.78
555.302	1261.73
559.992	729.856
564.679	462.53
569.364	591.394
574.046	677.505
578.725	937.131
583.401	1438.29
588.075	2612.59
592.746	2844.05
597.414	1678.2
602.079	1249.3
606.741	1302.7
611.401	1199.08
616.058	886.043
620.712	463.549
625.364	324.687
630.012	267.429
634.658	178.785
639.302	99.7112
643.942	151.258
648.58	40.4119
653.215	16.0806
657.847	42.0923
662.477	0.418945
667.104	44.2324
671.728	51.0144
676.349	66.6558
680.968	68.2393
685.584	4.75561
690.197	34.0173
694.808	64.8352
699.416	13.1619
704.021	55.8403
708.624	26.2134
713.223	90.126
717.821	3.96362
722.415	100.745
727.007	192.5
731.596	200.293
736.182	211.284
740.766	328.44
745.347	352.817
749.925	441.509
754.501	580.4
759.074	654.437
763.645	851.713
768.212	1035.23
772.778	1248.94
777.34	1377.75
781.9	1562.04
786.457	1987.96
791.012	2423.26
795.563	3282.03
800.113	5423.54
804.659	6860.54
809.203	11702.1
813.745	22833.8
818.283	52245.3
822.82	98951.9
827.353	80796.7
831.884	40841.5
836.412	25688
840.938	24747.1
845.461	34424.3
849.981	64215.6
854.499	108967
859.015	94434
863.527	45356.2
868.037	21390
872.545	11759.5
877.05	7502.39
881.552	5153.02
886.052	3718.25
890.549	2685.64
895.044	2313.35
899.536	2074.73
904.025	2015.33
908.512	2870.32
912.996	5481.35
917.478	12317.6
921.957	10294.9
926.434	3959.56
930.908	2714.36
935.38	2621.64
939.849	3142.57
944.315	4657.15
948.779	6649.03
953.24	10363.8
957.699	15421
962.156	17316.8
966.609	13583.3
971.061	7823.74
975.51	3850.24
979.956	1939.27
984.399	1001.76
988.841	581.709
993.279	337.041
997.716	303.774
1002.15	82.0454
1006.58	64.2027
1011.01	36.6929
1015.43	77.8823
1019.86	45.833
1024.28	17.2256
1028.7	6.00586
1033.12	47.3745
1037.53	54.0449
1041.94	11.0015
1046.35	0.840332
1050.76	54.4941
1055.16	16.0649
1059.56	27.5835
1063.96	49.7705
1068.36	19.371
1072.75	45.1182
1077.14	10.7443
1081.53	3.11035
1085.92	18.1377
1090.3	7.69409
1094.68	63.3369
1099.06	2.29468
1103.44	144.944
1107.81	179.865
1112.18	140.017
1116.55	96.4448
1120.92	113.785
1125.29	201.024
1129.65	79.3586
1134.01	238.39
1138.37	212.206
1142.72	231.471
1147.07	300.956
1151.42	327.233
1155.77	395.9
1160.12	368.613
1164.46	391.14
1168.8	358.181
1173.14	391.981
1177.47	324.731
1181.81	296.036
1186.14	237.946
1190.46	281.746
1194.79	215.431
1199.12	201.067
1203.44	307.682
1207.76	312.052
1212.07	326.65
1216.39	275.626
1220.7	359.68
1225.01	299.509
1229.31	294.324
1233.62	352.01
1237.92	270.012
1242.22	252.862
1246.52	234.594
1250.81	275.111
1255.11	107.511
1259.4	61.6094
1263.68	200.71
1267.97	136.67
1272.26	57.5596
1276.54	3.52246
1280.82	90.416
1285.09	37.7615
1289.37	41.7527
1293.64	12.9414
1297.91	56.0093
1302.17	53.7551
1306.44	28.5925
1310.7	19.8721
1314.96	39.2837
1319.22	59.6514
1323.47	54.032
1327.73	1.56665
1331.98	53.998
1336.23	39.575
1340.47	122.174
1344.72	35.5024
1348.96	87.3745
1353.2	94.9275
1357.44	157.482
1361.67	95.0769
1365.9	131.603
1370.14	48.0625
1374.36	185.457
1378.59	129.803
1382.81	172.224
1387.03	126.269
1391.25	193.992
1395.47	166.746
1399.68	148.022
1403.9	72.6318
1408.11	218.865
1412.31	144.566
1416.52	179.219
1420.72	144.434
1424.92	183.911
1429.12	165.14
1433.32	136.755
1437.51	237.978
1441.7	253.144
1445.89	264.573
1450.08	266.569
1454.27	233.489
1458.45	300.419
1462.63	229.55
1466.81	186.123
1470.99	183.011
1475.16	190.817
1479.33	259.502
1483.5	191.147
1487.67	199.715
1491.83	86.1699
1496	111.543
1500.16	74.312
1504.32	80.6782
1508.47	103.195
1512.63	66.8657
1516.78	85.6665
1520.93	18.7354
1525.08	112.984
1529.22	167.426
1533.37	45.1328
1537.51	95.2139
1541.64	155.775
1545.78	81.3682
1549.92	64.8027
1554.05	122.444
1558.18	137.639
1562.31	22.4536
1566.43	20.7998
1570.56	88.1352
1574.68	1.28613
1578.8	0
