Measurement: Raman, 514 nm, depolarized, Raman Data Processed
Mineral: Forsterite
Rruff sample: R040018
Ideal chemistry: Mg_2_SiO_4_
Locality: Trudy's mine, San Carlos, Gila County, Arizona, USA
Source: Bob Downs
Description: Green fragments from xenoliths in a basalt flow
Measured chemistry: (Mg_1.81_Fe_0.18_Ni_0.01_)_Î£=2_Si_1.00_O_4_; trace amounts of Mn and Ca
Pin_id: M00006
Orientation: Laser parallel to c* (0 0 1). Fiducial mark perpendicular to laser is parallel to a [1 0 0]
Raman shift (cm-1)	intensity
127.452	0
131.615	22.813
135.777	135.855
139.937	172.678
144.094	166.146
148.25	104.231
152.403	59.295
156.555	25.353
160.705	45.366
164.853	95.728
168.998	217.218
173.142	40.318
177.284	111.75
181.424	125.292
185.562	136.235
189.698	29.697
193.831	59.227
197.963	34.01
202.093	56.243
206.221	21.419
210.347	0.574
214.472	196.398
218.594	328.846
222.714	520.192
226.832	590.491
230.948	514.945
235.063	308.537
239.175	340.149
243.286	246.668
247.394	115.032
251.501	133.105
255.605	148.76
259.708	147.232
263.808	220.585
267.907	219.408
272.004	129.047
276.099	153.252
280.192	99.388
284.283	158.458
288.372	130.877
292.459	259.963
296.544	612.144
300.627	1275.12
304.709	1731.97
308.788	1073.45
312.865	618.835
316.941	732.456
321.015	738.943
325.086	919.145
329.156	1021.85
333.224	834.971
337.29	769.033
341.354	465.69
345.416	295.862
349.476	199.608
353.534	173.213
357.591	73.383
361.645	22.331
365.698	51.356
369.748	1.68
373.797	55.546
377.844	41.413
381.889	48.601
385.932	12.396
389.973	136.507
394.012	190.336
398.049	152.198
402.084	143.077
406.118	19.98
410.15	194.861
414.179	232.616
418.207	434.088
422.233	396.334
426.257	448.451
430.279	650.445
434.299	452.304
438.318	119.036
442.334	59.638
446.349	36.093
450.361	88.354
454.372	69.62
458.381	30.086
462.388	39.414
466.394	120.773
470.397	170.803
474.398	110.679
478.398	110.395
482.396	149.947
486.391	39.29
490.385	51.586
494.377	27.225
498.368	75.809
502.356	154.146
506.342	42.328
510.327	60.305
514.31	148.224
518.291	167.227
522.27	201.084
526.247	88.674
530.222	356.707
534.196	331.278
538.167	789.832
542.137	1287.59
546.105	1253.67
550.071	631.737
554.035	455.614
557.998	412.514
561.958	296.732
565.917	315.442
569.874	210.157
573.829	504.912
577.782	619.574
581.733	663.885
585.683	717.028
589.63	761.854
593.576	985.515
597.52	1448.95
601.462	1921.91
605.402	2771.82
609.341	2601.97
613.277	1867.52
617.212	1247.7
621.145	952.305
625.076	1153.95
629.006	1095.93
632.933	717.233
636.859	548.417
640.783	339.688
644.705	567.285
648.625	752.221
652.543	661.46
656.46	448.562
660.375	115.861
664.288	115.481
668.199	121.307
672.108	85.134
676.016	65.188
679.921	85.626
683.825	56.757
687.727	2.058
691.628	9.517
695.526	71.402
699.423	33.657
703.318	23.84
707.211	1.197
711.102	138.34
714.992	105.078
718.879	118.515
722.765	67.485
726.649	173.25
730.532	299.018
734.412	154.723
738.291	100.376
742.168	185.996
746.043	321.597
749.916	277.164
753.788	282.707
757.658	198.27
761.526	283.87
765.392	519.534
769.257	595.305
773.119	651.154
776.98	507.07
780.839	593.054
784.697	889.059
788.552	875.09
792.406	1171.15
796.258	1347.26
800.108	1743.44
803.957	2139.79
807.804	3076.29
811.649	5092.88
815.492	8629.51
819.333	17846.2
823.173	33773.1
827.011	30789.7
830.847	17339.5
834.681	10528.6
838.514	7657.27
842.345	7064.2
846.174	7973.34
850.001	12479.2
853.827	21718.3
857.651	25514.4
861.473	17000.6
865.293	9802.09
869.112	5909.8
872.928	3872.36
876.744	2595.62
880.557	1835.16
884.369	1404.95
888.178	1064.8
891.987	985.029
895.793	897.288
899.598	918.052
903.401	729.017
907.202	480.203
911.001	435.919
914.799	487.508
918.595	442.104
922.389	377.872
926.182	390.059
929.972	272.444
933.761	475.029
937.549	597.814
941.334	580.801
945.118	643.989
948.9	1147.38
952.681	1551.14
956.459	2303.99
960.236	3637.97
964.012	4202.15
967.785	3486.52
971.557	2361.08
975.327	1237.2
979.095	682.145
982.862	230.469
986.627	537.375
990.39	371.77
994.152	275.104
997.912	141.508
1001.67	517.412
1005.43	578.717
1009.18	178.896
1012.93	218.174
1016.68	257.814
1020.43	225.863
1024.18	401.406
1027.93	300.883
1031.67	189.547
1035.42	198.336
1039.16	147.254
1042.9	242.73
1046.63	110.248
1050.37	130.699
1054.11	51.607
1057.84	108.746
1061.57	150.898
1065.3	350.641
1069.03	250.357
1072.75	270.105
1076.47	29.938
1080.2	209.867
1083.92	409.912
1087.64	590.031
1091.36	300.219
1095.07	290.465
1098.79	190.756
1102.5	158.91
1106.21	41.223
1109.92	21.385
1113.62	211.572
1117.33	301.779
1121.04	232.012
1124.74	232.24
1128.44	47.527
1132.14	17.383
1135.83	97.312
1139.53	352.387
1143.22	492.359
1146.92	241.863
1150.61	281.143
1154.3	29.73
1157.98	10.725
1161.67	11.188
1165.35	157.531
1169.04	146.221
1172.72	414.854
1176.4	413.383
1180.07	341.875
1183.75	130.322
1187.42	71.273
1191.1	99.418
1194.77	17.398
1198.44	135.381
1202.1	626.912
1205.77	381.627
1209.43	310.988
1213.1	189.031
1216.76	250.828
1220.42	308.547
1224.07	476.387
1227.73	478.465
1231.38	636.398
1235.04	703.922
1238.69	580.816
1242.34	537.434
1245.99	243.912
1249.63	420.867
1253.28	416.533
1256.92	651.969
1260.56	757.381
1264.2	872.504
1267.84	749.262
1271.48	653.34
1275.11	458.707
1278.74	349.48
1282.38	360.281
1286.01	350.949
1289.63	334.98
1293.26	643.152
1296.89	761.221
1300.51	429.018
1304.13	287.359
1307.75	202.488
1311.37	316.752
1314.99	222.791
1318.6	458.83
1322.22	654.574
1325.83	569.98
1329.44	545.18
1333.05	430.344
1336.66	245.67
1340.26	19.1
1343.87	33.969
1347.47	11.318
1351.07	2.104
1354.67	374.051
1358.27	261.582
1361.86	567.979
1365.46	477.043
1369.05	366.469
1372.64	396.43
1376.23	141.875
1379.82	115.438
1383.41	327.574
1386.99	278.309
1390.57	434.611
1394.16	717.084
1397.74	665.482
1401.32	647.832
1404.89	492.275
1408.47	554.922
1412.04	234.77
