Measurement: Raman, 514 nm, ccw, Raman Data Processed
Mineral: Forsterite
Rruff sample: R060551
Ideal chemistry: Mg_2_SiO_4_
Locality: Kohiston, Pakistan
Source: Gemological Institute of America
Description: Pale green fragment
Measured chemistry: (Mg_1.82_Fe_0.18_)_Î£=2_Si_1.00_O_4_; trace amounts of Mn
Pin_id: M00797
Orientation: Laser parallel to -c* (0 0 -1). Fiducial mark perpendicular to laser is parallel to a [1 0 0]
Raman shift (cm-1)	intensity
100.258	0
105.226	81.687
110.19	88.2163
115.152	211.443
120.111	155.002
125.066	207.294
130.018	108.208
134.968	233.288
139.914	391.208
144.857	288.22
149.797	427.017
154.734	489.932
159.668	344.707
164.599	383.177
169.527	492.252
174.451	420.284
179.373	436.559
184.292	500.425
189.207	370.523
194.12	174.297
199.029	238.669
203.936	347.677
208.839	500.164
213.74	903.769
218.637	1301.25
223.531	1531.17
228.423	1351.56
233.311	987.49
238.196	743.307
243.078	507.526
247.958	273.582
252.834	57.5337
257.707	42.0454
262.577	34.2373
267.445	47.3603
272.309	18.9556
277.17	90.0147
282.029	132.693
286.884	283.896
291.736	782.537
296.586	2100.55
301.432	3857.9
306.275	3918.53
311.116	2746.41
315.953	2732.5
320.788	2782.33
325.62	2744.12
330.448	2384.6
335.274	1685.41
340.097	1242.05
344.917	611.621
349.733	196.882
354.547	119.702
359.358	53.4971
364.166	43.2158
368.972	5.07324
373.774	25.9932
378.573	30.2803
383.37	85.9902
388.163	59.4033
392.954	82.9766
397.742	20.4619
402.526	208.502
407.308	438.293
412.087	884.558
416.863	1632.1
421.637	2426.2
426.407	3969.55
431.174	5370.07
435.939	3655.05
440.701	1224.02
445.46	575.784
450.216	92.3184
454.969	153.613
459.719	43.6567
464.466	29.7358
469.211	109.1
473.953	55.5654
478.692	243.699
483.428	148.517
488.161	81.9888
492.891	91.1006
497.619	63.7524
502.343	82.9443
507.065	2.28076
511.784	5.73096
516.5	2.00537
521.214	114.216
525.924	96.9287
530.632	417.693
535.337	1005.42
540.039	2133.29
544.738	2670.67
549.435	1477.27
554.129	725.18
558.82	438.22
563.508	665.625
568.193	825.811
572.876	1554.01
577.555	2385.62
582.232	2685.75
586.907	2539.4
591.578	2347.58
596.247	3075.29
600.913	4878.52
605.576	6374.1
610.236	5886.75
614.894	3528.61
619.549	2036.94
624.201	1288.06
628.851	1076.89
633.497	611.053
638.141	507.5
642.782	481.308
647.421	248.815
652.057	389.231
656.69	140.319
661.32	101.906
665.947	40.3789
670.572	40.9268
675.194	102.816
679.814	29.8271
684.43	50.7188
689.044	26.2461
693.656	132.186
698.264	17.373
702.87	120.656
707.473	58.2998
712.074	191.417
716.672	106.418
721.267	140.342
725.859	125.207
730.449	194.032
735.036	206.829
739.62	310.618
744.202	175.575
748.781	292.889
753.358	359.315
757.931	363.873
762.502	507.511
767.071	618.307
771.637	850.267
776.2	1028.48
780.76	1261.09
785.318	1570.1
789.873	1786.61
794.426	2484.47
798.976	3713.84
803.523	5734.3
808.068	9836.26
812.61	18560.8
817.149	41166.4
821.686	77019.4
826.22	78534
830.751	43011.4
835.28	25838.8
839.807	21047
844.33	22957.2
848.852	36414.7
853.37	60499.7
857.886	63358
862.399	38843.8
866.91	21704
871.418	11821.6
875.924	6841.64
880.427	4668.22
884.927	3338.54
889.425	1957.34
893.92	1325.75
898.413	1114.81
902.903	763.867
907.391	639.872
911.875	798.903
916.358	1049.25
920.838	1048.06
925.315	655.503
929.79	552.318
934.262	527.994
938.732	852.852
943.199	1263.01
947.663	2354.31
952.125	4010.29
956.585	6964.69
961.042	9833.45
965.496	9307.62
969.948	6427.26
974.398	3758.42
978.844	1911.05
983.289	1110.96
987.731	656.939
992.17	482.342
996.607	274.796
1001.04	419.415
1005.47	260.21
1009.9	30.1699
1014.33	116.761
1018.75	87.2373
1023.17	38.6992
1027.59	67.3799
1032.01	14.4473
1036.43	22.6709
1040.84	43.2002
1045.25	176.122
1049.65	4.41894
1054.06	158.668
1058.46	164.415
1062.86	13.668
1067.26	1.63769
1071.65	166.581
1076.04	138.561
1080.43	143.424
1084.82	181.261
1089.2	212.073
1093.59	67.8545
1097.97	176.599
1102.34	169.295
1106.72	199.938
1111.09	165.516
1115.46	173.023
1119.83	346.456
1124.19	195.81
1128.56	457.169
1132.92	465.679
1137.28	281.179
1141.63	318.2
1145.98	234.954
1150.34	287.648
1154.68	292.462
1159.03	336.268
1163.37	318.19
1167.71	188.018
1172.05	233.631
1176.39	83.9453
1180.72	231.532
1185.05	184.315
1189.38	93.5156
1193.71	205.253
1198.03	134.689
1202.36	102.815
1206.67	89.79
1210.99	81.2588
1215.31	296.585
1219.62	352.938
1223.93	144.32
1228.24	126.733
1232.54	329.178
1236.85	101.66
1241.15	242.184
1245.44	83.75
1249.74	150.366
1254.03	1.88867
1258.33	32.9248
1262.61	20.7871
1266.9	16.6348
1271.18	27.4766
1275.47	120.905
1279.74	46.581
1284.02	83.46
1288.3	53.6133
1292.57	52.6728
1296.84	80.6807
1301.11	82.7432
1305.37	127.891
1309.64	73.958
1313.9	63.2783
1318.16	182.948
1322.41	144.114
1326.67	153.516
1330.92	130.584
1335.17	190.148
1339.41	202.202
1343.66	239.36
1347.9	212.628
1352.14	229.008
1356.38	252.499
1360.61	71.1035
1364.85	239.822
1369.08	212.567
1373.31	58.7559
1377.53	39.6182
1381.76	107.982
1385.98	83.0693
1390.2	208.959
1394.42	173.898
1398.63	111.237
1402.84	19.126
1407.05	42.4043
1411.26	147.41
1415.47	133.249
1419.67	132.591
1423.87	21.3271
1428.07	143.174
1432.27	11.9297
1436.46	273.714
1440.66	210.156
1444.85	298.046
1449.04	213.823
1453.22	351.398
1457.4	414.907
1461.59	337.56
1465.77	56.3496
1469.94	260.276
1474.12	137.34
1478.29	185.961
1482.46	159.658
1486.63	294.89
1490.79	58.3799
1494.96	253.537
1499.12	256
1503.28	97.1484
1507.43	216.487
1511.59	154.235
1515.74	254.097
1519.89	310.31
1524.04	282.682
1528.18	263.184
1532.33	196.815
1536.47	487.707
1540.61	205.484
1544.75	277.955
1548.88	241.963
1553.02	410.781
1557.15	154.887
1561.27	145.883
1565.4	144.076
1569.53	210.44
1573.65	81.5352
1577.77	15.0977
