Measurement: Raman, 514 nm, ccw, Raman Data Processed
Mineral: Forsterite
Rruff sample: R060551
Ideal chemistry: Mg_2_SiO_4_
Locality: Kohiston, Pakistan
Source: Gemological Institute of America
Description: Pale green fragment
Measured chemistry: (Mg_1.82_Fe_0.18_)_Î£=2_Si_1.00_O_4_; trace amounts of Mn
Pin_id: M01244
Orientation: Laser parallel to b* (0 1 0). Fiducial mark perpendicular to laser is parallel to c [0 0 1]
Raman shift (cm-1)	intensity
112.672	0
117.632	82.7178
122.589	94.4834
127.543	94.0801
132.494	143.319
137.441	60.3301
142.386	168.572
147.328	394.15
152.266	230.559
157.202	298.584
162.134	332.641
167.063	211.167
171.99	236.023
176.913	341.274
181.833	134.968
186.75	134.914
191.664	19.3271
196.575	98.9551
201.483	63.9043
206.388	129.291
211.29	245.121
216.189	758.406
221.085	1303.35
225.977	1329.85
230.867	1011.34
235.754	929.523
240.638	852.981
245.518	441.027
250.396	278.538
255.271	216.106
260.143	91.2812
265.011	234.357
269.877	7.41602
274.74	155.049
279.6	286.949
284.457	223.579
289.31	562.926
294.161	1319.66
299.009	2869.72
303.854	4350.01
308.696	2882.55
313.535	1634.46
318.371	1456.35
323.204	1897.08
328.034	1743.32
332.861	1356.38
337.686	1280.53
342.507	1088.44
347.325	936.173
352.141	722.477
356.953	734.92
361.763	550.412
366.569	504.084
371.373	422.751
376.174	403.851
380.972	352.986
385.767	327.766
390.559	243.237
395.348	167.713
400.134	302.421
404.918	305.197
409.698	479.897
414.476	1039.53
419.25	1266.07
424.022	1014.55
428.791	1119.03
433.557	1595.26
438.32	2234.32
443.081	1227.3
447.838	653.239
452.593	316.971
457.344	183.457
462.093	3.63672
466.839	71.4365
471.582	260.769
476.323	184.66
481.06	24.1182
485.795	76.0674
490.526	18.2754
495.255	34.457
499.981	15.6627
504.705	52.8438
509.425	42.7246
514.143	15.0967
518.857	119.564
523.569	103.139
528.278	255.602
532.985	402.25
537.688	511.928
542.389	1267.85
547.087	1051.26
551.782	543.394
556.474	312.238
561.164	369.99
565.851	525.682
570.535	774.697
575.216	1242.91
579.894	2257.75
584.57	3468.25
589.243	3211.66
593.913	2494.72
598.58	3151.09
603.245	4173.49
607.907	5034.56
612.566	3794.13
617.222	2317.22
621.875	1411.48
626.526	865.128
631.174	672.625
635.82	482.991
640.462	333.914
645.102	556.766
649.739	375.017
654.373	260.437
659.005	309.156
663.634	186.803
668.26	109.945
672.884	64.4668
677.504	50.7988
682.122	30.0742
686.738	74.2539
691.35	94.1856
695.96	70.4905
700.567	11.916
705.172	65.5254
709.774	89.4219
714.373	140.652
718.969	37.0859
723.563	194.889
728.154	91.75
732.743	110.273
737.328	14.6797
741.912	74.0762
746.492	208.459
751.07	59.9746
755.645	98.6289
760.217	213.475
764.787	275.705
769.354	460.426
773.918	476.758
778.48	454.629
783.039	577.254
787.596	665.479
792.15	1161.23
796.701	1416.45
801.25	2060.3
805.796	3520.56
810.339	6165.9
814.88	12451.2
819.418	27843.3
823.953	46392.8
828.486	33422.9
833.016	18925.6
837.544	14328.1
842.069	16715
846.591	27434.2
851.111	54632.4
855.628	86143.9
860.143	65950
864.655	31885.7
869.164	17032.7
873.671	11770.1
878.176	12353.6
882.677	14631.8
887.176	8542.82
891.673	4126.24
896.167	2402.41
900.658	2052.16
905.147	1483.47
909.633	1493.58
914.117	1481.7
918.598	2383.12
923.077	1850.18
927.553	1419.3
932.026	1399.8
936.497	1582.69
940.966	2173.82
945.431	3112.46
949.895	4585.85
954.355	7225.85
958.814	10903.5
963.269	12142.5
967.723	8952.38
972.173	5307.49
976.621	2863.28
981.067	1732.52
985.51	1037.73
989.951	814.019
994.389	495.785
998.824	510.281
1003.26	486.856
1007.69	355.734
1012.12	130.871
1016.54	376.289
1020.96	306.904
1025.38	458.701
1029.8	165.65
1034.22	135.727
1038.63	305.924
1043.04	176.191
1047.45	5.44531
1051.86	34.6699
1056.26	51.9785
1060.66	10.541
1065.06	116.025
1069.45	102.133
1073.85	44.5879
1078.24	65.1012
1082.63	93.5977
1087.01	4.10156
1091.4	254.053
1095.78	145.971
1100.16	79.2188
1104.53	152.236
1108.91	73.4707
1113.28	180.262
1117.65	140.9
1122.01	111.424
1126.38	331.838
1130.74	315.129
1135.1	353.281
1139.45	269.219
1143.81	624.199
1148.16	556.949
1152.51	639.553
1156.86	702.023
1161.2	670.356
1165.54	607.525
1169.88	791.535
1174.22	601.144
1178.56	437.106
1182.89	739.207
1187.22	713.959
1191.55	799.836
1195.87	742.094
1200.19	717.768
1204.52	518.137
1208.83	899.82
1213.15	931.521
1217.46	935.41
1221.78	866.211
1226.08	764.016
1230.39	862.854
1234.69	763.334
1239	767.143
1243.3	728.316
1247.59	527.893
1251.89	659.172
1256.18	731.242
1260.47	480.041
1264.76	460.068
1269.04	666.148
1273.33	549.156
1277.61	393.154
1281.88	482.385
1286.16	28.5371
1290.43	147.57
1294.7	133.523
1298.97	278.717
1303.24	242.875
1307.51	191.18
1311.77	197.662
1316.03	216.609
1320.28	278.586
1324.54	319.74
1328.79	87.2461
1333.04	43.9707
1337.29	131.688
1341.54	112.531
1345.78	247.639
1350.02	229.09
1354.26	119.66
1358.5	368.385
1362.73	179.307
1366.96	125.42
1371.19	129.791
1375.42	196.236
1379.65	267.805
1383.87	163.496
1388.09	79.3164
1392.31	85.2598
1396.52	288.328
1400.74	226.562
1404.95	285.008
1409.16	217.674
1413.37	27.7172
1417.57	227.711
1421.77	289.231
1425.97	78.0703
1430.17	310.34
1434.37	553.104
1438.56	385.834
1442.75	403.91
1446.94	534.902
1451.13	581.076
1455.31	524.67
1459.5	324.102
1463.68	665.07
1467.85	366.242
1472.03	538.531
1476.2	391.127
1480.37	467.957
1484.54	414.027
1488.71	265.889
1492.88	445.391
1497.04	346.588
1501.2	285.383
1505.36	409.346
1509.51	372.379
1513.66	658.316
1517.82	162.016
1521.97	252.992
1526.11	426.193
1530.26	340.393
1534.4	467.338
1538.54	87.3281
1542.68	200.971
1546.82	111.844
1550.95	212.883
1555.08	217.566
1559.21	16.9355
1563.34	86.4922
1567.46	69.8066
1571.59	311.441
1575.71	351.426
