Measurement: Raman, 514 nm, depolarized, Raman Data Processed
Mineral: Forsterite
Rruff sample: R040018
Ideal chemistry: Mg_2_SiO_4_
Locality: Trudy's mine, San Carlos, Gila County, Arizona, USA
Source: Bob Downs
Description: Green fragments from xenoliths in a basalt flow
Measured chemistry: (Mg_1.81_Fe_0.18_Ni_0.01_)_Î£=2_Si_1.00_O_4_; trace amounts of Mn and Ca
Pin_id: M00002
Orientation: Laser parallel to -b* (0 -1 0). Fiducial mark perpendicular to laser is parallel to c [0 0 1]
Raman shift (cm-1)	intensity
49.365	0
53.566	90.071
57.765	231.666
61.962	443.189
66.157	508.525
70.349	444.727
74.54	292.976
78.729	168.5
82.916	44.398
87.101	22.15
91.284	24.391
95.465	16.861
99.644	110.58
103.82	203.901
107.995	271.541
112.168	1140.46
116.339	525.665
120.508	466.146
124.675	338.615
128.84	286.91
133.003	293.183
137.164	290.106
141.323	281.641
145.48	301.468
149.635	319.283
153.788	305.604
157.939	248.528
162.088	263.41
166.235	237.418
170.38	225.557
174.523	220.867
178.664	219.42
182.803	208.147
186.94	239.013
191.076	193.03
195.209	183.208
199.34	204.528
203.47	213.963
207.597	241.481
211.722	304.083
215.846	486.136
219.967	752.512
224.087	978.688
228.204	816.354
232.32	623.782
236.434	480.946
240.545	360.298
244.655	240.775
248.763	197.862
252.869	183.877
256.973	86.977
261.075	65.694
265.175	118.285
269.273	136.505
273.369	86.223
277.463	58.021
281.556	90.979
285.646	86
289.734	149.113
293.821	235.799
297.905	454.518
301.988	839.247
306.069	805.247
310.147	493.755
314.224	490.404
318.299	489.627
322.372	587.301
326.443	938.027
330.512	994.977
334.579	842.212
338.645	851.115
342.708	679.083
346.769	344.975
350.829	181.89
354.887	120.798
358.942	103.737
362.996	138.799
367.048	213.926
371.098	257.108
375.146	257.337
379.192	150.603
383.236	39.837
387.279	18.034
391.319	3.184
395.358	28.27
399.394	25.658
403.429	22.397
407.462	128.459
411.493	129.555
415.522	139.741
419.549	154.049
423.575	196.454
427.598	331.843
431.619	425.285
435.639	238.718
439.657	140.139
443.673	97.547
447.687	34.937
451.699	10.693
455.709	20.361
459.717	17.915
463.724	28.87
467.728	0.767
471.731	1.7
475.732	38.33
479.731	0.847
483.728	14.568
487.723	3.866
491.716	26.224
495.708	44.104
499.697	18.856
503.685	27.457
507.671	57.167
511.655	75.715
515.637	120.222
519.617	97.202
523.596	125.836
527.572	152.925
531.547	299.408
535.52	494.866
539.491	1010.92
543.46	1775.55
547.427	1248.66
551.393	510.356
555.356	261.035
559.318	146.531
563.278	151.698
567.236	176.246
571.192	166.722
575.147	225.126
579.099	289.456
583.05	516.711
586.999	705.891
590.946	908.995
594.891	602.022
598.834	432.975
602.776	430.768
606.715	445.494
610.653	407.598
614.589	306.137
618.523	227.098
622.456	161.503
626.386	127.609
630.315	74.705
634.242	59.896
638.167	60.038
642.09	74.056
646.012	26.585
649.931	36.553
653.849	24.337
657.765	19.997
661.679	61.372
665.592	0.784
669.502	12.721
673.411	23.722
677.318	14.66
681.223	15.183
685.126	5.109
689.028	14.533
692.927	5.073
696.825	25.274
700.721	21.524
704.616	7.683
708.508	9.808
712.399	31.086
716.288	69.965
720.175	124.003
724.06	70.03
727.944	47.043
731.825	52.046
735.705	133.043
739.584	160.032
743.46	174.016
747.334	110.999
751.207	130.985
755.078	195.974
758.947	257.97
762.815	312.98
766.68	280.017
770.544	309.081
774.406	391.187
778.267	470.389
782.125	630.66
785.982	629.979
789.837	607.36
793.69	801.767
797.542	1059.98
801.391	1401.75
805.239	1851.91
809.085	2726.28
812.93	4348.26
816.772	8107.12
820.613	17422.3
824.452	27811.8
828.29	20437.7
832.125	11089.9
835.959	7427.17
839.791	6753.84
843.621	7170.34
847.45	9918.08
851.277	17086.3
855.102	28225.2
858.925	28385
862.746	16545.1
866.566	8844.24
870.384	5229.47
874.2	3225.17
878.015	2281.36
881.828	1979.7
885.639	1647.45
889.448	1225.93
893.256	933.516
897.061	728.26
900.865	632.279
904.668	702.188
908.468	791.201
912.267	1130.35
916.064	1949.23
919.86	3602.22
923.653	2404.34
927.445	1192.25
931.236	797.65
935.024	770.332
938.811	848.565
942.596	905.424
946.379	1214.25
950.161	1714.6
953.94	2450.9
957.719	3468.28
961.495	4040.95
965.27	3550.91
969.043	2516.18
972.814	1599.12
976.583	1047.14
980.351	625.285
984.117	395.61
987.882	247.088
991.644	44.701
995.405	67.093
999.165	91.711
1002.92	142.29
1006.68	76.391
1010.43	35.586
1014.18	3.147
1017.93	31.76
1021.68	11.326
1025.43	98.192
1029.18	90.772
1032.92	59.435
1036.66	21.205
1040.4	35.018
1044.14	0.123
1047.88	12.211
1051.62	103.355
1055.35	77.588
1059.08	5.869
1062.81	10.805
1066.54	15.445
1070.27	1.951
1073.99	50.383
1077.72	77.81
1081.44	48.206
1085.16	30.579
1088.88	67.038
1092.59	12.731
1096.31	0.423
1100.02	1.812
1103.73	46.519
1107.44	75.86
1111.15	1.194
1114.86	14.399
1118.57	8.994
1122.27	59.227
1125.97	43.401
1129.67	134.706
1133.37	113
1137.07	129.206
1140.76	80.674
1144.45	19.014
1148.15	31.654
1151.84	84.73
1155.53	115.689
1159.21	118.654
1162.9	185.642
1166.58	168.418
1170.26	87.065
1173.94	60.669
1177.62	37.019
1181.3	28.74
1184.97	88.64
1188.65	106.527
1192.32	116.326
1195.99	83.64
1199.66	87.516
1203.33	60.085
1206.99	97.476
1210.65	60.563
1214.32	108.783
1217.98	252.458
1221.64	165.224
1225.29	213.945
1228.95	120.473
1232.6	98.3
1236.26	80.25
1239.91	164.291
1243.56	196.877
1247.2	145.424
1250.85	129.041
1254.49	171.692
1258.13	120.921
1261.78	60.371
1265.41	46.458
1269.05	70.903
1272.69	81.243
1276.32	99.601
1279.95	168.813
1283.59	97.839
1287.21	111.917
1290.84	51.217
1294.47	38.177
1298.09	4.631
1301.72	37.976
1305.34	29.261
1308.96	62.468
1312.58	118.566
1316.19	136.599
1319.81	124.535
1323.42	67.384
1327.03	12.902
1330.64	48.275
1334.25	25.885
1337.86	35.848
1341.46	18.18
1345.07	107.127
1348.67	94.97
1352.27	79.736
1355.87	44.426
1359.46	97.096
1363.06	18.691
1366.65	59.338
1370.25	19.972
1373.84	46.688
1377.43	102.143
1381.02	156.565
1384.6	208.677
1388.18	197.009
1391.77	140.171
1395.35	99.25
1398.93	71.416
1402.51	64.471
1406.08	141.058
1409.66	96.401
1413.23	103.846
1416.8	174.662
1420.37	188.549
1423.94	180.646
1427.51	202.895
1431.08	110.95
1434.64	85.46
1438.2	87.399
1441.76	51.461
1445.32	127.831
1448.88	115.728
1452.43	132.47
1455.99	169.654
1459.54	180.183
1463.09	255.612
1466.64	225.821
1470.19	135.874
1473.74	157.721
1477.28	62.951
1480.83	44.466
1484.37	46.031
1487.91	55.38
1491.45	45.656
1494.98	117.949
1498.52	153.812
1502.05	188.65
1505.59	183.477
1509.12	159.301
1512.65	191.636
1516.17	123.555
1519.7	0
