Measurement: Raman, 514 nm, depolarized, Raman Data Processed
Mineral: Forsterite
Rruff sample: R060535
Ideal chemistry: Mg_2_SiO_4_
Locality: unknown
Source: Gemological Institute of America
Description: Transparent brown gemstone
Measured chemistry: (Mg_1.81_Fe_0.18_Ni_0.01_)_Î£=2_Si_1.00_O_4_
Pin_id: L01269
Orientation: Laser parallel to a* (1 0 0). Fiducial mark perpendicular to laser is parallel to b [0 1 0]
Raman shift (cm-1)	intensity
208.836	0
213.735	134.268
218.631	281.72
223.524	351.265
228.414	258.078
233.302	128.909
238.186	92.697
243.068	40.6556
247.947	25.3258
252.823	40.8513
257.697	32.0657
262.567	32.8088
267.435	14.1284
272.3	10.7676
277.162	34.1728
282.021	25.8972
286.878	98.598
291.732	95.3773
296.583	298.778
301.431	448.166
306.276	335.46
311.119	202.981
315.958	315.44
320.795	339.95
325.629	488.536
330.461	474.651
335.289	430.005
340.115	354.692
344.938	181.261
349.759	87.8191
354.576	109.851
359.391	102.278
364.203	146.941
369.012	175.507
373.818	167.942
378.622	65.0654
383.423	26.0847
388.221	4.11951
393.016	0.524536
397.809	39.7404
402.598	10.2174
407.386	92.5572
412.17	75.0846
416.951	108.15
421.73	147.912
426.506	236.561
431.279	278.169
436.05	147.774
440.818	110.324
445.583	65.6749
450.345	74.7462
455.105	17.7217
459.861	11.6456
464.615	64.5245
469.367	73.3589
474.115	84.1411
478.861	86.8439
483.604	85.4905
488.345	105.086
493.082	81.6901
497.817	129.298
502.55	126.415
507.279	133.255
512.006	141.335
516.73	153.85
521.451	225.046
526.17	229.579
530.886	345.254
535.599	544.734
540.31	890.541
545.017	786.552
549.723	373.984
554.425	194.432
559.125	185
563.822	200.151
568.516	215.5
573.207	273.414
577.896	373.208
582.583	512.884
587.266	639.223
591.947	628.492
596.625	380.656
601.3	382.569
605.973	358.637
610.643	382.637
615.311	245.575
619.975	139.416
624.637	96.1631
629.297	81.8193
633.953	66.3863
638.607	2.86169
643.259	19.2267
647.907	1.4303
652.553	25.5596
657.197	14.7981
661.837	19.7493
666.475	44.9513
671.111	36.9175
675.743	6.07153
680.373	0.484131
685.001	11.9918
689.625	12.3644
694.247	2.5946
698.867	40.7327
703.483	9.18921
708.097	33.858
712.709	83.6398
717.318	117.927
721.924	103.959
726.527	188.999
731.128	315.055
735.726	338.15
740.322	445.309
744.915	605.528
749.505	775.783
754.093	844.102
758.678	722.478
763.26	513.918
767.84	392.424
772.417	314.934
776.992	365.865
781.564	353.474
786.133	364.302
790.7	405.781
795.264	421.27
799.825	583.901
804.384	954.161
808.94	1628.57
813.494	3465.43
818.045	8093.12
822.593	14106.7
827.139	10630.9
831.682	5444.15
836.223	3868.43
840.761	3795.91
845.296	5674.86
849.829	10763
854.359	16622.2
858.887	12746.7
863.412	6214.31
867.934	3160.13
872.454	1748.16
876.971	1296.51
881.486	1074.17
885.998	644.639
890.507	481.385
895.014	265.193
899.518	244.336
904.02	297.133
908.519	380.681
913.016	948.393
917.51	1945.76
922.001	1302.56
926.49	387.97
930.976	236.934
935.46	255.068
939.941	363.856
944.42	540.176
948.896	888.087
953.369	1283.22
957.84	1751.85
962.309	1931.71
966.774	1446.95
971.238	756.778
975.698	414.004
980.156	221.161
984.612	101.385
989.065	3.76318
993.516	52.7034
997.964	54.1184
1002.41	15.6382
1006.85	47.8594
1011.29	5.32275
1015.73	21.9695
1020.16	28.5872
1024.6	15.9719
1029.03	20.521
1033.46	11.0862
1037.88	21.3389
1042.3	23.5139
1046.72	35.0654
1051.14	11.7256
1055.56	48.0051
1059.97	15.136
1064.38	8.84448
1068.79	3.80615
1073.19	22.5088
1077.59	20.8381
1081.99	29.2856
1086.39	10.6421
1090.79	67.0752
1095.18	57.2969
1099.57	12.5574
1103.95	22.4446
1108.34	29.0059
1112.72	70.894
1117.1	26.905
1121.48	52.5837
1125.85	62.2022
1130.23	26.7231
1134.6	7.11377
1138.96	105.365
1143.33	59.3796
1147.69	9.16919
1152.05	24.1704
1156.41	52.1523
1160.76	49.137
1165.11	60.1492
1169.46	35.9475
1173.81	93.9744
1178.16	24.4783
1182.5	30.1895
1186.84	107.51
1191.18	21.3027
1195.51	27.7459
1199.84	33.1333
1204.17	94.9473
1208.5	55.2315
1212.83	20.6516
1217.15	43.405
1221.47	46.5027
1225.79	123.965
1230.1	107.049
1234.41	60.0793
1238.73	112.247
1243.03	58.2788
1247.34	86.4075
1251.64	55.7647
1255.94	38.2478
1260.24	72.4011
1264.54	57.572
1268.83	70.8274
1273.12	66.6357
1277.41	34.0645
1281.69	30.2861
1285.98	111.097
1290.26	42.0198
1294.54	43.625
1298.81	76.1602
1303.09	66.6995
1307.36	17.1428
1311.63	60.3413
1315.89	33.7993
1320.16	41.2266
1324.42	2.70606
1328.68	90.3633
1332.93	22.8337
1337.19	55.2617
1341.44	74.6509
1345.69	14.5813
1349.94	9.19727
1354.18	69.1419
1358.42	76.0964
1362.66	58.7458
1366.9	24.978
1371.13	87.1604
1375.37	97.312
1379.6	73.4199
1383.82	19.4907
1388.05	52.5427
1392.27	27.5791
1396.49	74.6067
1400.71	22.3818
1404.92	64.6064
1409.14	0.481934
1413.35	37.4773
1417.56	96.5644
1421.76	73.677
1425.97	28.4719
1430.17	68.6719
1434.37	58.0847
1438.56	109.751
1442.76	106.873
1446.95	43.0049
1451.14	26.718
1455.33	69.0356
1459.51	92.5317
1463.69	66.8921
1467.87	95.1233
1472.05	144.258
1476.22	116.978
1480.4	81.4792
1484.57	164.414
1488.73	83.2065
1492.9	125.147
1497.06	161.904
1501.22	129.567
1505.38	156.137
1509.54	115.878
1513.69	124.616
1517.84	77.3169
1521.99	64.2937
1526.14	92.4653
1530.28	40.2185
1534.42	125.295
1538.56	93.7893
1542.7	86.894
1546.83	35.8723
1550.97	15.9988
1555.1	155.964
1559.22	0.671143
1563.35	0
