Measurement: Raman, 514 nm, depolarized, Raman Data Processed
Mineral: Forsterite
Rruff sample: R060539
Ideal chemistry: Mg_2_SiO_4_
Locality: Sri Lanka
Source: Gemological Institute of America
Description: Brown cut gemstone
Measured chemistry: (Mg_1.67_Fe_0.33_)_Î£=2_Si_1.00_O_4_; trace amounts of Mn and Ca
Pin_id: L01074
Orientation: Laser parallel to a* (1 0 0). Fiducial mark perpendicular to laser is parallel to b [0 1 0]
Raman shift (cm-1)	intensity
132.439	0
137.367	33.8298
142.291	30.7046
147.213	91.3623
152.133	102.646
157.05	55.6414
161.965	43.9373
166.877	0.533936
171.786	55.688
176.693	49.5505
181.598	170.68
186.5	199.849
191.399	212.846
196.296	263.117
201.19	444.171
206.082	635.519
210.971	876.604
215.858	1046.58
220.742	938.689
225.624	703.102
230.503	565.954
235.38	384.931
240.254	342.006
245.125	130.166
249.994	64.4363
254.861	35.2842
259.725	192.89
264.586	28.0125
269.445	74.5325
274.302	97.958
279.155	107.3
284.007	282.746
288.855	519.616
293.702	863.26
298.545	1159.41
303.386	986.832
308.225	879.311
313.061	879.061
317.894	1033.81
322.725	1079.02
327.554	1075.59
332.38	904.943
337.203	735.647
342.024	456.533
346.842	198.408
351.658	177.909
356.471	237.63
361.281	284.586
366.09	215.957
370.895	147.565
375.698	88.3035
380.498	7.09814
385.296	26.0466
390.092	20.2114
394.884	3.43921
399.675	62.627
404.462	172.233
409.248	168.389
414.03	331.347
418.81	536.194
423.588	785.943
428.363	627.595
433.135	321.146
437.905	113.537
442.672	82.7476
447.437	60.7544
452.199	32.4607
456.959	57.8984
461.716	0.682861
466.47	104.718
471.222	171.149
475.972	53.3018
480.719	115.161
485.463	88.7407
490.205	80.5603
494.944	72.969
499.681	53.8325
504.415	136.528
509.146	185.572
513.875	259.779
518.602	357.964
523.326	528.643
528.047	906.084
532.766	1600.61
537.482	2232.12
542.196	1851.15
546.907	881.621
551.616	459.675
556.322	389.677
561.025	430.488
565.726	447.049
570.424	691.906
575.12	882.53
579.813	1099.57
584.504	1329.54
589.192	1189.98
593.877	828.055
598.56	756.105
603.241	818.841
607.919	622.514
612.594	480.035
617.267	337.608
621.937	249.292
626.604	157.125
631.269	67.5884
635.932	0.039551
640.592	71.4273
645.249	47.9404
649.904	122.887
654.556	14.2622
659.206	15.7495
663.853	8.35693
668.497	70.1089
673.139	6.53857
677.779	23.415
682.416	32.1982
687.05	23.46
691.682	57.4019
696.311	82.0396
700.937	38.5649
705.561	92.5757
710.183	36.5615
714.802	66.3809
719.418	32.104
724.032	89.7466
728.643	185.333
733.251	165.931
737.857	102.511
742.461	212.184
747.062	150.997
751.66	233.875
756.256	208.8
760.849	364.782
765.44	445.837
770.028	519.001
774.613	682.774
779.196	683.312
783.777	947.363
788.354	1190.89
792.93	1571.03
797.502	2214.95
802.072	3308.39
806.64	5835.24
811.205	12156
815.767	25360.5
820.327	39172.3
824.884	31997.5
829.439	18749.1
833.991	13583.8
838.541	13743.7
843.087	19190.2
847.632	31208.2
852.174	40699.5
856.713	33766.2
861.25	18761.4
865.784	10050.2
870.315	5617.29
874.844	3757.76
879.371	2718.93
883.894	2072.29
888.416	1266.31
892.934	1055.81
897.45	882.814
901.964	984.314
906.475	1343.02
910.983	2572.76
915.489	4334.53
919.992	3568.25
924.493	1796.81
928.991	1334.02
933.486	1251.35
937.979	1614.51
942.47	2087.47
946.957	3087.36
951.443	4149.68
955.925	4418.04
960.405	3839.95
964.883	2940.3
969.358	1927.46
973.83	1058.04
978.3	589.983
982.767	354.42
987.232	271.536
991.694	99.7588
996.153	79.3921
1000.61	26.4273
1005.06	59.8506
1009.52	26.3501
1013.97	40.1953
1018.41	27.2168
1022.86	61.9688
1027.3	18.0855
1031.74	112.56
1036.17	44.5225
1040.61	40.7432
1045.04	74.6694
1049.47	23.0713
1053.89	1.69336
1058.32	48.373
1062.74	44.9336
1067.15	12.7129
1071.57	5.54834
1075.98	23.603
1080.39	24.7373
1084.8	15.9775
1089.21	95.8052
1093.61	50.7832
1098.01	21.0903
1102.41	27.8652
1106.8	34.7563
1111.19	34.7217
1115.59	25.8223
1119.97	136.497
1124.36	126.384
1128.74	171.174
1133.12	82.7432
1137.5	163.433
1141.87	201.895
1146.24	132.075
1150.61	173.124
1154.98	162.814
1159.34	198.31
1163.7	245.137
1168.06	185.665
1172.42	253.332
1176.77	146.275
1181.12	75.9243
1185.47	147.426
1189.82	236.877
1194.16	253.523
1198.5	141.613
1202.84	256.366
1207.18	232.751
1211.51	253.084
1215.84	222.315
1220.17	251.527
1224.5	193.251
1228.82	212.929
1233.14	186.626
1237.46	202.435
1241.77	136.276
1246.09	121.926
1250.39	80.9302
1254.7	96.9839
1259.01	169.093
1263.31	36.2607
1267.61	86.478
1271.91	104.745
1276.2	42.9312
1280.49	136.191
1284.78	9.46631
1289.07	144.774
1293.35	61.0796
1297.64	164.198
1301.91	205.319
1306.19	8.52002
1310.46	6.73975
1314.74	68.0664
1319.01	123.459
1323.27	43.8926
1327.54	147.399
1331.8	33.0781
1336.06	96.8789
1340.31	123.849
1344.57	34.0303
1348.82	209.281
1353.06	80.6504
1357.31	90.9961
1361.55	139.642
1365.79	76.438
1370.03	175.319
1374.27	175.279
1378.5	128.323
1382.73	91.4497
1386.96	159.655
1391.18	27.3364
1395.4	108.741
1399.62	198.143
1403.84	204.823
1408.06	34.7241
1412.27	192.601
1416.48	170.537
1420.69	79.9629
1424.89	56.228
1429.09	69.2881
1433.29	97.6221
1437.49	131.404
1441.68	186.618
1445.87	120.158
1450.06	159.987
1454.25	256.936
1458.43	114.397
1462.62	137.492
1466.79	33.6768
1470.97	76.9365
1475.14	159.269
1479.31	115.608
1483.48	84.0073
1487.65	132.83
1491.81	140.805
1495.97	106.252
1500.13	62.0874
1504.29	72.1226
1508.44	31.3477
1512.59	168.9
1516.74	51.9004
1520.88	90.3257
1525.03	21.2822
1529.17	72.8745
1533.3	189.184
1537.44	136.307
1541.57	65.1382
1545.7	159.724
1549.83	82.064
1553.95	180.395
1558.08	5.11084
1562.19	151.31
