Measurement: Raman, 514 nm, depolarized, Raman Data Processed
Mineral: Forsterite
Rruff sample: R040057
Ideal chemistry: Mg_2_SiO_4_
Locality: Trudy's mine, San Carlos, Gila County, Arizona, USA
Source: Bob Downs
Description: Dark green crystal fragments from xenoliths in a basalt flow
Measured chemistry: (Mg_1.67_Fe_0.32_Ni_0.01_)_Î£=2_Si_1.00_O_4_; trace amounts of Mn and Ca
Pin_id: L00449
Orientation: Laser parallel to b* (0 1 0). Fiducial mark perpendicular to laser is parallel to a [1 0 0]
Raman shift (cm-1)	intensity
87.798	0
91.981	136.32
96.161	49.197
100.34	38.79
104.516	145.738
108.691	164.497
112.864	226.241
117.034	475.485
121.203	337.897
125.369	117.784
129.534	115.723
133.696	85.414
137.857	179.339
142.016	238.176
146.172	159.926
150.327	144.601
154.48	175.04
158.63	100.265
162.779	105.293
166.926	113.842
171.07	132.951
175.213	102.03
179.354	76.181
183.493	43.028
187.63	16.051
191.765	42.184
195.898	47.546
200.029	36.621
204.158	101.281
208.285	247.397
212.41	350.941
216.533	496.629
220.654	345.388
224.773	383.758
228.891	385.553
233.006	318.967
237.119	300.722
241.231	257.676
245.34	121.454
249.448	7.245
253.553	9.142
257.657	33.857
261.758	3.747
265.858	40.49
269.956	18.318
274.052	61.591
278.146	52.212
282.237	201.157
286.327	424.35
290.416	843.017
294.502	1547.02
298.586	2097.37
302.668	1644.67
306.749	1218.66
310.827	1221.22
314.903	1350.28
318.978	1452.48
323.051	1284.42
327.121	992.467
331.19	838.677
335.257	625.088
339.322	360.778
343.385	167.234
347.446	66.633
351.505	30.828
355.563	39.531
359.618	24.024
363.672	10.644
367.723	45.763
371.773	3.195
375.821	22.365
379.866	23.027
383.91	17.347
387.952	38.596
391.992	3.771
396.031	99.819
400.067	196.726
404.101	478.517
408.134	814.194
412.165	902.754
416.193	852.087
420.22	1172.93
424.245	1403.12
428.268	883.163
432.289	511.252
436.309	147.269
440.326	46.166
444.342	79.933
448.355	36.436
452.367	28.845
456.377	32.292
460.385	2.114
464.391	26.186
468.395	35.032
472.398	103.684
476.398	31.118
480.397	57.315
484.394	52.309
488.389	70.161
492.382	55.259
496.373	17.366
500.362	56.062
504.349	93.532
508.335	138.253
512.319	161.716
516.3	260.473
520.28	258.476
524.259	361.833
528.235	489.723
532.209	941.869
536.182	1638.98
540.152	1648.85
544.121	1011.95
548.088	531.941
552.053	461.289
556.017	414.438
559.978	357.254
563.938	413.831
567.895	494.171
571.851	662.274
575.805	886.143
579.758	897.782
583.708	869.191
587.657	1152.37
591.603	1659.31
595.548	2429.02
599.491	3073.46
603.432	3022.72
607.372	2256.7
611.309	1651.72
615.245	1064.29
619.179	693.982
623.111	466.636
627.041	436.604
630.97	331.1
634.896	136.786
638.821	140.4
642.744	129.148
646.665	134.55
650.584	3.034
654.502	67.861
658.418	35.719
662.331	5.762
666.244	7.384
670.154	57.27
674.062	32.595
677.969	40.38
681.874	15.591
685.777	52.716
689.678	47.406
693.577	122.622
697.475	51.5
701.371	16.185
705.265	155.672
709.157	96.986
713.047	153.211
716.936	105.354
720.823	90.422
724.708	100.423
728.591	197.361
732.472	155.242
736.352	293.073
740.23	202.858
744.106	291.606
747.98	349.32
751.853	356.006
755.723	370.671
759.592	522.359
763.459	566.089
767.325	658.985
771.188	751.084
775.05	852.497
778.91	999.648
782.768	1152.07
786.625	1296.55
790.479	1645.09
794.332	2090.75
798.183	2583.45
802.033	3680.24
805.88	5734.48
809.726	9242.85
813.57	17048.8
817.413	33600.6
821.253	47038.1
825.092	33931.7
828.929	20358.6
832.764	13715.9
836.598	11647.1
840.429	12093
844.259	15408.1
848.088	23470
851.914	32132.8
855.739	29093.1
859.562	18502.7
863.383	11217.5
867.203	6665.62
871.02	4248.98
874.836	2784.52
878.65	1962.27
882.463	1544.24
886.274	1049.39
890.083	798.723
893.89	588.229
897.695	425.022
901.499	432.76
905.301	388.785
909.102	291.985
912.9	438.708
916.697	401.354
920.492	432.629
924.285	417.511
928.077	370.25
931.867	381.086
935.655	532.312
939.442	773.672
943.226	1196.69
947.009	2030.75
950.791	3108.95
954.57	4026.07
958.348	4229.63
962.124	3896.72
965.899	3128.76
969.671	2247.79
973.442	1600.74
977.211	1008.31
980.979	778.673
984.745	630.842
988.509	542.743
992.271	416.579
996.032	386.036
999.791	424.148
1003.55	260.514
1007.3	222.687
1011.06	262.48
1014.81	173.215
1018.56	57.35
1022.31	151.225
1026.06	170.851
1029.8	203.484
1033.55	183.685
1037.29	144.131
1041.03	111.11
1044.77	151.474
1048.5	166.008
1052.24	116.479
1055.97	206.982
1059.7	98.487
1063.43	25.007
1067.16	106.347
1070.89	126.653
1074.61	17.92
1078.34	135.154
1082.06	59.689
1085.78	63.464
1089.5	6.452
1093.21	3.637
1096.93	3.809
1100.64	54.083
1104.35	19.465
1108.06	66.049
1111.77	64.75
1115.48	107.011
1119.18	65.79
1122.89	379.35
1126.59	213.318
1130.29	113.729
1133.99	42.312
1137.68	126.814
1141.38	59.297
1145.07	69.872
1148.76	69.334
1152.45	136.484
1156.14	81.249
1159.83	157.545
1163.51	141.27
1167.19	116.013
1170.88	37.28
1174.56	149.515
1178.23	77.841
1181.91	110.18
1185.59	197.661
1189.26	268.699
1192.93	127.749
1196.6	203.746
1200.27	234.611
1203.94	213.604
1207.6	159.216
1211.27	253.646
1214.93	249.104
1218.59	239.909
1222.25	204.646
1225.9	256.503
1229.56	308.374
1233.21	270.543
1236.86	379.926
1240.51	340.191
1244.16	196.568
1247.81	272.069
1251.45	197.393
1255.1	193.963
1258.74	186.194
1262.38	113.832
1266.02	129.517
1269.66	126.726
1273.29	95.38
1276.93	86.41
1280.56	93.867
1284.19	168.863
1287.82	113.116
1291.45	112.812
1295.07	23.761
1298.7	118.452
1302.32	20.865
1305.94	27.264
1309.56	164.287
1313.18	85.787
1316.8	168.837
1320.41	196.166
1324.02	46.507
1327.63	74.49
1331.24	174.092
1334.85	143.922
1338.46	2.863
1342.06	25.272
1345.67	19.246
1349.27	44.072
1352.87	149.763
1356.47	183.404
1360.07	172.11
1363.66	192.674
1367.25	216.228
1370.85	151.693
1374.44	178.044
1378.03	3.341
1381.61	151.409
1385.2	258.031
1388.78	272.306
1392.37	153.401
1395.95	240.878
1399.53	166.273
1403.1	231.05
1406.68	103.454
1410.26	162.502
1413.83	212.223
1417.4	247.66
1420.97	308.412
1424.54	275.165
1428.1	167.677
1431.67	251.729
1435.23	397.759
1438.8	318.873
1442.36	383.317
1445.91	431.236
1449.47	524.211
1453.03	352.944
1456.58	306.48
1460.13	428.284
1463.68	374.998
1467.23	203.104
1470.78	302.43
1474.33	297.803
1477.87	242.619
1481.42	158.785
1484.96	112.189
1488.5	223.059
1492.04	229.698
1495.57	165.359
1499.11	141.12
1502.64	30.343
1506.17	32.711
1509.71	6.836
1513.23	87.12
1516.76	0
