Measurement: Raman, 514 nm, depolarized, Raman Data Processed
Mineral: Forsterite
Rruff sample: R060551
Ideal chemistry: Mg_2_SiO_4_
Locality: Kohiston, Pakistan
Source: Gemological Institute of America
Description: Pale green fragment
Measured chemistry: (Mg_1.82_Fe_0.18_)_Î£=2_Si_1.00_O_4_; trace amounts of Mn
Pin_id: M01244
Orientation: Laser parallel to b* (0 1 0). Fiducial mark perpendicular to laser is parallel to c [0 0 1]
Raman shift (cm-1)	intensity
105.226	0
110.19	207.982
115.152	106.228
120.111	149.196
125.066	41.002
130.018	53.0254
134.968	186.032
139.914	103.606
144.857	183.32
149.797	185.046
154.734	322.752
159.668	281.918
164.599	514.263
169.527	448.592
174.451	494.735
179.373	293.746
184.292	271.691
189.207	122.664
194.12	205.465
199.029	216.922
203.936	131.076
208.839	371.955
213.74	689.887
218.637	1409.65
223.531	2012.29
228.423	1629.94
233.311	1115.4
238.196	994.484
243.078	677.429
247.958	439.728
252.834	153.115
257.707	207.562
262.577	200.488
267.445	45.8643
272.309	153.544
277.17	244.177
282.029	247.584
286.884	515.843
291.736	1238.7
296.586	2683.08
301.432	5787.91
306.275	5969.15
311.116	3085.43
315.953	1947.43
320.788	1843.33
325.62	2079.88
330.448	1838.05
335.274	1320.62
340.097	1451.52
344.917	935.908
349.733	698.572
354.547	473.581
359.358	405.547
364.166	294.718
368.972	218.148
373.774	58.8066
378.573	95.0723
383.37	34.8887
388.163	68.3408
392.954	16.8818
397.742	5.42383
402.526	187.113
407.308	53.706
412.087	705.254
416.863	1481.24
421.637	1255.37
426.407	927.598
431.174	1063.93
435.939	1246.31
440.701	932.575
445.46	477.81
450.216	252.852
454.969	2.39551
459.719	40.5361
464.466	46.8066
469.211	77.332
473.953	197.503
478.692	15.1943
483.428	11.4248
488.161	0.071289
492.891	15.1143
497.619	168.624
502.343	83.6553
507.065	45.21
511.784	1.81543
516.5	45.4883
521.214	74.9326
525.924	195.132
530.632	318.015
535.337	682.793
540.039	1076.12
544.738	1627.25
549.435	852.923
554.129	503.661
558.82	382.525
563.508	632.068
568.193	642.162
572.876	891.975
577.555	1489.03
582.232	2217.99
586.907	2794.68
591.578	2879.95
596.247	3501.74
600.913	5536.09
605.576	7805.06
610.236	7767.09
614.894	4613.21
619.549	3007.34
624.201	1395.75
628.851	1053.91
633.497	513.984
638.141	371.445
642.782	213.769
647.421	230.797
652.057	194.783
656.69	187.68
661.32	4.37891
665.947	72.5
670.572	43.7891
675.194	36.3828
679.814	5.23047
684.43	22.5137
689.044	91.5664
693.656	16.0059
698.264	54.0801
702.87	27.2129
707.473	86.9629
712.074	269.264
716.672	11.8496
721.267	54.2285
725.859	11.1113
730.449	250.443
735.036	76.8672
739.62	295.432
744.202	307.191
748.781	395.121
753.358	451.307
757.931	481.727
762.502	683.414
767.071	1009.46
771.637	931.867
776.2	1060.59
780.76	1112.75
785.318	1233.36
789.873	1701.51
794.426	2247.17
798.976	2675.73
803.523	4265.44
808.068	6709.59
812.61	12522.6
817.149	27000.3
821.686	57237.2
826.22	64139.3
830.751	35697.1
835.28	21908.5
839.807	20096.5
844.33	27041.1
848.852	51190.3
853.37	97074
857.886	110532
862.399	62373.1
866.91	29225.3
871.418	16437.2
875.924	11866.8
880.427	12339.1
884.927	10480.2
889.425	5205.1
893.92	2901.45
898.413	2221.49
902.903	1386.76
907.391	1168.16
911.875	1351.01
916.358	1588.07
920.838	1710.54
925.315	1229.9
929.79	1198.5
934.262	1401.24
938.732	1733.98
943.199	2554.94
947.663	4159.12
952.125	6745.04
956.585	11211.3
961.042	15437.5
965.496	13783
969.948	8993.84
974.398	5019.02
978.844	2463.32
983.289	1368.88
987.731	958.807
992.17	725.406
996.607	545.484
1001.04	412.043
1005.47	406.418
1009.9	248.58
1014.33	108.93
1018.75	17.6973
1023.17	277.551
1027.59	148.68
1032.01	130.147
1036.43	24.8633
1040.84	23.7969
1045.25	43.1016
1049.65	193.959
1054.06	122.953
1058.46	46.0059
1062.86	91.918
1067.26	1.19727
1071.65	41.2969
1076.04	40.8789
1080.43	146.389
1084.82	91.7734
1089.2	92.4277
1093.59	78.1055
1097.97	59.4512
1102.34	109.164
1106.72	5.54492
1111.09	23.6387
1115.46	86.7519
1119.83	378.799
1124.19	168.789
1128.56	285.719
1132.92	455.502
1137.28	247.172
1141.63	317.807
1145.98	241.744
1150.34	377.914
1154.68	228.039
1159.03	365.856
1163.37	572.449
1167.71	383.994
1172.05	379.44
1176.39	280.769
1180.72	252.041
1185.05	298.85
1189.38	444.318
1193.71	457.551
1198.03	45.082
1202.36	333.588
1206.67	372.473
1210.99	501.494
1215.31	356.102
1219.62	750.381
1223.93	553.992
1228.24	301.926
1232.54	360.922
1236.85	351.484
1241.15	287.459
1245.44	334.51
1249.74	707.682
1254.03	266.781
1258.33	446.904
1262.61	121.961
1266.9	335.6
1271.18	127.508
1275.47	100.82
1279.74	5.25977
1284.02	125.785
1288.3	16.793
1292.57	146.877
1296.84	12.041
1301.11	184.977
1305.37	195.459
1309.64	230.576
1313.9	249.873
1318.16	54.4473
1322.41	249.232
1326.67	83.7168
1330.92	26.0547
1335.17	250.412
1339.41	114.992
1343.66	340.945
1347.9	66.1777
1352.14	164.404
1356.38	304.17
1360.61	419.277
1364.85	222.566
1369.08	475.014
1373.31	119.627
1377.53	292.412
1381.76	289.348
1385.98	217.445
1390.2	493.762
1394.42	96.7461
1398.63	274.844
1402.84	277.623
1407.05	195.426
1411.26	349.578
1415.47	337.672
1419.67	49.4258
1423.87	371.842
1428.07	242.961
1432.27	255.557
1436.46	303.172
1440.66	333.051
1444.85	518.65
1449.04	223.316
1453.22	701.141
1457.4	237.273
1461.59	545.588
1465.77	339.359
1469.94	467.469
1474.12	472.906
1478.29	304.119
1482.46	353.56
1486.63	466.246
1490.79	398.658
1494.96	468.525
1499.12	172.676
1503.28	397.332
1507.43	56.8398
1511.59	531.854
1515.74	324.014
1519.89	268.094
1524.04	494.975
1528.18	411.006
1532.33	502.727
1536.47	349.352
1540.61	68.2441
1544.75	514.006
1548.88	336.256
1553.02	144.76
1557.15	119.002
1561.27	114.572
1565.4	77.7051
1569.53	68.2441
1573.65	23.8418
1577.77	71.4219
