Measurement: Raman, 514 nm, depolarized, Raman Data Processed
Mineral: Forsterite
Rruff sample: R040052
Ideal chemistry: Mg_2_SiO_4_
Locality: Synthetic, Czochralski method
Source: Hideki Kanazawa of Kyoto University, Japan
Description: Colorless crystal fragments obtained from a boule.
Measured chemistry: Mg_2.00_Si_1.00_O_4_
Pin_id: l00104
Orientation: Laser parallel to -a* (-1 0 0). Fiducial mark perpendicular to laser is parallel to b [0 1 0]
Raman shift (cm-1)	intensity
83.723	0
87.91	114.569
92.096	167.125
96.279	194.672
100.461	193.547
104.64	232.021
108.817	179.293
112.992	294.473
117.166	368.312
121.337	205.962
125.506	128.183
129.673	123.225
133.838	73.322
138.001	82.051
142.162	91.782
146.321	69.761
150.478	11.936
154.633	9.98
158.786	39.22
162.937	13.747
167.086	6.84
171.233	21.057
175.378	85.208
179.521	95.712
183.662	195.373
187.8	257.184
191.937	98.136
196.072	77.492
200.205	67.759
204.336	51.836
208.465	70.651
212.591	58.196
216.716	121.51
220.839	278.593
224.96	969.529
229.079	3954.93
233.195	820.005
237.31	180.868
241.423	89.638
245.534	46.27
249.643	28.429
253.75	68.203
257.855	6.79
261.958	16.02
266.059	13.332
270.158	64.237
274.255	27.832
278.35	102.972
282.443	115.563
286.534	79.699
290.623	117.479
294.71	177.12
298.795	305.906
302.878	930.079
306.959	1789.04
311.038	585.051
315.116	484.294
319.191	434.518
323.264	503.353
327.336	1559.17
331.405	2963.08
335.473	1721.16
339.538	2688.52
343.602	2280.09
347.663	659.027
351.723	310.017
355.78	225.626
359.836	171.125
363.89	171.758
367.942	259.6
371.992	754.885
376.04	1624.81
380.086	543.229
384.13	196.029
388.172	171.081
392.212	230.049
396.25	150.911
400.286	146.64
404.321	216.971
408.353	412.481
412.384	551.563
416.412	426.37
420.439	652.717
424.464	948.486
428.486	424.047
432.507	170.575
436.526	137.254
440.543	195.922
444.558	53.821
448.572	45.826
452.583	15.386
456.592	2.464
460.6	43.641
464.605	20.721
468.609	16.653
472.61	72.444
476.61	39.109
480.608	5.748
484.604	17.177
488.598	6.498
492.59	72.737
496.58	7.863
500.569	4.12
504.555	19.027
508.54	77.636
512.522	68.114
516.503	125.783
520.482	126.944
524.459	185.6
528.434	275.781
532.407	278.446
536.378	418.448
540.348	1076.94
544.315	3366.07
548.281	3435.53
552.244	1165.75
556.206	513.733
560.166	319.426
564.124	220.348
568.08	182.525
572.035	187.969
575.987	178.366
579.938	355.725
583.886	566.068
587.833	1019.43
591.778	1919.88
595.721	1753.45
599.662	915.033
603.602	630.03
607.539	741.04
611.475	709.592
615.408	499.737
619.34	354.685
623.27	209.354
627.199	155.898
631.125	74.765
635.049	53.174
638.972	113.287
642.893	80.743
646.811	19.176
650.728	63.725
654.644	91.615
658.557	26.431
662.468	4.369
666.378	15.114
670.286	31.123
674.192	3.052
678.096	29.696
681.998	47.634
685.898	96.8
689.797	26.173
693.694	5.61
697.589	36.844
701.482	12.166
705.373	6.576
709.262	49.681
713.15	57.979
717.035	70.305
720.919	108.677
724.801	108.083
728.682	37.526
732.56	168.011
736.437	255.538
740.311	230.111
744.184	267.737
748.055	171.416
751.925	282.145
755.792	335.931
759.658	372.789
763.522	378.742
767.384	367.795
771.244	495.934
775.102	722.17
778.959	760.498
782.814	815.94
786.667	889.491
790.518	970.167
794.367	1260.86
798.215	1533.81
802.061	1958.89
805.905	2560.1
809.747	3737.43
813.587	6060.64
817.426	11626.4
821.263	27388.6
825.098	48331.7
828.931	30394.6
832.762	13445.1
836.592	8092.96
840.42	6368.5
844.246	6943.18
848.07	9877.32
851.892	19999.3
855.713	48772.2
859.532	49806.9
863.349	21035.3
867.164	9224.36
870.978	4966.19
874.789	3263.94
878.599	2434.84
882.408	2053.1
886.214	1777.32
890.019	1315.69
893.822	1004.22
897.623	903.54
901.422	884.4
905.22	889.424
909.015	877.92
912.809	1153.28
916.602	2772.33
920.392	8003.3
924.181	3450.8
927.968	1321.79
931.753	973.838
935.536	768.105
939.318	825.315
943.098	961.542
946.876	1264.23
950.653	1945.35
954.427	2892.81
958.2	4120.72
961.971	7122.73
965.741	11404.1
969.508	7815.8
973.274	3131.65
977.039	1406.73
980.801	685.62
984.562	328.186
988.321	159.781
992.078	116.741
995.833	93.77
999.587	160.914
1003.34	182.674
1007.09	86.255
1010.84	39.979
1014.58	55.534
1018.33	5.409
1022.07	53.476
1025.81	139.627
1029.55	129.913
1033.29	21.28
1037.03	36.761
1040.76	30.345
1044.5	20.858
1048.23	107.872
1051.96	115.886
1055.68	68.911
1059.41	80.975
1063.13	72.067
1066.86	29.458
1070.58	8.551
1074.3	49.514
1078.02	82.434
1081.73	53.364
1085.44	20.279
1089.16	46.763
1092.87	17.91
1096.58	63.094
1100.28	45.414
1103.99	52.18
1107.69	106.747
1111.39	145.439
1115.1	60.97
1118.8	120.344
1122.49	164.152
1126.19	153.942
1129.88	67.66
1133.57	112.377
1137.26	37.861
1140.95	39.133
1144.64	42.756
1148.32	12.412
1152.01	51.174
1155.69	104.839
1159.37	216.44
1163.05	195.498
1166.72	199.658
1170.4	166.689
1174.07	109.48
1177.74	149.921
1181.41	85.571
1185.08	196.606
1188.75	205.373
1192.41	137.244
1196.08	143.542
1199.74	68.079
1203.4	22.472
1207.06	119.181
1210.71	171.097
1214.37	185.289
1218.02	245.944
1221.67	281.771
1225.32	180.488
1228.97	171.547
1232.62	113.262
1236.26	191.827
1239.9	285.134
1243.55	268.652
1247.18	289.806
1250.82	262.448
1254.46	233.692
1258.1	187.016
1261.73	161.852
1265.36	89.505
1268.99	194.849
1272.62	174.927
1276.24	129.85
1279.87	164.554
1283.49	153.019
1287.11	59.143
1290.73	101.61
1294.35	30.16
1297.97	5.555
1301.58	10.107
1305.2	39.37
1308.81	112.794
1312.42	77.63
1316.03	131.281
1319.63	67.721
1323.24	54.959
1326.84	46.971
1330.44	0.148
1334.05	42.499
1337.64	123.85
1341.24	43.186
1344.84	147.018
1348.43	163.904
1352.02	188.829
1355.61	81.761
1359.2	117.128
1362.79	63.968
1366.37	289.53
1369.96	53.967
1373.54	134.121
1377.12	166.354
1380.7	231.608
1384.28	221.862
1387.85	187.085
1391.43	134.002
1395	107.729
1398.57	72.797
1402.14	102.763
1405.71	114.647
1409.28	193.265
1412.84	149.906
1416.4	243.358
1419.96	150.655
1423.52	262.678
1427.08	154.381
1430.64	126.163
1434.19	142.915
1437.75	136.791
1441.3	269.432
1444.85	164.794
1448.4	230.941
1451.94	244.396
1455.49	400.929
1459.03	397.108
1462.58	311.426
1466.12	292.12
1469.65	258.079
1473.19	214.887
1476.73	149.338
1480.26	145.846
1483.8	101.586
1487.33	90.153
1490.86	175.075
1494.38	123.664
1497.91	195.331
1501.43	277.107
1504.96	221.407
1508.48	113.518
1512	66.21
1515.52	31.569
