Measurement: Raman, 514 nm, depolarized, Raman Data Processed
Mineral: Forsterite
Rruff sample: R060539
Ideal chemistry: Mg_2_SiO_4_
Locality: Sri Lanka
Source: Gemological Institute of America
Description: Brown cut gemstone
Measured chemistry: (Mg_1.67_Fe_0.33_)_Î£=2_Si_1.00_O_4_; trace amounts of Mn and Ca
Pin_id: L01554
Orientation: Laser parallel to -c* (0 0 -1). Fiducial mark perpendicular to laser is parallel to a [1 0 0]
Raman shift (cm-1)	intensity
128.742	0
133.671	14.5742
138.598	44.6019
143.522	64.3514
148.444	90.0035
153.363	91.4322
158.279	118.474
163.193	53.4768
168.104	51.0366
173.013	71.6988
177.92	122.271
182.823	65.674
187.725	90.7401
192.623	51.4491
197.52	85.96
202.413	146.811
207.305	209.655
212.193	370.523
217.079	450.612
221.963	386.315
226.844	388.613
231.723	360.035
236.599	280.052
241.472	230.098
246.343	137.731
251.211	69.7469
256.077	35.6184
260.94	50.9526
265.801	37.6284
270.66	33.4094
275.515	78.1954
280.368	195.653
285.219	395.659
290.067	896.205
294.913	1456.13
299.756	1686.64
304.596	1325.16
309.434	1100.91
314.27	1176.93
319.102	1321.05
323.933	1131.19
328.76	821.37
333.586	654.626
338.408	407.897
343.229	227.056
348.046	100.549
352.861	25.9148
357.674	88.0217
362.484	4.71399
367.291	61.1393
372.096	5.61877
376.898	15.1819
381.698	5.11426
386.495	13.2725
391.29	10.6171
396.082	91.7139
400.872	229.885
405.659	505.067
410.443	733.241
415.225	718.398
420.005	901.532
424.782	876.666
429.556	434.776
434.328	179.846
439.097	111.864
443.864	20.1871
448.628	38.5779
453.389	3.13269
458.148	12.3768
462.905	28.3478
467.659	31.1558
472.41	72.8572
477.159	114.448
481.905	83.9262
486.649	76.2869
491.39	85.5269
496.129	110.642
500.865	92.6295
505.598	90.8894
510.329	132.893
515.057	218.269
519.783	249.954
524.506	332.511
529.227	684.61
533.945	1116.98
538.661	1506.4
543.374	1000.38
548.084	581.493
552.792	376.216
557.498	384.543
562.2	387.179
566.901	461.651
571.598	603.903
576.293	723.935
580.986	712.747
585.676	900.25
590.363	1375.39
595.048	2129.97
599.731	2629.05
604.41	2459.8
609.088	1647.29
613.762	972.635
618.434	591.783
623.104	373.789
627.771	244.101
632.435	155.262
637.097	100.735
641.756	26.0364
646.413	43.1564
651.067	9.08069
655.719	28.6912
660.368	40.4487
665.014	25.3352
669.658	16.0469
674.299	47.1311
678.938	1.15173
683.574	31.9038
688.208	20.2877
692.839	18.8679
697.468	34.3933
702.094	17.5332
706.717	25.5864
711.338	83.5811
715.956	46.5258
720.572	71.4291
725.185	91.3123
729.795	117.229
734.403	95.2096
739.009	129.301
743.611	201.467
748.212	226.661
752.809	230.875
757.405	315.115
761.997	318.389
766.587	404.706
771.174	498.072
775.759	579.498
780.342	708.29
784.921	858.106
789.498	1207.7
794.073	1660.46
798.645	2358.4
803.215	3854.57
807.781	6862.48
812.346	14750.3
816.907	29731
821.467	38823
826.023	25762.7
830.577	14393.2
835.129	10462.2
839.678	10544.6
844.224	14616.2
848.768	23190
853.309	27278
857.847	18928.3
862.383	10398.8
866.917	5397.57
871.448	3020.56
875.976	1881.79
880.502	1167.27
885.025	718.982
889.545	509.944
894.063	311.473
898.579	213.614
903.092	168.325
907.602	244.304
912.11	167.519
916.615	221.058
921.118	159.111
925.618	217.139
930.115	295.633
934.61	407.435
939.102	714.445
943.592	1243.56
948.079	1998.36
952.564	3052.88
957.046	3547.11
961.525	3385.43
966.002	2563.43
970.476	1674.77
974.948	1101.29
979.417	722.989
983.883	450.838
988.347	358.842
992.809	229.994
997.268	224.291
1001.72	168.726
1006.18	80.2949
1010.63	130.992
1015.08	78.812
1019.52	56.7488
1023.97	32.8196
1028.41	20.0239
1032.85	29.3699
1037.28	19.2512
1041.71	26.4175
1046.14	0.933838
1050.57	21.2285
1055	25.6238
1059.42	9.13379
1063.84	10.7644
1068.26	18.2873
1072.67	13.2144
1077.09	9.9729
1081.5	17.2695
1085.9	11.3298
1090.31	31.189
1094.71	41.1799
1099.11	14.5322
1103.51	34.7949
1107.9	50.0247
1112.29	51.2332
1116.68	46.4163
1121.07	45.5732
1125.45	149.697
1129.84	79.7959
1134.21	108.88
1138.59	78.9431
1142.96	125.962
1147.34	117.943
1151.7	108.866
1156.07	89.6936
1160.43	140.394
1164.79	134.663
1169.15	139.919
1173.51	82.5217
1177.86	113.846
1182.21	116.56
1186.56	116.293
1190.91	122.402
1195.25	138.332
1199.59	142.191
1203.93	163.515
1208.26	138.071
1212.6	152.705
1216.92	112.931
1221.25	113.218
1225.58	152.643
1229.9	153.588
1234.22	123.616
1238.54	108.494
1242.85	133.333
1247.16	63.1509
1251.47	77.9409
1255.78	63.7034
1260.08	124.224
1264.38	87.2295
1268.68	36.9136
1272.98	13.5723
1277.28	81.2197
1281.57	66.8821
1285.86	31.4177
1290.14	26.8904
1294.42	31.2568
1298.71	33.5486
1302.98	38.8247
1307.26	20.0903
1311.53	9.3689
1315.8	24.7522
1320.07	47.1948
1324.34	71.7473
1328.6	24.478
1332.86	51.2559
1337.12	70.0969
1341.38	58.9797
1345.63	52.9287
1349.88	0.051514
1354.13	62.947
1358.37	14.929
1362.61	54.9543
1366.85	2.98242
1371.09	108.02
1375.33	90.0701
1379.56	67.1309
1383.79	12.7927
1388.01	41.2844
1392.24	42.3494
1396.46	54.4241
1400.68	63.23
1404.9	39.3638
1409.11	86.5356
1413.32	64.0054
1417.53	56.4443
1421.74	68.2456
1425.94	77.1331
1430.14	66.4939
1434.34	88.814
1438.54	29.8115
1442.73	75.8401
1446.92	88.2434
1451.11	108.632
1455.3	106.099
1459.48	85.0271
1463.66	92.1377
1467.84	79.4292
1472.01	52.8923
1476.19	87.2903
1480.36	135.413
1484.53	76.7012
1488.69	82.9148
1492.85	66.3494
1497.01	96.0254
1501.17	51.7302
1505.33	38.4199
1509.48	65.1318
1513.63	67.907
1517.78	68.8354
1521.92	103.843
1526.06	42.3752
1530.2	102.157
1534.34	2.80786
1538.47	9.56299
1542.6	42.4133
1546.73	48.2871
1550.86	110.966
1554.98	76.4304
1559.11	24.5906
1563.22	52.355
