Measurement: Raman, 514 nm, ccw, Raman Data Processed
Mineral: Forsterite
Rruff sample: R060551
Ideal chemistry: Mg_2_SiO_4_
Locality: Kohiston, Pakistan
Source: Gemological Institute of America
Description: Pale green fragment
Measured chemistry: (Mg_1.82_Fe_0.18_)_Î£=2_Si_1.00_O_4_; trace amounts of Mn
Pin_id: M00884
Orientation: Laser parallel to a* (1 0 0). Fiducial mark perpendicular to laser is parallel to c [0 0 1]
Raman shift (cm-1)	intensity
96.53	0
101.5	27.9032
106.467	80.9448
111.431	39.1455
116.392	159.376
121.35	23.8072
126.304	6.86218
131.256	21.535
136.205	33.2974
141.15	122.649
146.092	68.2634
151.032	82.8938
155.968	107.529
160.901	82.1366
165.831	80.584
170.758	186.741
175.682	138.127
180.603	198.729
185.521	142.954
190.436	162.192
195.348	202.65
200.256	162.76
205.162	237.249
210.065	513.662
214.964	896.409
219.861	1849.74
224.754	2309.3
229.645	1723.04
234.532	1119.95
239.417	699.004
244.299	395.988
249.177	195.577
254.053	92.2496
258.925	72.7771
263.795	68.8296
268.661	8.31982
273.525	66.2109
278.385	115.247
283.243	166.8
288.097	283.382
292.949	451.473
297.797	1190.8
302.643	1979.34
307.486	1669.9
312.326	1260.38
317.162	1579.19
321.996	1944.75
326.827	3042.62
331.655	2907.44
336.48	2592.1
341.302	2164.76
346.121	1064.54
350.937	533.409
355.75	276.231
360.561	369.519
365.368	772.399
370.172	1785.3
374.974	1542.26
379.773	742.286
384.568	233.477
389.361	71.846
394.151	26.4929
398.938	90.4304
403.722	374.623
408.503	884.962
413.282	599.532
418.057	415.079
422.829	346.829
427.599	289.832
432.366	197.009
437.13	137.139
441.891	85.1848
446.649	15.1245
451.404	44.1558
456.157	19.8525
460.906	7.4707
465.653	32.2978
470.397	6.89819
475.138	43.8613
479.876	39.648
484.611	24.2441
489.344	62.616
494.073	44.7778
498.8	37.7895
503.524	56.7312
508.245	148.3
512.963	208.027
517.679	210.935
522.392	363.368
527.101	513.473
531.808	943.423
536.513	2049.53
541.214	4179.48
545.913	4480.47
550.609	2015.49
555.302	933.427
559.992	619.723
564.679	425.332
569.364	580.202
574.046	784.418
578.725	1149.38
583.401	1995.77
588.075	3776.76
592.746	4312.4
597.414	2466.43
602.079	1476.14
606.741	1233.54
611.401	1068.38
616.058	753.107
620.712	503.347
625.364	361.275
630.012	286.97
634.658	138.258
639.302	115.29
643.942	120.645
648.58	53.0906
653.215	28.2087
657.847	68.9072
662.477	15.1836
667.104	4.21216
671.728	87.1931
676.349	7.97583
680.968	80.4331
685.584	6.58862
690.197	50.6873
694.808	46.5286
699.416	14.6196
704.021	78.5601
708.624	61.5432
713.223	43.7578
717.821	55.7627
722.415	32.2109
727.007	10.6045
731.596	161.047
736.182	152.61
740.766	193.264
745.347	211.069
749.925	279.115
754.501	369.287
759.074	450.545
763.645	540.934
768.212	672.502
772.778	804.188
777.34	893.943
781.9	1157.75
786.457	1344.42
791.012	1704.91
795.563	2188.05
800.113	3282.16
804.659	4807.24
809.203	8130.64
813.745	15701.3
818.283	35688.7
822.82	71638.3
827.353	59640.6
831.884	30347
836.412	18835.1
840.938	17350.6
845.461	23416.7
849.981	42843.4
854.499	74063.8
859.015	66784.7
863.527	33234
868.037	15684.8
872.545	8568.16
877.05	5544.16
881.552	3838.47
886.052	2870.01
890.549	2070.34
895.044	1748.63
899.536	1688.37
904.025	2009.43
908.512	2952.71
912.996	6280.98
917.478	15143.3
921.957	13650.3
926.434	4801.88
930.908	2468.78
935.38	2101.24
939.849	2499.45
944.315	3361.03
948.779	4716.99
953.24	7275.49
957.699	10692.5
962.156	12707.8
966.609	9874.9
971.061	5822.01
975.51	2891.9
979.956	1452.44
984.399	764.415
988.841	448.75
993.279	277.402
997.716	196.359
1002.15	179.611
1006.58	4.8584
1011.01	10.9441
1015.43	47.9243
1019.86	26.0469
1024.28	43.1277
1028.7	13.5681
1033.12	19.2019
1037.53	10.9231
1041.94	100.057
1046.35	44.2815
1050.76	7.56811
1055.16	38.0579
1059.56	131.684
1063.96	1.50415
1068.36	25.4627
1072.75	109.772
1077.14	78.5566
1081.53	1.74951
1085.92	10.6758
1090.3	41.531
1094.68	91.3013
1099.06	19.0264
1103.44	124.676
1107.81	198.299
1112.18	198.883
1116.55	177.416
1120.92	268.712
1125.29	172.727
1129.65	199.683
1134.01	186.973
1138.37	268.607
1142.72	220.016
1147.07	284.18
1151.42	236.119
1155.77	348.964
1160.12	405.685
1164.46	349.32
1168.8	269.54
1173.14	318.988
1177.47	244.558
1181.81	264.278
1186.14	198.76
1190.46	258.044
1194.79	243.761
1199.12	297.585
1203.44	294.814
1207.76	236.022
1212.07	305.633
1216.39	263.288
1220.7	355.7
1225.01	260.386
1229.31	313.866
1233.62	320.167
1237.92	250.354
1242.22	259.426
1246.52	211.135
1250.81	202.231
1255.11	122.964
1259.4	119.585
1263.68	197.016
1267.97	102.501
1272.26	28.801
1276.54	83.0466
1280.82	122.278
1285.09	59.397
1289.37	50.7114
1293.64	128.913
1297.91	32.6084
1302.17	121.66
1306.44	42.8372
1310.7	18.9724
1314.96	10.0464
1319.22	107.068
1323.47	67.1274
1327.73	90.2815
1331.98	41.4966
1336.23	47.7957
1340.47	114.153
1344.72	133.571
1348.96	59.9578
1353.2	181.34
1357.44	175.683
1361.67	121.991
1365.9	102.243
1370.14	133.441
1374.36	42.5886
1378.59	178.695
1382.81	68.7683
1387.03	158.811
1391.25	78.8296
1395.47	66.8281
1399.68	102.413
1403.9	117.391
1408.11	62.8794
1412.31	96.9556
1416.52	126.085
1420.72	136.712
1424.92	124.964
1429.12	247.804
1433.32	118.931
1437.51	260.854
1441.7	261.455
1445.89	262.272
1450.08	260.662
1454.27	221.003
1458.45	206.95
1462.63	284.836
1466.81	116.999
1470.99	232.723
1475.16	90.375
1479.33	183.953
1483.5	132.458
1487.67	143.885
1491.83	54.2412
1496	97.5523
1500.16	135.202
1504.32	130.207
1508.47	130.324
1512.63	59.5498
1516.78	106.938
1520.93	34.5806
1525.08	145.408
1529.22	205.395
1533.37	20.4111
1537.51	120.079
1541.64	117.944
1545.78	10.1816
1549.92	39.8613
1554.05	87.0615
1558.18	14.0903
1562.31	72.8897
1566.43	26.2285
1570.56	37.9839
1574.68	36.7647
1578.8	0
