Measurement: Raman, 514 nm, depolarized, Raman Data Processed
Mineral: Forsterite
Rruff sample: R040057
Ideal chemistry: Mg_2_SiO_4_
Locality: Trudy's mine, San Carlos, Gila County, Arizona, USA
Source: Bob Downs
Description: Dark green crystal fragments from xenoliths in a basalt flow
Measured chemistry: (Mg_1.67_Fe_0.32_Ni_0.01_)_Î£=2_Si_1.00_O_4_; trace amounts of Mn and Ca
Pin_id: L00065
Orientation: Laser parallel to -a* (-1 0 0). Fiducial mark perpendicular to laser is parallel to c [0 0 1]
Raman shift (cm-1)	intensity
91.981	0
96.161	45.018
100.34	0.722
104.516	104.222
108.691	90.65
112.864	137.95
117.034	207.91
121.203	132.151
125.369	32.219
129.534	67.555
133.696	14.742
137.857	81.322
142.016	74.681
146.172	103.305
150.327	42.165
154.48	8.195
158.63	43.342
162.779	46.566
166.926	1.965
171.07	38.285
175.213	40.574
179.354	59.927
183.493	120.509
187.63	143.568
191.765	180.685
195.898	215.406
200.029	292.076
204.158	443.687
208.285	728.221
212.41	1043.66
216.533	1237.01
220.654	1091.28
224.773	899.456
228.891	789.561
233.006	640.601
237.119	464.928
241.231	346.104
245.34	275.478
249.448	119.017
253.553	113.312
257.657	107.874
261.758	52.72
265.858	20.034
269.956	85.577
274.052	118.833
278.146	161.96
282.237	242.669
286.327	335.884
290.416	609.547
294.502	989.015
298.586	1295.93
302.668	1150.64
306.749	866.937
310.827	877.846
314.903	1091.87
318.978	1515.54
323.051	1755.18
327.121	1536.03
331.19	1487.8
335.257	1340.96
339.322	935.698
343.385	567.852
347.446	299.897
351.505	208.033
355.563	220.227
359.618	241.409
363.672	329.594
367.723	419.791
371.773	244.041
375.821	140.227
379.866	75.964
383.91	25.446
387.952	44.636
391.992	49.918
396.031	98.587
400.067	123.928
404.101	265.071
408.134	157.895
412.165	128.532
416.193	73.023
420.22	97.348
424.245	133.448
428.268	121.239
432.289	107.049
436.309	118.678
440.326	59.123
444.342	57.36
448.355	8.384
452.367	53.134
456.377	43.529
460.385	40.587
464.391	85.419
468.395	111.247
472.398	91.074
476.398	116.967
480.397	120.133
484.394	124.339
488.389	127.697
492.382	195.915
496.373	74.424
500.362	175.73
504.349	219.515
508.335	261.372
512.319	317.314
516.3	401.212
520.28	466.926
524.259	687.556
528.235	913.572
532.209	1572.64
536.182	2802.19
540.152	3299.92
544.121	2048.8
548.088	1038.64
552.053	565.855
556.017	392.554
559.978	312.286
563.938	265.037
567.895	390.466
571.851	353.605
575.805	499.175
579.758	843.087
583.708	1122.84
587.657	1495.89
591.603	971.145
595.548	680.184
599.491	674.631
603.432	623.212
607.372	585.033
611.309	501.07
615.245	311.278
619.179	276.113
623.111	243.965
627.041	249.796
630.97	183.552
634.896	40.107
638.821	11.434
642.744	27.32
646.665	80.244
650.584	45.835
654.502	49.175
658.418	16.321
662.331	70.704
666.244	19.092
670.154	14.972
674.062	2.369
677.969	11.9
681.874	0.196
685.777	54.74
689.678	28.704
693.577	9.95
697.475	7.527
701.371	54.866
705.265	36.072
709.157	107.237
713.047	34.348
716.936	63.381
720.823	94.333
724.708	121.208
728.591	115.015
732.472	139.761
736.352	198.462
740.23	262.125
744.106	277.749
747.98	375.344
751.853	309.92
755.723	429.486
759.592	534.078
763.459	633.714
767.325	660.427
771.188	740.253
775.05	900.15
778.91	1069.12
782.768	1166.92
786.625	1366.55
790.479	1676.23
794.332	2120.03
798.183	2586.1
802.033	3695.51
805.88	5551.26
809.726	8972.02
813.57	16343.3
817.413	32512.3
821.253	48485.7
825.092	38086.6
828.929	23766.6
832.764	16441.4
836.598	14386.9
840.429	15947
844.259	21318.1
848.088	33163.1
851.914	47518
855.739	44757.4
859.562	28251.1
863.383	16563.4
867.203	9918.97
871.02	6300.77
874.836	4479.8
878.65	3302.05
882.463	2551.53
886.274	1963.24
890.083	1698.18
893.89	1488.35
897.695	1417.76
901.499	1498.4
905.301	1814.32
909.102	2380.36
912.9	4118.09
916.697	6635.77
920.492	5111.62
924.285	2839.87
928.077	1962.17
931.867	1902.06
935.655	2029.87
939.442	2635.98
943.226	3424.79
947.009	4448.66
950.791	5827.61
954.57	6979.89
958.348	6964.65
962.124	5828.97
965.899	4515.27
969.671	3110.43
973.442	1966.2
977.211	1163.38
980.979	795.994
984.745	654.347
988.509	524.469
992.271	346.023
996.032	276.894
999.791	371.118
1003.55	157.609
1007.3	100.339
1011.06	117.342
1014.81	57.734
1018.56	24.353
1022.31	117.192
1026.06	125.203
1029.8	72.576
1033.55	121.917
1037.29	85.385
1041.03	201.968
1044.77	364.757
1048.5	460.812
1052.24	38.676
1055.97	85.805
1059.7	38.023
1063.43	20.71
1067.16	85.582
1070.89	40.94
1074.61	40.371
1078.34	66.836
1082.06	70.315
1085.78	100.84
1089.5	27.584
1093.21	67.879
1096.93	74.416
1100.64	110.105
1104.35	82.072
1108.06	94.227
1111.77	56.176
1115.48	9.422
1119.18	46.221
1122.89	194.114
1126.59	69.024
1130.29	121.034
1133.99	114.077
1137.68	98.884
1141.38	53.412
1145.07	98.83
1148.76	74.82
1152.45	201.126
1156.14	13.981
1159.83	153.581
1163.51	164.717
1167.19	134.812
1170.88	167.407
1174.56	127.458
1178.23	82.206
1181.91	172.832
1185.59	127.479
1189.26	148.284
1192.93	156.963
1196.6	170.151
1200.27	199.022
1203.94	200.252
1207.6	218.337
1211.27	217.249
1214.93	402.418
1218.59	257.787
1222.25	324.529
1225.9	281.053
1229.56	244.604
1233.21	217.31
1236.86	254.46
1240.51	214.089
1244.16	135.594
1247.81	181.301
1251.45	106.714
1255.1	74.208
1258.74	118.799
1262.38	172.87
1266.02	65.171
1269.66	98.149
1273.29	87.228
1276.93	52.007
1280.56	65.16
1284.19	77.606
1287.82	16.776
1291.45	8.347
1295.07	44.269
1298.7	122.65
1302.32	69.161
1305.94	25.651
1309.56	119.151
1313.18	12.604
1316.8	63.378
1320.41	88.143
1324.02	54.45
1327.63	0.212
1331.24	133.916
1334.85	83.866
1338.46	37.631
1342.06	105.223
1345.67	112.656
1349.27	99.943
1352.87	141.107
1356.47	176.185
1360.07	248.189
1363.66	179.11
1367.25	162.977
1370.85	261.736
1374.44	253.795
1378.03	192.405
1381.61	126.553
1385.2	218.942
1388.78	210.488
1392.37	187.365
1395.95	221.004
1399.53	191.208
1403.1	151.258
1406.68	167.538
1410.26	193.173
1413.83	234.185
1417.4	169.442
1420.97	242.475
1424.54	284.668
1428.1	198.793
1431.67	330.728
1435.23	353.168
1438.8	320.245
1442.36	355.03
1445.91	475.69
1449.47	483.268
1453.03	524.458
1456.58	467.987
1460.13	511.95
1463.68	382.275
1467.23	288.789
1470.78	314.827
1474.33	268.799
1477.87	218.173
1481.42	241.81
1484.96	260.535
1488.5	172.458
1492.04	163.877
1495.57	127.257
1499.11	50.609
1502.64	20.408
1506.17	74.527
1509.71	138.119
1513.23	144.411
1516.76	28.327
1520.29	0.188
