Measurement: Raman, 514 nm, ccw, Raman Data Processed
Mineral: Forsterite
Rruff sample: R060551
Ideal chemistry: Mg_2_SiO_4_
Locality: Kohiston, Pakistan
Source: Gemological Institute of America
Description: Pale green fragment
Measured chemistry: (Mg_1.82_Fe_0.18_)_Î£=2_Si_1.00_O_4_; trace amounts of Mn
Pin_id: M00884
Orientation: Laser parallel to a* (1 0 0). Fiducial mark perpendicular to laser is parallel to c [0 0 1]
Raman shift (cm-1)	intensity
96.53	0
101.5	41.6705
106.467	79.9696
111.431	70.7003
116.392	124.614
121.35	80.2732
126.304	62.7537
131.256	125.793
136.205	187.582
141.15	338.801
146.092	392.922
151.032	483.495
155.968	471.27
160.901	397.062
165.831	362.706
170.758	250.494
175.682	261.906
180.603	155.361
185.521	304.775
190.436	347.299
195.348	560.971
200.256	624.826
205.162	746.903
210.065	1335.43
214.964	2447.18
219.861	3994.08
224.754	4293.14
229.645	2687.34
234.532	1564.65
239.417	856.065
244.299	396.51
249.177	166.977
254.053	68.1172
258.925	60.365
263.795	17.6844
268.661	33.5863
273.525	140.97
278.385	201.761
283.243	365.902
288.097	680.345
292.949	1554.05
297.797	3603.97
302.643	6435.09
307.486	4328.38
312.326	2161.96
317.162	1769.97
321.996	2549.63
326.827	3439.36
331.655	3159.14
336.48	3553.96
341.302	3213.84
346.121	1904.73
350.937	934.945
355.75	526.846
360.561	430.869
365.368	474.755
370.172	377.044
374.974	275.577
379.773	124.656
384.568	135.035
389.361	19.207
394.151	155.218
398.938	81.4034
403.722	27.2773
408.503	298.195
413.282	681.341
418.057	1232.66
422.829	863.004
427.599	557.256
432.366	395.445
437.13	324.463
441.891	255.014
446.649	174.097
451.404	43.8126
456.157	30.8528
460.906	87.5217
465.653	81.8693
470.397	139.963
475.138	163.792
479.876	179.347
484.611	118.618
489.344	71.5953
494.073	139.262
498.8	133.614
503.524	190.792
508.245	181.701
512.963	315.41
517.679	378.347
522.392	543.825
527.101	727.079
531.808	1167.41
536.513	2211.07
541.214	4374.07
545.913	4102.62
550.609	1537.52
555.302	667.659
559.992	391.733
564.679	273.392
569.364	295.259
574.046	350.754
578.725	440.639
583.401	791.996
588.075	1232.83
592.746	1188.97
597.414	1022.31
602.079	1461.65
606.741	1836.39
611.401	1741.78
616.058	1118.63
620.712	684.028
625.364	484.952
630.012	379.26
634.658	263.214
639.302	187.881
643.942	117.011
648.58	59.8352
653.215	112.185
657.847	18.0474
662.477	52.4863
667.104	98.0523
671.728	48.456
676.349	116.93
680.968	61.3596
685.584	80.6338
690.197	42.823
694.808	94.7253
699.416	13.7649
704.021	16.9871
708.624	9.69971
713.223	18.0466
717.821	26.1206
722.415	49.1973
727.007	199.304
731.596	271.467
736.182	245.739
740.766	325.218
745.347	391.916
749.925	435.888
754.501	525.13
759.074	640.612
763.645	769.336
768.212	868.334
772.778	1011.63
777.34	1251.24
781.9	1315.95
786.457	1559.2
791.012	1887.55
795.563	2410.64
800.113	3283.7
804.659	4610.81
809.203	7656.32
813.745	14646.3
818.283	33137.6
822.82	61505.6
827.353	50969.7
831.884	31274.3
836.412	26954.4
840.938	33514.6
845.461	57488
849.981	116980
854.499	192255
859.015	167521
863.527	80493.4
868.037	37694.3
872.545	20391.2
877.05	12810
881.552	9018.62
886.052	6598.39
890.549	4615.2
895.044	3564.38
899.536	3007.61
904.025	2820.53
908.512	3057.32
912.996	4588.97
917.478	8187.5
921.957	6653.93
926.434	3721.73
930.908	3327.92
935.38	4139.18
939.849	5415.11
944.315	7737.51
948.779	11058.9
953.24	16895
957.699	24180.3
962.156	26508.5
966.609	19327.1
971.061	10822.5
975.51	5373.27
979.956	2718.8
984.399	1473.15
988.841	869.442
993.279	471.549
997.716	286.131
1002.15	278.228
1006.58	25.7234
1011.01	37.3945
1015.43	30.2803
1019.86	97.9228
1024.28	28.7144
1028.7	59.7295
1033.12	103.142
1037.53	82.886
1041.94	23.9292
1046.35	47.2261
1050.76	58.7527
1055.16	86.5017
1059.56	64.405
1063.96	0.335693
1068.36	90.9507
1072.75	108.019
1077.14	54.9448
1081.53	2.6001
1085.92	10.1909
1090.3	36.4399
1094.68	4.73267
1099.06	56.5239
1103.44	15.6267
1107.81	131.502
1112.18	70.1848
1116.55	116.666
1120.92	131.92
1125.29	189.946
1129.65	109.773
1134.01	237.843
1138.37	289.122
1142.72	320.132
1147.07	347.13
1151.42	448.204
1155.77	447.575
1160.12	487.405
1164.46	443.972
1168.8	516.615
1173.14	453.387
1177.47	378.132
1181.81	268.101
1186.14	297.379
1190.46	295.631
1194.79	288.316
1199.12	308.953
1203.44	263.912
1207.76	261.428
1212.07	300.794
1216.39	337.062
1220.7	327.124
1225.01	297.934
1229.31	352.87
1233.62	310.455
1237.92	337.779
1242.22	260.533
1246.52	191.265
1250.81	212.007
1255.11	139.15
1259.4	80.5056
1263.68	59.5894
1267.97	51.8415
1272.26	91.8242
1276.54	8.25732
1280.82	10.8293
1285.09	44.4026
1289.37	10.1418
1293.64	12.8762
1297.91	8.70898
1302.17	104.221
1306.44	16.4558
1310.7	28.5366
1314.96	5.78979
1319.22	63.6313
1323.47	76.8916
1327.73	47.2119
1331.98	93.7012
1336.23	58.4741
1340.47	78.281
1344.72	127.076
1348.96	180.93
1353.2	137.856
1357.44	159.801
1361.67	181.788
1365.9	201.672
1370.14	230.878
1374.36	94.0417
1378.59	169.548
1382.81	44.9504
1387.03	97.1748
1391.25	75.6868
1395.47	77.731
1399.68	105.369
1403.9	63.4114
1408.11	73.6714
1412.31	19.4221
1416.52	69.677
1420.72	58.3501
1424.92	98.6128
1429.12	66.2869
1433.32	35.2241
1437.51	74.126
1441.7	153.894
1445.89	176.937
1450.08	201.806
1454.27	234.266
1458.45	219.742
1462.63	191.18
1466.81	189.655
1470.99	167.023
1475.16	135.235
1479.33	144.293
1483.5	151.119
1487.67	217.91
1491.83	160.449
1496	221.158
1500.16	117.558
1504.32	176.25
1508.47	50.8718
1512.63	112.882
1516.78	182.018
1520.93	90.2483
1525.08	160.577
1529.22	129.035
1533.37	40.7185
1537.51	46.7488
1541.64	74.2344
1545.78	28.1516
1549.92	86.512
1554.05	108.44
1558.18	9.86548
1562.31	91.8013
1566.43	34.739
1570.56	80.3413
1574.68	50.8701
1578.8	0
