Measurement: Raman, 514 nm, depolarized, Raman Data Processed
Mineral: Forsterite
Rruff sample: R040018
Ideal chemistry: Mg_2_SiO_4_
Locality: Trudy's mine, San Carlos, Gila County, Arizona, USA
Source: Bob Downs
Description: Green fragments from xenoliths in a basalt flow
Measured chemistry: (Mg_1.81_Fe_0.18_Ni_0.01_)_Î£=2_Si_1.00_O_4_; trace amounts of Mn and Ca
Pin_id: M00008
Orientation: Laser parallel to a* (1 0 0). Fiducial mark perpendicular to laser is parallel to b [0 1 0]
Raman shift (cm-1)	intensity
112.168	0
116.339	70.299
120.508	288.876
124.675	163.129
128.84	45.268
133.003	70.68
137.164	35.647
141.323	113.785
145.48	117.722
149.635	59.117
153.788	85.207
157.939	71.582
162.088	98.97
166.235	86.159
170.38	22.083
174.523	42.781
178.664	31.266
182.803	4.642
186.94	31.157
191.076	29.337
195.209	47.13
199.34	50.682
203.47	57.26
207.597	93.727
211.722	171.295
215.846	364.857
219.967	709.42
224.087	933.987
228.204	789.516
232.32	561.917
236.434	433.213
240.545	284.413
244.655	182.622
248.763	89.714
252.869	75.417
256.973	33.771
261.075	8.759
265.175	7.648
269.273	68.917
273.369	14.06
277.463	11.623
281.556	31.847
285.646	58.279
289.734	89.452
293.821	141.213
297.905	497.043
301.988	854.828
306.069	850.06
310.147	475.782
314.224	492.221
318.299	475.846
322.372	732.819
326.443	1254.13
330.512	1192.98
334.579	1013.68
338.645	1007.59
342.708	737.626
346.769	375.648
350.829	197.246
354.887	145.057
358.942	147.603
362.996	146.126
367.048	202.557
371.098	304.325
375.146	260.26
379.192	142.287
383.236	57.316
387.279	35.302
391.319	0.76
395.358	36.095
399.394	10.882
403.429	44.583
407.462	176.253
411.493	157.845
415.522	171.027
419.549	210.618
423.575	167.646
427.598	164.699
431.619	227.899
435.639	196.136
439.657	140.643
443.673	107.069
447.687	95.221
451.699	6.487
455.709	27.167
459.717	53.962
463.724	69.944
467.728	39.771
471.731	46.273
475.732	18.052
479.731	61.518
483.728	1.999
487.723	51.178
491.716	16.219
495.708	51.239
499.697	46.276
503.685	40.421
507.671	42.732
511.655	81.78
515.637	129.852
519.617	172.64
523.596	165.701
527.572	272.6
531.547	376.867
535.52	604.232
539.491	1210.44
543.46	2155.56
547.427	1557.72
551.393	696.68
555.356	366.324
559.318	208.928
563.278	163.503
567.236	206.885
571.192	235.396
575.147	251.733
579.099	283.988
583.05	641.121
586.999	968.141
590.946	1121.05
594.891	854.871
598.834	563.608
602.776	529.241
606.715	559.335
610.653	522.2
614.589	312.406
618.523	289.688
622.456	293.594
626.386	355.665
630.315	221.998
634.242	121.15
638.167	140.252
642.09	164.598
646.012	178.523
649.931	43.022
653.849	31.59
657.765	105.067
661.679	68.442
665.592	29.66
669.502	27.146
673.411	31.248
677.318	2.489
681.223	14.632
685.126	35.531
689.028	3.979
692.927	26.615
696.825	34.538
700.721	35.53
704.616	50.383
708.508	25.143
712.399	49.145
716.288	43.543
720.175	123.96
724.06	117.34
727.944	106.677
731.825	149.118
735.705	112.32
739.584	130.639
743.46	147.95
747.334	172.26
751.207	123.565
755.078	213.884
758.947	258.232
762.815	373.614
766.68	329.045
770.544	343.534
774.406	395.071
778.267	561.654
782.125	591.354
785.982	674.932
789.837	719.622
793.69	920.347
797.542	1181.98
801.391	1526.85
805.239	2175.67
809.085	3141.53
812.93	5013.55
816.772	9490.27
820.613	20166.6
824.452	31651.7
828.29	23248.1
832.125	12617.1
835.959	8219.63
839.791	7302.63
843.621	7836.17
847.45	10882.4
851.277	18528.3
855.102	30447.7
858.925	30045.7
862.746	17516.8
866.566	9293.34
870.384	5462.21
874.2	3431.58
878.015	2604.87
881.828	2517.02
885.639	2138.14
889.448	1459.21
893.256	1156.34
897.061	883.668
900.865	806.571
904.668	807.556
908.468	979.014
912.267	1351.86
916.064	2318.46
919.86	4252.22
923.653	2780.19
927.445	1288.17
931.236	929.223
935.024	877.416
938.811	889.746
942.596	918.213
946.379	1294.82
950.161	1800.38
953.94	2709.33
957.719	3671.69
961.495	4417.84
965.27	3895.88
969.043	2780.19
972.814	1714.83
976.583	1074.65
980.351	583.906
984.117	438.22
987.882	273.455
991.644	112.984
995.405	23.64
999.165	99.652
1002.92	365.154
1006.68	194.531
1010.43	24.08
1014.18	4.262
1017.93	29.548
1021.68	66.623
1025.43	174.369
1029.18	91.624
1032.92	193.973
1036.66	0.245
1040.4	21.153
1044.14	5.009
1047.88	29.765
1051.62	138.524
1055.35	204.399
1059.08	127.083
1062.81	39.818
1066.54	67.176
1070.27	5.171
1073.99	55.921
1077.72	99.062
1081.44	169.268
1085.16	226.566
1088.88	138.899
1092.59	109.317
1096.31	34.231
1100.02	12.214
1103.73	96.658
1107.44	115.085
1111.15	107.53
1114.86	43.912
1118.57	21.261
1122.27	12.599
1125.97	51.211
1129.67	19.506
1133.37	130.859
1137.07	280.065
1140.76	103.514
1144.45	21.07
1148.15	73.03
1151.84	34.162
1155.53	128.234
1159.21	164.012
1162.9	239.916
1166.58	180.355
1170.26	155.421
1173.94	120.11
1177.62	46.036
1181.3	78.314
1184.97	139.873
1188.65	153.699
1192.32	201.137
1195.99	130.366
1199.66	108.798
1203.33	18.4
1206.99	32.263
1210.65	101.663
1214.32	163.732
1217.98	279.22
1221.64	285.846
1225.29	310.089
1228.95	253.3
1232.6	236.793
1236.26	132.663
1239.91	124.68
1243.56	206.723
1247.2	320.988
1250.85	325.743
1254.49	214.559
1258.13	177.14
1261.78	179.225
1265.41	96.017
1269.05	63.359
1272.69	188.02
1276.32	259.952
1279.95	383.905
1283.59	190.921
1287.21	119.973
1290.84	126.686
1294.47	115.709
1298.09	26.142
1301.72	117.751
1305.34	12.496
1308.96	103.033
1312.58	291.384
1316.19	211.491
1319.81	271.947
1323.42	200.874
1327.03	135.645
1330.64	15.921
1334.25	15.194
1337.86	21.438
1341.46	89.637
1345.07	177.674
1348.67	94.834
1352.27	185.897
1355.87	123.68
1359.46	165.868
1363.06	38.593
1366.65	75.335
1370.25	31.853
1373.84	3.974
1377.43	78.01
1381.02	149.429
1384.6	272.954
1388.18	243.406
1391.77	204.778
1395.35	178.093
1398.93	95.985
1402.51	27.025
1406.08	8.026
1409.66	80.576
1413.23	146.456
1416.8	285.924
1420.37	258.991
1423.94	190.956
1427.51	291.55
1431.08	323.791
1434.64	237.494
1438.2	116.612
1441.76	200.71
1445.32	296.414
1448.88	345.9
1452.43	428.233
1455.99	529.955
1459.54	555.812
1463.09	630.656
1466.64	660.496
1470.19	515.614
1473.74	397.34
1477.28	206.551
1480.83	214.159
1484.37	212.576
1487.91	148.013
1491.45	218.95
1494.98	177.865
1498.52	297.231
1502.05	353.572
1505.59	315.373
1509.12	320.773
1512.65	259.691
1516.17	425.593
1519.7	0
