Measurement: Raman, 514 nm, ccw, Raman Data Processed
Mineral: Forsterite
Rruff sample: R060551
Ideal chemistry: Mg_2_SiO_4_
Locality: Kohiston, Pakistan
Source: Gemological Institute of America
Description: Pale green fragment
Measured chemistry: (Mg_1.82_Fe_0.18_)_Î£=2_Si_1.00_O_4_; trace amounts of Mn
Pin_id: M01244
Orientation: Laser parallel to b* (0 1 0). Fiducial mark perpendicular to laser is parallel to c [0 0 1]
Raman shift (cm-1)	intensity
112.672	0
117.632	289.653
122.589	50.8643
127.543	57.1279
132.494	127.393
137.441	52.251
142.386	208.676
147.328	134.379
152.266	259.298
157.202	409.421
162.134	493.229
167.063	433.423
171.99	491.782
176.913	701.993
181.833	425.892
186.75	439.348
191.664	155.186
196.575	64.0781
201.483	65.4629
206.388	212.532
211.29	167.809
216.189	406.737
221.085	830.094
225.977	1235.88
230.867	1349.15
235.754	1171
240.638	899.44
245.518	574.562
250.396	340.019
255.271	166.301
260.143	42.5478
265.011	254.594
269.877	338.079
274.74	261.955
279.6	428.144
284.457	568.986
289.31	1083.83
294.161	2679.3
299.009	6028.7
303.854	9794.9
308.696	6482.65
313.535	3219.95
318.371	2194.09
323.204	2328.72
328.034	2044.72
332.861	1206.91
337.686	708.419
342.507	459.375
347.325	368.006
352.141	327.269
356.953	259.679
361.763	1.27246
366.569	143.418
371.373	126.818
376.174	108.994
380.972	51.5461
385.767	21.5801
390.559	18.5449
395.348	165.964
400.134	312.817
404.918	251.237
409.698	1001.84
414.476	2158.49
419.25	2315.33
424.022	1400.24
428.791	800.209
433.557	329.169
438.32	360.049
443.081	241.821
447.838	54.416
452.593	48.334
457.344	121.353
462.093	30.6221
466.839	155.784
471.582	123.953
476.323	198.908
481.06	108.631
485.795	275.06
490.526	39.793
495.255	209.929
499.981	254.34
504.705	18.5664
509.425	19.9521
514.143	248.144
518.857	68.7939
523.569	70.8047
528.278	257.636
532.985	12.7461
537.688	121.978
542.389	319.565
547.087	505.196
551.782	563.036
556.474	506.139
561.164	702.83
565.851	651.111
570.535	597.65
575.216	1079.73
579.894	1351.37
584.57	1984.34
589.243	2689.76
593.913	4243.54
598.58	7439.62
603.245	12388.7
607.907	14764.6
612.566	10832.4
617.222	6006.91
621.875	3108.96
626.526	1771.44
631.174	1124.76
635.82	859.898
640.462	468.547
645.102	389.359
649.739	342.26
654.373	323.676
659.005	319.482
663.634	24.7324
668.26	64.5762
672.884	77.9844
677.504	202.463
682.122	66.6602
686.738	5.75586
691.35	7.00586
695.96	95.832
700.567	4.04883
705.172	127.344
709.774	59.8613
714.373	201.615
718.969	134.154
723.563	97.8262
728.154	266.693
732.743	314.877
737.328	245.482
741.912	413.596
746.492	459.1
751.07	666.881
755.645	539.963
760.217	969.363
764.787	1137.14
769.354	1180.32
773.918	1111
778.48	1243.2
783.039	1437.95
787.596	1946.48
792.15	2428.81
796.701	3222.09
801.25	4832.79
805.796	7349.44
810.339	12346
814.88	24838
819.418	56166.7
823.953	93908
828.486	66795.5
833.016	33196.6
837.544	21855.6
842.069	21306.6
846.591	32346.3
851.111	62975.8
855.628	100277
860.143	79249.8
864.655	37907.5
869.164	18627
873.671	10707.1
878.176	8032.07
882.677	7069.72
887.176	4451.09
891.673	2467.18
896.167	1506
900.658	900.541
905.147	656.365
909.633	539.514
914.117	544.961
918.598	581.424
923.077	103.736
927.553	323.873
932.026	215.383
936.497	469.559
940.966	845.338
945.431	1444.79
949.895	2856.11
954.355	5807.88
958.814	10448.6
963.269	13299
967.723	11181
972.173	7010.14
976.621	3687.72
981.067	2234.84
985.51	1204.4
989.951	1019.74
994.389	959.193
998.824	701.883
1003.26	697.164
1007.69	354.496
1012.12	324.127
1016.54	335.037
1020.96	193.217
1025.38	371.676
1029.8	168.537
1034.22	271.713
1038.63	93.0391
1043.04	77.5371
1047.45	42.8281
1051.86	42.9043
1056.26	16.1523
1060.66	15.293
1065.06	226.707
1069.45	43.3789
1073.85	36.3887
1078.24	12.8887
1082.63	96.625
1087.01	142.338
1091.4	152.988
1095.78	57.4043
1100.16	60.7266
1104.53	117.012
1108.91	165.269
1113.28	287.731
1117.65	290.644
1122.01	364.723
1126.38	459.672
1130.74	71.5469
1135.1	430.34
1139.45	435.053
1143.81	404.685
1148.16	329.227
1152.51	277.766
1156.86	401.027
1161.2	495.769
1165.54	613.916
1169.88	389.154
1174.22	436.078
1178.56	598.951
1182.89	533.012
1187.22	261.469
1191.55	447.951
1195.87	285.584
1200.19	256.961
1204.52	492.135
1208.83	420.99
1213.15	284.211
1217.46	786.018
1221.78	577.139
1226.08	660.666
1230.39	744.723
1234.69	663.344
1239	480.019
1243.3	653.758
1247.59	370.56
1251.89	553.885
1256.18	268.922
1260.47	390.695
1264.76	323.826
1269.04	345.055
1273.33	238.389
1277.61	301.832
1281.88	261.389
1286.16	18.0332
1290.43	86.2949
1294.7	59.6719
1298.97	201.236
1303.24	107.008
1307.51	73.0508
1311.77	212.447
1316.03	195.424
1320.28	99.1797
1324.54	268.652
1328.79	40.9863
1333.04	67.3516
1337.29	195.635
1341.54	170.906
1345.78	254.51
1350.02	328.447
1354.26	232.703
1358.5	135.164
1362.73	248.834
1366.96	306.356
1371.19	160.791
1375.42	213.201
1379.65	293.769
1383.87	161.603
1388.09	202.684
1392.31	205.012
1396.52	118.594
1400.74	343.443
1404.95	292.58
1409.16	39.0449
1413.37	251.916
1417.57	214.363
1421.77	311.793
1425.97	150.223
1430.17	312.445
1434.37	495.357
1438.56	389.961
1442.75	561.426
1446.94	300.508
1451.13	353.475
1455.31	429.574
1459.5	333.629
1463.68	683.193
1467.85	471.629
1472.03	249.008
1476.2	356.701
1480.37	465.455
1484.54	453.022
1488.71	139.639
1492.88	288.553
1497.04	370.885
1501.2	211.264
1505.36	352.982
1509.51	184.943
1513.66	412.953
1517.82	320.328
1521.97	326.707
1526.11	372.879
1530.26	250.852
1534.4	354.711
1538.54	283.578
1542.68	231.188
1546.82	269.35
1550.95	143.141
1555.08	106.824
1559.21	88.8125
1563.34	130.84
1567.46	185.846
1571.59	175.254
1575.71	7.5
