Measurement: Raman, 514 nm, ccw, Raman Data Processed
Mineral: Forsterite
Rruff sample: R060551
Ideal chemistry: Mg_2_SiO_4_
Locality: Kohiston, Pakistan
Source: Gemological Institute of America
Description: Pale green fragment
Measured chemistry: (Mg_1.82_Fe_0.18_)_Î£=2_Si_1.00_O_4_; trace amounts of Mn
Pin_id: M01244
Orientation: Laser parallel to b* (0 1 0). Fiducial mark perpendicular to laser is parallel to c [0 0 1]
Raman shift (cm-1)	intensity
96.53	0
101.5	108.882
106.467	343.584
111.431	444.316
116.392	517.578
121.35	396.358
126.304	419.81
131.256	406.338
136.205	435.063
141.15	540.125
146.092	517.378
151.032	642.136
155.968	716.293
160.901	659.821
165.831	552.302
170.758	619.444
175.682	470.903
180.603	413.57
185.521	444.011
190.436	560.417
195.348	609.884
200.256	570.962
205.162	736.225
210.065	1183.41
214.964	1985.78
219.861	3112.01
224.754	3357.15
229.645	2351.29
234.532	1436.57
239.417	815.514
244.299	364.959
249.177	213.362
254.053	193.178
258.925	49.5918
263.795	37.8486
268.661	51.7178
273.525	189.134
278.385	93.8477
283.243	324.672
288.097	506.391
292.949	1260.16
297.797	2654.48
302.643	4639.54
307.486	3513.36
312.326	1841.37
317.162	1550.17
321.996	1872.39
326.827	2504.74
331.655	2337.61
336.48	2640.83
341.302	2284.72
346.121	1457.19
350.937	795.453
355.75	539.939
360.561	355.094
365.368	314.246
370.172	345.085
374.974	326.019
379.773	80.9023
384.568	4.34863
389.361	11.2139
394.151	80.4981
398.938	183.55
403.722	64.4404
408.503	219.871
413.282	459.76
418.057	916.116
422.829	575.741
427.599	423.569
432.366	512.361
437.13	633.176
441.891	452.946
446.649	243.633
451.404	11.5654
456.157	52.4678
460.906	82.4502
465.653	39.1455
470.397	98.5371
475.138	215.543
479.876	123.723
484.611	122.482
489.344	99.9531
494.073	104.148
498.8	45.6406
503.524	20.6758
508.245	129.046
512.963	249.188
517.679	284.998
522.392	389.426
527.101	591.991
531.808	829.707
536.513	1515.45
541.214	3096.49
545.913	2918.99
550.609	1309.25
555.302	608.135
559.992	328.441
564.679	376.817
569.364	400.327
574.046	558.969
578.725	750.404
583.401	963.401
588.075	1398.89
592.746	949.64
597.414	740.482
602.079	1029.76
606.741	1422.49
611.401	1601.46
616.058	943.063
620.712	584.223
625.364	492.578
630.012	301.219
634.658	212.91
639.302	84.8066
643.942	172.508
648.58	5.73144
653.215	117.877
657.847	71.1758
662.477	193.74
667.104	147.205
671.728	116.341
676.349	30.3379
680.968	110.001
685.584	80.8887
690.197	88.6328
694.808	76.8936
699.416	47.9277
704.021	100.43
708.624	75.5039
713.223	63.4785
717.821	21.3594
722.415	52.1758
727.007	26.0039
731.596	156.844
736.182	282.625
740.766	271.029
745.347	305.44
749.925	411.018
754.501	568.782
759.074	553.848
763.645	689.119
768.212	907.646
772.778	886.427
777.34	982.285
781.9	1084.15
786.457	1170.83
791.012	1575.81
795.563	1894.7
800.113	2355.22
804.659	3581.25
809.203	5820.9
813.745	11083.5
818.283	24446.6
822.82	46551.4
827.353	41410.2
831.884	25098.8
836.412	20762.8
840.938	25182
845.461	41668.1
849.981	84176.4
854.499	144675
859.015	130655
863.527	65576.1
868.037	30862
872.545	17317.9
877.05	12136
881.552	10253.1
886.052	7561.29
890.549	4533.5
895.044	3325.14
899.536	2495.57
904.025	2292.79
908.512	1845.79
912.996	2320.5
917.478	3536.73
921.957	3218.18
926.434	2345.87
930.908	2228.49
935.38	3175.59
939.849	3971.92
944.315	5679.97
948.779	8100.6
953.24	12439.5
957.699	18186.4
962.156	20502.5
966.609	15378.5
971.061	8894.42
975.51	4400.92
979.956	2293.65
984.399	1093.59
988.841	636.013
993.279	332.949
997.716	410.232
1002.15	308.011
1006.58	35.2861
1011.01	10.6963
1015.43	77.4853
1019.86	53.1055
1024.28	67.2012
1028.7	6.52148
1033.12	155.776
1037.53	60.2773
1041.94	90.1982
1046.35	47.2568
1050.76	53.0732
1055.16	38.8779
1059.56	52.8145
1063.96	87.7344
1068.36	148.106
1072.75	70.9893
1077.14	24.6865
1081.53	49.5098
1085.92	41.0742
1090.3	80.3535
1094.68	151.594
1099.06	130.074
1103.44	6.17773
1107.81	115.375
1112.18	218.547
1116.55	248.674
1120.92	297.758
1125.29	247.359
1129.65	160.293
1134.01	214.383
1138.37	248.082
1142.72	217.769
1147.07	415.676
1151.42	390.826
1155.77	447.328
1160.12	564.354
1164.46	423.242
1168.8	530.082
1173.14	514.662
1177.47	241.185
1181.81	261.84
1186.14	371.682
1190.46	228.185
1194.79	301.35
1199.12	413.609
1203.44	185.119
1207.76	237.908
1212.07	290.117
1216.39	443.394
1220.7	105.938
1225.01	467.875
1229.31	276.728
1233.62	284.315
1237.92	412.402
1242.22	362.562
1246.52	210.018
1250.81	352.492
1255.11	38.8535
1259.4	183.283
1263.68	247.58
1267.97	236.57
1272.26	215.525
1276.54	39.4473
1280.82	177.184
1285.09	20.6113
1289.37	144.941
1293.64	61.1758
1297.91	155.397
1302.17	250.613
1306.44	202.846
1310.7	75.1934
1314.96	78.6348
1319.22	129.277
1323.47	194.941
1327.73	106.084
1331.98	103.463
1336.23	150.135
1340.47	92.2285
1344.72	202.484
1348.96	158.92
1353.2	96.418
1357.44	352.957
1361.67	261.549
1365.9	269.244
1370.14	319.004
1374.36	329.852
1378.59	244.787
1382.81	162.168
1387.03	239.387
1391.25	123.344
1395.47	174.93
1399.68	338.19
1403.9	6.60156
1408.11	330.629
1412.31	46.873
1416.52	123.203
1420.72	312.643
1424.92	170.207
1429.12	155.328
1433.32	108.043
1437.51	368.914
1441.7	204.871
1445.89	286.127
1450.08	363.004
1454.27	448.932
1458.45	364.998
1462.63	324.543
1466.81	232.09
1470.99	404.76
1475.16	337.549
1479.33	450.465
1483.5	380.6
1487.67	180.065
1491.83	262.791
1496	240.1
1500.16	241.225
1504.32	255.647
1508.47	337.176
1512.63	551.514
1516.78	297.986
1520.93	292.147
1525.08	82.1035
1529.22	235.688
1533.37	201.006
1537.51	259.162
1541.64	180.19
1545.78	305.188
1549.92	127.559
1554.05	224.588
1558.18	183.685
1562.31	414.473
1566.43	43.2559
1570.56	209.1
1574.68	120.922
1578.8	0
