Measurement: Raman, 514 nm, depolarized, Raman Data Processed
Mineral: Forsterite
Rruff sample: R060535
Ideal chemistry: Mg_2_SiO_4_
Locality: unknown
Source: Gemological Institute of America
Description: Transparent brown gemstone
Measured chemistry: (Mg_1.81_Fe_0.18_Ni_0.01_)_Î£=2_Si_1.00_O_4_
Pin_id: L00998
Orientation: Laser parallel to c* (0 0 1). Fiducial mark perpendicular to laser is parallel to a [1 0 0]
Raman shift (cm-1)	intensity
175.467	0
180.372	26.0289
185.274	72.7628
190.174	53.3881
195.072	37.3234
199.967	2.32886
204.859	26.9259
209.749	77.6195
214.637	222.697
219.521	588.019
224.404	519.469
229.284	370.639
234.161	280.932
239.036	182.865
243.908	143.153
248.777	114.115
253.645	59.8713
258.509	123.411
263.371	125.71
268.231	59.1073
273.088	107.837
277.942	127.81
282.794	141.915
287.643	359.721
292.49	739.265
297.335	1373.05
302.176	1516.88
307.015	879.698
311.852	674.783
316.686	745.203
321.518	942.687
326.347	938.434
331.173	691.98
335.997	587.218
340.819	310.589
345.638	188.911
350.454	141.083
355.268	31.1081
360.079	44.0908
364.888	83.0221
369.694	53.8938
374.498	50.6958
379.299	34.4412
384.097	22.8827
388.893	11.2376
393.686	2.64905
398.477	42.9951
403.266	63.6116
408.051	218.242
412.835	441.917
417.615	465.637
422.394	559.255
427.169	807.577
431.942	527.505
436.713	247.185
441.481	70.7892
446.246	76.3114
451.009	45.7379
455.769	71.0614
460.527	113.246
465.282	117.273
470.035	146.176
474.785	100.95
479.532	158.598
484.277	127.12
489.02	242.518
493.76	232.799
498.497	198.858
503.232	150.946
507.964	204.838
512.693	232.221
517.421	226.63
522.145	319.111
526.867	336.019
531.587	651.822
536.303	950.86
541.018	1257.34
545.729	812.85
550.439	422.982
555.145	359.072
559.849	338.868
564.551	323.83
569.25	404.6
573.946	530.185
578.64	575.801
583.331	660.797
588.02	776.589
592.706	1147.28
597.39	1859.52
602.071	2584.94
606.749	2408.09
611.425	1529.28
616.099	864.33
620.769	513.222
625.438	387.962
630.103	229.553
634.766	160.999
639.427	83.3025
644.085	84.4663
648.74	76.4978
653.393	57.4053
658.044	19.1834
662.691	7.7168
667.336	40.0161
671.979	22.1118
676.619	24.5855
681.257	39.4382
685.892	25.6711
690.524	18.2095
695.154	10.1248
699.781	27.6609
704.406	67.3721
709.028	118.043
713.647	167.683
718.264	226.297
722.878	246.895
727.49	418.487
732.1	466.094
736.706	659.716
741.31	850.382
745.912	1145.08
750.511	1424.81
755.107	1354.58
759.701	1006.41
764.292	706.282
768.881	724.221
773.467	695.266
778.051	791.37
782.632	761.44
787.21	792.777
791.786	923.287
796.359	1288.57
800.93	1843.53
805.498	3002.64
810.064	5683.16
814.627	12726.4
819.187	26256.1
823.745	28902.7
828.301	15864.9
832.853	8710.44
837.403	6592.26
841.951	7078.26
846.496	11435.5
851.038	20429.9
855.578	23134.6
860.116	13865.5
864.65	6825.54
869.183	3503.84
873.712	1978.35
878.239	1334.08
882.764	903.022
887.285	527.448
891.805	314.502
896.322	185.43
900.836	124.236
905.347	126.206
909.856	113.612
914.363	184.028
918.867	197.934
923.368	123.749
927.867	56.9336
932.363	158.404
936.856	202.871
941.347	436.104
945.836	709.411
950.322	1313.81
954.805	2422.81
959.286	3673.5
963.764	3648.68
968.239	2482.77
972.712	1451.16
977.183	716.063
981.65	387.641
986.116	272.736
990.578	238.9
995.038	114.214
999.496	165.41
1003.95	175.654
1008.4	101.084
1012.85	125.885
1017.3	13.2771
1021.75	90.0876
1026.19	92.1582
1030.63	96.853
1035.06	28.2395
1039.5	26.4634
1043.93	31.7952
1048.36	13.0837
1052.79	18.136
1057.21	28.9334
1061.63	2.42188
1066.05	21.7493
1070.47	19.0122
1074.88	26.0747
1079.29	2.6919
1083.7	70.8684
1088.11	13.2964
1092.51	11.3674
1096.91	6.28223
1101.31	7.89819
1105.7	75.2886
1110.1	21.5439
1114.49	39.6435
1118.88	42.5435
1123.26	100.302
1127.64	104.919
1132.02	137.401
1136.4	99.7358
1140.78	38.9141
1145.15	82.9299
1149.52	88.73
1153.89	58.5488
1158.25	52.1594
1162.61	73.9048
1166.97	86.1218
1171.33	83.0369
1175.68	199.199
1180.04	209.02
1184.39	199.263
1188.73	216.711
1193.08	104.305
1197.42	71.9334
1201.76	103.728
1206.1	123.928
1210.43	213.019
1214.76	143.017
1219.09	166.569
1223.41	163.086
1227.74	202.955
1232.06	89.5215
1236.38	284.354
1240.69	155.054
1245.01	198.061
1249.32	227.663
1253.63	77.1716
1257.93	179.289
1262.23	132.589
1266.54	134.658
1270.83	70.3091
1275.13	150.569
1279.42	35.1777
1283.71	76.6797
1288	20.7031
1292.28	143.14
1296.57	102.269
1300.85	1.26416
1305.12	43.0952
1309.4	82.7539
1313.67	66.4839
1317.94	42.0806
1322.21	94.8452
1326.47	24.6484
1330.73	42.6851
1334.99	47.7974
1339.25	164.252
1343.5	8.25
1347.75	62.1987
1352	37.5503
1356.25	121.841
1360.49	44.123
1364.73	155.327
1368.97	71.4067
1373.21	3.38574
1377.44	89.311
1381.67	125.165
1385.9	21.938
1390.13	8.63525
1394.35	121.268
1398.57	7.8457
1402.79	37.2642
1407	51.8457
1411.22	74.2749
1415.43	1.56299
1419.63	26.6006
1423.84	114.871
1428.04	93.0644
1432.24	130.67
1436.44	109.563
1440.63	205.492
1444.83	295.671
1449.02	24.4477
1453.2	280.951
1457.39	171.457
1461.57	83.8769
1465.75	133.05
1469.93	231.832
1474.1	172.386
1478.27	126.54
1482.44	112.986
1486.61	221.067
1490.77	167.66
1494.93	275.753
1499.09	138.015
1503.25	205.283
1507.4	165.406
1511.55	230.366
1515.7	165.814
1519.85	201.222
1523.99	85.6694
1528.13	31.4126
1532.27	103.781
1536.4	67.6084
1540.54	90.9429
1544.67	135.95
1548.8	20.4922
1552.92	61.0991
1557.05	32.3682
1561.16	54.7769
1565.28	0
