Measurement: Raman, 514 nm, depolarized, Raman Data Processed
Mineral: Forsterite
Rruff sample: R060535
Ideal chemistry: Mg_2_SiO_4_
Locality: unknown
Source: Gemological Institute of America
Description: Transparent brown gemstone
Measured chemistry: (Mg_1.81_Fe_0.18_Ni_0.01_)_Î£=2_Si_1.00_O_4_
Pin_id: L01261
Orientation: Laser parallel to b* (0 1 0). Fiducial mark perpendicular to laser is parallel to c [0 0 1]
Raman shift (cm-1)	intensity
200.256	0
205.16	8.70312
210.061	104.487
214.959	382.803
219.854	580.832
224.747	692.607
229.636	499.828
234.523	389.488
239.407	279.231
244.288	104.035
249.166	14.3547
254.042	1.58569
258.915	73.8179
263.784	12.2571
268.651	54.1641
273.516	109.953
278.377	83.834
283.236	121.719
288.092	473.493
292.945	1004.4
297.795	2098.98
302.642	2795.19
307.487	1778.6
312.329	891.033
317.168	827.491
322.004	735.94
326.838	770.31
331.668	583.774
336.496	435.477
341.321	275.533
346.144	134.438
350.963	86.9353
355.78	114.611
360.594	15.7524
365.405	98.0019
370.214	89.0417
375.019	8.49463
379.822	49.9338
384.622	43.8306
389.42	42.4866
394.215	57.2783
399.006	9.28467
403.795	122.675
408.582	322.648
413.365	672.729
418.146	759.784
422.924	566.816
427.7	545.724
432.472	769.529
437.242	703.077
442.009	411.137
446.774	232.39
451.535	118.8
456.294	81.8706
461.05	102.762
465.804	30.4624
470.554	40.927
475.302	71.1558
480.047	83.1116
484.79	101.781
489.529	1.22144
494.266	95.3801
499.001	4.87207
503.732	25.467
508.461	82.7175
513.187	117.857
517.911	138.81
522.631	205.759
527.349	136.405
532.065	327.978
536.777	483.845
541.487	561.45
546.194	403.451
550.898	346.695
555.6	251.727
560.299	285.918
564.995	395.297
569.689	472.632
574.38	746.1
579.068	1102.92
583.754	1595.38
588.437	1530.52
593.117	1812.35
597.794	2728.74
602.469	4003.9
607.141	4180.62
611.81	2971.11
616.477	1679.78
621.141	899.312
625.802	475.54
630.461	344.054
635.117	254.821
639.77	153.838
644.421	90.4487
649.069	128.62
653.714	53.602
658.357	83.3975
662.997	39.1597
667.634	53.4839
672.269	43.3481
676.901	1.90723
681.53	106.821
686.157	58.7353
690.781	83.1553
695.402	8.86084
700.021	21.9541
704.637	5.57373
709.251	55.9004
713.861	0.014648
718.469	132.054
723.075	182.043
727.678	228.997
732.278	248.925
736.876	425.841
741.47	340.759
746.063	385.705
750.652	495.732
755.239	581.837
759.824	522.022
764.406	532.287
768.985	600.638
773.561	753.102
778.135	1009.23
782.706	876.438
787.275	943.507
791.841	1092.41
796.404	1235.52
800.965	1892.2
805.523	2988.51
810.079	5472.07
814.632	11649
819.182	24638
823.73	32763.1
828.275	21113.2
832.818	11341.3
837.358	9121.53
841.895	10932.7
846.43	19136.1
850.962	36637.4
855.491	47520.3
860.018	32294.6
864.543	15066.2
869.064	7658.13
873.583	5272.43
878.1	5218.15
882.614	5036.22
887.125	2673.62
891.634	1222.51
896.14	905.25
900.644	483.671
905.145	442.43
909.644	350.834
914.14	642.876
918.633	842.118
923.124	560.839
927.612	396.888
932.098	343.423
936.581	566.168
941.061	793.121
945.539	1233.83
950.015	2290
954.487	3892.22
958.958	5821.56
963.425	6356.51
967.89	4348.84
972.353	2357.4
976.813	1306.94
981.271	720
985.726	513.31
990.178	236.751
994.628	206.413
999.075	194.197
1003.52	100.11
1007.96	97.5566
1012.4	56.7158
1016.84	125.972
1021.27	6.31494
1025.71	158.739
1030.13	19.208
1034.56	10.7285
1038.99	23.2988
1043.41	6.90723
1047.83	25.5024
1052.24	12.1685
1056.66	61.5742
1061.07	42.2656
1065.48	38.4302
1069.89	84.02
1074.29	67.7607
1078.69	10.855
1083.09	72.7295
1087.49	74.0908
1091.88	76.8408
1096.28	26.4746
1100.66	100.3
1105.05	79.4331
1109.43	16.3047
1113.82	67.6162
1118.2	109.318
1122.57	135.898
1126.95	113.758
1131.32	104.081
1135.69	173.27
1140.05	71.0454
1144.42	84.7534
1148.78	134.739
1153.14	194.925
1157.5	218.319
1161.85	182.765
1166.2	100.866
1170.55	152.813
1174.9	358.374
1179.24	162.412
1183.58	182.425
1187.92	115.408
1192.26	161.224
1196.6	143.516
1200.93	100.746
1205.26	163.83
1209.58	153.946
1213.91	224.733
1218.23	108.275
1222.55	184.692
1226.87	254.727
1231.18	195.042
1235.49	158.287
1239.8	185.094
1244.11	194.881
1248.41	128.938
1252.72	169.948
1257.02	46.8857
1261.32	127.764
1265.61	101.632
1269.9	60.0391
1274.19	61.0708
1278.48	76.8101
1282.77	4.94531
1287.05	150.766
1291.33	136.454
1295.61	33.1606
1299.88	46.8257
1304.15	22.1631
1308.42	47.8633
1312.69	20.4233
1316.96	182.16
1321.22	118.082
1325.48	98.1528
1329.74	138.472
1334	62.1211
1338.25	85.9097
1342.5	82.8721
1346.75	261.943
1351	84.0557
1355.24	66.3027
1359.48	215.484
1363.72	172.57
1367.96	158.826
1372.19	86.0898
1376.42	139.414
1380.65	149.091
1384.88	201.106
1389.11	148.358
1393.33	28.9268
1397.55	164.753
1401.76	25.6172
1405.98	6.61035
1410.19	39.9375
1414.4	120.864
1418.61	102.714
1422.82	62.7969
1427.02	15.9619
1431.22	58.8008
1435.42	159.767
1439.61	215.353
1443.81	168.302
1448	143.669
1452.18	194.491
1456.37	291.045
1460.56	244.69
1464.74	195.429
1468.92	71.2773
1473.09	326.222
1477.27	135.298
1481.44	134.433
1485.61	175.762
1489.78	9.40137
1493.94	191.041
1498.1	85.5059
1502.26	67.1836
1506.42	217.106
1510.58	145.096
1514.73	45.1045
1518.88	153.081
1523.03	174.773
1527.17	135.064
1531.32	162.684
1535.46	132.191
1539.6	64.7481
1543.73	92.2539
1547.87	46.4551
1552	174.197
1556.13	87.082
1560.26	56.125
