Measurement: Raman, 514 nm, ccw, Raman Data Processed
Mineral: Forsterite
Rruff sample: R060551
Ideal chemistry: Mg_2_SiO_4_
Locality: Kohiston, Pakistan
Source: Gemological Institute of America
Description: Pale green fragment
Measured chemistry: (Mg_1.82_Fe_0.18_)_Î£=2_Si_1.00_O_4_; trace amounts of Mn
Pin_id: M00884
Orientation: Laser parallel to a* (1 0 0). Fiducial mark perpendicular to laser is parallel to c [0 0 1]
Raman shift (cm-1)	intensity
96.53	0
101.5	2.25818
106.467	92.667
111.431	58.405
116.392	193.369
121.35	89.0552
126.304	17.4871
131.256	39.1434
136.205	60.3593
141.15	50.0547
146.092	80.9248
151.032	53.6989
155.968	25.2629
160.901	72.5083
165.831	14.3246
170.758	171.641
175.682	311.69
180.603	521.925
185.521	599.186
190.436	439.509
195.348	320.95
200.256	267.513
205.162	287.355
210.065	610.685
214.964	1603.16
219.861	3300.75
224.754	4658.44
229.645	3711.24
234.532	2661.13
239.417	1901.14
244.299	1056.29
249.177	536.983
254.053	335.055
258.925	280.034
263.795	175.764
268.661	145.853
273.525	186.223
278.385	192.506
283.243	260.405
288.097	449.533
292.949	601.861
297.797	1062.85
302.643	1837.36
307.486	1512.81
312.326	1330.87
317.162	2188.5
321.996	4785.98
326.827	8281.3
331.655	7547.57
336.48	6805.9
341.302	5086.27
346.121	2239.68
350.937	942.125
355.75	458.619
360.561	303.17
365.368	309.752
370.172	376.392
374.974	260.169
379.773	64.2044
384.568	33.7639
389.361	1.23767
394.151	95.8052
398.938	69.3794
403.722	36.177
408.503	56.5745
413.282	185.268
418.057	367.025
422.829	373.715
427.599	440.307
432.366	388.781
437.13	169.127
441.891	166.335
446.649	40.3977
451.404	35.2778
456.157	20.1768
460.906	86.0073
465.653	41.9815
470.397	135.737
475.138	192.275
479.876	177.588
484.611	190.667
489.344	177.504
494.073	171.849
498.8	181.035
503.524	244.649
508.245	279.166
512.963	415.411
517.679	531.105
522.392	813.307
527.101	1217.73
531.808	2456.57
536.513	5451.9
541.214	11680.3
545.913	12340.5
550.609	5195.66
555.302	2243.32
559.992	1162.78
564.679	883.778
569.364	668.287
574.046	581.681
578.725	624.851
583.401	849.911
588.075	1090.46
592.746	1111.88
597.414	790.052
602.079	736.082
606.741	956.395
611.401	958.702
616.058	647.583
620.712	408.048
625.364	349.106
630.012	250.767
634.658	148.037
639.302	98.8472
643.942	110.208
648.58	26.1614
653.215	22.6016
657.847	10.384
662.477	116.823
667.104	96.4436
671.728	72.321
676.349	79.3679
680.968	110.254
685.584	3.96313
690.197	31.2502
694.808	14.0911
699.416	88.7368
704.021	103.43
708.624	80.0315
713.223	61.5632
717.821	164.312
722.415	159.51
727.007	252.972
731.596	403.472
736.182	489.124
740.766	508.914
745.347	687.991
749.925	721.318
754.501	910.819
759.074	1115.59
763.645	1314.62
768.212	1623.93
772.778	1984.74
777.34	2311.57
781.9	2743.51
786.457	3424.13
791.012	4347.64
795.563	5761.67
800.113	7995.88
804.659	12484
809.203	21568.4
813.745	42115.5
818.283	96305.9
822.82	183304
827.353	152066
831.884	72181.8
836.412	38704.7
840.938	28505.7
845.461	31020.2
849.981	48322.5
854.499	75826.5
859.015	64043.2
863.527	30637.6
868.037	14596.7
872.545	8141.52
877.05	5354.65
881.552	3755.43
886.052	2679.7
890.549	1951.89
895.044	1521.12
899.536	1248.92
904.025	1252.13
908.512	1569.87
912.996	2961.61
917.478	6159.77
921.957	5467.4
926.434	2318.34
930.908	1590.49
935.38	1807.66
939.849	2354.08
944.315	3380.2
948.779	5272.94
953.24	8756.92
957.699	13698.5
962.156	16513.9
966.609	13374.3
971.061	7769.16
975.51	3898.56
979.956	2023.45
984.399	1060.84
988.841	565.701
993.279	280.016
997.716	148.772
1002.15	245.951
1006.58	2.4624
1011.01	8.60718
1015.43	79.7158
1019.86	30.7063
1024.28	26.5657
1028.7	33.0027
1033.12	25.7024
1037.53	19.6216
1041.94	42.2273
1046.35	62.0581
1050.76	53.8794
1055.16	34.7
1059.56	62.647
1063.96	35.0774
1068.36	22.324
1072.75	29.0596
1077.14	22.0508
1081.53	46.1663
1085.92	117.347
1090.3	86.5659
1094.68	67.0469
1099.06	81.9814
1103.44	123.194
1107.81	196.39
1112.18	173.564
1116.55	189.697
1120.92	203.78
1125.29	197.802
1129.65	222.75
1134.01	311.616
1138.37	304.329
1142.72	218.338
1147.07	316.262
1151.42	298.653
1155.77	284.345
1160.12	409.211
1164.46	497.008
1168.8	369.145
1173.14	362.368
1177.47	301.298
1181.81	302.801
1186.14	222.294
1190.46	283.493
1194.79	231.405
1199.12	270.47
1203.44	325.963
1207.76	406.123
1212.07	437.266
1216.39	481.147
1220.7	362.029
1225.01	445.791
1229.31	373.998
1233.62	473.571
1237.92	410.028
1242.22	307.126
1246.52	264.141
1250.81	273.035
1255.11	150.83
1259.4	170.528
1263.68	135.13
1267.97	174.638
1272.26	36.1587
1276.54	83.7886
1280.82	95.3655
1285.09	21.0977
1289.37	10.3059
1293.64	48.4995
1297.91	30.5784
1302.17	57.551
1306.44	49.501
1310.7	1.46094
1314.96	98.4324
1319.22	111.56
1323.47	41.8477
1327.73	4.25879
1331.98	72.7798
1336.23	38.2817
1340.47	37.7434
1344.72	37.1406
1348.96	79.4863
1353.2	82.8027
1357.44	43.0742
1361.67	105.295
1365.9	48.4736
1370.14	38.6096
1374.36	144.709
1378.59	73.781
1382.81	106.968
1387.03	127.009
1391.25	152.037
1395.47	225.058
1399.68	175.905
1403.9	68.489
1408.11	150.37
1412.31	185.53
1416.52	199.905
1420.72	124.306
1424.92	182.914
1429.12	234.439
1433.32	234.722
1437.51	199.502
1441.7	251.782
1445.89	262.897
1450.08	203.909
1454.27	247.615
1458.45	279.956
1462.63	158.136
1466.81	156.92
1470.99	96.4724
1475.16	170.948
1479.33	205.63
1483.5	55.2664
1487.67	142.832
1491.83	138.265
1496	80.6846
1500.16	13.4072
1504.32	4.55298
1508.47	128.755
1512.63	87.1504
1516.78	57.5308
1520.93	61.1929
1525.08	25.1133
1529.22	29.2783
1533.37	39.3335
1537.51	75.3687
1541.64	65.4775
1545.78	49.4929
1549.92	54.4404
1554.05	116.986
1558.18	34.0266
1562.31	22.0959
1566.43	40.4419
1570.56	42.6604
1574.68	60.7585
1578.8	0
