Measurement: Raman, 514 nm, depolarized, Raman Data Processed
Mineral: Forsterite
Rruff sample: R060539
Ideal chemistry: Mg_2_SiO_4_
Locality: Sri Lanka
Source: Gemological Institute of America
Description: Brown cut gemstone
Measured chemistry: (Mg_1.67_Fe_0.33_)_Î£=2_Si_1.00_O_4_; trace amounts of Mn and Ca
Pin_id: L01564
Orientation: Laser parallel to -b* (0 -1 0). Fiducial mark perpendicular to laser is parallel to c [0 0 1]
Raman shift (cm-1)	intensity
144.753	0
149.673	32.6564
154.592	103.198
159.508	63.7656
164.421	45.4612
169.332	45.4867
174.24	50.6814
179.146	36.7966
184.049	32.6917
188.95	72.0131
193.848	152.576
198.743	142.274
203.636	243.246
208.527	342.937
213.415	527.831
218.301	583.319
223.183	494.616
228.064	432.8
232.942	415.807
237.817	326.681
242.69	185.418
247.56	123.071
252.428	91.6454
257.293	103.45
262.156	100.957
267.016	94.5167
271.874	112.955
276.729	199.111
281.581	342.298
286.431	626.485
291.279	1287.14
296.124	1897.1
300.966	2090.77
305.806	1388.44
310.643	959.08
315.478	857.307
320.31	737.575
325.14	594.946
329.967	447.299
334.792	372.261
339.614	309.406
344.433	212.662
349.25	201.751
354.065	167.829
358.876	101.79
363.686	60.8552
368.493	14.2997
373.297	9.53259
378.099	0.539795
382.898	26.4868
387.694	67.3862
392.488	12.2844
397.28	76.8326
402.069	256.932
406.855	529.956
411.639	673.7
416.42	491.191
421.199	362.625
425.975	437.052
430.749	585.408
435.52	459.678
440.289	236.835
445.055	93.8735
449.818	61.7842
454.579	39.563
459.338	101.216
464.094	39.7504
468.847	79.1382
473.597	78.4025
478.346	138.536
483.091	75.5316
487.834	103.382
492.575	142.084
497.313	125.668
502.048	108.195
506.781	125.142
511.511	167.392
516.239	172.576
520.964	180.614
525.687	207.31
530.407	311.954
535.124	439.659
539.839	523.13
544.552	393.996
549.262	261.575
553.969	273.465
558.674	322.973
563.376	366.937
568.075	495.234
572.772	779.727
577.467	1004
582.159	1120.08
586.848	1260.93
591.535	1740.07
596.219	2363.89
600.901	2695.88
605.58	2507.08
610.257	1683.84
614.931	1008.47
619.602	576.875
624.271	384.114
628.937	199.07
633.601	95.9678
638.262	99.6484
642.921	58.2012
647.577	43.4077
652.23	26.5605
656.881	29.6125
661.53	48.6499
666.175	46.6218
670.819	57.3684
675.459	22.5618
680.097	14.9304
684.733	55.7656
689.366	38.2847
693.996	19.7808
698.624	4.0603
703.25	29.4602
707.872	4.97559
712.492	57.3748
717.11	18.7522
721.725	49.116
726.338	27.4758
730.947	39.8508
735.555	106.251
740.16	131.685
744.762	125.164
749.361	130.695
753.958	213.282
758.553	224.935
763.145	285.664
767.734	305.479
772.321	454.4
776.905	495.404
781.487	597.425
786.066	689.064
790.642	961.652
795.216	1243.84
799.788	1827.03
804.356	2877.54
808.923	5300.26
813.486	11446.2
818.047	21590.9
822.606	25093.8
827.162	16521.6
831.715	10668.2
836.266	9650.47
840.814	12522.1
845.36	21065.2
849.903	34079.7
854.444	37737.5
858.982	25136.6
863.517	13044
868.05	7154.75
872.58	4702.77
877.108	4208.09
881.633	3767.72
886.155	2249.65
890.675	1285.9
895.193	894.517
899.707	655.384
904.22	542.562
908.729	503.876
913.236	602.292
917.741	646.071
922.243	556.172
926.742	523.747
931.239	700.962
935.733	960.331
940.225	1435.46
944.714	2063.05
949.2	3126.39
953.684	4320.73
958.166	4528.07
962.644	3848.86
967.121	2822.33
971.594	1844.55
976.065	1084.51
980.534	643.605
985	424.878
989.463	362.332
993.924	299.953
998.382	205.733
1002.84	133.665
1007.29	91.741
1011.74	92.9534
1016.19	66.3027
1020.63	112.8
1025.08	10.4102
1029.52	33.1924
1033.95	61.0762
1038.39	24.9185
1042.82	11.1345
1047.25	11.2371
1051.68	32.6697
1056.1	2.72119
1060.53	16.0137
1064.95	24.4072
1069.36	47.3328
1073.78	9.29028
1078.19	34.3115
1082.6	37.5147
1087.01	25.1355
1091.41	32.5952
1095.81	69.9131
1100.21	8.14502
1104.61	22.2197
1109	53.1809
1113.39	3.08667
1117.78	67.9656
1122.16	134.71
1126.55	63.3855
1130.93	130.991
1135.31	178.52
1139.68	107.969
1144.06	162.356
1148.43	114.528
1152.8	120.741
1157.16	171.025
1161.52	174.962
1165.88	166.816
1170.24	125.841
1174.6	176.577
1178.95	160.895
1183.3	151.18
1187.65	123.328
1191.99	116.054
1196.33	188.147
1200.67	193.578
1205.01	142.794
1209.35	186.608
1213.68	162.742
1218.01	215.679
1222.33	188.82
1226.66	239.805
1230.98	175.828
1235.3	203.096
1239.62	192.487
1243.93	130.817
1248.24	73.208
1252.55	125.4
1256.86	101.734
1261.16	47.9468
1265.46	75.1106
1269.76	42.0579
1274.05	38.0115
1278.35	63.8113
1282.64	58.5205
1286.93	6.50122
1291.21	65.0615
1295.49	87.4817
1299.78	41.9448
1304.05	45.2244
1308.33	124.859
1312.6	27.4627
1316.87	52.7522
1321.14	50.1433
1325.4	85.6865
1329.67	56.2578
1333.93	44.9248
1338.18	62.5852
1342.44	44.3008
1346.69	34.0981
1350.94	109.931
1355.19	7.07373
1359.43	54.8967
1363.67	89.7253
1367.91	71.4805
1372.15	70.2673
1376.38	49.9248
1380.62	55.6184
1384.84	71.3144
1389.07	20.978
1393.29	108.628
1397.52	26.7346
1401.73	67.842
1405.95	85.5471
1410.16	45.8782
1414.37	74.6843
1418.58	56.2534
1422.79	50.2935
1426.99	86.1167
1431.19	66.8276
1435.39	28.8877
1439.59	77.4475
1443.78	80.4502
1447.97	98.3704
1452.16	82.9023
1456.34	111.811
1460.52	103.612
1464.7	54.3457
1468.88	93.1885
1473.06	80.8418
1477.23	102.168
1481.4	96.7188
1485.57	58.3086
1489.73	89.5557
1493.89	9.94141
1498.05	29.322
1502.21	118.458
1506.36	69.072
1510.52	119.631
1514.66	115.133
1518.81	148.549
1522.95	43.0374
1527.1	42.4417
1531.23	98.3364
1535.37	85.6062
1539.51	115.065
1543.64	20.8855
1547.77	33.4211
1551.89	139.78
1556.02	54.6155
1560.14	16.4827
1564.25	11.8562
