Measurement: Raman, 514 nm, depolarized, Raman Data Processed
Mineral: Forsterite
Rruff sample: R040052
Ideal chemistry: Mg_2_SiO_4_
Locality: Synthetic, Czochralski method
Source: Hideki Kanazawa of Kyoto University, Japan
Description: Colorless crystal fragments obtained from a boule.
Measured chemistry: Mg_2.00_Si_1.00_O_4_
Pin_id: L00074
Orientation: Laser parallel to c* (0 0 1). Fiducial mark perpendicular to laser is parallel to a [1 0 0]
Raman shift (cm-1)	intensity
73.072	0
77.249	31.687
81.424	419.711
85.597	131.334
89.768	75.516
93.937	96.275
98.104	303.006
102.269	252.439
106.433	183.553
110.594	341.793
114.754	114.123
118.911	370.704
123.067	585.028
127.22	276.219
131.372	224.397
135.522	172.522
139.67	175.606
143.816	234.562
147.96	126.505
152.102	109.138
156.242	115.224
160.381	20.698
164.517	13.413
168.652	52.654
172.784	77.052
176.915	19.097
181.044	52.239
185.171	89.54
189.296	310.82
193.419	39.96
197.54	32.51
201.66	38.365
205.777	3.329
209.893	9.467
214.006	16.86
218.118	20.621
222.228	76.427
226.336	297.435
230.442	2365.97
234.546	945.989
238.649	88.752
242.749	17.26
246.848	50.371
250.945	67.331
255.039	19.831
259.132	51.803
263.223	55.868
267.313	78.335
271.4	19.933
275.485	88.134
279.569	118.703
283.651	94.28
287.73	66.576
291.808	151.27
295.884	189.459
299.959	307.257
304.031	771.338
308.102	3213.79
312.17	1225.52
316.237	333.908
320.302	534.271
324.365	479.437
328.426	540.09
332.486	1576.46
336.543	1066.73
340.599	1087.08
344.652	1352.11
348.704	453.288
352.755	274.726
356.803	278.317
360.849	161.827
364.894	189.636
368.936	109.278
372.977	175.93
377.016	163.553
381.054	71.101
385.089	140.64
389.122	123.441
393.154	99.305
397.184	71.996
401.212	61.406
405.238	56.111
409.262	99.152
413.285	62.617
417.306	77.894
421.325	281.086
425.342	532.598
429.357	281.324
433.37	251.648
437.382	1152.5
441.392	642.816
445.399	148.993
449.406	59.994
453.41	125.236
457.412	76.687
461.413	104.186
465.412	78.944
469.409	82.542
473.404	122.993
477.397	94.308
481.389	68.498
485.379	59.585
489.367	147.62
493.353	79.585
497.337	9.265
501.32	55.657
505.301	52.377
509.28	54.612
513.257	47.524
517.232	44.467
521.206	106.683
525.178	104.069
529.148	61.766
533.116	19.012
537.082	195.616
541.047	410.196
545.01	1050.6
548.971	1938.01
552.93	717.994
556.887	369.866
560.843	247.474
564.797	108.515
568.749	148.794
572.699	177.761
576.648	273.227
580.595	417.176
584.54	538.506
588.483	494.877
592.424	536.321
596.364	600.766
600.302	718.178
604.238	1122.56
608.172	2359.61
612.105	3873.57
616.036	2453.24
619.965	1096.01
623.892	512.779
627.818	381.565
631.741	344.487
635.663	225.169
639.584	53.751
643.502	74.354
647.419	38.039
651.334	38.8
655.247	48.36
659.158	65.067
663.068	83.866
666.976	22.069
670.882	17.651
674.787	2.86
678.689	55.237
682.59	49.052
686.49	3.052
690.387	0.165
694.283	20.03
698.177	12.29
702.069	58.562
705.959	67.85
709.848	99.16
713.735	113.51
717.62	103.927
721.504	56.426
725.386	147.996
729.266	208.611
733.144	175.268
737.021	175.966
740.896	63.698
744.769	184.465
748.64	259.265
752.51	277.101
756.378	222.975
760.244	114.889
764.108	154.846
767.971	234.852
771.832	384.91
775.692	390.026
779.549	393.194
783.405	392.421
787.259	590.706
791.112	750.054
794.963	826.465
798.812	1028.94
802.659	1274.45
806.505	1831.05
810.348	2870.99
814.191	4664.82
818.031	7528.68
821.87	15226.1
825.707	36756.7
829.542	36238.8
833.376	16668.8
837.208	8562.21
841.038	6106.55
844.867	4813.07
848.694	5442.26
852.519	9365.23
856.342	21983.7
860.164	34462.5
863.984	16662.4
867.803	7943.33
871.619	5019.16
875.434	2861.95
879.248	2018.76
883.059	1342.11
886.869	949.56
890.678	682.304
894.484	576.991
898.289	616.796
902.092	431.718
905.894	244.757
909.694	75.914
913.492	136.186
917.288	158.575
921.083	271.081
924.876	236.703
928.668	153.439
932.457	132.292
936.246	86.26
940.032	192.347
943.817	335.55
947.6	512.866
951.381	607.293
955.161	823.973
958.939	1289.62
962.716	2745.95
966.49	6476.69
970.263	7268.84
974.035	3152.22
977.805	1419.81
981.573	647.801
985.339	364.268
989.104	261.091
992.867	193.449
996.629	191.742
1000.39	97.323
1004.15	61.883
1007.9	10.863
1011.66	22.098
1015.41	118.232
1019.16	101.193
1022.91	54.546
1026.66	23.093
1030.41	132.664
1034.15	39.722
1037.9	8.568
1041.64	119.201
1045.38	135.25
1049.12	155.338
1052.85	148.577
1056.59	163.866
1060.32	159.207
1064.05	79.696
1067.78	81.164
1071.51	111.43
1075.24	127.396
1078.96	172.533
1082.69	45.04
1086.41	171.62
1090.13	148.625
1093.85	101.728
1097.57	138.42
1101.28	55.896
1105	39.454
1108.71	21.952
1112.42	56.351
1116.13	36.27
1119.84	92.856
1123.54	152.42
1127.25	154.808
1130.95	6.063
1134.65	39.022
1138.35	51.091
1142.05	33.799
1145.74	32.889
1149.44	90.735
1153.13	99.547
1156.82	84.019
1160.51	91.432
1164.2	93.357
1167.89	27.41
1171.57	84.126
1175.25	169.476
1178.94	246.051
1182.62	211.979
1186.3	153.02
1189.97	91.408
1193.65	56.957
1197.32	61.325
1200.99	189.168
1204.66	228.137
1208.33	210.741
1212	239.104
1215.66	177.765
1219.33	182.522
1222.99	212.152
1226.65	186.886
1230.31	153.45
1233.97	327.398
1237.63	323.279
1241.28	252.123
1244.93	182.963
1248.59	99.014
1252.23	99.993
1255.88	111.984
1259.53	69.967
1263.17	190.03
1266.82	17.112
1270.46	241.314
1274.1	163.564
1277.74	166.908
1281.38	68.585
1285.01	24.732
1288.65	13.292
1292.28	61.353
1295.91	64.153
1299.54	151.898
1303.17	153.872
1306.79	129.037
1310.42	27.936
1314.04	123.691
1317.66	59.427
1321.28	56.073
1324.9	90.366
1328.52	206.608
1332.13	265.879
1335.75	226.03
1339.36	222.973
1342.97	163.785
1346.58	62.549
1350.19	51.203
1353.79	13.238
1357.4	55.321
1361	111.919
1364.6	190.243
1368.2	204.65
1371.8	165.952
1375.39	101.678
1378.99	185.365
1382.58	84.232
1386.17	48.959
1389.77	23.376
1393.35	41.779
1396.94	179.717
1400.53	163.602
1404.11	205.833
1407.69	331.617
1411.28	223.119
1414.86	229.465
1418.43	201.424
1422.01	116.823
1425.59	104.197
1429.16	126.668
1432.73	165.933
1436.3	145.496
1439.87	254.284
1443.44	347.623
1447	409.023
1450.57	412.943
1454.13	256.219
1457.69	276.722
1461.25	218.646
1464.81	164.825
1468.37	85.822
1471.92	140
1475.47	155.812
1479.03	167.283
1482.58	378.612
1486.13	304.269
1489.67	307.204
1493.22	264.088
1496.77	180.809
1500.31	31.106
1503.85	30.51
1507.39	4.529
1510.93	13.468
1514.47	32.691
1518	52.442
