Measurement: Raman, 514 nm, ccw, Raman Data Processed
Mineral: Forsterite
Rruff sample: R060551
Ideal chemistry: Mg_2_SiO_4_
Locality: Kohiston, Pakistan
Source: Gemological Institute of America
Description: Pale green fragment
Measured chemistry: (Mg_1.82_Fe_0.18_)_Î£=2_Si_1.00_O_4_; trace amounts of Mn
Pin_id: M00797
Orientation: Laser parallel to -c* (0 0 -1). Fiducial mark perpendicular to laser is parallel to a [1 0 0]
Raman shift (cm-1)	intensity
100.258	0
105.226	237.365
110.19	389.157
115.152	462.838
120.111	407.296
125.066	275.136
130.018	256
134.968	290.707
139.914	408.521
144.857	465.825
149.797	482.849
154.734	675.211
159.668	651.138
164.599	643.142
169.527	623.875
174.451	682.545
179.373	593.827
184.292	412.641
189.207	314.562
194.12	138.797
199.029	38.4014
203.936	66.3594
208.839	264.175
213.74	419.884
218.637	1286.6
223.531	1871.23
228.423	2029.62
233.311	1725.36
238.196	1495.04
243.078	1162.1
247.958	739.008
252.834	432.106
257.707	355.323
262.577	284.165
267.445	346.613
272.309	230.083
277.17	624.191
282.029	811.665
286.884	1275.3
291.736	3253.93
296.586	7770.43
301.432	13057.7
306.275	12928.6
311.116	6680.24
315.953	3868.3
320.788	3237.99
325.62	3217.21
330.448	2262.98
335.274	1088.38
340.097	562.141
344.917	390.129
349.733	277.861
354.547	286.685
359.358	82.9756
364.166	80.4619
368.972	19.3555
373.774	83.9912
378.573	41.8096
383.37	0.44043
388.163	103.376
392.954	247.481
397.742	225.377
402.526	458.374
407.308	1200.6
412.087	2556.42
416.863	3936.62
421.637	3236.86
426.407	1784.09
431.174	1258.13
435.939	902.953
440.701	412.517
445.46	54.7852
450.216	58.7324
454.969	124.131
459.719	29.7373
464.466	115.726
469.211	107.473
473.953	63.2832
478.692	190.94
483.428	125.835
488.161	171.904
492.891	61.4912
497.619	88.3965
502.343	208.576
507.065	127.988
511.784	187.623
516.5	221.956
521.214	317.628
525.924	55.5752
530.632	221.935
535.337	190.973
540.039	241.058
544.738	733.863
549.435	631.948
554.129	758.134
558.82	814.807
563.508	836.206
568.193	1115.21
572.876	1510.35
577.555	2212.64
582.232	2971.29
586.907	4007.21
591.578	5774.41
596.247	10161.8
600.913	17025.2
605.576	22882.2
610.236	20425.5
614.894	12147.2
619.549	6442.65
624.201	3638.55
628.851	2308.95
633.497	1326.02
638.141	1048.66
642.782	560.844
647.421	400.028
652.057	291.223
656.69	174.903
661.32	87.9922
665.947	121.768
670.572	67.2529
675.194	8.96289
679.814	134.048
684.43	45.2051
689.044	188.153
693.656	66.2471
698.264	71.4873
702.87	5.61816
707.473	97.582
712.074	117.619
716.672	436.607
721.267	427.162
725.859	260.26
730.449	524.686
735.036	618.391
739.62	532.721
744.202	594.996
748.781	813.07
753.358	902.016
757.931	1056.44
762.502	1457.32
767.071	1674.67
771.637	1723.53
776.2	2088.03
780.76	2375.31
785.318	2930.36
789.873	3725.55
794.426	4753.88
798.976	6729.95
803.523	10315.1
808.068	17040.7
812.61	32410.4
817.149	71673.6
821.686	133158
826.22	134973
830.751	73408.9
835.28	42005.1
839.807	35922.1
844.33	46540.3
848.852	85063.6
853.37	147017
857.886	153990
862.399	88123.8
866.91	41543.2
871.418	21813.8
875.924	13794.3
880.427	10597
884.927	7456.65
889.425	4195.34
893.92	2650.06
898.413	1649.79
902.903	1024.53
907.391	684.275
911.875	605.641
916.358	738.053
920.838	738.803
925.315	507.385
929.79	318.449
934.262	549.766
938.732	920.1
943.199	1792.11
947.663	3401.45
952.125	6878.88
956.585	13253.1
961.042	19472.3
965.496	18890.1
969.948	12947.9
974.398	7738.53
978.844	4103
983.289	2456.94
987.731	1829.35
992.17	1216.39
996.607	1063.9
1001.04	1073.48
1005.47	713.396
1009.9	335.621
1014.33	384.562
1018.75	304.902
1023.17	250.375
1027.59	449.107
1032.01	280.522
1036.43	68.1797
1040.84	174.965
1045.25	70.2578
1049.65	132.486
1054.06	260.08
1058.46	161.736
1062.86	142.406
1067.26	73.5508
1071.65	206.133
1076.04	50.0703
1080.43	42.0664
1084.82	393.9
1089.2	378.779
1093.59	178.557
1097.97	295.117
1102.34	157.205
1106.72	140.963
1111.09	339.438
1115.46	328.797
1119.83	222.889
1124.19	178.691
1128.56	239.185
1132.92	468.383
1137.28	404.275
1141.63	320.85
1145.98	564.109
1150.34	335.041
1154.68	648.646
1159.03	615.408
1163.37	439.684
1167.71	811.283
1172.05	342.537
1176.39	473.969
1180.72	487.342
1185.05	415.457
1189.38	479.406
1193.71	321.203
1198.03	534.359
1202.36	581.676
1206.67	643.189
1210.99	583.219
1215.31	587.023
1219.62	696.572
1223.93	618
1228.24	883.215
1232.54	711.033
1236.85	568.764
1241.15	438.633
1245.44	486.943
1249.74	484.215
1254.03	388.227
1258.33	305.144
1262.61	252.353
1266.9	109.561
1271.18	264.773
1275.47	152.006
1279.74	38.2637
1284.02	76.5625
1288.3	278.897
1292.57	203.203
1296.84	137.01
1301.11	56.3359
1305.37	135.795
1309.64	175.478
1313.9	341.576
1318.16	55.3945
1322.41	15.9043
1326.67	129.334
1330.92	50.5781
1335.17	61.4766
1339.41	138.928
1343.66	51.2617
1347.9	26.3828
1352.14	195.494
1356.38	235.512
1360.61	226.859
1364.85	336.408
1369.08	285.123
1373.31	54.9238
1377.53	159.914
1381.76	265.115
1385.98	36.6562
1390.2	317.297
1394.42	179.156
1398.63	128.242
1402.84	128.57
1407.05	93.166
1411.26	290.037
1415.47	147.713
1419.67	24.1484
1423.87	306.641
1428.07	113.791
1432.27	350.672
1436.46	397.238
1440.66	337.481
1444.85	424.443
1449.04	518.65
1453.22	550.926
1457.4	428.135
1461.59	375.262
1465.77	492.932
1469.94	243.922
1474.12	397.197
1478.29	412.33
1482.46	231.748
1486.63	74.4277
1490.79	343.367
1494.96	160.555
1499.12	80.0215
1503.28	97.1309
1507.43	61.3438
1511.59	111.539
1515.74	316.709
1519.89	164.088
1524.04	293.492
1528.18	222.746
1532.33	92.1914
1536.47	194.34
1540.61	190.33
1544.75	104.572
1548.88	174.18
1553.02	175.107
1557.15	81.9551
1561.27	44.8613
1565.4	114.619
1569.53	244.082
1573.65	117.994
1577.77	133.184
