Measurement: Raman, 514 nm, depolarized, Raman Data Processed
Mineral: Forsterite
Rruff sample: R060551
Ideal chemistry: Mg_2_SiO_4_
Locality: Kohiston, Pakistan
Source: Gemological Institute of America
Description: Pale green fragment
Measured chemistry: (Mg_1.82_Fe_0.18_)_Î£=2_Si_1.00_O_4_; trace amounts of Mn
Pin_id: M00797
Orientation: Laser parallel to -c* (0 0 -1). Fiducial mark perpendicular to laser is parallel to a [1 0 0]
Raman shift (cm-1)	intensity
100.258	0
105.226	270.644
110.19	337.718
115.152	299.856
120.111	296.999
125.066	337.357
130.018	112.478
134.968	190.033
139.914	350.994
144.857	316.215
149.797	495.915
154.734	426.99
159.668	453.775
164.599	582.816
169.527	541.48
174.451	532.072
179.373	459.916
184.292	615.249
189.207	478.102
194.12	265.232
199.029	292.475
203.936	406.823
208.839	475.256
213.74	1015.9
218.637	1904.79
223.531	2528.7
228.423	2604.94
233.311	1912.21
238.196	1551.52
243.078	1108.91
247.958	484.121
252.834	255.189
257.707	210.871
262.577	169.812
267.445	100.152
272.309	16.2695
277.17	95.5596
282.029	241.465
286.884	535.349
291.736	1281.11
296.586	3081.62
301.432	6150.81
306.275	6610.58
311.116	3875.88
315.953	3195.16
320.788	3730.35
325.62	4408.88
330.448	4215.6
335.274	3244.94
340.097	2472.4
344.917	1214
349.733	579.142
354.547	275.954
359.358	122.774
364.166	83.7588
368.972	78.6787
373.774	108.331
378.573	29.9932
383.37	55.0732
388.163	17.4766
392.954	42.8174
397.742	150.062
402.526	124.349
407.308	634.926
412.087	1345.76
416.863	2055.5
421.637	2348.67
426.407	2953.06
431.174	3871.62
435.939	2488.02
440.701	875.223
445.46	340.215
450.216	156.242
454.969	70.4102
459.719	145.546
464.466	153.331
469.211	48.5615
473.953	134.294
478.692	100.645
483.428	23.5645
488.161	83.875
492.891	47.5244
497.619	164.468
502.343	203.862
507.065	183.044
511.784	173.828
516.5	141.585
521.214	364.758
525.924	476.075
530.632	933.905
535.337	2020.88
540.039	3920.39
544.738	5390.94
549.435	3076.37
554.129	1495.27
558.82	868.143
563.508	897.594
568.193	988.609
572.876	1367.9
577.555	2020.05
582.232	2617.23
586.907	2490.09
591.578	3064.3
596.247	4303.88
600.913	7349.28
605.576	10087.5
610.236	9362.17
614.894	6021.3
619.549	3277.47
624.201	1903.65
628.851	1454.94
633.497	874.043
638.141	575.373
642.782	386.387
647.421	520.404
652.057	408.432
656.69	174.166
661.32	65.2949
665.947	41.8281
670.572	31.4453
675.194	70.2188
679.814	21.7578
684.43	17.1406
689.044	118.527
693.656	96.0879
698.264	137.572
702.87	132.844
707.473	129.246
712.074	246.078
716.672	194.81
721.267	347.455
725.859	161.035
730.449	185.613
735.036	300.258
739.62	374.894
744.202	678.674
748.781	452.713
753.358	658.006
757.931	732.467
762.502	1013.16
767.071	1344.16
771.637	1507.48
776.2	1843.39
780.76	2023.74
785.318	2542.62
789.873	3271.99
794.426	4058.04
798.976	5988.58
803.523	8956.01
808.068	14876.7
812.61	28208.8
817.149	62709.4
821.686	123651
826.22	132886
830.751	72007.5
835.28	40006.8
839.807	30551.1
844.33	33200.9
848.852	53507.4
853.37	91574.1
857.886	100618
862.399	59954.1
866.91	30294.1
871.418	15845.9
875.924	9559.41
880.427	6771.68
884.927	4826.67
889.425	3144.43
893.92	1908.93
898.413	1462.18
902.903	1004.17
907.391	767.906
911.875	1036.65
916.358	1143.45
920.838	1246.6
925.315	728.664
929.79	685.131
934.262	763.656
938.732	1264.15
943.199	1948.62
947.663	3473.17
952.125	6044.86
956.585	10956.4
961.042	15833.3
965.496	14981.5
969.948	10253.1
974.398	5773.52
978.844	3103.87
983.289	1650.76
987.731	987.09
992.17	751.85
996.607	523.377
1001.04	500.441
1005.47	356.328
1009.9	80.5469
1014.33	14.7852
1018.75	103.975
1023.17	149.885
1027.59	83.0644
1032.01	22.498
1036.43	160.201
1040.84	116.877
1045.25	90.9746
1049.65	15.6406
1054.06	250.775
1058.46	28.0879
1062.86	0.054688
1067.26	73.1484
1071.65	29.1328
1076.04	50.3867
1080.43	60.2148
1084.82	101.998
1089.2	252.443
1093.59	99.084
1097.97	112.131
1102.34	306.178
1106.72	179.152
1111.09	273.086
1115.46	248.957
1119.83	177.758
1124.19	257.481
1128.56	101.055
1132.92	107.111
1137.28	228.238
1141.63	302.688
1145.98	432.463
1150.34	308.688
1154.68	231.533
1159.03	447.256
1163.37	692.328
1167.71	310.695
1172.05	382.002
1176.39	345.955
1180.72	162.426
1185.05	239.148
1189.38	293.398
1193.71	284.264
1198.03	350.062
1202.36	407.869
1206.67	354.746
1210.99	347.562
1215.31	475.539
1219.62	616.693
1223.93	469.356
1228.24	537.443
1232.54	523.279
1236.85	380.623
1241.15	684.293
1245.44	313.973
1249.74	486.674
1254.03	203.394
1258.33	307.781
1262.61	365.998
1266.9	344.826
1271.18	263.699
1275.47	225.625
1279.74	159.67
1284.02	59.8145
1288.3	33.0293
1292.57	36.6934
1296.84	294.582
1301.11	296.973
1305.37	237.584
1309.64	49.5898
1313.9	340.926
1318.16	172.916
1322.41	457.338
1326.67	304.127
1330.92	17.4258
1335.17	283.981
1339.41	64.5644
1343.66	138.803
1347.9	47.7051
1352.14	60.6211
1356.38	74.2422
1360.61	39.6797
1364.85	317.424
1369.08	225.59
1373.31	224.871
1377.53	361.291
1381.76	410.859
1385.98	165.629
1390.2	248.602
1394.42	89.6523
1398.63	72.8496
1402.84	181.203
1407.05	165.68
1411.26	315.346
1415.47	137.219
1419.67	358.938
1423.87	444.273
1428.07	202.873
1432.27	343.461
1436.46	319.096
1440.66	363.668
1444.85	434.875
1449.04	567.025
1453.22	695.607
1457.4	402.297
1461.59	420.941
1465.77	547.283
1469.94	396.441
1474.12	458.971
1478.29	226.619
1482.46	356.481
1486.63	489.924
1490.79	196.893
1494.96	351.992
1499.12	458.002
1503.28	374.262
1507.43	401.565
1511.59	342.5
1515.74	467.334
1519.89	312.428
1524.04	382.676
1528.18	279.727
1532.33	328.082
1536.47	290.522
1540.61	338.781
1544.75	330.242
1548.88	147.652
1553.02	403.621
1557.15	42.3633
1561.27	146.336
1565.4	66.2402
1569.53	26.8359
1573.65	95.5508
1577.77	0.345703
