Measurement: Raman, 514 nm, depolarized, Raman Data Processed
Mineral: Forsterite
Rruff sample: R050117
Ideal chemistry: Mg_2_SiO_4_
Locality: Sapat, Gilgit, Pakistan
Source: Farooq and Nazia Sawal
Description: Fragment of a green crystal
Measured chemistry: (Mg_1.81_Fe_0.18_Ni_0.01_)_Î£=2_Si_1.00_O_4_
Pin_id: M00216
Orientation: Laser parallel to b* (0 1 0). Fiducial mark perpendicular to laser is parallel to c [0 0 1]
Raman shift (cm-1)	intensity
46.644	0
50.85	75.617
55.054	608.944
59.255	1084.92
63.454	1397.92
67.652	1273.13
71.847	1533.92
76.04	1250.91
80.232	622.034
84.421	355.662
88.608	143.051
92.793	94.742
96.976	36.758
101.157	10.499
105.336	13.148
109.513	107.339
113.688	92.832
117.861	62.783
122.032	31.687
126.201	15.85
130.367	68.347
134.532	44.192
138.695	28.965
142.856	67.159
147.014	27.05
151.171	42.969
155.325	45.763
159.478	4.241
163.629	9.711
167.777	1.511
171.924	37.616
176.068	16.627
180.211	29.612
184.351	10.366
188.49	43.292
192.626	60.242
196.761	0.133
200.893	10.432
205.024	23.175
209.152	57.769
213.279	206.483
217.403	489.015
221.526	750.092
225.646	792.032
229.765	637.38
233.881	546.816
237.996	508.609
242.108	406.588
246.219	321.117
250.328	289.764
254.434	268.351
258.539	237.457
262.641	220.823
266.742	240.691
270.84	263.972
274.937	287.212
279.032	294.779
283.125	313.531
287.215	398.559
291.304	606.527
295.391	1129.81
299.476	2371.01
303.558	2702.43
307.639	1481.87
311.718	795.583
315.795	633.488
319.87	726.383
323.943	904.779
328.014	798.138
332.083	576.225
336.15	614.407
340.215	540.809
344.279	362.998
348.34	278.165
352.399	238.544
356.457	204.151
360.512	163.379
364.565	152.321
368.617	142.107
372.666	93.229
376.714	81.125
380.76	79.188
384.803	87.764
388.845	87.707
392.885	61.084
396.923	38.921
400.959	106.248
404.993	131.751
409.025	253.704
413.055	533.57
417.084	720.993
421.11	524.969
425.134	335.54
429.157	339.322
433.177	558.177
437.196	626.257
441.213	348.284
445.227	185.797
449.24	82.913
453.251	38.476
457.26	35.955
461.267	32.339
465.272	30.659
469.276	19.894
473.277	16.04
477.276	16.115
481.274	12.121
485.27	11.066
489.263	27.976
493.255	3.77
497.245	16.645
501.233	12.714
505.219	23.649
509.203	39.727
513.186	68.357
517.166	110.914
521.145	77.58
525.121	116.367
529.096	157.418
533.069	178.744
537.04	375.75
541.009	664.673
544.976	508.62
548.941	270.007
552.905	159.033
556.866	108.768
560.826	135.585
564.784	153.874
568.74	200.69
572.694	318.58
576.646	498.435
580.596	842.26
584.544	1086.06
588.491	913.839
592.435	983.593
596.378	1437.32
600.319	2298.02
604.258	3060.7
608.195	2787.02
612.131	1840.74
616.064	1064.09
619.995	602.297
623.925	393.689
627.853	271.039
631.779	178.294
635.703	120.692
639.625	51.126
643.546	31.513
647.464	9.997
651.381	17.538
655.296	2.268
659.209	49.686
663.12	34.072
667.029	21.95
670.937	20.693
674.842	31.447
678.746	8.384
682.648	10.294
686.548	13.694
690.447	22.637
694.343	19.028
698.238	11.562
702.13	13.441
706.021	0.458
709.91	11.5
713.798	29.449
717.683	41.423
721.567	33.428
725.448	90.461
729.328	96.52
733.206	101.608
737.083	93.725
740.957	94.876
744.83	159.061
748.701	185.283
752.57	189.547
756.437	210.855
760.302	233.214
764.166	297.639
768.027	337.132
771.887	414.75
775.745	437.485
779.602	520.366
783.456	608.383
787.309	708.524
791.16	871.785
795.009	1033.16
798.856	1328.66
802.702	1859.31
806.545	2711.02
810.387	4398.53
814.227	7844.22
818.065	15952
821.902	27273.4
825.737	21593.5
829.569	12504.8
833.401	8556.83
837.23	7615.23
841.057	8655.16
844.883	12841.6
848.707	24069.4
852.529	42577.2
856.35	44694.3
860.168	26110.5
863.985	13227.7
867.8	7649.59
871.613	5262.02
875.425	4548.56
879.234	5226.22
883.042	4459.99
886.848	2506.88
890.653	1521.89
894.455	1174.01
898.256	923.252
902.055	814.612
905.852	641.426
909.648	594.184
913.442	619.12
917.233	830.737
921.024	704.389
924.812	611.613
928.599	643.077
932.384	697.646
936.167	825.474
939.948	991.191
943.728	1409.09
947.506	2022.39
951.282	2889.07
955.056	4447.99
958.829	6190.15
962.6	6219.74
966.369	4832.99
970.136	3085.54
973.902	1772.1
977.666	1022.81
981.428	669.684
985.188	515.798
988.947	393.96
992.704	338.247
996.459	263.653
1000.21	220.139
1003.96	168.697
1007.71	116.334
1011.46	87.089
1015.21	99.947
1018.95	89.894
1022.7	72.899
1026.44	63.966
1030.18	30.094
1033.91	46.28
1037.65	62.517
1041.39	69.797
1045.12	53.116
1048.85	40.474
1052.58	9.13
1056.31	6.289
1060.03	31.742
1063.76	16.202
1067.48	14.654
1071.2	11.922
1074.92	47.587
1078.63	63.36
1082.35	12.286
1086.06	31.304
1089.78	1.575
1093.49	4.378
1097.19	10.089
1100.9	20.731
1104.61	15.344
1108.31	2.079
1112.01	37.466
1115.71	26.003
1119.41	54.587
1123.11	51.133
1126.8	40.835
1130.5	32.346
1134.19	42.814
1137.88	75.397
1141.57	52.429
1145.25	65.221
1148.94	109.956
1152.62	95.552
1156.3	108.254
1159.98	109.656
1163.66	68.618
1167.34	117.835
1171.01	132.732
1174.68	125.669
1178.36	98.51
1182.02	93.213
1185.69	74.215
1189.36	46.104
1193.02	78.864
1196.69	81.022
1200.35	110.518
1204.01	110.248
1207.66	133.635
1211.32	153.197
1214.98	126.749
1218.63	96.965
1222.28	126.815
1225.93	141.565
1229.58	149.499
1233.22	155.079
1236.87	144.6
1240.51	121.236
1244.15	102.05
1247.79	75.928
1251.43	79.652
1255.07	77.684
1258.7	39.427
1262.33	83.024
1265.96	63.441
1269.59	27.041
1273.22	38.461
1276.85	34.719
1280.47	13.456
1284.1	2.707
1287.72	6.193
1291.34	15.864
1294.95	14.858
1298.57	50.654
1302.19	2.645
1305.8	15.03
1309.41	23.708
1313.02	3.168
1316.63	11.557
1320.23	3.03
1323.84	2.784
1327.44	22.255
1331.05	26.32
1334.64	67.319
1338.24	34.253
1341.84	54.122
1345.43	6.921
1349.03	11.222
1352.62	0.548
1356.21	27.111
1359.8	42.71
1363.39	71.3
1366.97	55.888
1370.56	54.766
1374.14	66.45
1377.72	50.227
1381.3	38.024
1384.87	2.097
1388.45	44.78
1392.02	28.608
1395.6	33.011
1399.17	37.593
1402.74	64.488
1406.3	61.375
1409.87	26.074
1413.43	35.152
1417	49.203
1420.56	8.496
1424.12	2.452
1427.67	15.817
1431.23	31.349
1434.79	51.617
1438.34	52.304
1441.89	49.094
1445.44	52.954
1448.99	50.992
1452.54	43.158
1456.08	36.71
1459.62	51.075
1463.17	39.999
1466.71	36.973
1470.24	50.686
1473.78	57.72
1477.32	40.847
1480.85	70.833
1484.38	70.414
1487.91	79.708
1491.44	55.984
1494.97	96.381
1498.5	36.039
1502.02	37.923
1505.54	39.891
1509.07	5.796
1512.59	3.468
1516.1	1.908
