Measurement: Raman, 514 nm, depolarized, Raman Data Processed
Mineral: Franklinite
Rruff sample: R070137
Ideal chemistry: Zn^2+^Fe^3+^_2_O_4_
Locality: Franklin mine, Franklin, Sussex County, New Jersey, USA
Source: Michael Scott
Description: Gray semi-metallic octahedral crystals associated with calcite
Measured chemistry: (Zn_0.63_Mn_0.36_Mg_0.01_)_Σ=1_(Fe^3+^_1.96_Al_0.04_)_Σ=2_O_4_
Pin_id: L01062
Orientation: Laser parallel to c* (0 0 1). Fiducial mark perpendicular to laser is parallel to a [1 0 0]
Raman shift (cm-1)	intensity
135.993	0
140.898	261.231
145.802	266.404
150.703	351.244
155.601	512.086
160.498	572.639
165.392	502.785
170.284	192.141
175.174	275.301
180.061	542.693
184.946	642.543
189.829	676.641
194.71	594.664
199.588	416.32
204.465	290.5
209.338	102.924
214.21	218.344
219.079	74.4473
223.946	227.125
228.811	122.779
233.674	55.3652
238.534	236.522
243.392	26.0391
248.247	234.568
253.101	58.6992
257.952	110.812
262.8	88.0391
267.647	242.473
272.491	175.787
277.333	262.227
282.172	121.219
287.009	17.4355
291.844	27.8145
296.677	270.199
301.507	330.238
306.335	269.836
311.16	532.215
315.984	505.838
320.805	646.99
325.623	909.598
330.439	1204.18
335.253	972.574
340.065	1088.64
344.874	1380.61
349.681	1266.25
354.485	1384.69
359.287	1010.28
364.087	744.894
368.885	797.346
373.68	492.463
378.472	408.09
383.263	16.5684
388.051	280.951
392.836	14.6562
397.619	42.2109
402.4	130.596
407.179	158.644
411.955	113.266
416.728	55.248
421.5	75.0352
426.269	244.457
431.035	4.34375
435.799	298.019
440.561	1.38477
445.32	102.836
450.077	364.9
454.832	457.035
459.584	591.732
464.334	468.779
469.081	604.287
473.826	897.941
478.568	1021.92
483.308	1188.81
488.046	1092.81
492.781	1384.5
497.514	1256.53
502.244	1440.72
506.972	1559.65
511.698	1581.92
516.421	1705.86
521.141	1606.85
525.86	1735.63
530.575	1838.84
535.289	2017.06
540	2177.7
544.708	2312.86
549.414	2496.27
554.117	2576.27
558.818	3036.82
563.517	3315.01
568.213	3550.38
572.907	4021.38
577.598	4807.38
582.287	5609.5
586.973	7066.82
591.657	9242.27
596.338	11652.6
601.017	13576.7
605.693	14422.5
610.367	14256.2
615.039	13787.8
619.708	12915.1
624.374	12351.2
629.038	11634.5
633.699	11145.3
638.358	10346.9
643.015	9806.49
647.669	9043.56
652.32	8488.69
656.969	7878.32
661.616	7314.59
666.26	6863.21
670.901	6406.71
675.54	5581.18
680.176	4958.69
684.81	4276.96
689.442	3778.24
694.071	3023.03
698.697	2549.94
703.321	2029.3
707.942	1808.5
712.561	1560.87
717.177	1251.82
721.791	831.979
726.402	598.539
731.011	452.053
735.617	302.082
740.22	331.438
744.821	445.137
749.42	131.477
754.016	181.41
758.609	141.34
763.2	74.9297
767.788	107.281
772.374	36.9941
776.957	54.7363
781.538	51.3789
786.116	167.863
790.691	24.9941
795.264	74.4004
799.835	123.014
804.403	72.0137
808.968	25.1117
813.53	171.256
818.091	51.4395
822.648	151.228
827.203	155.43
831.755	118.219
836.305	74.7891
840.852	95.5488
845.397	156.943
849.939	46.6777
854.478	134.809
859.015	65.9297
863.549	29.3223
868.081	136.369
872.61	48.9297
877.137	160.231
881.66	282.457
886.182	105.367
890.7	156.775
895.216	133.092
899.73	285.033
904.241	163.004
908.749	225.709
913.255	204.315
917.758	254.789
922.258	247.068
926.756	119.941
931.251	301.775
935.743	356.473
940.233	431.291
944.72	188.58
949.205	423.49
953.687	400.566
958.166	240.664
962.643	254.904
967.117	254.426
971.589	403.24
976.058	381.133
980.524	412.478
984.987	168.529
989.448	368.131
993.907	307.711
998.362	143.932
1002.82	426.643
1007.27	141.027
1011.71	220.986
1016.16	294.435
1020.6	64.2578
1025.04	244.815
1029.48	70.1211
1033.91	55.9746
1038.34	200.809
1042.77	140.856
1047.2	131.416
1051.62	168.174
1056.04	151.127
1060.46	15.707
1064.88	205.496
1069.29	267.01
1073.7	342.685
1078.11	101.141
1082.51	196.947
1086.92	177.672
1091.32	40.4121
1095.71	228.781
1100.11	289.242
1104.5	364.293
1108.89	122.746
1113.27	409.094
1117.66	327.492
1122.04	237.518
1126.42	268.592
1130.79	368.615
1135.16	407.562
1139.53	544.756
1143.9	359.465
1148.27	404.51
1152.63	376.492
1156.99	525.529
1161.34	406.207
1165.7	468.799
1170.05	358.576
1174.4	428.449
1178.74	501.852
1183.09	562.178
1187.43	522.322
1191.76	628.176
1196.1	523.738
1200.43	643.025
1204.76	489.998
1209.09	713.461
1213.41	650.816
1217.73	643.213
1222.05	542.031
1226.37	859.303
1230.68	683.146
1234.99	741.473
1239.3	733.223
1243.6	629.773
1247.9	510.935
1252.2	849.754
1256.5	635.557
1260.79	649.922
1265.08	592.674
1269.37	708.283
1273.66	555.803
1277.94	380.139
1282.22	395.451
1286.5	566.646
1290.77	566.369
1295.05	608.246
1299.31	395.035
1303.58	563.312
1307.84	314.477
1312.11	369.783
1316.36	358.277
1320.62	298.133
1324.87	218.699
1329.12	200.949
1333.37	172.164
1337.61	301.33
1341.85	122.301
1346.09	162.856
1350.33	93.5977
1354.56	25.2695
1358.79	67.3164
1363.02	17.6029
1367.24	38.8438
1371.47	2.42383
1375.68	20.4297
1379.9	51.2012
1384.12	13.9375
1388.33	180.338
1392.53	203.795
1396.74	268.922
1400.94	69.7871
1405.14	256.693
1409.34	28.3633
1413.53	104.361
1417.72	112.766
1421.91	3.24609
1426.1	226.506
1430.28	63.1406
1434.46	128.473
1438.64	119.356
1442.82	286.703
1446.99	184.102
1451.15	262.662
1455.32	114.269
1459.48	257.322
1463.65	168.012
1467.8	287.541
1471.96	34.6289
1476.11	130.328
1480.26	220.728
1484.41	9.83789
1488.55	21.2832
1492.69	39.625
1496.83	15
1500.96	115.369
1505.1	140.91
1509.23	330.164
1513.35	358.777
1517.48	425.209
1521.6	231.25
1525.72	405.51
1529.83	49.5938
1533.95	409.764
1538.06	216.598
1542.16	260.547
1546.27	240.367
1550.37	394.119
1554.47	278.227
1558.56	309.916
1562.65	83.7227
1566.74	83.6582
1570.83	293.527
1574.92	371.861
1579	0
