Measurement: Raman, 514 nm, ccw, Raman Data Processed
Mineral: Franklinite
Rruff sample: R070137
Ideal chemistry: Zn^2+^Fe^3+^_2_O_4_
Locality: Franklin mine, Franklin, Sussex County, New Jersey, USA
Source: Michael Scott
Description: Gray semi-metallic octahedral crystals associated with calcite
Measured chemistry: (Zn_0.63_Mn_0.36_Mg_0.01_)_Σ=1_(Fe^3+^_1.96_Al_0.04_)_Σ=2_O_4_
Pin_id: L01062
Orientation: Laser parallel to c* (0 0 1). Fiducial mark perpendicular to laser is parallel to a [1 0 0]
Raman shift (cm-1)	intensity
151.927	0
156.826	259.742
161.721	246.109
166.615	188.15
171.507	208.529
176.396	210.916
181.283	171.137
186.167	110.93
191.05	157.971
195.93	86.5684
200.808	135.141
205.683	212.863
210.557	135.473
215.428	139.963
220.296	110.342
225.163	45.1836
230.027	79.5332
234.889	76.2266
239.749	77.7676
244.606	8.07617
249.461	14.0957
254.314	72.6211
259.164	24.0879
264.012	10.0391
268.858	25.0859
273.702	38.2637
278.543	5.38672
283.382	125.818
288.218	197.102
293.053	267.518
297.885	256.555
302.714	427.422
307.542	425.559
312.366	530.477
317.189	550.584
322.009	707.594
326.827	790.664
331.643	940.098
336.456	1066.37
341.267	1341.86
346.076	1441.85
350.882	1616.99
355.686	1567
360.488	1234.36
365.287	907.463
370.084	690.574
374.878	433.783
379.67	277.963
384.46	127.973
389.247	24.8965
394.032	9.92773
398.815	4.05859
403.595	115.303
408.373	103.4
413.148	53.7266
417.922	14.7656
422.692	93.1543
427.461	0.728516
432.226	146.428
436.99	209.373
441.751	397.248
446.51	330.193
451.266	268.252
456.02	470.4
460.772	478.387
465.521	487.269
470.267	461.144
475.012	660.096
479.754	794.488
484.493	858.875
489.23	805.744
493.965	1078.59
498.697	1224.03
503.427	1384.58
508.154	1494.87
512.879	1473.87
517.601	1743.56
522.321	1842.65
527.039	1876.15
531.754	1913.25
536.467	1859.29
541.177	2009.23
545.885	2328.97
550.59	2480.42
555.293	2730.61
559.993	3027.36
564.691	3210.33
569.387	3727.08
574.08	4109.22
578.77	4348.04
583.459	5018.31
588.144	6648.91
592.827	8562.77
597.508	10442.5
602.186	11594
606.862	12663.9
611.535	12448.9
616.206	12212.6
620.874	11563.5
625.54	11013.9
630.204	10317
634.864	9488.94
639.523	8884.04
644.179	8483.5
648.832	7963.82
653.483	7539.03
658.131	6883.84
662.777	6659.21
667.42	5934.98
672.061	5432.85
676.699	5034.94
681.335	4239.61
685.968	3524.75
690.599	3234.79
695.227	2687.08
699.853	2080.84
704.476	1732.04
709.097	1372.53
713.715	1181.85
718.331	892.316
722.944	638.791
727.554	679.682
732.162	388.545
736.768	517.582
741.371	91.2617
745.971	89.6523
750.569	78.6816
755.164	103.555
759.757	98.7637
764.347	159.793
768.935	128.498
773.52	146.297
778.103	6.26367
782.683	146.051
787.26	99.1191
791.835	12.2168
796.407	117.098
800.977	95.1973
805.544	105.699
810.109	59.0879
814.671	153.897
819.23	191.062
823.787	263.828
828.341	72.0449
832.893	266.092
837.442	43.1504
841.989	125.711
846.533	48.9941
851.074	315.506
855.613	70.3477
860.149	183.328
864.683	286.361
869.214	82.957
873.742	293.107
878.268	292.908
882.791	178.768
887.312	95.9824
891.83	206.535
896.345	43.4766
900.858	13.9844
905.368	125.637
909.876	97.0059
914.381	118.453
918.883	285.268
923.383	145.537
927.88	231.856
932.374	158.137
936.866	311.156
941.355	94.5703
945.842	268.547
950.326	13.1777
954.807	157.072
959.286	11.0059
963.762	185.547
968.235	38.207
972.706	16.5039
977.174	177.953
981.64	322.25
986.103	222.268
990.563	193.303
995.021	179.877
999.476	10.4395
1003.93	13.5703
1008.38	16.0312
1012.83	51.1289
1017.27	222.33
1021.71	233.877
1026.15	294.998
1030.59	90.1426
1035.02	304.805
1039.45	144.213
1043.88	203.752
1048.31	200.764
1052.73	373.691
1057.15	278.361
1061.57	366.039
1065.98	207.475
1070.39	248.315
1074.8	402.059
1079.21	365.35
1083.62	214.816
1088.02	302.147
1092.41	194.111
1096.81	302.57
1101.2	478.551
1105.6	292.607
1109.98	267.834
1114.37	456.588
1118.75	343.988
1123.13	251.121
1127.51	327.07
1131.88	299.268
1136.26	159.309
1140.63	44.875
1144.99	112.238
1149.36	337.781
1153.72	245.449
1158.08	292.096
1162.43	496.648
1166.79	531.57
1171.14	609.139
1175.48	423.744
1179.83	625.602
1184.17	407.281
1188.51	500.652
1192.85	527.711
1197.18	506.002
1201.51	643.336
1205.84	664.779
1210.17	613.805
1214.49	519.121
1218.81	525.615
1223.13	597.84
1227.44	456.617
1231.76	606.682
1236.07	418.025
1240.37	482.949
1244.68	654.283
1248.98	485.338
1253.28	589.273
1257.57	619.84
1261.87	684.67
1266.16	579.447
1270.44	293.928
1274.73	622.438
1279.01	284.969
1283.29	322.342
1287.57	318.494
1291.84	421.861
1296.11	112.846
1300.38	162.289
1304.65	404.484
1308.91	347.068
1313.17	234.43
1317.43	408.731
1321.68	190.889
1325.93	386.15
1330.18	227.652
1334.43	131.734
1338.67	232.381
1342.91	220.236
1347.15	398.285
1351.39	143.172
1355.62	3.4668
1359.85	161.762
1364.08	243.211
1368.3	29.748
1372.52	133.295
1376.74	27.4336
1380.95	100.606
1385.17	326.315
1389.38	134.707
1393.59	64.9551
1397.79	66.7324
1401.99	98.9356
1406.19	102.853
1410.39	172.531
1414.58	104.584
1418.77	23.2539
1422.96	8.52344
1427.14	188.213
1431.33	96.5488
1435.51	99.2598
1439.68	133.277
1443.86	208.951
1448.03	171.24
1452.2	145.518
1456.36	1.76172
1460.53	189.693
1464.68	247.607
1468.84	320.002
1473	73.2773
1477.15	352.619
1481.3	159.174
1485.44	221.238
1489.59	224.045
1493.73	37.9023
1497.86	31.2754
1502	42.043
1506.13	55.0742
1510.26	11.2617
1514.38	49.9902
1518.51	155.539
1522.63	303.148
1526.75	131.326
1530.86	188.139
1534.97	170.678
1539.08	319.447
1543.19	200.627
1547.29	265.467
1551.39	104.481
1555.49	234.356
1559.59	118.188
1563.68	254.016
1567.77	32.2598
1571.85	43.5645
1575.94	117.252
