Measurement: Raman, 514 nm, ccw, Raman Data Processed
Mineral: Franklinite
Rruff sample: R070137
Ideal chemistry: Zn^2+^Fe^3+^_2_O_4_
Locality: Franklin mine, Franklin, Sussex County, New Jersey, USA
Source: Michael Scott
Description: Gray semi-metallic octahedral crystals associated with calcite
Measured chemistry: (Zn_0.63_Mn_0.36_Mg_0.01_)_Σ=1_(Fe^3+^_1.96_Al_0.04_)_Σ=2_O_4_
Pin_id: L01062
Orientation: Laser parallel to c* (0 0 1). Fiducial mark perpendicular to laser is parallel to a [1 0 0]
Raman shift (cm-1)	intensity
134.766	0
139.672	7.58789
144.576	238.281
149.478	362.541
154.377	530.121
159.274	502.435
164.169	776.215
169.061	228.549
173.951	391.502
178.839	241.154
183.725	343.238
188.609	414.971
193.49	237.471
198.369	444.81
203.246	278.434
208.12	427.641
212.992	251.783
217.862	319.109
222.73	96.1894
227.595	304.471
232.458	80.1641
237.319	134.975
242.178	182.785
247.034	7.96094
251.888	123.223
256.739	45.4531
261.588	1.94531
266.435	3.25195
271.28	128.012
276.123	49.873
280.963	102.031
285.8	8.20508
290.636	8.57812
295.469	42.7715
300.3	104.096
305.128	98.6641
309.954	172.51
314.778	367.486
319.6	428.264
324.419	520.047
329.236	435.031
334.05	350.109
338.862	416.342
343.672	448.191
348.479	600.838
353.284	620.076
358.087	669.982
362.887	513.59
367.685	537.146
372.481	446.326
377.274	216.078
382.065	166.648
386.854	98.2637
391.64	86.293
396.424	118.537
401.205	38.707
405.984	29.3203
410.761	118.496
415.535	22.7012
420.307	145.762
425.077	35.7734
429.844	234.264
434.609	279.519
439.371	9.72656
444.131	217.338
448.888	305.258
453.643	426.562
458.396	343.152
463.146	561.633
467.894	453.293
472.64	588.08
477.383	671.766
482.124	800.576
486.862	698.588
491.598	794.279
496.331	1163.33
501.062	1241.8
505.791	1190.9
510.517	1320.59
515.24	1394.48
519.962	1607.47
524.68	1363.16
529.397	1615.44
534.111	1729.53
538.822	1887.61
543.531	1840.68
548.238	2092.01
552.942	2315.44
557.643	2387.69
562.343	2660.37
567.039	3162.74
571.734	3751.04
576.425	3805.3
581.115	4551.32
585.802	5656.08
590.486	7416.46
595.168	9568.5
599.848	11559.2
604.524	12640.5
609.199	12792.2
613.871	12401.5
618.541	11889.3
623.208	11200.6
627.872	10658.4
632.534	9919.35
637.194	9360.9
641.851	8747.54
646.506	8289.04
651.158	7599.32
655.807	7008
660.454	6729.75
665.099	6367.1
669.741	5697.16
674.381	5307.35
679.018	4690.46
683.652	4138.82
688.284	3491.52
692.914	2867.66
697.541	2222.09
702.165	1780.88
706.787	1541.13
711.406	1248.84
716.023	1070.32
720.638	803.805
725.249	504.725
729.859	433.117
734.465	366.81
739.07	438.394
743.671	181.695
748.27	144.385
752.867	63.4609
757.461	145.961
762.053	46.5156
766.641	103.09
771.228	28.6289
775.812	6.29102
780.393	40.2402
784.972	56.1562
789.548	69.7344
794.121	88.6133
798.692	58.418
803.261	75.9023
807.827	54.3242
812.39	14.8926
816.951	72.9766
821.509	75.3359
826.064	27.2148
830.617	121.975
835.168	22.168
839.716	155.377
844.261	168.82
848.804	16.8184
853.344	130.613
857.881	118.147
862.416	3.23047
866.948	0.705078
871.478	24.4492
876.005	151.94
880.53	171.461
885.052	112.148
889.571	90.9043
894.088	23.8008
898.602	201.879
903.113	196.799
907.622	95.8535
912.128	246.373
916.632	294.477
921.133	338.695
925.631	135.793
930.127	339.897
934.62	177.846
939.111	226.252
943.599	242.473
948.084	14.7773
952.567	26.332
957.047	43.7988
961.524	75.0957
965.999	161.062
970.471	136.631
974.941	21.3379
979.408	155.486
983.872	186.26
988.333	233.096
992.792	32.5605
997.249	238.49
1001.7	79.6777
1006.15	6.88086
1010.6	207.549
1015.05	77
1019.49	108.357
1023.93	93.1953
1028.37	208.609
1032.8	18.8672
1037.24	71.0254
1041.66	106.385
1046.09	69.4199
1050.52	257.658
1054.94	284.582
1059.36	36.4902
1063.77	302.166
1068.19	274.562
1072.6	296.594
1077.01	304.719
1081.41	18.4863
1085.82	274.894
1090.22	284.359
1094.61	463.477
1099.01	476.174
1103.4	321.383
1107.79	356.315
1112.18	408.035
1116.56	250.465
1120.94	224.107
1125.32	251.582
1129.7	181.086
1134.07	357.416
1138.44	312.56
1142.81	186.51
1147.18	311.219
1151.54	247.559
1155.9	194.853
1160.26	242.338
1164.61	303.522
1168.96	485.58
1173.31	537.732
1177.66	623.279
1182	502.996
1186.34	514.951
1190.68	615.281
1195.02	423.055
1199.35	492.853
1203.68	521.07
1208.01	498.904
1212.33	549.359
1216.65	509.51
1220.97	777.312
1225.29	433.768
1229.6	586.654
1233.91	580.246
1238.22	517.615
1242.53	568.211
1246.83	567.848
1251.13	577.164
1255.43	708.092
1259.72	711.613
1264.01	746.008
1268.3	577.756
1272.59	705.658
1276.87	335.482
1281.15	519.518
1285.43	393.945
1289.7	479.752
1293.98	457.902
1298.25	438.41
1302.51	427.303
1306.78	243.74
1311.04	213.603
1315.3	270.008
1319.56	150.475
1323.81	365.397
1328.06	148.125
1332.31	210.143
1336.55	265.94
1340.79	83.5957
1345.03	224.141
1349.27	201.522
1353.5	14.3047
1357.73	94.457
1361.96	49.0195
1366.19	132.924
1370.41	18.8379
1374.63	20.4004
1378.85	85.8887
1383.06	92.8691
1387.27	143.861
1391.48	21.5312
1395.69	77.3867
1399.89	72.0938
1404.09	207.078
1408.29	135.512
1412.48	205.506
1416.68	92.375
1420.87	202.59
1425.05	20.2383
1429.24	122.254
1433.42	19.3047
1437.6	54.2949
1441.77	210.916
1445.94	233.838
1450.11	288.769
1454.28	137.316
1458.44	291.174
1462.61	122.166
1466.76	195.268
1470.92	216.184
1475.07	174.617
1479.22	262.713
1483.37	261.56
1487.52	285.754
1491.66	342.254
1495.8	197.662
1499.93	351.959
1504.06	174.781
1508.19	201.553
1512.32	213.519
1516.45	10.4453
1520.57	190.971
1524.69	238.65
1528.8	7.19922
1532.92	167.434
1537.03	222.938
1541.14	280.082
1545.24	179.525
1549.34	184.838
1553.44	331.602
1557.54	304.746
1561.63	301.606
1565.72	115.529
1569.81	226.902
1573.9	17.3438
1577.98	49.7461
