Measurement: Raman, 514 nm, ccw, Raman Data Processed
Mineral: Franklinite
Rruff sample: R070137
Ideal chemistry: Zn^2+^Fe^3+^_2_O_4_
Locality: Franklin mine, Franklin, Sussex County, New Jersey, USA
Source: Michael Scott
Description: Gray semi-metallic octahedral crystals associated with calcite
Measured chemistry: (Zn_0.63_Mn_0.36_Mg_0.01_)_Σ=1_(Fe^3+^_1.96_Al_0.04_)_Σ=2_O_4_
Pin_id: L01062
Orientation: Laser parallel to c* (0 0 1). Fiducial mark perpendicular to laser is parallel to a [1 0 0]
Raman shift (cm-1)	intensity
134.766	0
139.672	524.562
144.576	24.4609
149.478	308.625
154.377	434.623
159.274	516.246
164.169	820.648
169.061	276.842
173.951	159.051
178.839	484.33
183.725	224.969
188.609	354.441
193.49	398.619
198.369	438.961
203.246	483.129
208.12	538.898
212.992	151.977
217.862	313.945
222.73	148.717
227.595	29.8008
232.458	0.748047
237.319	322.191
242.178	94.0098
247.034	35.0703
251.888	81.6484
256.739	243.256
261.588	0.332031
266.435	104.033
271.28	180.398
276.123	114.781
280.963	12.6152
285.8	249.529
290.636	180.748
295.469	375.916
300.3	561.885
305.128	508.408
309.954	775.59
314.778	877.812
319.6	812.869
324.419	939.863
329.236	1186.35
334.05	1318.36
338.862	1439.69
343.672	1840.56
348.479	1857.33
353.284	1885.83
358.087	1585.22
362.887	1475.62
367.685	960.518
372.481	778.305
377.274	628.678
382.065	465.565
386.854	289.986
391.64	155.127
396.424	115.107
401.205	57.3906
405.984	29.3047
410.761	67.2656
415.535	120.209
420.307	99.6992
425.077	176.065
429.844	60.2148
434.609	5.28125
439.371	189.307
444.131	159.822
448.888	209.144
453.643	253.844
458.396	306.467
463.146	489.184
467.894	391.254
472.64	353.545
477.383	803.871
482.124	712.269
486.862	971.773
491.598	1102.06
496.331	1072.34
501.062	1345.66
505.791	1408.4
510.517	1492.43
515.24	1744.89
519.962	1485.84
524.68	1808.38
529.397	1961.46
534.111	1897.19
538.822	2071.62
543.531	2054.62
548.238	2269.55
552.942	2484.31
557.643	2660.16
562.343	3049.44
567.039	3409.58
571.734	3731.07
576.425	3898.42
581.115	4586.41
585.802	5547.09
590.486	7951.23
595.168	10254.9
599.848	12999.2
604.524	13632.2
609.199	14103
613.871	13449.5
618.541	12741.5
623.208	12160.9
627.872	11454.8
632.534	10679.6
637.194	10379.6
641.851	9654.68
646.506	8571.16
651.158	8156.71
655.807	7429.66
660.454	6935.68
665.099	6352.42
669.741	6019.65
674.381	5487.5
679.018	4877.5
683.652	4387.34
688.284	3759.7
692.914	3175.29
697.541	2382.45
702.165	2098.93
706.787	1478.09
711.406	1225.37
716.023	962.732
720.638	735.115
725.249	431.578
729.859	400.361
734.465	315.014
739.07	262.984
743.671	0.076172
748.27	161.918
752.867	4.1543
757.461	200.125
762.053	85.25
766.641	59.084
771.228	137.475
775.812	12.0645
780.393	58.6172
784.972	47.2344
789.548	172.699
794.121	88.3398
798.692	144.815
803.261	1.14844
807.827	47.2383
812.39	14.668
816.951	63.7109
821.509	11.2246
826.064	36.7832
830.617	21.9629
835.168	37.4531
839.716	151.522
844.261	28.4277
848.804	105.248
853.344	16.291
857.881	13.3789
862.416	151.199
866.948	60.8633
871.478	65.2422
876.005	157.125
880.53	63.4961
885.052	137.688
889.571	123.58
894.088	35.7461
898.602	372.998
903.113	303.922
907.622	206.857
912.128	375.152
916.632	242.441
921.133	291.022
925.631	281.31
930.127	407.643
934.62	322.414
939.111	374.072
943.599	253.367
948.084	234.356
952.567	226.33
957.047	411.039
961.524	185.342
965.999	216.356
970.471	173.957
974.941	166.777
979.408	270.406
983.872	211.772
988.333	343.324
992.792	265.527
997.249	235.537
1001.7	113.951
1006.15	228.416
1010.6	248.908
1015.05	268.023
1019.49	42.4082
1023.93	229.303
1028.37	72.5938
1032.8	302.086
1037.24	107.217
1041.66	188.676
1046.09	260.525
1050.52	100.871
1054.94	264.107
1059.36	264.332
1063.77	100.363
1068.19	110.451
1072.6	67.2246
1077.01	133.42
1081.41	142.15
1085.82	118.65
1090.22	172.842
1094.61	139.736
1099.01	252.414
1103.4	354.951
1107.79	91.1445
1112.18	289.106
1116.56	292.981
1120.94	182.688
1125.32	57.0039
1129.7	240.066
1134.07	75.3945
1138.44	284.228
1142.81	268.123
1147.18	148.668
1151.54	46.2871
1155.9	223.033
1160.26	93.8008
1164.61	100.482
1168.96	158.023
1173.31	343.625
1177.66	192.356
1182	341.156
1186.34	475.139
1190.68	516.139
1195.02	569.961
1199.35	400.584
1203.68	324.004
1208.01	727.162
1212.33	678.074
1216.65	467.703
1220.97	394.043
1225.29	338.074
1229.6	638.816
1233.91	537.604
1238.22	445.324
1242.53	476.074
1246.83	473.469
1251.13	627.572
1255.43	398.457
1259.72	448.643
1264.01	494.283
1268.3	467.365
1272.59	325.834
1276.87	341.984
1281.15	476.537
1285.43	481.728
1289.7	516.816
1293.98	355.803
1298.25	494.602
1302.51	316.625
1306.78	48.5527
1311.04	237.324
1315.3	133.656
1319.56	185.518
1323.81	81.0078
1328.06	71.5606
1332.31	92.6523
1336.55	238.082
1340.79	249.154
1345.03	293.019
1349.27	131.518
1353.5	271.393
1357.73	83.4844
1361.96	137.83
1366.19	301.227
1370.41	147.381
1374.63	172.316
1378.85	139.557
1383.06	243.246
1387.27	136.283
1391.48	169.953
1395.69	26.9629
1399.89	63.0977
1404.09	70.4394
1408.29	103.391
1412.48	146.572
1416.68	58.1699
1420.87	146.945
1425.05	73.4824
1429.24	21.8867
1433.42	212.074
1437.6	94.668
1441.77	102.512
1445.94	85.9863
1450.11	23.1289
1454.28	119.35
1458.44	165.582
1462.61	227.981
1466.76	286.268
1470.92	263.9
1475.07	148.928
1479.22	286.512
1483.37	323.543
1487.52	368.793
1491.66	387.045
1495.8	363.658
1499.93	241.91
1504.06	333.836
1508.19	318.613
1512.32	300.594
1516.45	71.6484
1520.57	152.035
1524.69	173.283
1528.8	314.178
1532.92	318.775
1537.03	351.908
1541.14	175.076
1545.24	302.344
1549.34	107.861
1553.44	155.51
1557.54	150.197
1561.63	108.033
1565.72	192.019
1569.81	187.574
1573.9	120.031
1577.98	0.103516
