Measurement: Raman, 514 nm, depolarized, Raman Data Processed
Mineral: Gahnite
Rruff sample: R040027
Ideal chemistry: Zn^2+^Al_2_O_4_
Locality: Rowe, Franklin County, Massachusetts, USA
Source: University of Arizona Mineral Museum
Description: Dark blue octahedral single crystals embedded in quartz matrix
Measured chemistry: (Zn_0.83_Fe_0.11_Mg_0.06_)_Σ=1_(Al_0.96_Fe_0.04_)_Σ=2_O_4_
Pin_id: L00146
Orientation: Laser parallel to -c* (0 0 -1). Fiducial mark perpendicular to laser is parallel to -a [-1 0 0]
Raman shift (cm-1)	intensity
195.383	301.496
199.516	300.989
203.647	224.503
207.777	346.997
211.904	270.882
216.029	250.349
220.152	251.928
224.273	144.671
228.392	249.721
232.509	235.363
236.625	217.588
240.738	90.9795
244.849	100.876
248.958	67.5283
253.065	148.931
257.171	88.2949
261.274	10.4448
265.375	36.2051
269.475	46.2544
273.572	49.2095
277.667	9.17627
281.76	37.8389
285.852	91.8047
289.941	1.92188
294.029	43.2109
298.114	79.272
302.198	12.0342
306.279	5.04199
310.359	59.5972
314.436	77.5337
318.512	118.43
322.586	108.061
326.657	181.296
330.727	168.16
334.795	239.803
338.861	134.445
342.924	202.353
346.986	264.254
351.046	334.921
355.104	395.731
359.16	448.477
363.214	418.136
367.267	431.102
371.317	380.727
375.365	345.653
379.411	328.889
383.456	345.096
387.498	471.514
391.539	634.655
395.577	978.333
399.614	1390.28
403.649	1825.9
407.681	3279.26
411.712	8877.6
415.741	15376
419.768	7233.22
423.793	2175.31
427.816	991.953
431.837	693.919
435.857	439.921
439.874	366.172
443.889	316.556
447.903	184.501
451.914	83.4141
455.924	103.774
459.932	0.054199
463.938	20.4023
467.941	28.4058
471.943	142.026
475.944	197.576
479.942	169.558
483.938	132.578
487.932	88.0772
491.925	198.324
495.915	125.671
499.904	31.3652
503.891	58.376
507.876	236.34
511.859	290.871
515.84	218.351
519.819	193.797
523.796	265.222
527.771	289.646
531.745	231.083
535.716	24.5586
539.686	37.9116
543.654	57.436
547.62	17.6577
551.584	77.4204
555.546	239.981
559.506	319.745
563.465	525.712
567.421	614.914
571.376	574.378
575.329	500.079
579.279	486.018
583.228	696.155
587.175	816.535
591.121	898.205
595.064	1061.3
599.006	1200.99
602.945	1354.66
606.883	1716.72
610.819	2115.02
614.753	3149.25
618.685	4200.75
622.615	4988.44
626.544	5240.62
630.471	4287.04
634.395	3072.64
638.318	2474.39
642.239	2378.3
646.158	2943.36
650.076	4147.56
653.991	6867.93
657.905	8394.55
661.817	5232.19
665.726	2198.98
669.635	984.894
673.541	403.932
677.445	226.097
681.348	124.385
685.248	150.796
689.147	375.327
693.044	727.976
696.94	1197.67
700.833	1684.65
704.724	1936.2
708.614	1760.86
712.502	1408.34
716.388	933.949
720.272	693.209
724.155	640.808
728.035	638.887
731.914	697.396
735.791	794.8
739.666	1042.6
743.539	1480.95
747.41	1981.58
751.28	2610.38
755.148	3108.43
759.014	3040.03
762.878	2590.9
766.74	1956.49
770.601	1695.93
774.46	1492.06
778.316	1182.16
782.172	1084.33
786.025	873.04
789.876	759.082
793.726	601.46
797.574	507.328
801.42	448.921
805.264	451.562
809.107	324.465
812.947	247.638
816.786	236.869
820.623	224.373
824.459	179.392
828.292	178.511
832.124	101.578
835.954	108.391
839.782	72.0312
843.608	54.8601
847.433	48.4329
851.255	50.2383
855.076	37.938
858.895	34.5005
862.713	35.3003
866.528	19.6753
870.342	9.98535
874.154	7.81128
877.965	64.0874
881.773	45.7119
885.58	52.2029
889.385	5.14502
893.188	8.60205
896.989	30.1265
900.789	14.6099
904.587	58.3186
908.383	4.49561
912.177	1.81445
915.97	12.3059
919.76	15.512
923.55	51.7458
927.337	83.8447
931.122	14.7732
934.906	25.8364
938.688	74.2361
942.468	95.9309
946.247	66.6523
950.023	105.085
953.798	113.205
957.572	82.3875
961.343	171.329
965.113	116.068
968.881	101.531
972.647	144.344
976.411	120.805
980.174	132.196
983.935	144.918
987.694	133.185
991.452	174.128
995.207	156.237
998.961	158.238
1002.71	117.506
1006.46	181.681
1010.21	100.29
1013.96	121.607
1017.71	118.159
1021.45	99.8506
1025.19	127.766
1028.93	90.4898
1032.67	155.987
1036.41	137.154
1040.14	100.645
1043.87	31.3872
1047.61	127.891
1051.34	49.0188
1055.06	123.747
1058.79	145.289
1062.52	59.2512
1066.24	87.9622
1069.96	39.6777
1073.68	98.772
1077.4	49.8203
1081.11	83.7461
1084.83	39.8225
1088.54	64.4959
1092.25	27.3682
1095.96	51.4988
1099.67	2.22754
1103.37	3.09228
1107.08	10.1726
1110.78	36.3132
1114.48	32.9321
1118.18	48.8381
1121.88	72.7063
1125.57	71.6316
1129.27	41.3672
1132.96	46.1799
1136.65	53.9363
1140.34	42.9148
1144.02	22.5874
1147.71	15.177
1151.39	15.9504
1155.07	35.1787
1158.76	9.54419
1162.43	5.0813
1166.11	66.9773
1169.79	24.7371
1173.46	14.5718
1177.13	62.374
1180.8	57.1465
1184.47	67.3625
1188.14	89.2124
1191.8	98.7244
1195.46	115.2
1199.13	108.947
1202.79	88.1965
1206.45	59.9182
1210.1	44.9202
1213.76	54.1921
1217.41	77.4187
1221.06	134.246
1224.71	94.9792
1228.36	66.0513
1232.01	118.391
1235.65	110.721
1239.3	116.139
1242.94	119.521
1246.58	168.522
1250.22	202.71
1253.85	174.98
1257.49	188.091
1261.12	200.988
1264.75	128.965
1268.38	122.325
1272.01	93.6128
1275.64	85.5659
1279.27	83.0449
1282.89	13.721
1286.51	47.7634
1290.13	29.9871
1293.75	2.61987
1297.37	61.4497
1300.98	12.1614
1304.6	44.3565
1308.21	59.8562
1311.82	57.0102
1315.43	36.2471
1319.03	98.9346
1322.64	16.6802
1326.24	68.23
1329.85	66.0762
1333.44	5.09277
1337.04	18.7261
1340.64	49.5249
1344.24	25.9023
1347.83	9.65137
1351.42	94.8272
1355.01	69.5054
1358.6	40.145
1362.19	5.54541
1365.78	91.6108
1369.36	116.774
1372.94	31.709
1376.53	61.7627
1380.1	140.735
1383.68	105.006
1387.26	180.222
1390.83	178.381
1394.41	222.489
1397.98	206.525
1401.55	190.181
1405.12	187.666
1408.68	163.508
1412.25	188.553
1415.81	140.954
1419.37	146.377
1422.93	114.687
1426.49	56.9209
1430.05	156.766
1433.6	86.7524
1437.15	29.6914
1440.71	57.7163
1444.26	53.2012
1447.81	1.82715
1451.35	36.0117
1454.9	86.1743
1458.44	95.0938
1461.98	42.7559
1465.53	96.2622
1469.07	119.876
1472.6	155.453
1476.14	117.281
1479.67	31.3281
1483.21	34.396
1486.74	19.5361
1490.27	34.706
1493.8	8.02051
1497.32	16.8018
1500.85	78.1313
1504.37	69.8008
1507.89	38.6133
1511.41	18.9585
1514.93	27.0518
1518.45	0.17627
