Measurement: Raman, 514 nm, depolarized, Raman Data Processed
Mineral: Gaspeite
Rruff sample: R040157
Ideal chemistry: Ni^2+^CO_3_
Locality: Lemieux Township, Gaspe Nord County, Gaspe Peninsula, Quebec, Canada
Source: University of Arizona Mineral Museum
Description: Green massive
Measured chemistry: (Ni_0.54_Mg_0.31_Fe_0.15_Ca_0.01_Co_0.01_)C_1.00_O_3_; = the gray bands. Light grey bands are also gaspeite: (Ni_0.57_Mg_0.41_Fe_0.08_)C_0.97_O_3_; Dark grey bands, magnesite: (Mg_0.98_Fe_0.04_Ni_0.03_)C_0.97_O_3_
Pin_id: M00309
Raman shift (cm-1)	intensity
87.101	0
91.284	195.77
95.465	281.738
99.644	17.291
103.82	6.682
107.995	170.055
112.168	363.938
116.339	738.687
120.508	276.609
124.675	165.556
128.84	109.315
133.003	192.976
137.164	335.229
141.323	420.11
145.48	360.54
149.635	351.619
153.788	344.874
157.939	340.292
162.088	287.47
166.235	360.618
170.38	390.976
174.523	362.993
178.664	387.57
182.803	316.194
186.94	370.238
191.076	375.718
195.209	374.983
199.34	394.662
203.47	464.117
207.597	754.571
211.722	1327.09
215.846	2164.37
219.967	3133.24
224.087	3412.74
228.204	1939.95
232.32	580.186
236.434	87.068
240.545	21.544
244.655	58.177
248.763	96.36
252.869	52.186
256.973	95.248
261.075	21.465
265.175	6.804
269.273	89.422
273.369	115.135
277.463	107.027
281.556	231.677
285.646	253.238
289.734	262.414
293.821	309.586
297.905	328.411
301.988	436.262
306.069	485.835
310.147	653.57
314.224	911.453
318.299	1477.34
322.372	2813.51
326.443	6529.01
330.512	12982
334.579	14152.4
338.645	9508.78
342.708	4555.72
346.769	2407.43
350.829	1552.13
354.887	1150.94
358.942	907.924
362.996	841.226
367.048	800.585
371.098	758.484
375.146	641.473
379.192	612.743
383.236	657.153
387.279	671.887
391.319	672.226
395.358	680.539
399.394	569.672
403.429	578.489
407.462	482.215
411.493	484.635
415.522	356.697
419.549	284.269
423.575	331
427.598	283.741
431.619	228.312
435.639	242.925
439.657	186.824
443.673	224.859
447.687	245.016
451.699	185.238
455.709	219.974
459.717	224.469
463.724	305.951
467.728	116.148
471.731	235.645
475.732	245.71
479.731	275.034
483.728	291.597
487.723	336.506
491.716	330.262
495.708	345.785
499.697	352.736
503.685	331.953
507.671	413.858
511.655	377.734
515.637	408.397
519.617	345.081
523.596	356.676
527.572	267.178
531.547	202.605
535.52	296.811
539.491	338.356
543.46	167.364
547.427	173.235
551.393	138.849
555.356	134.976
559.318	100.178
563.278	168.687
567.236	130.606
571.192	145.818
575.147	99.595
579.099	5.774
583.05	28.196
586.999	41.438
590.946	19
594.891	55.985
598.834	11.155
602.776	60.065
606.715	98.715
610.653	8.312
614.589	8.395
618.523	15.3
622.456	2.43
626.386	13.013
630.315	5.558
634.242	6.565
638.167	35.082
642.09	104.072
646.012	63.02
649.931	24.866
653.849	63.868
657.765	26.877
661.679	49.183
665.592	52.454
669.502	61.233
673.411	87.039
677.318	62.923
681.223	94.801
685.126	56.736
689.028	74.446
692.927	132.896
696.825	83.755
700.721	97.212
704.616	105.529
708.508	161.864
712.399	122.859
716.288	147.201
720.175	320.373
724.06	398.622
727.944	568.858
731.825	875.17
735.705	1232.66
739.584	1800.66
743.46	1520.24
747.334	913.038
751.207	548.667
755.078	322.513
758.947	257.984
762.815	243.234
766.68	127.239
770.544	137.055
774.406	35.142
778.267	66.267
782.125	10
785.982	12.099
789.837	78.916
793.69	48.432
797.542	4.674
801.391	46.421
805.239	27.074
809.085	27.955
812.93	42.844
816.772	29.687
820.613	24.056
824.452	73.517
828.29	100.927
832.125	80.055
835.959	15.093
839.791	6.998
843.621	66.845
847.45	10.476
851.277	44.112
855.102	57.8
858.925	62.587
862.746	43.455
866.566	132.782
870.384	201.05
874.2	119.263
878.015	111.298
881.828	50.537
885.639	10.404
889.448	29.561
893.256	31.462
897.061	15.283
900.865	27.993
904.668	29.381
908.468	105.142
912.267	104.609
916.064	139.999
919.86	14.348
923.653	24.653
927.445	53.785
931.236	48.878
935.024	105.233
938.811	55.424
942.596	48.823
946.379	42.417
950.161	9.891
953.94	52.508
957.719	62.21
961.495	96.784
965.27	104.832
969.043	92.891
972.814	62.669
976.583	67.269
980.351	135.038
984.117	160.51
987.882	78.716
991.644	125.126
995.405	92.981
999.165	127.482
1002.92	92.234
1006.68	137.41
1010.43	172.506
1014.18	94.469
1017.93	125.413
1021.68	236.518
1025.43	192.646
1029.18	298.812
1032.92	271.07
1036.66	345.07
1040.4	305.77
1044.14	383.996
1047.88	450.498
1051.62	465.696
1055.35	713.032
1059.08	835.694
1062.81	1081.65
1066.54	1581.49
1070.27	2277.92
1073.99	3776.81
1077.72	6053.32
1081.44	10789.4
1085.16	19376.4
1088.88	30273.8
1092.59	35521.6
1096.31	30259.7
1100.02	19287.5
1103.73	11426
1107.44	7104.17
1111.15	4702.55
1114.86	2916.16
1118.57	2098.47
1122.27	1765.63
1125.97	1123.71
1129.67	713.94
1133.37	609.122
1137.07	527.955
1140.76	320.471
1144.45	238.993
1148.15	171.616
1151.84	174.862
1155.53	173.583
1159.21	183.353
1162.9	232.651
1166.58	89.404
1170.26	26.111
1173.94	79.427
1177.62	48.06
1181.3	2.549
1184.97	85.071
1188.65	95.508
1192.32	99.04
1195.99	104.942
1199.66	28.32
1203.33	82.212
1206.99	65.643
1210.65	71.552
1214.32	83.545
1217.98	53.809
1221.64	124.899
1225.29	161.23
1228.95	173.551
1232.6	56.215
1236.26	81.513
1239.91	62.96
1243.56	132.799
1247.2	34.525
1250.85	164.139
1254.49	86.661
1258.13	51.089
1261.78	105.415
1265.41	115.639
1269.05	2.278
1272.69	143.567
1276.32	140.223
1279.95	5.735
1283.59	107.112
1287.21	158.192
1290.84	139.878
1294.47	84.7
1298.09	53.316
1301.72	19.099
1305.34	50.589
1308.96	94.859
1312.58	49.943
1316.19	9.149
1319.81	3.506
1323.42	12.956
1327.03	42.966
1330.64	10.128
1334.25	2.531
1337.86	18.982
1341.46	61.792
1345.07	56.801
1348.67	77.385
1352.27	79.779
1355.87	133.123
1359.46	133.182
1363.06	56.026
1366.65	88
1370.25	76.725
1373.84	46.551
1377.43	145.361
1381.02	34.95
1384.6	118.691
1388.18	98.383
1391.77	160.012
1395.35	103.471
1398.93	104.149
1402.51	199.165
1406.08	212.059
1409.66	491.163
1413.23	837.597
1416.8	1332.58
1420.37	1940.29
1423.94	2247.45
1427.51	2446.21
1431.08	2591.58
1434.64	2375.66
1438.2	2049.74
1441.76	1744.05
1445.32	1347.74
1448.88	992.562
1452.43	777.758
1455.99	599.327
1459.54	509.269
1463.09	470.929
1466.64	370.069
1470.19	485.473
1473.74	286.159
1477.28	361.834
1480.83	271.031
1484.37	297.76
1487.91	269.519
1491.45	183.307
1494.98	235.825
1498.52	174.748
1502.05	168.148
1505.59	167.329
1509.12	161.811
1512.65	145.997
1516.17	8.911
1519.7	137.834
1523.23	23.57
1526.75	65.723
1530.27	45.065
1533.79	0
