Measurement: Raman, 514 nm, ccw, Raman Data Processed
Mineral: Gaylussite
Rruff sample: R040146
Ideal chemistry: Na_2_Ca(CO_3_)_2_5H_2_O
Locality: Searles Lake, Trona, San Bernardino County, California, USA
Source: University of Arizona Mineral Museum
Description: Colorless crystal fragments
Measured chemistry: Na_2.00_Ca_1.00_(C_1.00_O_3_)_2_Â·5H_2_O
Pin_id: L00121
Orientation: Laser parallel to c* (0 0 1). Fiducial mark perpendicular to laser is parallel to a [1 0 0]
Raman shift (cm-1)	intensity
96.403	0
101.381	18326.3
106.355	10264.1
111.326	3623.08
116.294	6820.61
121.259	12969.9
126.22	12590
131.178	6072.84
136.133	1286.51
141.084	501.627
146.032	4765.58
150.978	6735.55
155.919	7201.98
160.858	9928.02
165.793	11005.9
170.726	5381.33
175.655	1199.5
180.58	698.564
185.503	1415.08
190.422	1281.07
195.339	563.184
200.252	676.701
205.162	3070.94
210.068	3104.37
214.972	2216.05
219.872	2838.95
224.769	4260.84
229.663	4627.6
234.554	4759.58
239.442	3961.62
244.327	3533.8
249.208	5598.97
254.087	10224
258.962	13423.9
263.834	13629.3
268.703	9786.39
273.569	5537.97
278.432	3510.62
283.292	2760.3
288.149	2003.18
293.002	1396.97
297.853	1330.48
302.7	1214.57
307.545	1014.71
312.386	735.18
317.224	719.137
322.059	773.779
326.891	998.643
331.721	1025.52
336.547	784.654
341.37	848.768
346.19	546.984
351.007	366.685
355.821	119.672
360.632	140.09
365.44	83.6387
370.244	65.6269
375.046	94.6406
379.845	76.9766
384.641	149.711
389.434	200.102
394.224	167.531
399.011	220.498
403.795	282.125
408.576	336.273
413.354	408.162
418.13	472.103
422.902	390.338
427.671	342.053
432.437	694.523
437.201	812.455
441.961	522.109
446.719	401.1
451.473	494.978
456.225	733.416
460.974	944.418
465.72	633.846
470.463	869.856
475.203	756.701
479.94	937.863
484.674	1044.06
489.405	1517.06
494.134	1754.45
498.86	2029.43
503.582	2362.14
508.302	2632.78
513.019	3499.6
517.733	4056.26
522.445	4527.61
527.153	3610.55
531.859	2675.8
536.561	2153.63
541.261	1163.64
545.959	1151.07
550.653	779.939
555.344	1212.48
560.033	1084.23
564.719	1206.96
569.402	1190.17
574.082	1222.44
578.759	1159.68
583.434	886.428
588.106	754.232
592.775	449.549
597.441	382.988
602.105	471.69
606.766	77.3496
611.423	286.725
616.079	61.2695
620.731	108.6
625.381	123.17
630.028	330.748
634.672	302.723
639.313	405.188
643.952	819.629
648.588	931.387
653.221	1316.91
657.852	1532.25
662.48	2086.51
667.105	2012.19
671.727	1504.31
676.347	1196.94
680.964	1148.82
685.578	1316.53
690.19	1402.6
694.799	1625.74
699.405	1313.93
704.009	1414.36
708.61	1196.85
713.208	1346.95
717.803	2129.35
722.396	2107.73
726.987	564.84
731.574	126.812
736.159	171.613
740.741	53.1523
745.321	14.7578
749.898	119.223
754.472	195.066
759.044	26.5547
763.613	76.7578
768.18	226.613
772.744	44.1328
777.305	219.054
781.864	93.543
786.42	116.527
790.973	-0.912197
795.524	135.141
800.073	25.7969
804.618	277.586
809.162	235.926
813.702	297.664
818.24	239.894
822.776	51.5664
827.309	66.7266
831.839	337.199
836.367	183.527
840.892	281.195
845.414	66.2266
849.935	383.766
854.452	365.832
858.967	479.094
863.48	590.606
867.99	470.074
872.497	599.328
877.002	1061.86
881.505	1080.1
886.005	824.734
890.502	1063.52
894.997	1199.64
899.489	1300.72
903.979	1296.04
908.467	1589.52
912.952	1041.82
917.434	813.664
921.914	446.93
926.392	449.219
930.867	580.602
935.34	252.324
939.81	336.481
944.277	507.047
948.743	54.293
953.205	199.324
957.666	440.231
962.124	57.8906
966.579	49.8125
971.032	291.469
975.483	197.18
979.931	222.887
984.377	191.793
988.82	299.711
993.261	240.668
997.699	306.457
1002.14	236.664
1006.57	273.551
1011	221.164
1015.43	4.45312
1019.86	206.633
1024.28	167.234
1028.7	313.555
1033.12	480.5
1037.54	840.344
1041.95	801.062
1046.37	1089.19
1050.78	2261.76
1055.18	2580.34
1059.59	5027.81
1063.99	18041.5
1068.39	103401
1072.79	149560
1077.18	21161.8
1081.58	4484.44
1085.97	2242.84
1090.36	1420.99
1094.74	976.184
1099.13	434.238
1103.51	203.516
1107.89	268.484
1112.27	581.457
1116.64	213.863
1121.02	393.148
1125.39	269.238
1129.75	5.33594
1134.12	371.941
1138.48	359.207
1142.85	179.531
1147.2	76.9844
1151.56	203.789
1155.91	227.348
1160.27	242.883
1164.62	318.742
1168.96	169.902
1173.31	225.199
1177.65	12.168
1181.99	99.9375
1186.33	441.449
1190.67	20.9062
1195	192.106
1199.33	124.887
1203.66	55.707
1207.99	214.555
1212.32	313.672
1216.64	85.5195
1220.96	36.2461
1225.28	180.773
1229.6	100.191
1233.91	27.4844
1238.22	570.594
1242.53	70.8828
1246.84	284.148
1251.14	41.2109
1255.45	11.5781
1259.75	433.492
1264.05	226.606
1268.34	224.117
1272.64	476.027
1276.93	53.8984
1281.22	276.266
1285.51	112.672
1289.79	275.203
1294.08	414.656
1298.36	488.598
1302.64	126.914
1306.92	104.816
1311.19	416.981
1315.46	284.16
1319.73	297.012
1324	323.09
1328.27	410.41
1332.54	245.59
1336.8	263.328
1341.06	293.09
1345.32	493.957
1349.57	431.684
1353.83	435.555
1358.08	705.535
1362.33	638.602
1366.57	528.328
1370.82	418.676
1375.06	564.742
1379.3	810.019
1383.54	1270.11
1387.78	1644.15
1392.02	3016.79
1396.25	3946.25
1400.48	3446.95
1404.71	2393.76
1408.94	2053.62
1413.16	2154.35
1417.38	2295.53
1421.6	2667.94
1425.82	3633.5
1430.04	4248.33
1434.25	3722.72
1438.47	3893.87
1442.68	2513.07
1446.88	1888.92
1451.09	1618.74
1455.3	1123.15
1459.5	924.785
1463.7	828.719
1467.9	486
1472.09	836.559
1476.29	356.633
1480.48	718.496
1484.67	162.148
1488.86	285.246
1493.05	66.5176
1497.23	117.828
1501.41	449.43
1505.59	101.266
1509.77	164.711
1513.95	463.586
1518.12	457.781
1522.29	799.93
1526.46	363.336
1530.63	764.055
1534.8	646.164
1538.96	379.641
1543.13	582.773
1547.29	60.2734
1551.45	271.117
1555.6	470.203
1559.76	685.734
1563.91	372.875
1568.06	40.2344
1572.21	523.297
1576.36	525.273
1580.5	686.648
