Measurement: Raman, 514 nm, depolarized, Raman Data Processed
Mineral: Gaylussite
Rruff sample: R040146
Ideal chemistry: Na_2_Ca(CO_3_)_2_5H_2_O
Locality: Searles Lake, Trona, San Bernardino County, California, USA
Source: University of Arizona Mineral Museum
Description: Colorless crystal fragments
Measured chemistry: Na_2.00_Ca_1.00_(C_1.00_O_3_)_2_Â·5H_2_O
Pin_id: L00275
Orientation: Laser parallel to b* (0 1 0). Fiducial mark perpendicular to laser is parallel to c [0 0 1]
Raman shift (cm-1)	intensity
100.848	0
105.03	65.344
109.21	254.696
113.388	1389.69
117.564	958.912
121.738	609.253
125.91	1008.88
130.08	1455.12
134.248	1122.2
138.413	690.098
142.577	618.451
146.739	556.108
150.898	622.094
155.056	929.912
159.212	1530.62
163.365	2005.95
167.517	2154.72
171.666	2649.11
175.813	2473.09
179.959	1763.43
184.102	1056.85
188.244	514.357
192.383	194.065
196.52	85.115
200.656	70.666
204.789	78.757
208.92	141.41
213.049	208.562
217.176	148.146
221.302	15.604
225.425	134.985
229.546	186.553
233.665	264.607
237.782	228.531
241.898	346.494
246.011	614.413
250.122	1180.95
254.231	2054.55
258.338	2539.44
262.443	2652.89
266.546	2156.68
270.647	1300.58
274.747	683.595
278.844	503.313
282.939	448.997
287.032	390.871
291.123	246.685
295.212	122.832
299.3	94.003
303.385	21.413
307.468	66.741
311.549	29.473
315.629	23.9
319.706	2.715
323.781	4.051
327.855	36.088
331.926	23.467
335.995	22.382
340.063	18.394
344.128	23.106
348.192	72.456
352.253	24.232
356.313	18.542
360.37	11.66
364.426	25.182
368.479	10.986
372.531	17.49
376.581	44.853
380.629	38.762
384.674	2.384
388.718	9.048
392.76	24.431
396.8	27.405
400.838	28.062
404.874	74.794
408.908	13.89
412.94	5.809
416.97	43.462
420.999	40.788
425.025	56.953
429.049	14.956
433.072	27.106
437.092	7.105
441.111	24.806
445.127	91.568
449.142	26.015
453.155	110.272
457.166	15.682
461.175	49.581
465.181	66.852
469.186	76.017
473.19	129.792
477.191	131.941
481.19	91.494
485.187	57.199
489.183	81.114
493.176	123.201
497.168	92.741
501.157	113.303
505.145	93.406
509.131	107.652
513.115	81.674
517.097	112.169
521.077	16.793
525.055	165.969
529.031	86.067
533.006	144.511
536.978	6.252
540.949	169.936
544.917	164.345
548.884	81.385
552.849	118.526
556.812	132.832
560.773	177.775
564.732	178.521
568.689	72.988
572.644	105.287
576.598	120.828
580.55	188.966
584.499	165.144
588.447	78.293
592.393	88.821
596.337	118.2
600.279	108.072
604.219	84.454
608.158	37.74
612.094	108.333
616.029	60.307
619.962	171.114
623.892	120.423
627.821	57.984
631.749	154.591
635.674	92.754
639.597	99.532
643.519	53.393
647.438	75.982
651.356	74.502
655.272	141.915
659.186	103.564
663.098	87.086
667.009	124.778
670.917	137.722
674.824	106.43
678.728	186.62
682.631	173.178
686.532	215.157
690.432	288.825
694.329	313.055
698.224	153.971
702.118	128.166
706.01	101.312
709.9	139.855
713.788	337.381
717.674	720.427
721.558	1204
725.441	599.735
729.322	232.064
733.201	240.161
737.078	59.416
740.953	131.656
744.826	13.254
748.698	36.882
752.567	35.039
756.435	73.996
760.301	88.54
764.165	7.319
768.028	98.459
771.888	127.477
775.747	133.118
779.604	89.062
783.459	4.162
787.312	39.088
791.164	18.689
795.013	133.034
798.861	125.602
802.707	89.321
806.551	8.954
810.394	25.554
814.234	81.15
818.073	124.615
821.91	79.066
825.745	127.427
829.578	3.226
833.41	9.288
837.24	125.061
841.068	22.63
844.894	67.91
848.718	20.829
852.54	23.582
856.361	75.62
860.18	171.817
863.997	85.019
867.812	132.233
871.626	75.455
875.438	115.705
879.248	152.974
883.056	247.249
886.862	207.529
890.667	157.816
894.469	80.592
898.27	180.142
902.07	241.393
905.867	257.657
909.663	174.04
913.457	73.486
917.249	84.437
921.039	131.427
924.827	64.617
928.614	146.011
932.399	94.274
936.182	108.781
939.964	44.405
943.744	26.958
947.521	73.658
951.298	192.304
955.072	98.944
958.845	142.508
962.615	0.149
966.384	22.437
970.152	137.997
973.917	112.874
977.681	66.685
981.443	61.312
985.203	105.35
988.962	16.27
992.719	33.709
996.474	62.656
1000.23	68.265
1003.98	108.107
1007.73	108.157
1011.48	23.168
1015.22	160.305
1018.97	30.72
1022.71	213.988
1026.45	281.254
1030.19	234.158
1033.93	145.882
1037.66	159.612
1041.4	208.23
1045.13	405.191
1048.86	559.235
1052.59	867.495
1056.32	655.12
1060.04	854.149
1063.77	1805.06
1067.49	5878.09
1071.21	43801.5
1074.93	19685.1
1078.64	3427.9
1082.36	1221.05
1086.07	660.292
1089.78	610.988
1093.49	299.649
1097.2	383.087
1100.91	238.779
1104.61	190.002
1108.32	278.502
1112.02	32.621
1115.72	49.278
1119.41	90.6
1123.11	241.051
1126.8	300.838
1130.5	169.532
1134.19	78.231
1137.88	34.049
1141.56	81.787
1145.25	165.11
1148.93	144.22
1152.62	219.702
1156.3	188.33
1159.98	73.009
1163.65	20.043
1167.33	131.451
1171	20.604
1174.68	49.713
1178.35	168.669
1182.02	202.744
1185.68	279.701
1189.35	284.278
1193.01	106.267
1196.67	1.646
1200.33	37.346
1203.99	156.312
1207.65	281.054
1211.31	294.599
1214.96	255.865
1218.61	328.021
1222.26	257.523
1225.91	77.134
1229.56	116.422
1233.2	185.504
1236.85	203.975
1240.49	242.837
1244.13	330.973
1247.77	258.973
1251.4	306.842
1255.04	64.561
1258.67	152.041
1262.3	99.405
1265.93	206.732
1269.56	203.486
1273.19	260.184
1276.82	196.344
1280.44	162.332
1284.06	66.671
1287.68	152.065
1291.3	72.958
1294.92	8.249
1298.53	165.764
1302.14	49.72
1305.76	203.424
1309.37	234.636
1312.98	287.828
1316.58	49.115
1320.19	21.066
1323.79	23.156
1327.39	55.106
1330.99	23.624
1334.59	77.766
1338.19	107.434
1341.79	187.133
1345.38	256.926
1348.97	193.083
1352.56	123.184
1356.15	203.268
1359.74	16.106
1363.32	74.068
1366.91	133.25
1370.49	262.738
1374.07	212.95
1377.65	321.946
1381.23	534.242
1384.8	377.635
1388.38	199.503
1391.95	341.951
1395.52	492.867
1399.09	424.765
1402.66	565.996
1406.22	363.025
1409.79	541.288
1413.35	527.67
1416.91	457.711
1420.47	376.994
1424.03	462.196
1427.59	496.173
1431.14	553.297
1434.69	434.972
1438.24	557.206
1441.8	485.404
1445.34	369.343
1448.89	512.854
1452.43	556.504
1455.98	550.706
1459.52	523.987
1463.06	386.332
1466.6	257.9
1470.14	300.122
1473.67	153.086
1477.2	146.743
1480.74	71.657
1484.27	297.518
1487.8	383.797
1491.32	430.68
1494.85	338.787
1498.37	498.58
1501.9	440.333
1505.42	274.464
1508.94	102.098
1512.45	4.661
1515.97	73.89
1519.49	0
