Measurement: Raman, 514 nm, depolarized, Raman Data Processed
Mineral: Gaylussite
Rruff sample: R040146
Ideal chemistry: Na_2_Ca(CO_3_)_2_5H_2_O
Locality: Searles Lake, Trona, San Bernardino County, California, USA
Source: University of Arizona Mineral Museum
Description: Colorless crystal fragments
Measured chemistry: Na_2.00_Ca_1.00_(C_1.00_O_3_)_2_Â·5H_2_O
Pin_id: L00288
Orientation: Laser parallel to a* (1 0 0). Fiducial mark perpendicular to laser is parallel to -b [0 -1 0]
Raman shift (cm-1)	intensity
95.268	0
99.453	322.891
103.636	1624.71
107.817	570.845
111.996	363.385
116.172	851.155
120.347	713.184
124.519	671.808
128.69	402.165
132.858	380.764
137.025	313.901
141.189	247.835
145.352	198.023
149.512	310.629
153.67	852.39
157.827	2263.2
161.981	5225.7
166.133	6638.36
170.283	4392.74
174.431	2443.2
178.577	1131.64
182.721	392.506
186.863	91.219
191.003	33.825
195.141	60.352
199.277	103.157
203.411	46.605
207.543	159.947
211.673	112.808
215.801	43.56
219.927	64.938
224.051	92.363
228.173	316.813
232.292	624.259
236.41	532.256
240.526	257.232
244.64	209.212
248.752	369.242
252.861	790.598
256.969	1290.06
261.075	2212.48
265.179	2681.78
269.281	1900.5
273.38	1092.96
277.478	952.175
281.574	942.953
285.668	665.391
289.76	458.026
293.85	270.817
297.937	150.07
302.023	133.281
306.107	15.132
310.189	25.641
314.269	22.003
318.347	54.357
322.423	34.915
326.497	16.48
330.569	23.61
334.639	1.037
338.707	66.181
342.773	64.379
346.837	16.043
350.899	54.927
354.96	26.836
359.018	96.261
363.074	75.281
367.128	9.187
371.181	43.859
375.231	63.943
379.28	39.222
383.326	1.289
387.37	2.985
391.413	36.382
395.454	40.815
399.492	41.127
403.529	16.481
407.564	108.615
411.596	51.453
415.627	69.037
419.656	47.368
423.683	71.553
427.708	97.63
431.731	78.488
435.752	71.11
439.772	61.55
443.789	139.754
447.804	159.759
451.817	98.561
455.829	79.16
459.838	158.678
463.846	163.879
467.852	139.889
471.855	134.772
475.857	157.974
479.857	205.706
483.855	111.27
487.851	191.055
491.845	134.752
495.837	211.983
499.828	266.502
503.816	144.995
507.802	173.47
511.787	324.101
515.77	255.537
519.75	216.013
523.729	245.32
527.706	271.442
531.681	257.193
535.654	177.238
539.625	65.815
543.595	90.22
547.562	163.703
551.527	201.449
555.491	99.267
559.453	97.822
563.412	169.777
567.37	182.017
571.326	221.736
575.28	144.112
579.233	74.203
583.183	164.083
587.131	180.533
591.078	149.72
595.022	56.536
598.965	85.456
602.906	179.992
606.845	77.412
610.782	79.13
614.718	29.27
618.651	103.064
622.582	146.811
626.512	126.76
630.44	91.002
634.366	85.792
638.29	122.915
642.212	206.172
646.132	202.389
650.05	151.611
653.967	172.733
657.882	263.074
661.794	262.444
665.705	271.055
669.614	195.462
673.522	148.683
677.427	196.988
681.331	210.234
685.232	174.393
689.132	107.782
693.03	143.26
696.926	187.754
700.82	159.282
704.713	133.784
708.603	25.291
712.492	107.791
716.379	325.292
720.264	653.789
724.147	414.317
728.028	117.854
731.908	70.403
735.785	108.93
739.661	188.388
743.535	113.812
747.407	56.265
751.278	14.705
755.146	79.157
759.013	104.602
762.878	75.102
766.741	2.51
770.602	41.131
774.461	85.182
778.319	89.939
782.174	108.06
786.028	102.083
789.88	58.054
793.73	45.982
797.579	44.036
801.425	110.88
805.27	154.677
809.113	36.473
812.954	19.225
816.794	4.145
820.631	210.915
824.467	139.615
828.301	45.303
832.133	62.98
835.963	15.416
839.792	114.305
843.618	70.492
847.443	226.199
851.266	44.767
855.088	53.291
858.907	60.507
862.725	277.882
866.541	378.365
870.355	220.833
874.167	159.29
877.978	108.737
881.787	159.172
885.594	159.596
889.399	257.743
893.202	221.591
897.004	110.913
900.803	153.357
904.601	182.672
908.398	234.121
912.192	137.478
915.985	204.945
919.776	15.638
923.565	80.398
927.352	148.826
931.138	181.128
934.922	242.423
938.704	130.615
942.484	60.024
946.262	1.527
950.039	99.72
953.814	239.039
957.587	235.514
961.359	101.109
965.128	26.355
968.896	7.318
972.662	101.733
976.427	146.052
980.189	262.558
983.95	126.999
987.709	25.503
991.467	25.739
995.222	74.337
998.976	85.937
1002.73	193.526
1006.48	266.828
1010.23	196.158
1013.97	60.708
1017.72	93.179
1021.46	171.71
1025.2	234.347
1028.94	287.129
1032.68	296.683
1036.42	163.704
1040.15	132.507
1043.89	203.35
1047.62	298.413
1051.35	727.306
1055.07	652.192
1058.8	792.021
1062.52	1261.34
1066.25	3134.18
1069.97	20651.4
1073.69	32254.4
1077.4	4957.63
1081.12	1569.28
1084.83	862.345
1088.55	508.788
1092.26	363.078
1095.96	248.255
1099.67	271.484
1103.38	343.591
1107.08	380.908
1110.78	196.339
1114.48	73.363
1118.18	14.492
1121.88	95.776
1125.57	115.186
1129.27	300.775
1132.96	221.762
1136.65	259.958
1140.34	107.382
1144.02	67.666
1147.71	8.628
1151.39	68.287
1155.07	89.328
1158.75	256.788
1162.43	323.659
1166.11	109.583
1169.78	167.588
1173.45	20.05
1177.12	93.383
1180.79	53.522
1184.46	127.407
1188.13	186.669
1191.79	233.516
1195.45	129.662
1199.11	182.424
1202.77	3.5
1206.43	14.815
1210.09	73.116
1213.74	207.979
1217.39	265.805
1221.05	291.22
1224.69	278.207
1228.34	172.571
1231.99	55.308
1235.63	89.049
1239.27	147.132
1242.91	175.602
1246.55	215.464
1250.19	295.777
1253.83	346.011
1257.46	193.151
1261.09	105.072
1264.72	0.566
1268.35	40.429
1271.98	73.729
1275.61	154.712
1279.23	258.039
1282.85	345.532
1286.47	213.463
1290.09	174.268
1293.71	123.372
1297.33	66.768
1300.94	15.898
1304.55	157.111
1308.16	212.685
1311.77	364.155
1315.38	335.507
1318.99	277.275
1322.59	215.27
1326.19	23.949
1329.79	39.728
1333.39	93.505
1336.99	6.472
1340.59	123.233
1344.18	249.995
1347.77	230.67
1351.37	255.799
1354.95	126.077
1358.54	159.812
1362.13	65.792
1365.71	143.977
1369.3	48.775
1372.88	25.778
1376.46	200.466
1380.04	240.065
1383.61	395.994
1387.19	441.561
1390.76	429.092
1394.33	427.963
1397.9	455.483
1401.47	244.018
1405.04	156.582
1408.6	168.194
1412.16	192.712
1415.72	352.996
1419.29	401.373
1422.84	351.778
1426.4	470.593
1429.96	285.091
1433.51	256.109
1437.06	111.375
1440.61	55.449
1444.16	80.236
1447.71	99.169
1451.25	176.773
1454.8	328.743
1458.34	375.406
1461.88	554.444
1465.42	457.784
1468.96	364.571
1472.49	352.396
1476.03	200.887
1479.56	172.793
1483.09	75.923
1486.62	81.423
1490.15	135.383
1493.67	203.347
1497.2	354.965
1500.72	336.745
1504.24	361.663
1507.76	430.154
1511.28	402.216
1514.8	323.138
1518.31	153.334
1521.83	0.296
