Measurement: Raman, 514 nm, depolarized, Raman Data Processed
Mineral: Gaylussite
Rruff sample: R040146
Ideal chemistry: Na_2_Ca(CO_3_)_2_5H_2_O
Locality: Searles Lake, Trona, San Bernardino County, California, USA
Source: University of Arizona Mineral Museum
Description: Colorless crystal fragments
Measured chemistry: Na_2.00_Ca_1.00_(C_1.00_O_3_)_2_Â·5H_2_O
Pin_id: L00121
Orientation: Laser parallel to c* (0 0 1). Fiducial mark perpendicular to laser is parallel to a [1 0 0]
Raman shift (cm-1)	intensity
98.892	0
103.868	7393.77
108.841	2587.49
113.81	6798.48
118.777	8799.99
123.74	10116.6
128.699	6914.74
133.656	3278.77
138.609	264.348
143.559	643.773
148.505	3513.72
153.449	4910.71
158.389	8229.48
163.326	13191.8
168.26	11229.7
173.19	5478.5
178.118	2075.69
183.042	183.844
187.963	664.141
192.881	469.676
197.796	286.246
202.707	383.731
207.615	1984.53
212.52	1587.36
217.422	1566.5
222.321	2949.38
227.217	4609.99
232.109	5978.94
236.999	5478.66
241.885	4343.75
246.768	6345.11
251.648	11235
256.525	17058.6
261.399	18893.2
266.269	15639.3
271.137	8840.32
276.001	4594.31
280.862	3065.38
285.721	2179.5
290.576	1366.67
295.428	847.336
300.277	931.676
305.123	235.648
309.966	332.125
314.805	259.898
319.642	94.5195
324.476	418.961
329.306	181.746
334.134	560.781
338.959	628.477
343.78	409.75
348.599	239.297
353.414	97.8516
358.226	21.875
363.036	274.133
367.842	173.195
372.646	244.43
377.446	152.981
382.244	118.867
387.038	103.152
391.83	15.8164
396.618	137.117
401.404	338.789
406.186	158.91
410.966	176.32
415.742	342.109
420.516	356.375
425.287	144.106
430.055	356.359
434.819	243.602
439.581	576.836
444.34	614.195
449.096	573.879
453.85	243.938
458.6	614.945
463.347	674.152
468.091	630.41
472.833	612.633
477.572	404.203
482.307	854.082
487.04	1151.11
491.77	1127.65
496.497	966.012
501.221	1416.26
505.943	1493.44
510.661	2140.82
515.377	2521.72
520.089	2681.74
524.799	2597.41
529.506	1965.99
534.21	1809.24
538.912	885.383
543.61	764.68
548.306	709.824
552.999	652.129
557.689	956.086
562.376	1015.57
567.061	1260.13
571.742	979.848
576.421	1321.79
581.097	1431.68
585.77	1267.11
590.441	1091.32
595.108	767.977
599.773	1115.36
604.435	435.438
609.095	332.297
613.751	145.168
618.405	331.449
623.056	466.023
627.705	850.273
632.35	318.285
636.993	517.559
641.633	284.195
646.271	748.078
650.905	936.793
655.537	1468.64
660.166	1720.77
664.793	1729.27
669.416	1578.73
674.038	896.336
678.656	996.312
683.272	1145.35
687.885	1338.09
692.495	1318.51
697.102	1041.47
701.707	1220.3
706.31	895.566
710.909	1401.31
715.506	2041.05
720.1	2878.28
724.692	1995.36
729.281	640.906
733.867	192.16
738.451	271.023
743.032	387.438
747.61	128.043
752.186	259.152
756.759	330.285
761.329	196.336
765.897	62.4102
770.462	132.469
775.025	284.051
779.585	58.7227
784.142	138.965
788.697	330.055
793.249	37.8672
797.799	441.578
802.346	133.141
806.89	316.734
811.432	490.82
815.971	281.57
820.508	398.117
825.042	293.43
829.574	275.508
834.103	188.391
838.63	297.789
843.153	745.844
847.675	732.93
852.194	431.859
856.71	835.125
861.224	905.523
865.735	670.484
870.244	663.828
874.75	1170.52
879.254	890.023
883.755	1087.72
888.254	1546.69
892.75	1592.57
897.244	1925.12
901.735	1542.25
906.223	1808.81
910.71	1510.46
915.193	1265.59
919.675	891.281
924.153	923.203
928.63	633.547
933.104	508.43
937.575	399.414
942.044	597.523
946.51	462.609
950.974	427.852
955.436	436.07
959.895	233.867
964.352	127.539
968.806	448.578
973.258	195.984
977.707	157.008
982.154	373.602
986.599	225.609
991.041	119.633
995.481	331.133
999.918	534.875
1004.35	680.273
1008.78	229.172
1013.22	226.773
1017.64	593.586
1022.07	98.8203
1026.49	557.547
1030.91	495.844
1035.33	160.836
1039.75	801.5
1044.16	1313.8
1048.57	2344.85
1052.98	2847.72
1057.39	4273.43
1061.79	10258.4
1066.19	56248.8
1070.59	226902
1074.99	78209.2
1079.38	12280.6
1083.78	4007.56
1088.16	1870.94
1092.55	905.594
1096.94	525.016
1101.32	674.664
1105.7	436.852
1110.08	481.359
1114.46	415.219
1118.83	270.992
1123.2	560.625
1127.57	210.125
1131.94	444.609
1136.3	558.641
1140.66	421.141
1145.03	590.609
1149.38	641.359
1153.74	759.508
1158.09	700.164
1162.44	912.234
1166.79	486.656
1171.14	369.234
1175.48	376.469
1179.82	564.273
1184.16	46.7188
1188.5	274.398
1192.84	162.055
1197.17	604.422
1201.5	394.328
1205.83	351.266
1210.15	990.43
1214.48	685.289
1218.8	259.828
1223.12	529.047
1227.44	378.953
1231.75	144.43
1236.07	129.883
1240.38	7.96875
1244.68	251.711
1248.99	571.305
1253.3	21.8906
1257.6	163.609
1261.9	596.172
1266.2	132.57
1270.49	244.211
1274.79	590.594
1279.08	445.828
1283.37	485.992
1287.65	43.0391
1291.94	812.867
1296.22	230.469
1300.5	39.1016
1304.78	293.203
1309.05	921.469
1313.33	207.734
1317.6	436.008
1321.87	663.492
1326.14	343.562
1330.4	487.109
1334.67	288.812
1338.93	754.758
1343.19	110.195
1347.44	599.258
1351.7	900.414
1355.95	449.125
1360.2	727.68
1364.45	889.18
1368.7	114.008
1372.94	284.844
1377.18	967.328
1381.42	589.875
1385.66	1737.09
1389.9	2615.66
1394.13	4409.33
1398.37	5111.8
1402.6	3231.12
1406.82	3494.71
1411.05	2352.62
1415.27	2055.67
1419.49	3180.66
1423.71	3616.99
1427.93	4752.83
1432.15	4564.56
1436.36	4748.26
1440.57	3629.19
1444.78	2573.04
1448.99	2181.23
1453.19	1304.46
1457.4	1357.5
1461.6	1518.01
1465.8	643.164
1469.99	1126.9
1474.19	378.906
1478.38	905.133
1482.58	1005.69
1486.77	146.234
1490.95	311.008
1495.14	280.961
1499.32	328.094
1503.5	286.523
1507.68	735.352
1511.86	2052.31
1516.03	1472.71
1520.21	1761.89
1524.38	1349.73
1528.55	1474.58
1532.72	1330.52
1536.88	445.469
1541.05	1165.15
1545.21	985.734
1549.37	456.023
1553.53	639.07
1557.68	237.844
1561.84	520.453
1565.99	658.781
1570.14	172.641
1574.29	622.789
1578.43	984.094
