Measurement: Raman, , ccw, Raman Data Processed
Mineral: Gaylussite
Rruff sample: R040146
Ideal chemistry: Na_2_Ca(CO_3_)_2_5H_2_O
Locality: Searles Lake, Trona, San Bernardino County, California, USA
Source: University of Arizona Mineral Museum
Description: Colorless crystal fragments
Measured chemistry: Na_2.00_Ca_1.00_(C_1.00_O_3_)_2_Â·5H_2_O
Pin_id: L00121
Orientation: Laser parallel to c* (0 0 1). Fiducial mark perpendicular to laser is parallel to a [1 0 0]
Raman shift (cm-1)	intensity
103.868	0
108.841	3853.1
113.81	11042.5
118.777	8433.04
123.74	3657.72
128.699	1988.59
133.656	343.234
138.609	221.217
143.559	228.805
148.505	79.9102
153.449	1038.84
158.389	2390.81
163.326	3520.72
168.26	4113.44
173.19	4342.06
178.118	3058.11
183.042	968.664
187.963	30.3555
192.881	252.231
197.796	87.6856
202.707	134.228
207.615	697.811
212.52	903.527
217.422	1273.06
222.321	2145.34
227.217	3430.03
232.109	5313.81
236.999	7416.77
241.885	10958.7
246.768	19862.3
251.648	34957.9
256.525	51862
261.399	58175.9
266.269	49676.5
271.137	27621.7
276.001	12626.3
280.862	6313.09
285.721	3858.48
290.576	2465.91
295.428	1678.33
300.277	1180.89
305.123	713.465
309.966	511.555
314.805	600.461
319.642	521.031
324.476	275.957
329.306	168.902
334.134	273.883
338.959	207.914
343.78	211.644
348.599	107.363
353.414	116.894
358.226	177.375
363.036	32.3047
367.842	78.6602
372.646	22.4375
377.446	2.21094
382.244	159.691
387.038	388.922
391.83	28.0586
396.618	12.0117
401.404	42.0781
406.186	322.609
410.966	242.699
415.742	177.551
420.516	393.57
425.287	66.0273
430.055	209.738
434.819	266.203
439.581	352.219
444.34	306.984
449.096	115.527
453.85	150.953
458.6	278.285
463.347	344.004
468.091	173.418
472.833	279.613
477.572	79.3945
482.307	293.742
487.04	273.746
491.77	219.996
496.497	232.387
501.221	487.727
505.943	475.656
510.661	607.84
515.377	607.258
520.089	827.656
524.799	760.812
529.506	326.059
534.21	727.602
538.912	226.602
543.61	17.082
548.306	164.742
552.999	222.18
557.689	262.129
562.376	213.566
567.061	444.219
571.742	703.199
576.421	261.312
581.097	537.133
585.77	461.992
590.441	401.844
595.108	326.648
599.773	244.035
604.435	558.281
609.095	29.3672
613.751	217.41
618.405	308.559
623.056	574.512
627.705	621.812
632.35	568.082
636.993	726.59
641.633	807.738
646.271	1019.48
650.905	1154.71
655.537	1771.46
660.166	1767.32
664.793	2154.64
669.416	2073.54
674.038	1916.92
678.656	2191.35
683.272	2543.99
687.885	2364.16
692.495	1760.12
697.102	941.285
701.707	478.5
706.31	973.625
710.909	1600.13
715.506	3797.81
720.1	6815.8
724.692	4054.92
729.281	1340.91
733.867	533.738
738.451	176.406
743.032	318.863
747.61	67.5234
752.186	131.531
756.759	53.1914
761.329	125.981
765.897	193.293
770.462	191.418
775.025	276.199
779.585	177
784.142	37.2109
788.697	2.25
793.249	23.6914
797.799	100.719
802.346	77.5859
806.89	236.613
811.432	564.293
815.971	363.578
820.508	361.469
825.042	76.4219
829.574	842.449
834.103	258.606
838.63	433.582
843.153	565.633
847.675	805.43
852.194	719.441
856.71	669.519
861.224	1278.48
865.735	994.234
870.244	1308.78
874.75	1634.11
879.254	2099.45
883.755	1945.62
888.254	2674.84
892.75	3543.95
897.244	3231.44
901.735	3186.8
906.223	3260.61
910.71	2444.78
915.193	2085.55
919.675	1412.53
924.153	1656.55
928.63	1137.39
933.104	899.746
937.575	413.258
942.044	534.57
946.51	678.418
950.974	585.519
955.436	407.336
959.895	163.586
964.352	91.9297
968.806	334.254
973.258	5.58594
977.707	295.738
982.154	228.691
986.599	214.109
991.041	295.344
995.481	23.7383
999.918	1195.06
1004.35	832.891
1008.78	880.836
1013.22	900.016
1017.64	1072.27
1022.07	341.641
1026.49	503.316
1030.91	721.414
1035.33	741.617
1039.75	1046.84
1044.16	2237.27
1048.57	4223.89
1052.98	6797.7
1057.39	8909.81
1061.79	21931.2
1066.19	120979
1070.59	456736
1074.99	146373
1079.38	22343.8
1083.78	7111.47
1088.16	3397.91
1092.55	2054.96
1096.94	1296.31
1101.32	376.648
1105.7	467.531
1110.08	543.773
1114.46	570.352
1118.83	263.805
1123.2	662.305
1127.57	43.4297
1131.94	592.68
1136.3	499.242
1140.66	1325.16
1145.03	805.172
1149.38	1726.2
1153.74	2859.79
1158.09	2271.49
1162.44	1615.08
1166.79	892.883
1171.14	506.07
1175.48	661.586
1179.82	521.328
1184.16	788.484
1188.5	674.555
1192.84	786.133
1197.17	57.6406
1201.5	397.578
1205.83	385.336
1210.15	500.258
1214.48	402.828
1218.8	160.828
1223.12	130.008
1227.44	73.4297
1231.75	377.297
1236.07	35.5312
1240.38	103.07
1244.68	136.344
1248.99	191.544
1253.3	117.406
1257.6	3.6875
1261.9	371.547
1266.2	278.078
1270.49	485.258
1274.79	599.938
1279.08	74.0938
1283.37	374.594
1287.65	524.312
1291.94	335.492
1296.22	424.203
1300.5	155.43
1304.78	198.802
1309.05	491.148
1313.33	425.906
1317.6	560.336
1321.87	78.4141
1326.14	197.094
1330.4	575.453
1334.67	340.453
1338.93	136.914
1343.19	567.914
1347.44	396.094
1351.7	565.773
1355.95	532.508
1360.2	416.094
1364.45	1051.85
1368.7	902.992
1372.94	798.797
1377.18	875.836
1381.42	1714.36
1385.66	2603.88
1389.9	4194.36
1394.13	6681
1398.37	8348.27
1402.6	6221.09
1406.82	4637.71
1411.05	3574.34
1415.27	4233.31
1419.49	5592.28
1423.71	7277.94
1427.93	9853.66
1432.15	11000
1436.36	9544.73
1440.57	7449.52
1444.78	5238.83
1448.99	3593.32
1453.19	2697.86
1457.4	1898.58
1461.6	1793.16
1465.8	924.641
1469.99	934.352
1474.19	453.969
1478.38	565.625
1482.58	526.242
1486.77	297.938
1490.95	678.773
1495.14	42.4141
1499.32	659.055
1503.5	862.547
1507.68	1305.94
1511.86	2822.91
1516.03	2759.17
1520.21	3012.27
1524.38	2517.83
1528.55	1841.84
1532.72	1004.08
1536.88	818.016
1541.05	876.055
1545.21	514.141
1549.37	723.578
1553.53	407.992
1557.68	104.648
1561.84	717.039
1565.99	522.164
1570.14	138.562
1574.29	294.32
1578.43	245.445
