Measurement: Raman, 514 nm, depolarized, Raman Data Processed
Mineral: Gaylussite
Rruff sample: R040146
Ideal chemistry: Na_2_Ca(CO_3_)_2_5H_2_O
Locality: Searles Lake, Trona, San Bernardino County, California, USA
Source: University of Arizona Mineral Museum
Description: Colorless crystal fragments
Measured chemistry: Na_2.00_Ca_1.00_(C_1.00_O_3_)_2_Â·5H_2_O
Pin_id: L00282
Orientation: Laser parallel to (1 0 1). Fiducial mark perpendicular to laser is parallel to -b [0 -1 0]
Raman shift (cm-1)	intensity
96.663	0
100.848	1120.19
105.03	1951.34
109.21	306.835
113.388	779.432
117.564	849.247
121.738	961.791
125.91	858.617
130.08	274.835
134.248	26.518
138.413	27.629
142.577	86.079
146.739	124.799
150.898	290.476
155.056	484.424
159.212	1133.96
163.365	2025.22
167.517	1754.6
171.666	852.197
175.813	295.37
179.959	62.686
184.102	13.269
188.244	70.162
192.383	32.868
196.52	58.376
200.656	0.387
204.789	129.615
208.92	172.929
213.049	191.178
217.176	71.14
221.302	140.743
225.425	350.701
229.546	569.757
233.665	661.803
237.782	488.59
241.898	408.316
246.011	578.971
250.122	985.909
254.231	1602.12
258.338	2444.68
262.443	3231.9
266.546	2871.05
270.647	1741.7
274.747	1032.87
278.844	703.549
282.939	495.877
287.032	345.907
291.123	300.924
295.212	123.65
299.3	84.357
303.385	28.808
307.468	79.791
311.549	87.197
315.629	37.721
319.706	51.302
323.781	35.203
327.855	13.928
331.926	39.646
335.995	55.141
340.063	119.512
344.128	64.758
348.192	27.418
352.253	19.065
356.313	27.88
360.37	3.237
364.426	0.87
368.479	39.555
372.531	19.45
376.581	35.068
380.629	24.547
384.674	7.376
388.718	7.606
392.76	26.36
396.8	27.08
400.838	20.144
404.874	52.079
408.908	57.803
412.94	7.285
416.97	61.562
420.999	123.688
425.025	29.711
429.049	106.633
433.072	75.401
437.092	28.013
441.111	28.595
445.127	99.828
449.142	30.085
453.155	95.957
457.166	102.651
461.175	105.22
465.181	90.49
469.186	112.684
473.19	186.727
477.191	144.395
481.19	133.13
485.187	170.358
489.183	149.62
493.176	182.916
497.168	155.959
501.157	181.055
505.145	182.034
509.131	302.386
513.115	307.818
517.097	300.861
521.077	336.021
525.055	267.507
529.031	272.343
533.006	267.872
536.978	94.339
540.949	144.517
544.917	107.592
548.884	136.685
552.849	137.368
556.812	161.471
560.773	135.352
564.732	165.463
568.689	164.712
572.644	91.169
576.598	148.527
580.55	181.71
584.499	95.89
588.447	160.255
592.393	142.872
596.337	169.157
600.279	159.51
604.219	34.14
608.158	68.241
612.094	49.226
616.029	117.273
619.962	100.783
623.892	87.904
627.821	105.919
631.749	97.711
635.674	151.123
639.597	43.563
643.519	77.498
647.438	139.188
651.356	149.676
655.272	158.454
659.186	266.024
663.098	190.288
667.009	253.394
670.917	172.667
674.824	230.811
678.728	223.031
682.631	174.895
686.532	195.068
690.432	285.279
694.329	168.491
698.224	129.962
702.118	3.286
706.01	52.544
709.9	28.796
713.788	118.089
717.674	141.412
721.558	71.62
725.441	42.796
729.322	4.023
733.201	109.135
737.078	43.205
740.953	20.224
744.826	26.214
748.698	2.808
752.567	47.144
756.435	41.923
760.301	23.743
764.165	15.542
768.028	45.387
771.888	85.237
775.747	144.967
779.604	108.715
783.459	22.589
787.312	50.119
791.164	105.808
795.013	144.478
798.861	108.009
802.707	6.691
806.551	2.884
810.394	14.341
814.234	91.171
818.073	133.88
821.91	65.925
825.745	34.669
829.578	12.907
833.41	50.266
837.24	194.886
841.068	38.493
844.894	118.183
848.718	27.886
852.54	55.958
856.361	116.563
860.18	158.342
863.997	160.954
867.812	42.635
871.626	153.841
875.438	171.293
879.248	151.927
883.056	165.167
886.862	285.631
890.667	78.877
894.469	198.16
898.27	247.574
902.07	301.858
905.867	346.234
909.663	188.621
913.457	115.788
917.249	178.949
921.039	128.358
924.827	135.875
928.614	203.829
932.399	130.246
936.182	131.423
939.964	25.79
943.744	84.042
947.521	102.2
951.298	233.873
955.072	132.632
958.845	80.46
962.615	95.705
966.384	117.791
970.152	124.869
973.917	110.085
977.681	75.061
981.443	83.702
985.203	94.2
988.962	11.004
992.719	26.789
996.474	128.02
1000.23	82.82
1003.98	134.669
1007.73	64.417
1011.48	31.221
1015.22	121.167
1018.97	120.919
1022.71	161.118
1026.45	250.111
1030.19	130.337
1033.93	124.517
1037.66	101.878
1041.4	121.544
1045.13	320.183
1048.86	474.71
1052.59	547.281
1056.32	478.269
1060.04	572.958
1063.77	1206.46
1067.49	4150.66
1071.21	30227
1074.93	13103.5
1078.64	2211.5
1082.36	837.551
1086.07	486.875
1089.78	450.792
1093.49	259.575
1097.2	406.737
1100.91	285.841
1104.61	256.272
1108.32	277.964
1112.02	37.394
1115.72	36.1
1119.41	155.255
1123.11	229.667
1126.8	280.755
1130.5	116.612
1134.19	136.601
1137.88	139.768
1141.56	177.496
1145.25	171.668
1148.93	137.781
1152.62	283.592
1156.3	208.875
1159.98	95.049
1163.65	84.123
1167.33	121.415
1171	62.088
1174.68	167.262
1178.35	218.038
1182.02	265.048
1185.68	248.143
1189.35	225.056
1193.01	10.201
1196.67	36.434
1200.33	116.577
1203.99	103.487
1207.65	249.392
1211.31	317.336
1214.96	275.742
1218.61	288.23
1222.26	207.76
1225.91	127.374
1229.56	146.675
1233.2	160.088
1236.85	271.668
1240.49	263.588
1244.13	341.968
1247.77	260.958
1251.4	172.805
1255.04	164.458
1258.67	161.667
1262.3	153.945
1265.93	186.148
1269.56	151.071
1273.19	344.748
1276.82	210.454
1280.44	129.623
1284.06	51.535
1287.68	12.885
1291.3	22.938
1294.92	24.874
1298.53	183.571
1302.14	11.112
1305.76	164.35
1309.37	265.161
1312.98	124.875
1316.58	63.771
1320.19	7.168
1323.79	11.167
1327.39	69.697
1330.99	43.332
1334.59	161.914
1338.19	215.053
1341.79	187.276
1345.38	191.246
1348.97	191.696
1352.56	76.568
1356.15	34.268
1359.74	3.819
1363.32	91.861
1366.91	123.852
1370.49	225.742
1374.07	239.797
1377.65	361.118
1381.23	366.148
1384.8	372.528
1388.38	227.444
1391.95	304.047
1395.52	633.596
1399.09	668.522
1402.66	653.152
1406.22	494.04
1409.79	521.388
1413.35	510.688
1416.91	529.504
1420.47	457.057
1424.03	414.715
1427.59	388.436
1431.14	351.602
1434.69	454.992
1438.24	561.887
1441.8	436.946
1445.34	435.174
1448.89	408.535
1452.43	636.216
1455.98	484.361
1459.52	472.409
1463.06	329.776
1466.6	306.635
1470.14	223.748
1473.67	171.444
1477.2	80.352
1480.74	179.963
1484.27	270.168
1487.8	421.271
1491.32	433.101
1494.85	526.128
1498.37	430.857
1501.9	456.604
1505.42	161.54
1508.94	203.319
1512.45	7.286
1515.97	88.162
1519.49	0
