Measurement: Raman, 514 nm, ccw, Raman Data Processed
Mineral: Gaylussite
Rruff sample: R040146
Ideal chemistry: Na_2_Ca(CO_3_)_2_5H_2_O
Locality: Searles Lake, Trona, San Bernardino County, California, USA
Source: University of Arizona Mineral Museum
Description: Colorless crystal fragments
Measured chemistry: Na_2.00_Ca_1.00_(C_1.00_O_3_)_2_Â·5H_2_O
Pin_id: L00121
Orientation: Laser parallel to c* (0 0 1). Fiducial mark perpendicular to laser is parallel to a [1 0 0]
Raman shift (cm-1)	intensity
100.137	0
105.112	1278.22
110.084	1313.16
115.052	7003.83
120.018	6097.78
124.98	6270.09
129.939	7975.62
134.894	7069
139.847	1169.1
144.796	861.705
149.742	3709.52
154.684	9755.4
159.624	23340.6
164.56	39297.9
169.493	29489.9
174.423	11615.2
179.349	4594.56
184.273	1939.81
189.193	1160.98
194.11	1158.94
199.024	346.951
203.934	146.777
208.842	1125.02
213.746	1434.22
218.647	1537.15
223.545	3750.14
228.44	7163.73
233.332	9492.85
238.221	5888.75
243.106	2449.08
247.988	1920.11
252.867	1423.61
257.744	1852.4
262.616	649.684
267.486	103.709
272.353	792.742
277.217	1870.93
282.077	3122.02
286.935	2841.7
291.789	1736.19
296.64	883.172
301.489	99.6699
306.334	20.6387
311.176	295.914
316.015	373.594
320.851	317.807
325.684	138.398
330.514	77.9141
335.34	200.742
340.164	231.353
344.985	285.541
349.803	12.9707
354.617	107.289
359.429	106.035
364.238	81.1875
369.044	2.07227
373.846	170.481
378.646	95.3926
383.443	117.211
388.236	236.471
393.027	377.106
397.815	574.391
402.6	375.465
407.381	552.68
412.16	451.894
416.936	683.156
421.709	363.463
426.479	732.639
431.246	535.594
436.01	730.295
440.771	548.791
445.53	675.336
450.285	929.906
455.037	1120.83
459.787	814.834
464.533	461.379
469.277	613.523
474.018	722.477
478.756	674.539
483.491	971.621
488.223	877.734
492.952	1086.16
497.678	649.344
502.402	1140.54
507.122	1073.3
511.84	1341.04
516.555	1480.26
521.267	1455.7
525.976	1493.04
530.683	1233.72
535.386	1134.27
540.087	1183.9
544.785	976.207
549.48	1273.87
554.172	1300.86
558.861	1527.36
563.548	1664.91
568.231	2159.16
572.912	2158.92
577.59	2213.31
582.266	2038.14
586.938	1775.42
591.608	2151.47
596.275	1497.06
600.939	1332.59
605.601	1179.53
610.259	914.684
614.915	838.633
619.568	717.559
624.219	664.012
628.866	850.863
633.511	705.246
638.153	831.871
642.793	754.949
647.429	936.719
652.063	925.969
656.695	1057.4
661.323	1204.72
665.949	1062.2
670.572	1160.3
675.192	1136.42
679.81	967.129
684.425	1187.14
689.037	1175.53
693.647	1099.26
698.254	1055.27
702.858	814.481
707.46	779.129
712.059	810.488
716.655	545.551
721.248	340.965
725.839	218.758
730.428	278.824
735.013	50.9297
739.596	114.328
744.176	141.82
748.754	354.555
753.329	115.492
757.902	50.7773
762.471	0.871094
767.039	108.903
771.603	91.4648
776.165	69.2773
780.724	81.7695
785.281	208.008
789.835	49.8945
794.387	17.1055
798.936	198.082
803.482	475.328
808.026	350.859
812.567	202.594
817.106	210.066
821.642	513.602
826.176	322.582
830.706	394.281
835.235	391.461
839.761	176.527
844.284	319.324
848.805	399.652
853.323	583.371
857.839	633.543
862.352	571.512
866.863	1140.43
871.371	705.266
875.876	715.461
880.379	496.434
884.88	531.352
889.378	486.625
893.873	600.773
898.367	893.953
902.857	728.531
907.345	480.844
911.831	461.699
916.314	421.809
920.795	238.766
925.273	109.273
929.748	689.371
934.222	732.856
938.692	172.422
943.161	219.699
947.627	458.629
952.09	363.949
956.551	207.68
961.009	260.031
965.465	317.039
969.919	78.4727
974.37	197.691
978.819	52.4617
983.265	117.031
987.709	1039.01
992.151	160.578
996.59	398.731
1001.03	238.5
1005.46	100.043
1009.89	37.6992
1014.32	205.871
1018.75	62.0273
1023.17	83.4688
1027.6	272.898
1032.02	24.9844
1036.43	799.238
1040.85	534.191
1045.26	1372
1049.67	1635.68
1054.08	1782.19
1058.49	2625.88
1062.89	8028.25
1067.29	44819.6
1071.69	141793
1076.09	27141.6
1080.48	5210.22
1084.87	2054.73
1089.26	1152.75
1093.65	1010.11
1098.03	653.797
1102.42	731.277
1106.8	835.844
1111.17	333.164
1115.55	499.773
1119.92	491.394
1124.29	633.019
1128.66	504.656
1133.03	623.793
1137.39	448.84
1141.76	446.816
1146.11	138.844
1150.47	523.57
1154.83	716.965
1159.18	357.016
1163.53	101
1167.88	214.168
1172.22	485.652
1176.57	569.055
1180.91	249.391
1185.25	448.656
1189.59	231.871
1193.92	409.047
1198.25	379.191
1202.58	383.703
1206.91	446.449
1211.24	450.582
1215.56	346.914
1219.88	515.328
1224.2	240.769
1228.52	50.2266
1232.83	96.4961
1237.14	44.8477
1241.45	112.531
1245.76	582.094
1250.07	217.836
1254.37	312.758
1258.67	92.7734
1262.97	102.902
1267.27	486.066
1271.57	138.406
1275.86	631.086
1280.15	247.992
1284.44	217.828
1288.72	471.234
1293.01	127.531
1297.29	325.484
1301.57	400.82
1305.85	95.3906
1310.12	137.203
1314.4	382.281
1318.67	416.633
1322.94	786.445
1327.2	614.648
1331.47	529.109
1335.73	814.781
1339.99	477.094
1344.25	255.18
1348.51	852.477
1352.76	160.047
1357.01	392.383
1361.26	435.703
1365.51	630.406
1369.76	462.32
1374	491.742
1378.24	1106.34
1382.48	1128.31
1386.72	1170.66
1390.96	2899.44
1395.19	3508.75
1399.42	3414.52
1403.65	2298.76
1407.88	896.516
1412.1	1189.37
1416.33	1198.96
1420.55	1064.92
1424.77	1591.61
1428.98	1280.88
1433.2	1446.88
1437.41	1043.69
1441.62	972.547
1445.83	651.906
1450.04	563.969
1454.24	781.383
1458.45	750.898
1462.65	744.234
1466.85	641.453
1471.04	571.203
1475.24	717.5
1479.43	82.6094
1483.62	89.3828
1487.81	150.492
1492	168.172
1496.18	213.625
1500.37	1.69531
1504.55	776.352
1508.73	759.656
1512.9	346.867
1517.08	915.336
1521.25	667.398
1525.42	938.289
1529.59	496.133
1533.76	447.812
1537.92	1155.56
1542.09	333.5
1546.25	880.273
1550.41	288.391
1554.56	569.531
1558.72	1127.2
1562.87	199.086
1567.03	730.523
1571.17	77.7344
1575.32	778.961
1579.47	435.328
