Measurement: Raman, 514 nm, ccw, Raman Data Processed
Mineral: Gehlenite
Rruff sample: R061091
Ideal chemistry: Ca_2_Al(SiAl)O_7_
Locality: Carneal Plug, Glenoe Larne District, County Antrim, Northern Ireland
Source: Michael Scott
Description: Yellowish-brown anhedral blebs associated with black magnetite and white wollastonite
Measured chemistry: (Ca_1.64_Na_0.36_)_Σ=2_(Al_0.38_Fe_0.36_Mg_0.26_)_Σ=1_(Si_1.98_Al_0.02_)_Σ=2_O_7_
Pin_id: M01302
Orientation: Laser parallel to a* (1 0 0). Fiducial mark perpendicular to laser is parallel to -c [0 0 -1]
Raman shift (cm-1)	intensity
104.75	0
109.67	2965.67
114.588	1402.48
119.504	4370.05
124.417	20808.8
129.328	1202.48
134.238	1124.91
139.144	1281.99
144.049	516.893
148.951	476.236
153.852	95.1894
158.75	33.916
163.645	97.7519
168.539	230.943
173.43	481.691
178.319	987.934
183.206	1424.7
188.091	1876.53
192.973	2202.28
197.853	2760.25
202.731	3845.62
207.607	4975.16
212.48	7156.19
217.351	9226.85
222.22	10381
227.087	10827
231.951	10006.2
236.813	9040.26
241.673	8169.24
246.53	7130.35
251.386	6692.03
256.239	6338.65
261.089	6114.07
265.938	5657.92
270.784	5785.14
275.628	6096.11
280.469	6073.72
285.309	6438.07
290.146	7096.76
294.98	7636.63
299.813	8102.77
304.643	8163.13
309.471	7234.71
314.296	6355.47
319.119	5104.33
323.94	4175.57
328.758	3253.75
333.575	2765.3
338.388	2150.46
343.2	1800.35
348.009	1225.93
352.816	979.119
357.621	722.902
362.423	415.369
367.223	140.566
372.02	300.99
376.815	309.75
381.608	496.289
386.398	381.242
391.187	346.398
395.972	387.406
400.756	305.652
405.537	102.789
410.315	31.6953
415.092	133.441
419.865	674.791
424.637	1300.42
429.406	2643.2
434.173	3667.72
438.937	5706.36
443.699	8377.38
448.459	11168.2
453.216	12588.6
457.971	12826.4
462.723	12313.4
467.473	11800.4
472.221	12699.2
476.966	13772.8
481.709	14221.1
486.449	13629.3
491.187	11916
495.923	9903.4
500.656	8963.5
505.387	8261.05
510.115	8119.62
514.841	8001.72
519.565	7694.99
524.286	7413.92
529.004	7025.93
533.72	6400.71
538.434	5712.13
543.146	5208.34
547.854	4861.45
552.561	4473.63
557.265	4055.68
561.966	3761.2
566.665	3566.27
571.362	3354.03
576.056	3353.25
580.748	3395.27
585.437	3742.59
590.124	4588.62
594.808	5922.44
599.49	7990.4
604.17	11058.5
608.846	15581.9
613.521	23635.6
618.193	37183.5
622.862	59700.1
627.529	83520.8
632.194	87462.6
636.856	68289.6
641.515	50645.2
646.172	50131.1
650.827	67543.8
655.479	92485.1
660.129	112660
664.776	113836
669.42	96865.7
674.062	71047.1
678.702	49104.1
683.339	34056.2
687.973	24355.9
692.605	18170.5
697.235	14297.2
701.862	11493
706.486	9878.6
711.108	7796.79
715.728	6649.45
720.344	5539.57
724.959	4191.15
729.57	3528.14
734.18	2619.55
738.786	1971.36
743.391	1550.56
747.992	1176.15
752.591	705.877
757.188	295.256
761.782	130.254
766.373	370.863
770.962	484.426
775.549	529.932
780.133	547.184
784.714	439.096
789.292	227.057
793.869	364.906
798.442	203.902
803.013	138.195
807.581	59.2109
812.147	369.779
816.711	772.82
821.271	1095.24
825.829	1657.57
830.385	2826.78
834.938	3989.84
839.488	5323.77
844.036	7443.6
848.581	9719.63
853.124	12278.1
857.664	13853
862.201	13417.9
866.736	11404.4
871.268	9673.6
875.798	9681.29
880.325	11653.3
884.849	14269.8
889.371	18249.9
893.89	23835.6
898.407	31356.2
902.921	42297.9
907.432	58313.7
911.941	79927.3
916.447	104895
920.95	119577
925.451	109030
929.95	83593.9
934.445	60829.2
938.938	45261.8
943.429	35753.8
947.916	30181.9
952.401	26095.2
956.884	23728.7
961.364	21348.2
965.841	18331
970.315	15341.4
974.787	13163.9
979.256	11511.3
983.723	10765
988.187	10383.2
992.648	9946.48
997.107	9357.45
1001.56	8787.44
1006.02	8046.6
1010.47	7277.64
1014.91	6918.45
1019.36	6691.72
1023.8	6334.81
1028.24	5956.78
1032.68	5637.4
1037.12	5180.82
1041.55	5043.84
1045.98	4297.89
1050.4	3778.9
1054.83	3428.93
1059.25	2938.69
1063.67	2236.28
1068.08	2078.21
1072.5	1834.61
1076.91	1748.35
1081.32	1239.77
1085.72	1205.13
1090.12	976.023
1094.52	601.213
1098.92	462.199
1103.31	136.728
1107.7	84.1035
1112.09	24.6309
1116.48	232.818
1120.86	18.5889
1125.24	182.019
1129.62	45.4766
1134	177.296
1138.37	43.9678
1142.74	12.831
1147.11	99.4228
1151.47	50.2881
1155.84	58.4307
1160.19	33.1699
1164.55	250.094
1168.9	6.91992
1173.26	83.3564
1177.6	70.5928
1181.95	325.039
1186.29	193.969
1190.63	338.913
1194.97	157.697
1199.31	406.451
1203.64	111.628
1207.97	592.186
1212.29	532.382
1216.62	431.577
1220.94	312.116
1225.26	521.273
1229.57	393.614
1233.88	469.166
1238.19	569.118
1242.5	615.806
1246.81	818.495
1251.11	740.635
1255.4	424.18
1259.7	510.286
1263.99	455.438
1268.29	714.223
1272.57	513.536
1276.86	621.192
1281.14	316.149
1285.42	528.755
1289.7	74.3008
1293.97	517.102
1298.24	94.5947
1302.51	59.1318
1306.78	133.5
1311.04	549.846
1315.3	128.898
1319.56	541.562
1323.81	109.366
1328.06	309.071
1332.31	493.987
1336.56	143.939
1340.8	522.797
1345.04	530.762
1349.28	166.084
1353.52	406.117
1357.75	362.088
1361.98	293.972
1366.2	133.111
1370.43	377.476
1374.65	270.457
1378.87	357.417
1383.09	284.398
1387.3	276.697
1391.51	364.83
1395.71	525.648
1399.92	606.694
1404.12	402.603
1408.32	121.323
1412.52	541.48
1416.71	231.018
1420.9	327.029
1425.09	289.999
1429.27	562.641
1433.45	365.472
1437.63	487.783
1441.81	209.105
1445.98	434.806
1450.15	2.22363
1454.32	460.007
1458.48	54.1357
1462.65	44.0283
1466.81	122.68
1470.96	537.111
1475.12	127.447
1479.27	25.8613
1483.41	203.467
1487.56	46.4863
1491.7	5.65137
1495.84	49.8496
1499.98	382.434
1504.11	414.965
1508.24	521.57
1512.37	163.481
1516.49	486.235
1520.62	65.9356
1524.74	195.946
1528.85	204.738
1532.97	147.011
1537.08	108.701
1541.19	219.524
1545.29	305.276
1549.39	251.643
1553.49	25.7207
1557.59	246.006
1561.68	303.249
1565.78	376.148
1569.86	8.19824
1573.95	353.959
