Measurement: Raman, 514 nm, ccw, Raman Data Processed
Mineral: Gehlenite
Rruff sample: R061091
Ideal chemistry: Ca_2_Al(SiAl)O_7_
Locality: Carneal Plug, Glenoe Larne District, County Antrim, Northern Ireland
Source: Michael Scott
Description: Yellowish-brown anhedral blebs associated with black magnetite and white wollastonite
Measured chemistry: (Ca_1.64_Na_0.36_)_Σ=2_(Al_0.38_Fe_0.36_Mg_0.26_)_Σ=1_(Si_1.98_Al_0.02_)_Σ=2_O_7_
Pin_id: M01135
Orientation: Laser parallel to c* (0 0 1). Fiducial mark perpendicular to laser is parallel to a [1 0 0]
Raman shift (cm-1)	intensity
115.417	0
120.358	5.9668
125.295	349.522
130.23	341.059
135.163	141.09
140.092	515.059
145.019	76.1035
149.944	196.35
154.866	166.81
159.785	31.7363
164.702	383.162
169.616	492.5
174.528	1066.68
179.437	1094.98
184.343	1904.95
189.247	2330.84
194.148	2867.52
199.046	3080.65
203.942	4076.68
208.835	4950.13
213.726	7081.75
218.614	9002.21
223.5	10057
228.382	10145.5
233.263	8963.9
238.14	7737.15
243.015	6680.68
247.888	6046.1
252.758	5376.31
257.625	5411.48
262.49	4824.41
267.352	4534.02
272.211	4152.25
277.068	4003.93
281.922	3942.45
286.773	3874.48
291.622	4012.69
296.469	4298.86
301.312	4230.52
306.154	4011.98
310.992	3659
315.828	3321.44
320.661	2723.32
325.492	2468.63
330.32	1898.45
335.145	1717.41
339.968	1526.22
344.789	1232.58
349.606	933.607
354.421	623.409
359.234	436.09
364.043	132.676
368.851	50.2022
373.655	71.5879
378.457	323.14
383.256	329.702
388.053	14.9424
392.847	448.676
397.639	308.417
402.428	303.502
407.214	85.3232
411.998	60.331
416.779	231.668
421.557	577.018
426.333	1285.68
431.106	2541.6
435.877	4121.16
440.645	6168.13
445.41	8868.38
450.173	11437.5
454.933	12077.6
459.691	11258.7
464.446	10042.8
469.198	10007.2
473.948	10548.8
478.695	11613.8
483.439	11746.6
488.181	10915.4
492.92	9260.89
497.657	7935.35
502.391	6942.92
507.122	6617.03
511.851	6431.41
516.577	6495.46
521.301	6166.57
526.022	5676.21
530.74	5480.39
535.456	4859.53
540.169	4627.85
544.879	4229.15
549.587	3843.86
554.292	3413.25
558.995	3211.08
563.695	3154.78
568.392	2884.28
573.087	2829.51
577.779	2743.7
582.469	3113.9
587.156	4025.15
591.84	5345.49
596.522	6531.97
601.201	9104.61
605.877	12287.5
610.551	17606.6
615.222	25969.9
619.891	40158.6
624.557	57535.2
629.22	68051.5
633.881	61133.6
638.539	45899.2
643.195	37906.3
647.848	43756
652.498	62873.7
657.145	87248.2
661.791	102160
666.433	99231.1
671.073	79947.8
675.71	56792.1
680.345	39112.8
684.977	27373.1
689.606	19795.8
694.233	15082.1
698.857	12239.5
703.478	10104.6
708.097	8548.29
712.714	7228.35
717.327	6123.78
721.938	5124.57
726.547	3965.7
731.153	3433.16
735.756	2819.91
740.356	2134.97
744.954	1824.3
749.55	1429.9
754.142	795.754
758.733	304.839
763.32	71.0752
767.905	265.449
772.487	401.733
777.067	476.902
781.644	394.298
786.218	312.566
790.79	370.986
795.359	358.881
799.926	290.135
804.49	293.317
809.051	102.9
813.61	331.197
818.166	433.294
822.72	956.256
827.271	1613.06
831.819	2487.68
836.365	3425.12
840.908	4896.39
845.448	6811.55
849.986	8825.46
854.521	11105.5
859.054	12785.7
863.584	12471.2
868.111	10411.2
872.636	9113.74
877.158	9463.81
881.677	11477.5
886.194	14702.9
890.709	18923.6
895.22	24445.9
899.729	33354.1
904.236	46265.3
908.74	64267.6
913.241	85857.3
917.739	104782
922.235	107304
926.729	89137.7
931.219	65358.9
935.708	46846.6
940.193	35289.4
944.676	27814.5
949.156	23675.1
953.634	21059.4
958.109	18780.7
962.582	16659
967.051	14263.3
971.519	12175.6
975.983	10253
980.445	9236.65
984.905	8757.66
989.362	8566.61
993.816	7904.13
998.267	7319.91
1002.72	6917.32
1007.16	6166.63
1011.61	5784.08
1016.05	5498.34
1020.49	5032.6
1024.92	4980.31
1029.36	4502.81
1033.79	4507.82
1038.21	4269.17
1042.64	3803.11
1047.06	3490.75
1051.48	2906.76
1055.9	2558.17
1060.32	2285.73
1064.73	1962.6
1069.14	1597.29
1073.55	1542.69
1077.95	1432.52
1082.35	1338.84
1086.75	1346.84
1091.15	1325.62
1095.54	1411.84
1099.93	1279.88
1104.32	551.961
1108.71	175.023
1113.09	44.8848
1117.47	38.1435
1121.85	51.0137
1126.23	82.4541
1130.6	93.4746
1134.97	249.037
1139.34	159.378
1143.7	157.525
1148.07	85.2744
1152.43	120.819
1156.79	100.713
1161.14	227.939
1165.49	25.8838
1169.84	19.9766
1174.19	40.5547
1178.54	34.1211
1182.88	101.081
1187.22	141.323
1191.55	319.842
1195.89	286.75
1200.22	431.56
1204.55	281.217
1208.87	413.748
1213.2	456.834
1217.52	456.732
1221.84	359.827
1226.15	523.553
1230.47	582.261
1234.78	650.806
1239.09	560.349
1243.39	587.448
1247.69	558.987
1251.99	450.779
1256.29	369.455
1260.59	363.166
1264.88	438.944
1269.17	356.088
1273.46	186.997
1277.74	171.583
1282.02	192.065
1286.3	240.462
1290.58	97.2197
1294.86	110.654
1299.13	107.574
1303.39	18.501
1307.66	69.0684
1311.93	105.276
1316.19	90.168
1320.45	200.858
1324.7	219.386
1328.96	230.838
1333.21	195.18
1337.45	241.565
1341.7	196.064
1345.94	289.478
1350.18	343.604
1354.42	452.335
1358.66	391.587
1362.89	440.387
1367.12	466.768
1371.35	370.553
1375.57	432.411
1379.8	344.104
1384.02	303.291
1388.23	305.443
1392.45	401.572
1396.66	260.609
1400.87	279.732
1405.08	302.025
1409.28	242.109
1413.48	227.315
1417.68	96.8311
1421.88	287.863
1426.07	362.671
1430.26	211.924
1434.45	158.347
1438.64	344.022
1442.82	323.356
1447	338.706
1451.18	169.702
1455.35	459.21
1459.53	194.682
1463.7	234.113
1467.87	169.561
1472.03	233.105
1476.19	232.843
1480.35	119.859
1484.51	159.231
1488.67	105.946
1492.82	136.005
1496.97	119.922
1501.12	167.264
1505.26	85.4775
1509.4	176.358
1513.54	86.4692
1517.68	133.732
1521.81	57.3935
1525.94	15.9009
1530.07	63.3423
1534.2	141.761
1538.32	116.875
1542.44	160.526
1546.56	149.151
1550.68	170.245
1554.79	490.535
1558.9	30.5034
1563.01	89.2773
1567.12	107.744
1571.22	4.15771
1575.32	93.1206
