Measurement: Raman, 514 nm, ccw, Raman Data Processed
Mineral: Gehlenite
Rruff sample: R061091
Ideal chemistry: Ca_2_Al(SiAl)O_7_
Locality: Carneal Plug, Glenoe Larne District, County Antrim, Northern Ireland
Source: Michael Scott
Description: Yellowish-brown anhedral blebs associated with black magnetite and white wollastonite
Measured chemistry: (Ca_1.64_Na_0.36_)_Σ=2_(Al_0.38_Fe_0.36_Mg_0.26_)_Σ=1_(Si_1.98_Al_0.02_)_Σ=2_O_7_
Pin_id: M01135
Orientation: Laser parallel to c* (0 0 1). Fiducial mark perpendicular to laser is parallel to a [1 0 0]
Raman shift (cm-1)	intensity
112.946	0
117.888	662.947
122.827	135.812
127.763	202.656
132.697	197.215
137.628	698.559
142.556	500.816
147.482	350.434
152.405	126.973
157.326	100.385
162.244	126.293
167.159	95.9219
172.072	533.809
176.982	831.197
181.89	1645.56
186.795	2039.06
191.697	2644.44
196.597	3056.6
201.494	3400.44
206.389	4247.76
211.281	5639.35
216.17	7682.12
221.057	8923.89
225.941	9540.62
230.823	8797.25
235.702	7904.05
240.578	6879
245.452	5843.65
250.323	5103.29
255.192	4925.2
260.058	4793.28
264.921	4555.15
269.782	4355.84
274.64	4081.9
279.495	4015.94
284.348	3898.22
289.198	4139.31
294.046	4233.41
298.891	4621.87
303.733	4469.3
308.573	4049.76
313.41	3860.34
318.245	3281.75
323.077	3117.54
327.906	2436.78
332.733	2418.94
337.557	2163.66
342.379	1781.91
347.198	1325.73
352.014	1268.26
356.828	1033.86
361.639	740.456
366.447	414.983
371.253	163.594
376.056	122.591
380.857	238.833
385.655	255.665
390.451	423.244
395.243	382.615
400.034	314.66
404.821	208.887
409.606	123.226
414.389	118.79
419.168	387.44
423.945	884.59
428.72	2045.8
433.492	3464.49
438.261	5322.8
443.028	7687.88
447.792	10022.1
452.553	11897.8
457.312	11730.8
462.068	10699.9
466.822	9969.15
471.573	10383.1
476.321	11535
481.067	12233.7
485.81	11765.2
490.551	10747.3
495.289	9408.49
500.024	8363.28
504.757	7851.68
509.487	7303.1
514.214	7533.41
518.939	7156.94
523.661	6704.92
528.381	6158.01
533.098	5618.44
537.812	5126.62
542.524	4655.23
547.233	4218.88
551.94	3728.35
556.644	3508.44
561.345	2997.51
566.044	2908.51
570.74	2758.63
575.433	2798.73
580.124	2833.67
584.812	3157.5
589.498	4049.25
594.181	5306.94
598.861	7284.62
603.539	9735.31
608.214	13961
612.887	20201.9
617.557	31344.8
622.224	46772.2
626.889	61413.7
631.551	62949.4
636.21	50601.6
640.867	38772.8
645.521	37493.9
650.173	49757.2
654.822	71415.1
659.468	91796.6
664.112	97635.4
668.753	86208.9
673.392	64579.1
678.028	44953.4
682.661	30960.5
687.292	21776.3
691.92	16257.1
696.545	12717.4
701.168	10449.5
705.788	8549.23
710.406	7340.28
715.021	6129.6
719.633	5184.16
724.243	4212.96
728.85	3346.98
733.455	2876.22
738.056	2163.67
742.656	1759.32
747.252	1279.79
751.846	691.474
756.438	447.349
761.027	5.33984
765.613	251.961
770.196	663.43
774.777	622.197
779.356	571.144
783.932	367.806
788.505	287.749
793.075	261.042
797.643	165.273
802.208	84.7256
806.771	97.458
811.331	347.474
815.888	683.43
820.443	1091.31
824.995	1476.09
829.545	2263.74
834.092	3173.26
838.636	4292.64
843.178	5911.9
847.717	7953.1
852.254	9942.34
856.788	12054.6
861.319	12728.3
865.848	11341.7
870.374	9733.65
874.897	9072.32
879.418	10267.3
883.936	12889.5
888.452	16315.2
892.965	20750.6
897.475	27664.7
901.983	38185.4
906.488	53466.6
910.99	72437.8
915.49	92777.6
919.988	104233
924.482	95358.6
928.974	73063.2
933.464	53026.3
937.951	38849.6
942.435	29735.2
946.917	24479.2
951.396	21355.4
955.872	19188.7
960.346	17314.1
964.817	14873.7
969.285	12926.4
973.751	10905.2
978.215	9644.24
982.675	9176.13
987.134	8573.89
991.589	8220.79
996.042	7764.25
1000.49	7172.64
1004.94	6628.96
1009.38	6000.52
1013.83	5549.46
1018.27	5088.75
1022.7	4903.88
1027.14	4604.51
1031.57	4569.57
1036	4224.51
1040.43	3929.85
1044.85	3465.22
1049.27	2968.49
1053.69	2774.36
1058.11	2400.88
1062.52	1972.46
1066.93	1867.81
1071.34	1498.6
1075.75	1492.79
1080.15	1174.28
1084.55	1284.05
1088.95	1199.65
1093.35	1209.43
1097.74	1293.56
1102.13	864.02
1106.52	122.79
1110.9	30.8662
1115.28	35.0596
1119.66	20.8721
1124.04	187.599
1128.41	158.474
1132.79	122.644
1137.16	183.815
1141.52	66.5
1145.89	179.81
1150.25	190.431
1154.61	22.6699
1158.96	78.375
1163.32	19.3281
1167.67	7.34961
1172.02	36.0586
1176.36	97.9609
1180.71	194.589
1185.05	138.25
1189.38	243.268
1193.72	232.908
1198.05	221.165
1202.38	280.178
1206.71	263.218
1211.04	368.033
1215.36	431.626
1219.68	434.006
1224	333.21
1228.31	490.999
1232.62	493.585
1236.93	534.905
1241.24	457.95
1245.54	444.275
1249.84	517.49
1254.14	509.397
1258.44	511.278
1262.73	476.527
1267.03	286.625
1271.31	304.558
1275.6	162.507
1279.88	193.414
1284.16	172.53
1288.44	0.09082
1292.72	121.688
1296.99	45.0244
1301.26	149.759
1305.53	100.615
1309.79	142.07
1314.06	100.458
1318.32	313.343
1322.57	80.1621
1326.83	272.279
1331.08	248.445
1335.33	155.695
1339.58	269.071
1343.82	230.423
1348.06	397.397
1352.3	390.282
1356.54	267.345
1360.77	421.535
1365.01	432.122
1369.23	418.946
1373.46	290.856
1377.68	349.731
1381.9	304.94
1386.12	235.193
1390.34	380.477
1394.55	171.869
1398.76	107.352
1402.97	291.755
1407.18	168.213
1411.38	338.892
1415.58	183.489
1419.78	218.743
1423.97	315.563
1428.17	203.111
1432.36	216.58
1436.54	247.757
1440.73	224.608
1444.91	196.547
1449.09	286.595
1453.27	279.365
1457.44	152.079
1461.61	245.415
1465.78	76.0147
1469.95	121.732
1474.11	58.6152
1478.27	33.7353
1482.43	58.168
1486.59	47.9727
1490.74	85.0957
1494.89	157.488
1499.04	98.4287
1503.19	20.7803
1507.33	92.5908
1511.47	73.2656
1515.61	33.1836
1519.75	161.368
1523.88	44.1133
1528.01	108.745
1532.14	117.655
1536.26	162.953
1540.38	169.737
1544.51	184.156
1548.62	136.882
1552.74	164.018
1556.85	109.088
1560.96	128.935
1565.07	132.816
1569.17	88.2891
1573.27	103.648
1577.37	0
