Measurement: Raman, 514 nm, depolarized, Raman Data Processed
Mineral: Gehlenite
Rruff sample: R061091
Ideal chemistry: Ca_2_Al(SiAl)O_7_
Locality: Carneal Plug, Glenoe Larne District, County Antrim, Northern Ireland
Source: Michael Scott
Description: Yellowish-brown anhedral blebs associated with black magnetite and white wollastonite
Measured chemistry: (Ca_1.64_Na_0.36_)_Σ=2_(Al_0.38_Fe_0.36_Mg_0.26_)_Σ=1_(Si_1.98_Al_0.02_)_Σ=2_O_7_
Pin_id: M01302
Orientation: Laser parallel to a* (1 0 0). Fiducial mark perpendicular to laser is parallel to -c [0 0 -1]
Raman shift (cm-1)	intensity
96.135	0
101.059	149.781
105.981	1058.22
110.9	707.709
115.817	3150.35
120.732	8459.35
125.645	14222.5
130.556	556.949
135.464	110.682
140.371	12.8359
145.275	105.834
150.177	190.844
155.076	336.391
159.974	616.41
164.869	1081.26
169.762	1044.69
174.653	793.834
179.541	1101.8
184.427	1200.85
189.311	1501.06
194.193	1885.58
199.073	2293.74
203.95	3136.41
208.825	3871.26
213.698	5362.67
218.569	6837.58
223.437	7703.49
228.303	7950.49
233.167	7449.24
238.028	6836.76
242.888	6408.25
247.745	5807.15
252.599	5610.28
257.452	5428.34
262.302	5636.34
267.15	5490.42
271.995	6227.07
276.839	7056.98
281.68	8023.18
286.518	9599.63
291.355	12096.9
296.189	14637.8
301.02	16756.3
305.85	17650.9
310.677	16513
315.502	12690.7
320.325	9805.31
325.145	7392.9
329.963	5630.35
334.778	4232.66
339.592	3268.93
344.403	2604.28
349.211	1981.83
354.017	1473.68
358.821	1179.24
363.623	722.323
368.422	445.888
373.219	106.737
378.014	36.458
382.806	336.482
387.596	338.548
392.383	360.067
397.168	352.348
401.951	226.834
406.732	34.0029
411.51	145.481
416.285	64.9844
421.059	36.4072
425.829	464.484
430.598	711.723
435.364	1167.37
440.128	1908.73
444.889	3000.86
449.648	4110.81
454.405	4874.61
459.159	5025.33
463.911	5141.08
468.66	5492.92
473.407	6043.97
478.152	6611.49
482.894	6715
487.634	6535.25
492.372	5547.06
497.106	5073.18
501.839	4744.44
506.569	4547.32
511.297	4627.9
516.022	4614.1
520.745	4945.86
525.466	4606.82
530.184	4145.91
534.899	3576.42
539.612	3369.22
544.323	3012.41
549.031	2881.59
553.737	2711.86
558.44	2590.41
563.141	2574.47
567.84	2409.72
572.536	2482.69
577.229	2374.54
581.92	2608.17
586.609	3539.63
591.295	4387.8
595.979	5664.83
600.66	7588.65
605.339	10297.5
610.015	14640.6
614.689	21931.5
619.36	34800.1
624.029	53248.7
628.696	69819.6
633.36	67107.5
638.021	48954
642.68	36390.7
647.336	38791.4
651.99	54304.9
656.642	74495.9
661.291	86938.5
665.937	84315.7
670.581	68473.1
675.222	49335.7
679.861	33122.4
684.498	22501.3
689.132	15544.7
693.763	10975.8
698.392	8088.42
703.018	6583.12
707.642	5185.69
712.263	4542.95
716.882	3794.78
721.498	3302.28
726.112	3062.82
730.723	2946
735.332	2933.62
739.938	2796.68
744.541	2747.17
749.142	2746.41
753.741	2519.14
758.337	1570.13
762.93	897.248
767.521	279.742
772.109	348.615
776.695	680.441
781.278	618.006
785.859	271.468
790.437	335.265
795.012	85.8027
799.585	4.18848
804.155	487.584
808.723	411.462
813.288	41.5684
817.851	125.186
822.411	552.907
826.968	781.754
831.523	1386.72
836.076	2296.8
840.625	3365
845.172	4820.44
849.717	7094.29
854.259	8479.97
858.798	9834.38
863.335	9214.56
867.869	7487.5
872.401	6852.02
876.93	6595.91
881.456	8555.12
885.98	10581.1
890.501	13779.1
895.02	18140.6
899.536	25056.7
904.049	35064.6
908.56	51228.3
913.068	71753.9
917.573	94437.1
922.076	103319
926.576	89419.9
931.074	67048
935.569	49148.4
940.061	37008.1
944.551	28966.1
949.038	24893.7
953.522	22688.9
958.004	21722.5
962.483	20801.4
966.96	19419.6
971.434	17711.2
975.905	16633
980.373	16334
984.839	17189.5
989.303	19455.1
993.763	21721.9
998.221	24656.4
1002.68	26311.8
1007.13	27074.7
1011.58	25084.8
1016.03	21951.6
1020.47	18893.3
1024.91	15528.2
1029.35	13056.7
1033.79	10852
1038.22	9255.45
1042.65	7845.93
1047.08	6669.22
1051.51	5611.49
1055.93	4735.91
1060.35	3940.81
1064.77	3483.98
1069.19	3252.51
1073.6	2949.64
1078.01	2572.55
1082.42	2403.01
1086.82	2156.08
1091.22	1912.63
1095.62	1446.44
1100.02	797.815
1104.41	358.462
1108.8	45.5
1113.19	91.5918
1117.58	181.508
1121.96	114.686
1126.34	198.178
1130.72	300.586
1135.09	40.6035
1139.46	170.431
1143.83	76.2559
1148.2	13.2109
1152.56	92.3613
1156.92	62.3242
1161.28	82.2969
1165.64	156.746
1169.99	1.04297
1174.34	130.708
1178.69	23.6328
1183.04	60.2891
1187.38	285.374
1191.72	180.715
1196.05	267.709
1200.39	218.407
1204.72	395.817
1209.05	337.992
1213.37	390.856
1217.7	369.312
1222.02	311.476
1226.33	315.828
1230.65	233.961
1234.96	394.099
1239.27	428.646
1243.58	559.276
1247.88	551.886
1252.18	577.354
1256.48	429.022
1260.78	517.125
1265.07	347.977
1269.36	331.631
1273.64	194.172
1277.93	164.241
1282.21	204.421
1286.49	184.976
1290.77	388.169
1295.04	192.836
1299.31	249.095
1303.58	299.248
1307.84	281.941
1312.11	237.126
1316.37	410.423
1320.62	266.551
1324.88	313.434
1329.13	300.614
1333.38	430.867
1337.62	345.953
1341.86	404.768
1346.1	319.898
1350.34	123.013
1354.58	102.574
1358.81	105.841
1363.04	182.288
1367.26	294.129
1371.48	186.901
1375.7	175.49
1379.92	157.982
1384.14	301.724
1388.35	94.7441
1392.56	220.964
1396.77	97.0137
1400.97	53.1748
1405.17	73.8154
1409.37	15.2852
1413.56	213.924
1417.76	171.63
1421.94	32.5869
1426.13	238.159
1430.32	148.381
1434.5	56.4346
1438.68	39.9434
1442.85	85.7725
1447.02	37.7578
1451.19	51.1221
1455.36	40.8906
1459.53	21.8555
1463.69	134.933
1467.85	53.4209
1472	150.214
1476.15	123.886
1480.3	136.794
1484.45	32.2451
1488.6	116.157
1492.74	93.3652
1496.88	51.9697
1501.01	6.09961
1505.14	165.485
1509.27	201.084
1513.4	270.461
1517.53	128.644
1521.65	106.432
1525.77	232.088
1529.88	63.6357
1533.99	248.13
1538.11	204.994
1542.21	82.9512
1546.32	222.231
1550.42	258.565
1554.52	285.723
1558.61	75.1523
1562.71	287.808
1566.8	67.3408
1570.88	4.41309
1574.97	128.14
