Measurement: Raman, 514 nm, depolarized, Raman Data Processed
Mineral: Gehlenite
Rruff sample: R060841
Ideal chemistry: Ca_2_Al(SiAl)O_7_
Locality: Monzoni, Tyrol, Italy
Source: Michael Scott
Description: Brown rectangular prism
Measured chemistry: (Ca_1.92_Na_0.07_K_0.01_)_Σ=2_(Al_0.62_Mg_0.25_Fe^2+^_0.13_)_Σ=1_(Si_1.46_Al_0.54_)O_7_ ; = lighter phase, and the darker phase is calcite
Pin_id: L00662
Orientation: Laser parallel to a* (1 0 0). Fiducial mark perpendicular to laser is parallel to c [0 0 1]
Raman shift (cm-1)	intensity
185.146	0
190.053	5.14844
194.958	521.938
199.859	995.233
204.758	1034
209.654	948.244
214.547	1296.43
219.438	2128.67
224.326	3178.11
229.211	4533.17
234.093	5257.82
238.972	5422.44
243.849	5053.93
248.723	5018.17
253.594	4895.25
258.462	4427.29
263.328	4080.3
268.191	3492
273.051	3072.7
277.908	3078.96
282.763	3666.15
287.615	4666.76
292.464	6062.04
297.31	7727.38
302.154	8992.64
306.995	9276.35
311.833	7937.49
316.668	6044.01
321.501	4542.21
326.331	3234.51
331.158	2389.14
335.983	1771.57
340.804	1400.36
345.623	1183.62
350.44	948.503
355.253	879.94
360.064	676.252
364.872	341.715
369.677	156.812
374.48	128.954
379.28	345.492
384.077	340.91
388.872	396.184
393.663	436.511
398.452	259.881
403.239	250.16
408.022	308.161
412.803	96.9517
417.581	140.998
422.357	592.981
427.129	757.641
431.899	875.746
436.667	909.035
441.431	909.977
446.193	843.145
450.952	1052.38
455.709	1248.5
460.463	1495.68
465.214	1809.05
469.962	1953.72
474.708	2422.72
479.451	2288.33
484.191	2228.04
488.929	1808.51
493.663	1482.11
498.396	1162.59
503.125	1156.3
507.852	1210.97
512.576	1462.87
517.298	1700.23
522.016	1703.97
526.732	1756.05
531.446	1190.33
536.156	672.932
540.865	525.472
545.57	471.102
550.273	627.72
554.973	1121.47
559.67	2041.71
564.364	2640.26
569.056	3114.85
573.746	2958.1
578.432	3300.92
583.116	4237.92
587.798	5706.11
592.476	8080.92
597.152	12093.7
601.825	18606.4
606.496	27759.1
611.164	38404.8
615.829	44494.7
620.492	40810.6
625.152	33260.4
629.809	27980.6
634.464	24030
639.116	20096.4
643.765	17101.2
648.412	19561.8
653.056	28539.6
657.697	35666.1
662.336	32827.2
666.972	25029.2
671.605	17539.4
676.236	11843.1
680.864	8249.19
685.49	5755.46
690.113	4368.28
694.733	3315.49
699.351	3085.18
703.965	2890.35
708.578	2627.84
713.187	2559.61
717.794	3217.64
722.399	4946.97
727.001	7722.61
731.6	8869.54
736.196	7441.78
740.79	4904.33
745.381	2704.2
749.97	1399.39
754.556	381.909
759.139	244.417
763.72	697.79
768.298	1044.73
772.874	957.702
777.447	479.198
782.017	356.308
786.585	1433.57
791.15	2830.2
795.712	4675.23
800.272	5580.78
804.829	4759.29
809.384	3666.31
813.936	2965.61
818.485	2529.92
823.032	2691.17
827.576	2959.18
832.118	3858.48
836.657	4893.25
841.193	5999.32
845.727	6133.63
850.258	6044.99
854.787	5617.19
859.313	5340.96
863.836	5126.19
868.357	5054.75
872.875	5015.77
877.391	5581.12
881.904	7797.76
886.414	11011.5
890.922	15217.3
895.427	18943.5
899.93	24132
904.43	28771.9
908.927	28947.3
913.422	25664.8
917.914	22664
922.404	21456
926.891	21670.5
931.376	20282.5
935.858	16898
940.337	13421
944.814	11463.4
949.289	11021.2
953.76	11327.8
958.229	10852.8
962.696	9253.36
967.16	7818.76
971.621	6984.17
976.08	6757.14
980.537	6384.6
984.99	6461.28
989.442	6981.75
993.89	7761.95
998.336	7717.73
1002.78	6914.16
1007.22	5986.77
1011.66	4901.62
1016.1	4033.49
1020.53	3255.37
1024.96	2933.11
1029.39	2497.66
1033.81	2135.11
1038.24	1862.33
1042.66	2037.76
1047.07	1365.46
1051.49	1115.46
1055.9	910.774
1060.31	684.734
1064.72	554.253
1069.13	507.703
1073.53	422.392
1077.93	350.669
1082.33	267.378
1086.72	107.812
1091.12	123.753
1095.51	284.409
1099.89	300.036
1104.28	118.787
1108.66	131.061
1113.04	192.613
1117.42	122.119
1121.79	29.0029
1126.16	103.065
1130.53	7.18896
1134.9	18.395
1139.27	82.7524
1143.63	96.7827
1147.99	236.03
1152.35	174.448
1156.7	243.986
1161.05	344.08
1165.4	386.873
1169.75	417.308
1174.09	407.368
1178.44	448.693
1182.78	501.157
1187.11	485.929
1191.45	565.886
1195.78	498.109
1200.11	573.787
1204.44	570.208
1208.76	588.937
1213.08	674.856
1217.4	691.239
1221.72	643.824
1226.03	616.175
1230.35	475.13
1234.66	475.485
1238.96	405.166
1243.27	420.651
1247.57	332.759
1251.87	203.434
1256.17	304.799
1260.46	320.921
1264.75	164.051
1269.04	220.796
1273.33	293.59
1277.62	124.269
1281.9	204.859
1286.18	154.706
1290.45	82.1553
1294.73	151.959
1299	166.214
1303.27	178.125
1307.54	107.596
1311.8	180.083
1316.07	156.244
1320.33	74.186
1324.58	180.977
1328.84	124.228
1333.09	109.827
1337.34	205.85
1341.59	66.3394
1345.83	159.838
1350.08	152.87
1354.32	25.189
1358.55	118.905
1362.79	5.47363
1367.02	144.657
1371.25	9.53662
1375.48	163.75
1379.71	11.9126
1383.93	20.209
1388.15	94.2222
1392.37	32.0444
1396.58	124.955
1400.8	78.8848
1405.01	58.0693
1409.21	19.4922
1413.42	52.9985
1417.62	91.3262
1421.83	64.0239
1426.02	83.9644
1430.22	171.579
1434.41	184.936
1438.61	126.167
1442.79	37.2954
1446.98	80.0269
1451.16	2.51562
1455.35	125.683
1459.52	95.5308
1463.7	35.5137
1467.87	13.6499
1472.05	21.5693
1476.21	99.7866
1480.38	139.131
1484.55	3.06055
1488.71	32.7881
1492.87	73.7427
1497.03	67.9463
1501.18	76.4526
1505.33	111.765
1509.48	19.3701
1513.63	131.418
1517.77	89.0161
1521.92	8.00928
1526.06	51.9043
1530.19	73.3916
1534.33	95.4106
1538.46	17.4277
1542.59	85.7344
1546.72	69.4209
1550.85	193.022
1554.97	272.488
1559.09	55.9194
1563.21	15.4956
