Measurement: Raman, 514 nm, depolarized, Raman Data Processed
Mineral: Gehlenite
Rruff sample: R061091
Ideal chemistry: Ca_2_Al(SiAl)O_7_
Locality: Carneal Plug, Glenoe Larne District, County Antrim, Northern Ireland
Source: Michael Scott
Description: Yellowish-brown anhedral blebs associated with black magnetite and white wollastonite
Measured chemistry: (Ca_1.64_Na_0.36_)_Σ=2_(Al_0.38_Fe_0.36_Mg_0.26_)_Σ=1_(Si_1.98_Al_0.02_)_Σ=2_O_7_
Pin_id: M01135
Orientation: Laser parallel to c* (0 0 1). Fiducial mark perpendicular to laser is parallel to a [1 0 0]
Raman shift (cm-1)	intensity
96.869	0
101.819	668.59
106.766	334.4
111.711	687.879
116.653	1092.3
121.592	1100.17
126.529	429.789
131.464	1025.38
136.395	986.354
141.324	774.604
146.251	396.603
151.175	267.482
156.096	212.631
161.015	112.453
165.931	26.5117
170.844	221.102
175.755	395.143
180.663	665.139
185.569	1276.66
190.472	1579.37
195.373	1804.07
200.27	2422.47
205.166	2984.59
210.058	4328.76
214.948	6655.53
219.836	7780.06
224.721	8840.79
229.603	8476.61
234.482	7671.61
239.359	6766.17
244.234	5920.18
249.106	5271.72
253.975	5282.6
258.841	4556.04
263.705	4473.19
268.567	4340.96
273.425	3707.22
278.281	3715.94
283.135	3406.53
287.986	3490.68
292.834	3554.99
297.68	3512.18
302.523	3588.2
307.363	3283.96
312.201	2894.01
317.037	2492.99
321.869	1944.7
326.699	1846.23
331.527	1540.98
336.351	1238.51
341.174	1037.65
345.993	895.715
350.81	713.92
355.625	466.438
360.436	263.17
365.245	107.779
370.052	209.419
374.856	123.552
379.657	206.059
384.456	139.233
389.252	146.812
394.045	165.641
398.836	351.137
403.625	217.58
408.41	118.481
413.193	68.1553
417.974	69.6699
422.751	440.038
427.527	850.749
432.299	1652.27
437.069	2910.02
441.836	4240.81
446.601	5951.16
451.363	7330.3
456.123	7686.01
460.88	7421.87
465.634	7507.03
470.386	8326.03
475.135	9852.22
479.881	10448.6
484.625	10779.5
489.366	9774.71
494.105	8381.24
498.84	7500
503.574	6618.78
508.305	6700
513.033	6517.04
517.758	6249.11
522.481	5983.33
527.201	5812.01
531.919	5393.96
536.634	4975.07
541.346	4557.56
546.056	4070.89
550.763	3652.23
555.468	3246.28
560.17	3027.07
564.869	2987.01
569.566	2881.24
574.26	2726.53
578.952	2766.84
583.641	3080.85
588.327	3719.61
593.011	4862.16
597.692	6592.52
602.37	8987.73
607.046	12480.8
611.719	17976.9
616.39	27682.2
621.058	42058.6
625.723	56320.8
630.386	61831.7
635.046	52850.2
639.703	39791.1
644.358	35924.9
649.01	44151.8
653.66	64418
658.307	84845.1
662.951	93952.7
667.593	87087.8
672.232	67578.2
676.869	47512.9
681.503	33005.9
686.134	22906.1
690.763	16926.1
695.389	12951.6
700.013	10301
704.633	8673.08
709.252	7431.67
713.867	6357.62
718.48	5714.87
723.091	4529.04
727.698	3661.96
732.304	3037.84
736.906	2515.93
741.506	1943.22
746.103	1593.71
750.698	1059.39
755.29	548.246
759.88	202.269
764.467	155.691
769.051	224.906
773.632	417.748
778.211	397.093
782.788	430.248
787.362	142.977
791.933	202.516
796.501	227.81
801.067	273.924
805.631	155.478
810.191	25.2188
814.749	83.667
819.305	444.324
823.858	861.889
828.408	1299.35
832.956	2379.68
837.501	3335.91
842.043	4745.02
846.583	6518.04
851.12	8628.98
855.654	10679.9
860.186	11977.7
864.716	10997.6
869.242	9203.12
873.766	8203.38
878.288	8943.54
882.807	10905.4
887.323	13996.8
891.837	18122.9
896.348	24185.7
900.856	33516.1
905.362	47378.4
909.865	65124.1
914.366	85328.1
918.864	99694
923.359	96340.3
927.852	77008.4
932.342	55475.1
936.829	40845.5
941.314	30747.1
945.796	24660.8
950.276	21174.4
954.753	18914.9
959.228	16917.6
963.699	14611.4
968.169	12554.3
972.635	10681.4
977.099	9157.52
981.56	8279.96
986.019	7976.81
990.475	7609.42
994.929	7201.2
999.38	6727.08
1003.83	6189.55
1008.27	5567.92
1012.72	5231.87
1017.16	4918.34
1021.6	4611.79
1026.03	4421.03
1030.46	4305.83
1034.89	4035.57
1039.32	3757.86
1043.74	3556.61
1048.17	3097.03
1052.59	2790
1057	2532.63
1061.42	2064.39
1065.83	1939.43
1070.24	1788.19
1074.65	1484.78
1079.05	1573.56
1083.45	1587.3
1087.85	1567.04
1092.25	1840.09
1096.64	2253.59
1101.03	1770.07
1105.42	760.857
1109.8	252.765
1114.19	76.2197
1118.57	162.164
1122.95	141.674
1127.32	63.543
1131.69	193.008
1136.06	159.152
1140.43	109.97
1144.8	128.947
1149.16	191.694
1153.52	50.7315
1157.87	90.5244
1162.23	18.2998
1166.58	38.374
1170.93	40.0918
1175.28	120.93
1179.62	4.19434
1183.96	235.606
1188.3	145.557
1192.64	253.594
1196.97	373.023
1201.3	292.336
1205.63	352.523
1209.95	270.724
1214.28	285.839
1218.6	355.878
1222.92	323.85
1227.23	425.737
1231.55	452.534
1235.86	481.225
1240.16	318.766
1244.47	479.051
1248.77	547.951
1253.07	398.103
1257.37	455.281
1261.66	511.219
1265.95	352.752
1270.24	258.894
1274.53	260.847
1278.81	288.71
1283.09	109.971
1287.37	115.936
1291.65	91.2852
1295.92	97.4326
1300.19	144.905
1304.46	80.9824
1308.73	121.065
1312.99	200.363
1317.25	24.3564
1321.51	249.037
1325.77	171.144
1330.02	264.676
1334.27	279.402
1338.52	206.492
1342.76	269.769
1347	304.734
1351.24	313.268
1355.48	302.653
1359.72	446.523
1363.95	316.584
1368.18	366.826
1372.4	406.09
1376.63	228.941
1380.85	186.741
1385.07	285.256
1389.29	237.051
1393.5	223.376
1397.71	224.574
1401.92	311.727
1406.13	301.537
1410.33	136.345
1414.53	111.996
1418.73	235.101
1422.92	121.509
1427.12	187.133
1431.31	282.397
1435.5	148.606
1439.68	321.617
1443.87	270.547
1448.05	199.083
1452.22	327.397
1456.4	195.391
1460.57	189.31
1464.74	194.796
1468.91	305.719
1473.07	302.225
1477.23	326.843
1481.39	174.496
1485.55	281.618
1489.7	106.539
1493.86	96.9434
1498.01	48.6103
1502.15	101.924
1506.3	127.62
1510.44	106.589
1514.58	72.9228
1518.71	54.3828
1522.85	124.791
1526.98	67.5586
1531.11	86.0449
1535.23	107.163
1539.35	307.394
1543.47	164.015
1547.59	175.947
1551.71	149.69
1555.82	239.224
1559.93	149.123
1564.04	185.673
1568.14	2.23047
1572.25	0
