Measurement: Raman, 514 nm, ccw, Raman Data Processed
Mineral: Gehlenite
Rruff sample: R061091
Ideal chemistry: Ca_2_Al(SiAl)O_7_
Locality: Carneal Plug, Glenoe Larne District, County Antrim, Northern Ireland
Source: Michael Scott
Description: Yellowish-brown anhedral blebs associated with black magnetite and white wollastonite
Measured chemistry: (Ca_1.64_Na_0.36_)_Σ=2_(Al_0.38_Fe_0.36_Mg_0.26_)_Σ=1_(Si_1.98_Al_0.02_)_Σ=2_O_7_
Pin_id: M01135
Orientation: Laser parallel to c* (0 0 1). Fiducial mark perpendicular to laser is parallel to a [1 0 0]
Raman shift (cm-1)	intensity
99.344	0
104.293	122.121
109.239	1249.5
114.182	1106.23
119.123	1548.2
124.061	1896.34
128.997	2083.69
133.93	2252.85
138.86	2647.32
143.788	2665.43
148.713	2783.85
153.636	3021.02
158.556	3022.3
163.473	3089.94
168.388	3204.8
173.3	3303.02
178.21	3420.48
183.117	3244.91
188.021	3710.28
192.923	3913.2
197.822	4169.21
202.718	4409.21
207.612	5462.85
212.504	6932.19
217.392	8612.09
222.279	9590.14
227.162	10029.2
232.043	9091.28
236.921	8255.94
241.797	7325.78
246.67	6640.41
251.54	5886.04
256.408	5645.45
261.274	5216.48
266.136	4877.93
270.996	4607.59
275.854	4306.18
280.709	4058.62
285.561	3870.89
290.41	3537.09
295.257	3669.76
300.102	3919.75
304.944	3768.73
309.783	3419.46
314.619	3088.72
319.453	2466.13
324.285	2057.35
329.113	1843.21
333.939	1567.49
338.763	1466.06
343.584	1387.9
348.402	1288.03
353.218	743.504
358.031	399.388
362.841	29.2607
367.649	71.6797
372.454	321.453
377.257	237.232
382.057	188.149
386.854	151.027
391.649	16.001
396.441	190.044
401.231	338.109
406.018	505.175
410.802	177.982
415.584	166.041
420.363	101.705
425.139	19.5537
429.913	239.523
434.684	708.242
439.453	1296.98
444.219	2125.75
448.982	2680.6
453.743	3643.55
458.501	4236.64
463.257	4851.92
468.01	6121.45
472.76	7532.28
477.508	9267.48
482.253	10098.3
486.996	9765.31
491.736	8875.95
496.473	7743.09
501.207	6975.88
505.94	6675.51
510.669	6605.77
515.396	6446.09
520.12	6742.37
524.842	6361.34
529.561	6023.61
534.277	5760.62
538.991	5276.69
543.702	4962.92
548.41	4852.07
553.116	4432.3
557.819	4061.45
562.52	3713.13
567.218	3717.1
571.913	3542.25
576.606	3263.34
581.296	3493.01
585.984	4054.27
590.669	4890.19
595.351	6469.78
600.031	8338.1
604.708	11149.2
609.383	15528
614.055	22427.7
618.724	34535.2
623.391	50214.6
628.055	62517.7
632.716	58543.2
637.375	44876.8
642.031	35613.3
646.685	38204.9
651.335	53682.1
655.984	75873.2
660.63	92875.7
665.273	93154.6
669.913	77839.6
674.551	56325.7
679.186	39124.5
683.819	27222.8
688.449	19741.7
693.076	15105
697.701	11987.2
702.323	10120
706.943	8539.08
711.56	7282.9
716.174	6250
720.786	5340.29
725.395	4599.77
730.001	3790.43
734.605	3167.25
739.206	2618.24
743.805	2084.4
748.401	1502.71
752.995	1096.19
757.585	315.825
762.173	91.6133
766.759	232.828
771.342	382.446
775.922	427.826
780.5	225.841
785.075	198.551
789.648	87.4394
794.217	175.336
798.785	173.826
803.349	307.975
807.911	225.118
812.471	165.808
817.027	206.78
821.582	571.131
826.133	1056.44
830.682	1692.68
835.228	2605.84
839.772	3725.9
844.313	5394.86
848.852	7596.72
853.387	9614.5
857.921	11348.2
862.451	11512
866.979	9651.98
871.505	7910.69
876.028	7817.05
880.548	9553.17
885.065	12156.3
889.58	15400.1
894.093	19777.5
898.602	26804.7
903.109	38223
907.614	53915.7
912.116	73977
916.615	92723.4
921.112	99456.1
925.606	86371.1
930.097	64009.4
934.586	46275.8
939.072	34285.3
943.556	27130.3
948.037	22573.4
952.515	19772.9
956.991	17867
961.464	15646.1
965.934	13456.3
970.402	11149.6
974.867	9358.15
979.33	8381.44
983.79	8052.02
988.248	7692.29
992.702	7278.29
997.155	6570.45
1001.6	6124.79
1006.05	5738.61
1010.5	5295.44
1014.94	4978.34
1019.38	4610.47
1023.81	4586.34
1028.25	4267.25
1032.68	4012
1037.11	3730.61
1041.53	3472.99
1045.96	2999.92
1050.38	2709.72
1054.8	2423.26
1059.21	2138.35
1063.62	1878.63
1068.04	1844.91
1072.44	1815.54
1076.85	1639.59
1081.25	1694.24
1085.65	1945.28
1090.05	2251.75
1094.44	2922.64
1098.84	3157.49
1103.22	1649.37
1107.61	615.395
1112	292.267
1116.38	134.132
1120.76	64.9463
1125.13	2.66894
1129.51	180.602
1133.88	51.3447
1138.25	126.517
1142.61	173.745
1146.98	193.017
1151.34	47.9014
1155.7	108.756
1160.05	121.114
1164.4	118.352
1168.76	59.7363
1173.1	115.183
1177.45	83.1592
1181.79	141.055
1186.13	189.346
1190.47	163.071
1194.8	273.432
1199.14	344.728
1203.46	356.947
1207.79	285.243
1212.12	489.41
1216.44	506.512
1220.76	340.522
1225.08	468.422
1229.39	495.202
1233.7	515.447
1238.01	560.352
1242.32	495.704
1246.62	629.865
1250.92	538.255
1255.22	558.721
1259.51	355.214
1263.81	524.164
1268.1	405.063
1272.38	348.842
1276.67	255.019
1280.95	271.831
1285.23	135
1289.51	41.8018
1293.79	25.3809
1298.06	20.5488
1302.33	32.0361
1306.6	200.591
1310.86	268.523
1315.12	146.231
1319.38	210.451
1323.64	188.238
1327.89	266.581
1332.14	271.572
1336.39	301.981
1340.64	209.454
1344.88	395.521
1349.12	456.541
1353.36	409.453
1357.6	565.705
1361.83	505.55
1366.06	470.853
1370.29	465.887
1374.52	315.488
1378.74	405.685
1382.96	397.503
1387.18	522.148
1391.39	394.89
1395.61	246.94
1399.82	356.932
1404.02	251.889
1408.23	319.592
1412.43	297.597
1416.63	356.547
1420.83	256.067
1425.02	275.869
1429.21	410.32
1433.4	201.736
1437.59	129.044
1441.77	381.553
1445.95	252.623
1450.13	348.983
1454.31	427.175
1458.48	298.35
1462.65	339.394
1466.82	138.295
1470.99	343.137
1475.15	263.994
1479.31	218.42
1483.47	198.612
1487.63	150.658
1491.78	180.678
1495.93	179.681
1500.08	182.509
1504.22	110.328
1508.37	165.189
1512.51	110.463
1516.64	106.267
1520.78	72.0772
1524.91	148.333
1529.04	36.54
1533.17	150.688
1537.29	117.023
1541.41	200.108
1545.53	158.419
1549.65	172.356
1553.77	126.053
1557.88	151.995
1561.99	115.765
1566.09	8.53027
1570.2	30.1973
1574.3	33.6631
