Measurement: Raman, 514 nm, ccw, Raman Data Processed
Mineral: Gehlenite
Rruff sample: R061091
Ideal chemistry: Ca_2_Al(SiAl)O_7_
Locality: Carneal Plug, Glenoe Larne District, County Antrim, Northern Ireland
Source: Michael Scott
Description: Yellowish-brown anhedral blebs associated with black magnetite and white wollastonite
Measured chemistry: (Ca_1.64_Na_0.36_)_Σ=2_(Al_0.38_Fe_0.36_Mg_0.26_)_Σ=1_(Si_1.98_Al_0.02_)_Σ=2_O_7_
Pin_id: M01302
Orientation: Laser parallel to a* (1 0 0). Fiducial mark perpendicular to laser is parallel to -c [0 0 -1]
Raman shift (cm-1)	intensity
87.513	0
92.441	1424.54
97.366	748.894
102.29	265.258
107.211	1994.77
112.13	1550.75
117.046	5263.54
121.961	18204.8
126.873	4795.73
131.783	1214.76
136.691	1546.35
141.597	1585.97
146.5	2033.84
151.402	2601.22
156.301	3000.48
161.198	3119.82
166.092	3012.14
170.985	2564.93
175.875	2116.76
180.763	2025.36
185.649	1607.47
190.532	1633.04
195.413	1669.38
200.292	2206.03
205.169	2797.05
210.044	3621.51
214.916	6000.58
219.786	6821.26
224.654	7268.02
229.519	6880.33
234.382	6574.08
239.243	5667.01
244.102	4823.77
248.958	4072.48
253.813	3735.62
258.664	3509.31
263.514	3137.19
268.361	3041.26
273.206	3076.09
278.049	3181.63
282.889	3490.75
287.728	4127.43
292.563	4653.4
297.397	5654.72
302.228	6362.78
307.057	5833.05
311.884	4940.45
316.708	4067.78
321.53	3501.8
326.35	2766.3
331.167	2435.17
335.982	1855.94
340.795	1554.66
345.605	1160.46
350.413	717.71
355.219	437.424
360.022	359.575
364.823	123.164
369.622	10.5488
374.418	137.328
379.212	192.421
384.004	207.102
388.793	230.769
393.58	402.279
398.364	246.363
403.146	302.338
407.926	221.294
412.704	221.641
417.479	254.955
422.251	289.086
427.022	88.9336
431.79	77.7842
436.555	44.5078
441.319	543.302
446.079	1062.69
450.838	1568.79
455.594	2404.07
460.347	3012.64
465.099	3814.58
469.847	4861.03
474.594	5819.1
479.338	6618.91
484.079	6142.55
488.819	5286.24
493.555	4202.59
498.29	3287.94
503.022	2797.51
507.751	2654.82
512.478	2418.68
517.203	2649.39
521.925	2668.81
526.645	2849.99
531.363	2702.09
536.078	2661.88
540.79	3064.35
545.5	3035.9
550.208	3352.28
554.913	3656.64
559.616	3801.56
564.316	4034.98
569.014	3849.5
573.709	3981.91
578.402	4421.52
583.093	5904.69
587.781	7517.36
592.466	9961.05
597.15	13770
601.83	17567.6
606.508	25040.9
611.184	33707.9
615.857	50597.8
620.528	78778.5
625.196	115367
629.862	134802
634.525	112328
639.186	78410.2
643.844	63838.8
648.5	77154.9
653.153	109419
657.804	140903
662.452	152342
667.098	138875
671.742	106631
676.382	72908.1
681.021	48200.2
685.656	31689.9
690.29	21196.2
694.92	14880.7
699.549	10894.8
704.174	8884.02
708.797	7035.96
713.418	6017.01
718.036	5715.65
722.652	5579.66
727.265	6025.94
731.875	6529.49
736.483	7038.33
741.089	7362.46
745.692	7734.92
750.292	7591.7
754.89	6677.83
759.485	4794.29
764.078	2630.01
768.668	953.213
773.256	144.338
777.841	357.699
782.423	378.598
787.003	369.988
791.581	462.709
796.156	754.5
800.728	514.676
805.298	490.773
809.865	650.963
814.429	435.055
818.991	232.865
823.551	211.769
828.107	503.951
832.662	1089.93
837.213	2437.19
841.762	4336.4
846.309	6989.75
850.853	10659.7
855.394	13981.9
859.933	14342.6
864.469	12381.8
869.002	10057
873.533	9591.85
878.062	10542
882.587	13421.5
887.11	17351.3
891.631	23130.2
896.149	31876.7
900.664	46365.8
905.177	67897.6
909.687	101168
914.194	142463
918.699	178849
923.201	180445
927.701	146611
932.198	108565
936.692	78046.6
941.184	60059.6
945.673	48314.1
950.159	41991.3
954.643	39936.9
959.124	39378.3
963.603	38636.6
968.078	36875.2
972.552	34710.1
977.022	33852.8
981.49	35235.6
985.955	39868
990.418	45458.4
994.878	53788.9
999.335	61231.4
1003.79	65555.6
1008.24	64809.7
1012.69	59322.3
1017.14	51366.8
1021.58	42861.7
1026.02	34842.3
1030.46	28422.2
1034.9	23177
1039.33	18890.6
1043.76	15860.9
1048.19	13260.2
1052.62	11286.4
1057.04	9528.18
1061.46	8043.73
1065.88	6955.26
1070.29	6033.5
1074.7	5663.87
1079.11	5207.73
1083.52	4782.24
1087.92	4533.62
1092.32	3599.99
1096.72	2625.8
1101.12	1511.92
1105.51	357.164
1109.9	64.2148
1114.29	256.951
1118.67	54.2715
1123.06	493.303
1127.43	250.639
1131.81	394.656
1136.18	308.103
1140.56	129.793
1144.93	139.346
1149.29	42.0938
1153.65	143.867
1158.02	287.803
1162.37	39.4316
1166.73	140.35
1171.08	279.264
1175.43	132.344
1179.78	618.803
1184.12	351.965
1188.46	462.127
1192.8	424.32
1197.14	596.717
1201.47	571.223
1205.8	510.738
1210.13	653.199
1214.45	803.793
1218.78	403.738
1223.1	757.711
1227.41	779.172
1231.73	790.332
1236.04	1094.23
1240.35	923.879
1244.65	834.078
1248.96	729.572
1253.26	821.182
1257.55	588.236
1261.85	555.564
1266.14	432.435
1270.43	303.506
1274.72	329.635
1279	261.338
1283.28	112.978
1287.56	112.969
1291.84	133.912
1296.11	123.121
1300.38	171.731
1304.64	167.559
1308.91	197.037
1313.17	352.402
1317.43	367.102
1321.68	460.586
1325.94	397.291
1330.19	339.369
1334.44	203.424
1338.68	255.223
1342.92	348.217
1347.16	232.863
1351.4	165.91
1355.63	314.248
1359.86	201.252
1364.09	247.338
1368.32	206.889
1372.54	88.8984
1376.76	377.164
1380.98	60.0703
1385.19	146.586
1389.4	106.445
1393.61	379.418
1397.82	175.547
1402.02	295.568
1406.22	15.7871
1410.42	240.688
1414.61	36.3086
1418.8	61.8398
1422.99	194.397
1427.18	210.75
1431.36	193.012
1435.54	108.531
1439.72	311.231
1443.89	159.49
1448.07	207.908
1452.24	17.9141
1456.4	279.369
1460.57	53.4102
1464.73	240.494
1468.88	88.4004
1473.04	105.908
1477.19	234.769
1481.34	130.391
1485.49	80.7734
1489.63	143.504
1493.77	273.008
1497.91	387.188
1502.05	336.973
1506.18	158.529
1510.31	173.389
1514.43	255.318
1518.56	223.352
1522.68	163.117
1526.8	165.133
1530.91	281.223
1535.02	209.644
1539.13	148.422
1543.24	143.051
1547.34	420.074
1551.44	137.822
1555.54	235.815
1559.64	214.568
1563.73	131.188
1567.82	292.764
1571.91	290.553
1575.99	0.458984
