Measurement: Raman, 514 nm, ccw, Raman Data Processed
Mineral: Gehlenite
Rruff sample: R061091
Ideal chemistry: Ca_2_Al(SiAl)O_7_
Locality: Carneal Plug, Glenoe Larne District, County Antrim, Northern Ireland
Source: Michael Scott
Description: Yellowish-brown anhedral blebs associated with black magnetite and white wollastonite
Measured chemistry: (Ca_1.64_Na_0.36_)_Σ=2_(Al_0.38_Fe_0.36_Mg_0.26_)_Σ=1_(Si_1.98_Al_0.02_)_Σ=2_O_7_
Pin_id: M01302
Orientation: Laser parallel to a* (1 0 0). Fiducial mark perpendicular to laser is parallel to -c [0 0 -1]
Raman shift (cm-1)	intensity
92.441	0
97.366	490.113
102.29	425.891
107.211	1420.35
112.13	732.494
117.046	4970.04
121.961	16630.4
126.873	5477.62
131.783	177.262
136.691	34.123
141.597	256.387
146.5	239.576
151.402	282.176
156.301	441.19
161.198	932.041
166.092	1562.65
170.985	896.383
175.875	1339.32
180.763	1777.18
185.649	1893.66
190.532	2600.04
195.413	3304.82
200.292	4290.98
205.169	5184.78
210.044	6481.62
214.916	7997.61
219.786	9496.83
224.654	10693.4
229.519	10580.4
234.382	10449.3
239.243	9717
244.102	8935.22
248.958	8594.5
253.813	8561.72
258.664	8643.86
263.514	8951.86
268.361	9798.62
273.206	11164.4
278.049	13121
282.889	15947.5
287.728	19336.4
292.563	24686.7
297.397	30159.4
302.228	33824.7
307.057	33138.3
311.884	28555.4
316.708	22526.8
321.53	17106.6
326.35	12575.9
331.167	9356.22
335.982	7015.85
340.795	5209.85
345.605	3776.36
350.413	2855.44
355.219	2081.22
360.022	1388.79
364.823	1177.15
369.622	493.317
374.418	117.032
379.212	34.581
384.004	265.667
388.793	430.873
393.58	381.894
398.364	318.595
403.146	232.674
407.926	101.75
412.704	88.7559
417.479	169.284
422.251	393.315
427.022	558.85
431.79	922.181
436.555	1518.35
441.319	2690.44
446.079	3776.35
450.838	4904.41
455.594	5659.44
460.347	5692.46
465.099	5779.41
469.847	5984.37
474.594	6443.41
479.338	7051.62
484.079	6929.06
488.819	6742.87
493.555	6201.88
498.29	5769.71
503.022	5783.98
507.751	5786.65
512.478	5877.22
517.203	6019.59
521.925	5893.51
526.645	5370.95
531.363	4580.3
536.078	3976.62
540.79	3283.34
545.5	2907.33
550.208	2740.44
554.913	2506.04
559.616	2259.76
564.316	1996.54
569.014	1762.26
573.709	1616.84
578.402	1596.13
583.093	1747.32
587.781	2067.17
592.466	2629.03
597.15	3751.17
601.83	5363.8
606.508	7735.1
611.184	11674.9
615.857	17874.2
620.528	28739
625.196	43661.5
629.862	52374.7
634.525	45627
639.186	32280
643.844	26668.7
648.5	31780
653.153	45501.3
657.804	60351
662.452	67220
667.098	61719.2
671.742	48789
676.382	34169.7
681.021	22948.1
685.656	16097.8
690.29	11121.2
694.92	8452.59
699.549	6514.52
704.174	5218.5
708.797	3838.03
713.418	3360.72
718.036	3062.07
722.652	2578.5
727.265	2175.85
731.875	1921.95
736.483	1690.52
741.089	1668.65
745.692	1553.2
750.292	1306.69
754.89	1148.11
759.485	548.481
764.078	147.784
768.668	221.278
773.256	570.632
777.841	532.29
782.423	481.529
787.003	336.26
791.581	285.894
796.156	156.283
800.728	155.575
805.298	131.932
809.865	40.0723
814.429	203.742
818.991	516.375
823.551	976.838
828.107	1512.68
832.662	1949.21
837.213	2937.13
841.762	3940.89
846.309	5475.61
850.853	7301.51
855.394	8552.7
859.933	8881.43
864.469	8065.78
869.002	6722.67
873.533	5993.18
878.062	6680.04
882.587	7981.06
887.11	9930.57
891.631	12930.5
896.149	16866.2
900.664	22917.1
905.177	32129.2
909.687	45818.8
914.194	63615.1
918.699	79073.8
923.201	80256.4
927.701	65676.6
932.198	48373.8
936.692	35261.9
941.184	27272.9
945.673	22153.5
950.159	19598.2
954.643	18456.4
959.124	17375.6
963.603	16630.2
968.078	14778.9
972.552	13333.5
977.022	12466.4
981.49	12007.4
985.955	12897
990.418	14149.9
994.878	15487.7
999.335	17105.2
1003.79	17997.3
1008.24	17632.2
1012.69	16183.6
1017.14	14245
1021.58	12466.3
1026.02	10244.4
1030.46	9030.5
1034.9	7578.8
1039.33	6344.17
1043.76	5569.36
1048.19	4859.73
1052.62	4153.19
1057.04	3554.58
1061.46	3096.17
1065.88	2663.37
1070.29	2167.45
1074.7	1950.13
1079.11	2109.76
1083.52	1624.29
1087.92	1478.94
1092.32	1169.19
1096.72	924.232
1101.12	313.026
1105.51	152.03
1109.9	122.847
1114.29	74.1768
1118.67	281.037
1123.06	229.413
1127.43	121.846
1131.81	129.978
1136.18	255.717
1140.56	61.0117
1144.93	3.81836
1149.29	104.515
1153.65	23.96
1158.02	154.289
1162.37	6.40723
1166.73	119.617
1171.08	63.1621
1175.43	140.555
1179.78	30.8486
1184.12	42.2451
1188.46	172.55
1192.8	220.649
1197.14	262.782
1201.47	198.944
1205.8	305.026
1210.13	224.929
1214.45	377.506
1218.78	246.333
1223.1	168.881
1227.41	401.224
1231.73	266.562
1236.04	527.566
1240.35	533.725
1244.65	390.998
1248.96	286.358
1253.26	331.32
1257.55	346.862
1261.85	344.552
1266.14	178.4
1270.43	271.935
1274.72	347.037
1279	244.291
1283.28	126.814
1287.56	255.886
1291.84	153.953
1296.11	128.459
1300.38	301.566
1304.64	121.927
1308.91	210.375
1313.17	86.6553
1317.43	157.949
1321.68	144.58
1325.94	176.725
1330.19	363.549
1334.44	377.006
1338.68	432.487
1342.92	229.958
1347.16	408.45
1351.4	168.28
1355.63	236.35
1359.86	352.397
1364.09	108.265
1368.32	221.226
1372.54	322.089
1376.76	119.263
1380.98	327.31
1385.19	336.29
1389.4	129.305
1393.61	265.753
1397.82	189.572
1402.02	118.686
1406.22	25.9385
1410.42	301.122
1414.61	224.124
1418.8	110.855
1422.99	123.844
1427.18	290.335
1431.36	295.429
1435.54	345.009
1439.72	139.23
1443.89	319.58
1448.07	87.0176
1452.24	165.196
1456.4	180.589
1460.57	150.31
1464.73	280.053
1468.88	298.062
1473.04	247.619
1477.19	272.331
1481.34	53.2305
1485.49	97.6846
1489.63	92.292
1493.77	249.356
1497.91	15.5312
1502.05	103.025
1506.18	30.9238
1510.31	35.1973
1514.43	181.317
1518.56	187.794
1522.68	137.929
1526.8	230.477
1530.91	11.5615
1535.02	29.4961
1539.13	272.063
1543.24	97.3574
1547.34	148.957
1551.44	140.081
1555.54	304.067
1559.64	194.768
1563.73	267.625
1567.82	27.3965
1571.91	114.957
1575.99	153.091
