Measurement: Raman, 514 nm, depolarized, Raman Data Processed
Mineral: Gehlenite
Rruff sample: R060841
Ideal chemistry: Ca_2_Al(SiAl)O_7_
Locality: Monzoni, Tyrol, Italy
Source: Michael Scott
Description: Brown rectangular prism
Measured chemistry: (Ca_1.92_Na_0.07_K_0.01_)_Σ=2_(Al_0.62_Mg_0.25_Fe^2+^_0.13_)_Σ=1_(Si_1.46_Al_0.54_)O_7_ ; = lighter phase, and the darker phase is calcite
Pin_id: L01166
Orientation: Laser parallel to c* (0 0 1). Fiducial mark perpendicular to laser is parallel to b [0 1 0]
Raman shift (cm-1)	intensity
177.781	0
182.692	84.3477
187.6	369.393
192.506	623.305
197.409	1068.64
202.309	1248.79
207.206	755.107
212.101	1014.98
216.993	1425.07
221.882	1822.34
226.768	2845.89
231.652	3403.72
236.533	3702.45
241.411	3178.87
246.286	3108.41
251.159	2740.96
256.028	2055.52
260.895	1774.82
265.76	1653.33
270.621	1446.4
275.48	1344.98
280.336	1671.34
285.189	1522.56
290.04	1684.72
294.887	1749.18
299.732	1959.77
304.575	1959.47
309.414	2294.1
314.251	1675.24
319.085	1642.88
323.916	1615.41
328.745	1412.31
333.571	1687.5
338.394	1436.2
343.214	1582.08
348.032	1597.38
352.847	1383.61
357.659	1340.4
362.468	921.447
367.275	528.613
372.079	258.828
376.88	67.0059
381.679	148.35
386.475	178.065
391.268	208.133
396.058	231.627
400.846	425.793
405.631	494.045
410.413	175.131
415.192	227.565
419.969	200.986
424.743	274.951
429.515	639.227
434.283	801.816
439.049	696.561
443.813	628.191
448.573	715.848
453.331	1055.52
458.086	1409.68
462.838	1642.17
467.588	2074.09
472.335	2593.2
477.08	2992.49
481.821	3064.18
486.56	2788.88
491.296	2569.61
496.03	2498.01
500.761	2357.42
505.489	2754.17
510.214	3016.69
514.937	3389.37
519.657	3634.16
524.375	3860.45
529.089	3572.36
533.801	3073.72
538.511	2912.88
543.218	2385.91
547.922	2278.31
552.623	1944.25
557.321	1981.01
562.017	2014.65
566.711	2099.92
571.401	1983.74
576.089	2166.15
580.775	2145.22
585.457	2973.98
590.137	4218.45
594.814	6264.62
599.489	9069.48
604.161	14344
608.83	20885.2
613.497	26988.8
618.161	28126.8
622.822	24137.3
627.481	20276.6
632.137	17495.6
636.79	14627.2
641.441	12307.1
646.089	12163.2
650.734	16156
655.377	22437.6
660.017	24111.1
664.654	20609.8
669.289	15463
673.921	11016.6
678.551	8456.97
683.177	6310.63
687.802	4983.79
692.423	4164.21
697.042	3501.41
701.658	3110.1
706.272	2541.59
710.883	2094.84
715.491	1846.82
720.097	1459.54
724.7	2038.97
729.301	2121.11
733.898	2021.93
738.494	1189.12
743.086	666.545
747.676	305.275
752.263	149.66
756.848	288.023
761.43	205.418
766.01	686.41
770.586	445.68
775.161	386.711
779.732	90.5801
784.301	161.035
788.868	598.496
793.431	1287.57
797.992	2128.26
802.551	2439.25
807.107	2625.53
811.66	2819.11
816.211	2907.31
820.759	3055.12
825.304	3309.54
829.847	3852.58
834.388	4587.25
838.925	5285.38
843.46	6259.12
847.993	6875.65
852.523	7582.48
857.05	8120.26
861.575	8650.91
866.097	8650.4
870.616	8504.89
875.133	7886.55
879.647	8088.29
884.159	9437.02
888.668	10826.5
893.175	12797.4
897.679	15083.1
902.18	18443.2
906.679	19595
911.175	18786.8
915.669	16923.4
920.16	15447.3
924.648	15470.5
929.134	15479.5
933.617	13576.8
938.098	10923.5
942.576	8628.6
947.052	7207.11
951.525	6403
955.995	5675.23
960.463	4819.34
964.928	4223.05
969.391	3690.93
973.851	3873.76
978.309	3157.97
982.764	2924.98
987.216	2443.85
991.666	2073.5
996.114	1858.76
1000.56	1484.54
1005	974.67
1009.44	1155.99
1013.88	1081.51
1018.31	1151.07
1022.74	894.404
1027.17	652.137
1031.6	817.467
1036.03	501.356
1040.45	752.16
1044.87	443.168
1049.28	446.471
1053.7	444.596
1058.11	293.197
1062.52	303.986
1066.92	239.475
1071.33	59.668
1075.73	207.455
1080.13	224.426
1084.53	252.387
1088.92	45.6836
1093.31	196.182
1097.7	33.0156
1102.09	2.91016
1106.47	30.3184
1110.85	85.0391
1115.23	181.654
1119.61	33.3379
1123.98	101.389
1128.35	6.16211
1132.72	104.787
1137.08	59.2832
1141.45	174.969
1145.81	26.3262
1150.17	111.533
1154.52	162.129
1158.88	121.066
1163.23	195.453
1167.58	213.676
1171.92	446.01
1176.27	137.389
1180.61	272.643
1184.94	481.836
1189.28	289.947
1193.61	455.57
1197.94	384.648
1202.27	177.609
1206.6	257.449
1210.92	392.242
1215.24	375.992
1219.56	492.219
1223.88	367.934
1228.19	547.504
1232.5	194.66
1236.81	653.09
1241.12	302.391
1245.42	440.961
1249.72	581.477
1254.02	472.738
1258.31	224.66
1262.61	222.242
1266.9	206.926
1271.19	343.719
1275.47	358.262
1279.76	7.65625
1284.04	112.644
1288.32	257.394
1292.59	302.633
1296.87	262.32
1301.14	497.227
1305.4	348.719
1309.67	268.352
1313.93	502.234
1318.2	135.332
1322.45	499.356
1326.71	513.547
1330.96	555.086
1335.22	493.832
1339.46	488.719
1343.71	416.762
1347.95	572.922
1352.2	594.449
1356.44	370.602
1360.67	551.547
1364.91	438.734
1369.14	671.766
1373.37	276.805
1377.59	398.18
1381.82	611.488
1386.04	685.254
1390.26	231.293
1394.48	288.348
1398.69	537.215
1402.9	247.453
1407.11	211.281
1411.32	312.301
1415.52	325.617
1419.72	519.656
1423.92	652.273
1428.12	343.984
1432.32	379.055
1436.51	321.621
1440.7	129.859
1444.89	244.547
1449.07	76.7891
1453.25	2.20312
1457.43	229.781
1461.61	30.3672
1465.79	393.859
1469.96	104.141
1474.13	202.152
1478.3	83.7266
1482.46	152.438
1486.63	172.754
1490.79	167.172
1494.95	63.0078
1499.1	47.3438
1503.26	111.996
1507.41	178.422
1511.56	139.535
1515.7	335.586
1519.85	239.652
1523.99	365.621
1528.13	181.848
1532.26	52.8828
1536.4	102.414
1540.53	162.914
1544.66	17.8789
1548.79	107.965
1552.91	305.418
1557.03	257.047
1561.15	2.41406
