Measurement: Raman, 514 nm, depolarized, Raman Data Processed
Mineral: Gmelinite-Na
Rruff sample: R050371
Ideal chemistry: Na_4_(Si_8_Al_4_)O_24_11H_2_O
Locality: Cairns Bay, Flinders Range, Australia
Source: Eugene Schlepp
Description: Colorless to pink crystals lining a basalt vug
Measured chemistry: Na_3.81_(Si_8.13_Al_3.88_)O_24_Â·4.27H_2_O
Pin_id: L01937
Orientation: Laser parallel to -c* (0 0 -1). Fiducial mark perpendicular to laser is parallel to a [1 0 0]
Raman shift (cm-1)	intensity
246.646	0
250.298	30.8486
253.947	89.3301
257.596	369.904
261.243	583.542
264.888	298.022
268.532	137.539
272.174	41.793
275.815	27.3145
279.454	84.4356
283.092	126.464
286.728	236.185
290.363	657.942
293.996	921.246
297.628	1373.94
301.258	1957.87
304.887	2567.88
308.514	3630.82
312.14	5146.6
315.764	6879.12
319.387	8266.2
323.008	8974.19
326.628	8203.81
330.246	6808.98
333.862	5080.5
337.478	3640.68
341.091	2526.18
344.703	1692.96
348.314	1183.82
351.923	930.628
355.531	723.22
359.137	598.531
362.742	663.558
366.345	636.53
369.947	825.625
373.547	1380.51
377.145	1636.96
380.743	1996.98
384.338	2437.52
387.932	3161.58
391.525	3916.49
395.116	5188.75
398.706	6879.58
402.294	9153.42
405.881	11880.8
409.466	13976
413.05	13599.3
416.632	11494.5
420.213	8520.32
423.792	6429.56
427.37	5200.75
430.946	4257.21
434.521	4182.47
438.094	4104.92
441.666	4431.81
445.236	4887.21
448.805	5286.15
452.372	6056.54
455.938	6985.04
459.502	8298.82
463.065	9905.98
466.627	12154.5
470.187	14784.4
473.745	18529.6
477.302	22651.7
480.857	27707.2
484.411	33284.3
487.964	39420.3
491.515	43788.9
495.064	45738.9
498.612	44149.1
502.159	39394.5
505.704	32144.1
509.247	23879.9
512.789	16976.8
516.33	11937
519.869	8025.24
523.407	5584.63
526.943	4128.15
530.478	2983.83
534.011	2083.42
537.543	1579.86
541.073	1144.52
544.602	857.592
548.129	601.439
551.655	413.434
555.179	283.119
558.702	104.905
562.223	6.85547
565.743	205.87
569.262	3.60254
572.779	40.5928
576.294	8.52344
579.808	17.5332
583.321	9.28809
586.832	15.0371
590.341	45.6006
593.85	49.834
597.356	79.6924
600.862	11.2861
604.365	88.8584
607.868	175.617
611.368	106.981
614.868	104.644
618.366	91.3135
621.862	45.2041
625.357	61.085
628.85	121.808
632.342	133.841
635.833	226.347
639.322	346.74
642.81	433.005
646.296	632.097
649.78	765.977
653.264	710.646
656.745	601.858
660.226	536.291
663.704	394.248
667.182	264.011
670.658	162.676
674.132	96.4697
677.605	13.3066
681.077	55.7178
684.547	38.9336
688.015	37.1934
691.483	75.915
694.948	54.4678
698.413	118.721
701.875	315.888
705.337	121.139
708.797	135.987
712.255	297.683
715.712	300.606
719.167	419.252
722.621	430.262
726.074	320.483
729.525	492.259
732.975	485.243
736.423	554.777
739.87	480.168
743.315	564.404
746.759	875.906
750.202	841.58
753.643	1207.71
757.082	1543.14
760.52	1700.14
763.957	1762.95
767.392	1782.17
770.826	1680.91
774.258	1542.73
777.689	1393.43
781.118	1230.39
784.546	1062.97
787.973	1085.87
791.398	956.305
794.822	778.494
798.244	843.315
801.665	614.093
805.084	524.018
808.502	350.474
811.918	377.638
815.333	341.996
818.747	323.013
822.159	260.863
825.569	124.163
828.979	212.285
832.386	157.546
835.793	0.654297
839.198	85.6953
842.601	11.0791
846.003	126.77
849.404	14.8965
852.803	108.919
856.2	130.476
859.597	94.7715
862.992	7.63867
866.385	4.03906
869.777	68.0107
873.167	53.6963
876.557	91.0019
879.944	20.7803
883.33	34.1074
886.715	90.0996
890.099	16.8916
893.481	10.2139
896.861	110.951
900.24	10.667
903.618	17.9502
906.994	46.9482
910.369	13.4902
913.742	38.6377
917.114	69.2637
920.485	73.584
923.854	10.5078
927.221	89.2832
930.588	155.685
933.952	56.8057
937.316	123.558
940.678	98.2637
944.038	4.3125
947.397	308.957
950.755	129.7
954.111	228.46
957.466	318.624
960.819	346.677
964.171	418.514
967.522	641.502
970.871	563.457
974.219	840.876
977.565	925.935
980.91	1136.58
984.253	1390.18
987.595	1410.04
990.936	1516.42
994.275	1592.14
997.613	1723.87
1000.95	1830.54
1004.28	1969.73
1007.62	1992.93
1010.95	2007.66
1014.28	2045.66
1017.61	2040.76
1020.94	1997.56
1024.26	2037.57
1027.59	1760.02
1030.91	1872.32
1034.23	1603.26
1037.56	1501.54
1040.88	1459.9
1044.19	1345.52
1047.51	1274.14
1050.83	1354.44
1054.14	1476.34
1057.45	1516.22
1060.76	1713.75
1064.07	1949.96
1067.38	2314.65
1070.69	2861.05
1073.99	3010.57
1077.3	3406.17
1080.6	3876.19
1083.9	4181.61
1087.2	4588.47
1090.5	5073.94
1093.79	5286.62
1097.09	5676.16
1100.38	5802.27
1103.68	5760.81
1106.97	5853.2
1110.26	5843.49
1113.55	5622.24
1116.83	5536.05
1120.12	5491.54
1123.4	5271.77
1126.68	4864.13
1129.97	4544.66
1133.25	4081.76
1136.53	3797.37
1139.8	3616.11
1143.08	3105.84
1146.35	2936.45
1149.63	2669.28
1152.9	2301.11
1156.17	1992.89
1159.44	1898.61
1162.7	1650.55
1165.97	1370.78
1169.23	1208.18
1172.5	964.78
1175.76	812.602
1179.02	612.612
1182.28	496.771
1185.54	424.039
1188.79	241.428
1192.05	115.932
1195.3	197.536
1198.55	185.237
1201.81	176.055
1205.05	106.966
1208.3	41.956
1211.55	146.033
1214.79	61.8272
1218.04	66.3144
1221.28	46.5791
1224.52	4.46582
1227.76	41.4844
1231	8.45801
1234.24	18.3643
1237.47	86.2949
1240.7	37.8867
1243.94	13.0723
1247.17	39.165
1250.4	36.832
1253.63	5.95215
1256.86	90.6172
1260.08	8.99805
1263.31	44.0049
1266.53	50.2744
1269.75	42.1924
1272.97	44.083
1276.19	149.551
1279.41	131.629
1282.62	159.487
1285.84	211.7
1289.05	150.872
1292.26	185.993
1295.47	259.466
1298.68	287.272
1301.89	409.972
1305.1	542.215
1308.3	581.732
1311.51	391.501
1314.71	332.262
1317.91	289.201
1321.11	333.593
1324.31	468.201
1327.5	457.67
1330.7	350.417
1333.89	397.876
1337.09	443.172
1340.28	143.389
1343.47	361.217
1346.65	244.299
1349.84	408.822
1353.03	261.675
1356.21	247.864
1359.4	269.231
1362.58	209.366
1365.76	88.8769
1368.94	113.802
1372.12	172.6
1375.29	298.075
1378.47	173.585
1381.64	73.9941
1384.81	40.7275
1387.98	127.372
1391.15	14.6885
1394.32	102.857
1397.49	13.6279
1400.65	172.685
1403.82	164.752
1406.98	73.3613
1410.14	146.697
1413.3	148.947
1416.46	119.814
1419.62	53.7647
1422.77	52.79
1425.93	91.5234
1429.08	11.3926
1432.23	31.7207
1435.38	275.703
1438.53	176.803
1441.68	150.133
1444.82	33.2617
1447.97	127.611
1451.11	187.845
1454.26	21.6934
1457.4	103.733
1460.54	246.198
1463.67	4.51562
1466.81	237.545
1469.95	271.418
1473.08	227.44
1476.21	179.121
1479.34	67.7188
1482.47	118.508
1485.6	163.94
1488.73	91.4463
1491.86	156.639
1494.98	152.697
1498.1	86.0928
1501.23	118.215
1504.35	187.696
1507.47	218.558
1510.58	133.572
1513.7	36.6562
1516.82	59.4951
1519.93	110.318
1523.04	112.564
1526.15	195.371
1529.26	80.6426
1532.37	48.3018
1535.48	53.2803
1538.58	191.004
1541.69	67.3769
1544.79	66.8965
1547.89	140.231
1550.99	86.9111
1554.09	151.866
1557.19	94.0703
1560.29	0.163086
