Measurement: Raman, 514 nm, depolarized, Raman Data Processed
Mineral: Gmelinite-Na
Rruff sample: R060168
Ideal chemistry: Na_4_(Si_8_Al_4_)O_24_11H_2_O
Locality: Five Islands, Nova Scotia, Canada
Source: Guy Ouellet
Description: Salmon-red interpenetrating prismatic rhombohedral crystals
Measured chemistry: (Na_3.90_Ca_0.10_)(Si_7.90_Al_4.10_)O_24_Â·8.98H_2_O
Pin_id: M00975
Orientation: Laser parallel to c* (0 0 1). Fiducial mark perpendicular to laser is parallel to a [1 0 0]
Raman shift (cm-1)	intensity
248.356	0
252.023	39.9004
255.688	77.9228
259.351	765.352
263.013	316.684
266.673	207.214
270.331	58.2647
273.988	50.2393
277.643	55.1592
281.296	309.853
284.947	396.233
288.597	804.428
292.245	1433.76
295.891	2115.69
299.536	2715.25
303.179	3668.34
306.82	4995.71
310.46	6642.16
314.098	8511.54
317.734	10202.7
321.369	10700.5
325.001	10079.5
328.633	8374.06
332.262	6404.1
335.89	4424.24
339.516	3081.05
343.14	1941.9
346.763	1233.04
350.384	700.61
354.004	586.936
357.622	311.986
361.238	284.757
364.852	349.239
368.465	748.427
372.076	925.305
375.685	1414.86
379.293	2064.06
382.899	2647.9
386.504	3447.36
390.106	4182.39
393.708	5311.86
397.307	6922.42
400.905	9581.81
404.501	12610.4
408.096	15397.7
411.689	16932
415.28	16037.2
418.869	13518.3
422.457	10235.3
426.044	7504.46
429.628	5701.77
433.211	4981.41
436.793	4546.3
440.373	4516.33
443.951	4779.57
447.527	5416.09
451.102	6040.22
454.675	6984.77
458.247	8278.8
461.817	9884.27
465.385	12211.2
468.952	14984.5
472.517	18778.2
476.081	23558.2
479.643	29304.7
483.203	36370.6
486.762	43649.8
490.319	49862.3
493.874	52980.1
497.428	52622.2
500.98	47785.6
504.531	39814.2
508.08	30747.1
511.627	22772.2
515.173	15848.5
518.717	10992.1
522.26	7695.78
525.801	5444.68
529.34	3952.73
532.878	2790.94
536.414	1991.12
539.949	1573.89
543.482	1077.84
547.013	901.492
550.543	681.812
554.071	528.481
557.598	379.251
561.123	182.662
564.647	89.8897
568.169	4.93848
571.689	55.9688
575.208	116.831
578.725	96.79
582.241	187.94
585.755	133.491
589.267	24.5967
592.778	67.4121
596.287	187.189
599.795	242.14
603.301	406.15
606.806	238.253
610.309	264.467
613.811	350.832
617.311	297.298
620.809	229.796
624.306	139.398
627.801	86.0044
631.295	125.51
634.787	219.898
638.278	327.149
641.767	513.244
645.254	505.157
648.74	768.868
652.225	782.357
655.708	867.613
659.189	800.619
662.669	535.366
666.147	432.839
669.624	279.03
673.099	279.926
676.572	89.8291
680.045	42.9785
683.515	21.0049
686.984	3.13232
690.452	33.7822
693.918	48.6611
697.382	29.5859
700.845	64.6982
704.307	39.5806
707.766	33.5405
711.225	77.5801
714.682	208.517
718.137	234.182
721.591	329.303
725.043	267.427
728.494	364.848
731.943	291.021
735.391	359.058
738.837	416.722
742.282	554.929
745.725	480.254
749.167	729.885
752.607	996.403
756.046	1144.26
759.483	1458.63
762.919	1700.48
766.353	1784.19
769.786	1861.14
773.217	1853.85
776.647	1555.71
780.075	1574.29
783.502	1196.61
786.927	1174.69
790.351	1003.8
793.773	1000.38
797.194	826.164
800.613	747.001
804.031	643.812
807.447	586.365
810.862	381.436
814.275	399.301
817.687	231.198
821.098	325.892
824.507	272.481
827.914	173.594
831.32	198.231
834.725	51.1763
838.128	89.1616
841.529	51.5449
844.929	42.978
848.328	54.7944
851.725	52.3618
855.121	33.3032
858.515	8.66846
861.908	38.2315
865.299	76.1265
868.689	46.2168
872.077	60.2822
875.464	69.457
878.85	21.4922
882.234	52.2783
885.617	95.9766
888.998	34.647
892.377	86.1143
895.756	113.398
899.133	11.3926
902.508	16.4468
905.882	23.8345
909.254	41.2417
912.625	1.82324
915.995	27.4839
919.363	85.5918
922.73	83.8408
926.095	78.6958
929.459	76.167
932.821	73.2715
936.182	59.0215
939.542	129.424
942.9	36.4985
946.257	209.202
949.612	196.414
952.966	175.044
956.318	230.347
959.669	236.617
963.019	379.668
966.367	507.65
969.714	650.675
973.059	745.488
976.403	901.203
979.745	1180.34
983.086	1614.97
986.426	1737.04
989.764	1776.76
993.101	1781.13
996.437	1764.5
999.771	2038.03
1003.1	1941.9
1006.43	2084.91
1009.76	2134.72
1013.09	2105.08
1016.42	2085.3
1019.75	2110.86
1023.07	2054.59
1026.39	1959.36
1029.71	1941.61
1033.03	1761.01
1036.35	1744.23
1039.67	1571.63
1042.99	1443.75
1046.3	1485.33
1049.61	1471.04
1052.92	1393.53
1056.23	1413.53
1059.54	1463.98
1062.85	1765.49
1066.16	1984.31
1069.46	2300.56
1072.77	2687.77
1076.07	3002.43
1079.37	3376.38
1082.67	3675.78
1085.97	4063.51
1089.26	4389.23
1092.56	4717.58
1095.85	5230.29
1099.14	5528.01
1102.43	5775.45
1105.72	5958.47
1109.01	6016.27
1112.3	6018.43
1115.59	6090.26
1118.87	6290.04
1122.15	6258.24
1125.43	5908.09
1128.71	5476.18
1131.99	5134.51
1135.27	4783.13
1138.55	4601.08
1141.82	4145.35
1145.09	3690.99
1148.37	3386.05
1151.64	3063.59
1154.91	2591.6
1158.17	2447.99
1161.44	2129.86
1164.71	1956.14
1167.97	1522.76
1171.23	1258.77
1174.49	1071.09
1177.75	918.675
1181.01	712.504
1184.27	508.58
1187.53	351.888
1190.78	191.402
1194.03	173.125
1197.29	144.32
1200.54	55.1753
1203.79	38.499
1207.03	45.0107
1210.28	34.294
1213.53	20.2695
1216.77	52.4766
1220.01	147.552
1223.25	60.9053
1226.49	10.3149
1229.73	103.372
1232.97	37.8286
1236.2	2.09912
1239.44	111.187
1242.67	8.44873
1245.9	84.8188
1249.13	31.4946
1252.37	173.284
1255.59	103.225
1258.82	213.311
1262.05	255.466
1265.27	437.436
1268.49	502.913
1271.71	540.518
1274.93	453.13
1278.15	575.731
1281.37	571.977
1284.59	668.464
1287.8	827.12
1291.02	793.574
1294.23	1035.7
1297.44	1162.89
1300.65	1242.31
1303.86	1298.4
1307.07	1435.91
1310.27	1526.07
1313.48	1642.38
1316.68	1658.55
1319.88	1468.77
1323.08	1488.03
1326.28	1316.33
1329.48	1227.67
1332.68	1062.95
1335.87	922.037
1339.07	866.374
1342.26	824.091
1345.45	634.965
1348.64	698.952
1351.83	553.331
1355.02	432.022
1358.21	399.926
1361.39	297.875
1364.58	344.005
1367.76	216.609
1370.94	250.495
1374.12	179.835
1377.3	136.289
1380.48	164.454
1383.66	57.1938
1386.83	154.977
1390.01	114.672
1393.18	106.652
1396.35	34.2363
1399.52	48.3867
1402.69	0.302246
1405.86	73.8638
1409.03	1.88477
1412.19	18.4971
1415.36	128.77
1418.52	159.91
1421.68	11.544
1424.84	17.6099
1428	0.125488
1431.16	5.20654
1434.31	123.898
1437.47	18.3418
1440.62	197.365
1443.78	224.374
1446.93	189.306
1450.08	182.155
1453.23	169.939
1456.38	154.755
1459.52	339.245
1462.67	196.281
1465.81	150.801
1468.95	188.432
1472.1	156.883
1475.24	103.189
1478.38	201.271
1481.51	87.1865
1484.65	78.3227
1487.79	23.5127
1490.92	52.8506
1494.05	47.9575
1497.18	72.8047
1500.32	6.9043
1503.45	93.689
1506.57	101.292
1509.7	90.4004
1512.83	89.4087
1515.95	90.583
1519.08	62.8584
1522.2	101.642
1525.32	125.974
1528.44	125.474
1531.56	133.526
1534.67	117.377
1537.79	123.016
1540.9	108.31
1544.02	38.3565
1547.13	16.6855
1550.24	131.057
1553.35	354.169
1556.46	258.693
1559.57	159.634
1562.67	25.3936
