Measurement: Raman, 514 nm, depolarized, Raman Data Processed
Mineral: Gmelinite-Na
Rruff sample: R060168
Ideal chemistry: Na_4_(Si_8_Al_4_)O_24_11H_2_O
Locality: Five Islands, Nova Scotia, Canada
Source: Guy Ouellet
Description: Salmon-red interpenetrating prismatic rhombohedral crystals
Measured chemistry: (Na_3.90_Ca_0.10_)(Si_7.90_Al_4.10_)O_24_Â·8.98H_2_O
Pin_id: M01916
Orientation: Laser parallel to a* (1 0 0). Fiducial mark perpendicular to laser is parallel to c [0 0 1]
Raman shift (cm-1)	intensity
237.345	0
241.017	141.17
244.687	155.912
248.356	189.234
252.023	108.824
255.688	185.207
259.351	349.521
263.013	183.869
266.673	92.1094
270.331	74.4922
273.988	58.2793
277.643	77.4668
281.296	75.6914
284.947	228.92
288.597	376.086
292.245	590.119
295.891	733.287
299.536	1006.73
303.179	1577.02
306.82	1761.48
310.46	2597.14
314.098	3626.59
317.734	4034.48
321.369	4204.8
325.001	4084.58
328.633	3312.72
332.262	2295.05
335.89	1741.14
339.516	840.379
343.14	609.85
346.763	334.594
350.384	156.014
354.004	225.022
357.622	134.644
361.238	166.836
364.852	177.629
368.465	332.031
372.076	495.965
375.685	810.412
379.293	1124.36
382.899	1777.13
386.504	2209.95
390.106	2755.8
393.708	3422.4
397.307	4727.45
400.905	6292.51
404.501	8364.53
408.096	10160.1
411.689	11084.5
415.28	10165
418.869	8193.43
422.457	5910.98
426.044	4316.82
429.628	3533.8
433.211	2825.37
436.793	2730.62
440.373	3131.59
443.951	3324.65
447.527	3923.69
451.102	4807.14
454.675	6057.25
458.247	7700.94
461.817	9570.97
465.385	11078.3
468.952	12611
472.517	14994
476.081	17468.3
479.643	21441.8
483.203	26092.7
486.762	31665.8
490.319	36389.9
493.874	38635.5
497.428	38494.3
500.98	34694.3
504.531	28642.5
508.08	22166.9
511.627	16156.5
515.173	11538.2
518.717	7980.12
522.26	5692.02
525.801	4137.34
529.34	3088.47
532.878	2303.29
536.414	1612.54
539.949	1223.84
543.482	1091.4
547.013	1094.9
550.543	832.719
554.071	608.75
557.598	446.682
561.123	451.971
564.647	335.562
568.169	21.1641
571.689	156.916
575.208	97.9473
578.725	83.6406
582.241	41.2051
585.755	37.8164
589.267	72.0176
592.778	37.0605
596.287	117.908
599.795	159.81
603.301	199.381
606.806	258.094
610.309	267.32
613.811	354.838
617.311	180.004
620.809	155
624.306	88.5742
627.801	25.1074
631.295	256.508
634.787	428.736
638.278	392.941
641.767	340.152
645.254	554.256
648.74	590.246
652.225	620.047
655.708	691.682
659.189	670.184
662.669	520.445
666.147	361.453
669.624	350.238
673.099	259.793
676.572	282.076
680.045	58.0039
683.515	179.467
686.984	141.695
690.452	74.1699
693.918	197.756
697.382	25.7832
700.845	111.041
704.307	67.0156
707.766	186.322
711.225	33.6836
714.682	56.9199
718.137	21.0938
721.591	125.473
725.043	236.81
728.494	153.109
731.943	155.326
735.391	168.873
738.837	171.793
742.282	279.492
745.725	210.371
749.167	413.894
752.607	584.033
756.046	478.75
759.483	604.57
762.919	712.07
766.353	992.256
769.786	801.051
773.217	972.438
776.647	963.277
780.075	887.6
783.502	990.232
786.927	1112.36
790.351	1334.57
793.773	1210.27
797.194	1476.58
800.613	1412.19
804.031	1388.83
807.447	1235.72
810.862	892.85
814.275	508.209
817.687	446.682
821.098	433.723
824.507	342.402
827.914	222.777
831.32	196.316
834.725	259.131
838.128	158.977
841.529	216.168
844.929	174.424
848.328	133.768
851.725	169.272
855.121	288.842
858.515	241.75
861.908	84.5684
865.299	85.3027
868.689	44.6992
872.077	29.9238
875.464	27.5156
878.85	72.9863
882.234	37.9258
885.617	76.7012
888.998	45.9863
892.377	25.4844
895.756	14.6973
899.133	7.05078
902.508	30.9551
905.882	187.978
909.254	186.441
912.625	114.203
915.995	81.7207
919.363	21.2949
922.73	31.627
926.095	64.8652
929.459	161.07
932.821	104.541
936.182	163.648
939.542	87.3926
942.9	232.725
946.257	125.727
949.612	115.504
952.966	50.3965
956.318	366.332
959.669	295.369
963.019	292.31
966.367	560.168
969.714	441.033
973.059	706.316
976.403	559.633
979.745	820.822
983.086	960.223
986.426	1520.09
989.764	1494.14
993.101	1712.4
996.437	1556.22
999.771	1414.99
1003.1	1464.88
1006.43	1711.66
1009.76	1576.36
1013.09	1512.56
1016.42	1720.64
1019.75	1616.21
1023.07	1567.62
1026.39	1443.79
1029.71	1647.7
1033.03	1670.19
1036.35	1519.15
1039.67	1577.11
1042.99	1416.13
1046.3	1308.58
1049.61	1033.84
1052.92	1130.43
1056.23	1280.88
1059.54	1277.55
1062.85	1424.54
1066.16	1514.24
1069.46	1756.63
1072.77	1884.94
1076.07	1990.91
1079.37	2443.92
1082.67	2740.12
1085.97	2988.1
1089.26	3135.95
1092.56	3350.4
1095.85	3748.82
1099.14	4011.38
1102.43	4163.48
1105.72	4265.54
1109.01	4322.67
1112.3	4573.94
1115.59	4393.36
1118.87	4394.67
1122.15	4519.39
1125.43	4479.24
1128.71	4049.25
1131.99	3996.44
1135.27	3549.82
1138.55	3526.49
1141.82	3360.41
1145.09	3093.63
1148.37	2761.14
1151.64	2658.94
1154.91	2315.03
1158.17	2107.53
1161.44	2091.32
1164.71	1823.45
1167.97	1420.89
1171.23	1368.53
1174.49	1110.42
1177.75	833.742
1181.01	470.31
1184.27	311.178
1187.53	362.262
1190.78	332.51
1194.03	197.143
1197.29	121.938
1200.54	135.91
1203.79	45.084
1207.03	11.5957
1210.28	34.2285
1213.53	23.1758
1216.77	99.7285
1220.01	17.4043
1223.25	91.8262
1226.49	154.797
1229.73	35.3594
1232.97	108.897
1236.2	39.5059
1239.44	41.248
1242.67	16.1582
1245.9	143.238
1249.13	124.418
1252.37	97.8691
1255.59	114.512
1258.82	408.422
1262.05	259.533
1265.27	350.803
1268.49	553.225
1271.71	314.799
1274.93	542.174
1278.15	740.949
1281.37	845.971
1284.59	612.658
1287.8	1065.93
1291.02	991.875
1294.23	1071.08
1297.44	1099.64
1300.65	1325.29
1303.86	1201.99
1307.07	1284.77
1310.27	1495.58
1313.48	1262.45
1316.68	1420.18
1319.88	1527.43
1323.08	1248.56
1326.28	1139.78
1329.48	855.096
1332.68	1024.5
1335.87	809.869
1339.07	924.644
1342.26	781.359
1345.45	789.879
1348.64	635.324
1351.83	742.199
1355.02	484.15
1358.21	389.481
1361.39	374.691
1364.58	293.723
1367.76	208.215
1370.94	429.484
1374.12	133.363
1377.3	250.607
1380.48	156.244
1383.66	203.967
1386.83	198.053
1390.01	121.648
1393.18	256.484
1396.35	136.227
1399.52	276.914
1402.69	173.762
1405.86	188.369
1409.03	200.853
1412.19	56.5898
1415.36	165.797
1418.52	91.3027
1421.68	240.217
1424.84	231.277
1428	99.9356
1431.16	295.17
1434.31	178.06
1437.47	230.869
1440.62	365.768
1443.78	355.893
1446.93	332.076
1450.08	483.766
1453.23	441.93
1456.38	549.752
1459.52	502.875
1462.67	379.631
1465.81	317.787
1468.95	189.115
1472.1	255.533
1475.24	488.664
1478.38	141.592
1481.51	173.586
1484.65	113.613
1487.79	346.684
1490.92	125.1
1494.05	139.471
1497.18	128.523
1500.32	197.772
1503.45	37.4766
1506.57	203.42
1509.7	19.375
1512.83	194.326
1515.95	325.154
1519.08	223.512
1522.2	361.807
1525.32	164.201
1528.44	299.168
1531.56	487.266
1534.67	386.35
1537.79	146.926
1540.9	161.978
1544.02	124
1547.13	270.615
1550.24	310.799
1553.35	419.139
1556.46	544.957
1559.57	162.748
1562.67	123.522
