Measurement: Raman, 514 nm, depolarized, Raman Data Processed
Mineral: Gmelinite-Na
Rruff sample: R050371
Ideal chemistry: Na_4_(Si_8_Al_4_)O_24_11H_2_O
Locality: Cairns Bay, Flinders Range, Australia
Source: Eugene Schlepp
Description: Colorless to pink crystals lining a basalt vug
Measured chemistry: Na_3.81_(Si_8.13_Al_3.88_)O_24_Â·4.27H_2_O
Pin_id: L01149
Orientation: Laser parallel to a* (1 0 0). Fiducial mark perpendicular to laser is parallel to c [0 0 1]
Raman shift (cm-1)	intensity
264.888	0
268.532	92.5068
272.174	93.5439
275.815	48.9736
279.454	27.6562
283.092	62.0029
286.728	86.6455
290.363	335.47
293.996	468.21
297.628	705.943
301.258	1001.98
304.887	1408.65
308.514	2193.27
312.14	3325.55
315.764	4414.28
319.387	5106.21
323.008	5087.15
326.628	4423.94
330.246	3191.43
333.862	2067.51
337.478	1187.09
341.091	617.394
344.703	259.988
348.314	333.024
351.923	68.1445
355.531	30.0176
359.137	154.923
362.742	451.603
366.345	388.029
369.947	535.188
373.547	993.072
377.145	1288.73
380.743	1686.11
384.338	2211.14
387.932	3078.83
391.525	4054.14
395.116	5790.04
398.706	7827.52
402.294	10838.6
405.881	13558.8
409.466	14500.3
413.05	13506.5
416.632	10442
420.213	7793.15
423.792	5676.13
427.37	4566.45
430.946	3905.95
434.521	3743.16
438.094	4032.69
441.666	4209.18
445.236	4870.76
448.805	5984.94
452.372	7484.43
455.938	9289.18
459.502	11646
463.065	14095.4
466.627	16545.1
470.187	18952.3
473.745	22184.2
477.302	26583.9
480.857	32053.3
484.411	38584.6
487.964	44939.6
491.515	49061.9
495.064	50910.6
498.612	48105.6
502.159	42987.8
505.704	33861.3
509.247	25562
512.789	18184
516.33	12797.1
519.869	8877.48
523.407	6233.02
526.943	4679.74
530.478	3431.62
534.011	2573.26
537.543	1876.93
541.073	1292.03
544.602	1188.65
548.129	879.63
551.655	569.311
555.179	456.242
558.702	453.576
562.223	389.363
565.743	103.343
569.262	33.4268
572.779	32.2295
576.294	14.9326
579.808	76.3691
583.321	74.9853
586.832	32.0762
590.341	42.3711
593.85	101.59
597.356	111.651
600.862	149.609
604.365	106.952
607.868	263.219
611.368	248.592
614.868	80.9609
618.366	91.2969
621.862	57.7051
625.357	90.9844
628.85	141.123
632.342	175.257
635.833	292.973
639.322	496.732
642.81	677.325
646.296	852.709
649.78	943.873
653.264	997.815
656.745	797.498
660.226	649.908
663.704	395.033
667.182	408.863
670.658	235.388
674.132	107.566
677.605	14.7168
681.077	15.3018
684.547	48.0996
688.015	74.4326
691.483	19.5752
694.948	77.2266
698.413	13.6143
701.875	95.4394
705.337	96.4385
708.797	183.946
712.255	213.783
715.712	236.398
719.167	187.249
722.621	203.907
726.074	166.742
729.525	320.306
732.975	414.197
736.423	446.766
739.87	446.736
743.315	518.645
746.759	587.56
750.202	836.233
753.643	983.65
757.082	1086.43
760.52	1252.02
763.957	1378.94
767.392	1198.22
770.826	1674.06
774.258	1229.71
777.689	1145.22
781.118	1198.01
784.546	1443.17
787.973	1767.05
791.398	2136.4
794.822	2279.89
798.244	2105.63
801.665	1985.56
805.084	1555.57
808.502	1054.57
811.918	803.016
815.333	652.18
818.747	458.85
822.159	363.772
825.569	257.076
828.979	277.244
832.386	339.67
835.793	30.5596
839.198	109.708
842.601	224.477
846.003	151.276
849.404	89.8711
852.803	3.04785
856.2	250.755
859.597	76.3545
862.992	88.6289
866.385	82.6699
869.777	52.9092
873.167	106.904
876.557	16.9502
879.944	62.083
883.33	109.386
886.715	10.1006
890.099	36.8965
893.481	69.3965
896.861	130.198
900.24	116.894
903.618	16.9717
906.994	13.6719
910.369	25.3848
913.742	5.97949
917.114	142.847
920.485	116.266
923.854	96.2188
927.221	62.7324
930.588	82.8506
933.952	90.5811
937.316	57.9404
940.678	219.942
944.038	307.692
947.397	180.203
950.755	309.563
954.111	202.843
957.466	365.527
960.819	474.224
964.171	448.353
967.522	710.231
970.871	857.653
974.219	1015.82
977.565	1077.01
980.91	1457.95
984.253	1522.86
987.595	1587.73
990.936	1671.63
994.275	1805.96
997.613	1940.02
1000.95	1936.08
1004.28	2085.8
1007.62	2129.29
1010.95	2146.47
1014.28	2449.74
1017.61	2366.12
1020.94	2164.47
1024.26	2350.59
1027.59	2271.97
1030.91	2176.94
1034.23	2113.52
1037.56	2075.78
1040.88	2133.32
1044.19	2001.48
1047.51	1984.44
1050.83	1801.68
1054.14	1826.12
1057.45	1976.33
1060.76	2185.46
1064.07	2390.13
1067.38	2710.96
1070.69	3123.89
1073.99	3543.68
1077.3	3996.44
1080.6	4361.75
1083.9	4755.78
1087.2	5120.1
1090.5	5472.82
1093.79	5810.25
1097.09	6138.21
1100.38	6265.56
1103.68	6265.29
1106.97	6343.28
1110.26	6234.12
1113.55	6046.48
1116.83	6004.39
1120.12	5961.34
1123.4	5650.59
1126.68	5266.95
1129.97	4950.94
1133.25	4661.91
1136.53	4151.13
1139.8	3840.62
1143.08	3639.41
1146.35	3246.54
1149.63	2879.06
1152.9	2568.88
1156.17	2359.01
1159.44	2028.48
1162.7	1659.25
1165.97	1524.31
1169.23	1151.59
1172.5	1037.08
1175.76	736.832
1179.02	651.808
1182.28	539.965
1185.54	391.305
1188.79	251.821
1192.05	63.499
1195.3	91.3213
1198.55	180.308
1201.81	38.4883
1205.05	154.245
1208.3	14.915
1211.55	22.8652
1214.79	37.335
1218.04	17.2324
1221.28	20.8711
1224.52	0.729492
1227.76	8.37695
1231	27.7266
1234.24	14.916
1237.47	61.2793
1240.7	58.4443
1243.94	7.3916
1247.17	41.6543
1250.4	44.0996
1253.63	55.7637
1256.86	16.917
1260.08	110.088
1263.31	110.863
1266.53	117.648
1269.75	163.481
1272.97	174.664
1276.19	205.977
1279.41	169.571
1282.62	172.614
1285.84	424.655
1289.05	244.881
1292.26	314.94
1295.47	610.197
1298.68	568.424
1301.89	501.6
1305.1	465.854
1308.3	627.749
1311.51	702.364
1314.71	781.181
1317.91	671.042
1321.11	738.692
1324.31	708.347
1327.5	598.459
1330.7	597.169
1333.89	440.276
1337.09	452.906
1340.28	365.678
1343.47	565.384
1346.65	437.413
1349.84	371.902
1353.03	283.434
1356.21	309.017
1359.4	220.315
1362.58	273.56
1365.76	76.3037
1368.94	170.523
1372.12	162.364
1375.29	157.04
1378.47	137.673
1381.64	116.415
1384.81	86.1309
1387.98	51.6152
1391.15	122.659
1394.32	143.435
1397.49	153.066
1400.65	20.7314
1403.82	53.5098
1406.98	77.4492
1410.14	0.949219
1413.3	125.148
1416.46	9.48145
1419.62	106.594
1422.77	64.04
1425.93	163.326
1429.08	33.3027
1432.23	80.0527
1435.38	58.1787
1438.53	122.3
1441.68	120.949
1444.82	28.458
1447.97	175.715
1451.11	10.04
1454.26	150.484
1457.4	53.0098
1460.54	81.6064
1463.67	107.13
1466.81	117.072
1469.95	48.4746
1473.08	99.7617
1476.21	75.1318
1479.34	51.377
1482.47	188.553
1485.6	69.0156
1488.73	2.18555
1491.86	24.2998
1494.98	78.3975
1498.1	193.329
1501.23	153.679
1504.35	155.414
1507.47	65.9551
1510.58	16.0508
1513.7	34.9004
1516.82	128.114
1519.93	174.436
1523.04	36.5547
1526.15	123.435
1529.26	147.727
1532.37	44.8799
1535.48	230.082
1538.58	298.522
1541.69	99.1231
1544.79	218.762
1547.89	167.163
1550.99	133.298
1554.09	287.583
1557.19	238.084
1560.29	198.484
