Measurement: Raman, 514 nm, depolarized, Raman Data Processed
Mineral: Goethite
Rruff sample: R050142
Ideal chemistry: Fe^3+^O(OH)
Locality: Park County, Colorado, USA
Source: Dave Bunk Minerals
Description: Radiating spray of black to brown platy crystals
Measured chemistry: FeO(OH)
Pin_id: M00281
Orientation: Laser parallel to a* (1 0 0). Fiducial mark perpendicular to laser is parallel to b [0 1 0]
Raman shift (cm-1)	intensity
98.76	0
103.72	668.7
108.678	1917.87
113.633	2550.72
118.584	2582.14
123.533	1918.6
128.479	807.392
133.421	544.308
138.361	850.169
143.298	489.885
148.232	454.365
153.163	539.261
158.09	273.88
163.015	383.321
167.937	122.904
172.856	138.613
177.772	0.043945
182.686	79.7993
187.596	199.876
192.503	194.665
197.407	358.786
202.309	222.72
207.207	244.617
212.103	217.532
216.995	371.259
221.885	488.919
226.772	613.218
231.656	1185.23
236.537	3359.04
241.415	7183.71
246.29	6739.85
251.162	2825.76
256.031	692.117
260.898	22.061
265.761	177.488
270.622	203.42
275.48	292.536
280.335	231.218
285.187	12.5684
290.036	1114.97
294.882	4027.22
299.726	4961.2
304.566	3100.81
309.404	1377.28
314.239	697.758
319.071	577.557
323.9	615.717
328.726	758.159
333.549	813.727
338.37	1019.34
343.188	1348.48
348.002	1666.35
352.814	2501.75
357.624	3498.31
362.43	5524.11
367.233	9719.68
372.034	18216.2
376.832	35538.7
381.627	59030.1
386.419	62134.5
391.209	42411.9
395.996	27940.4
400.779	18502.8
405.56	10008.3
410.339	5313.78
415.114	3541.23
419.887	2160.06
424.656	1144.89
429.424	543.232
434.188	183.759
438.949	124.704
443.708	48.4175
448.464	136.23
453.217	152.49
457.967	341.214
462.715	1109.89
467.46	2038.62
472.202	3720.69
476.941	5787.3
481.678	6352.84
486.412	4632.9
491.143	2500.31
495.871	1145.1
500.597	496.208
505.319	233.842
510.039	265.217
514.757	464.106
519.471	925.809
524.183	1496.02
528.892	2556
533.599	4566.73
538.303	8957.78
543.004	15740.1
547.702	20658.8
552.397	18026.2
557.09	11206.6
561.78	6236.1
566.468	3380.85
571.153	1956.58
575.835	1030.42
580.514	589.782
585.191	340.834
589.865	240.832
594.536	223.836
599.204	328.707
603.87	441.722
608.534	459.36
613.194	603.348
617.852	541.063
622.507	652.001
627.16	556.471
631.81	554.445
636.457	614.999
641.101	622.979
645.743	643.48
650.383	583.056
655.019	704.984
659.653	841.544
664.284	886.847
668.913	1006.96
673.539	1317.27
678.162	1328.35
682.783	1329.59
687.401	1003.86
692.017	841.212
696.63	543.7
701.24	160.572
705.847	204.958
710.452	158.166
715.055	3.27978
719.654	12.6816
724.252	32.2881
728.846	25.5454
733.438	56.4312
738.027	114.332
742.614	104.463
747.198	40.8892
751.78	70.2476
756.359	26.1943
760.935	1.49316
765.509	38.1724
770.08	179.644
774.649	204.155
779.215	255.656
783.778	126.403
788.339	259.482
792.897	178.165
797.453	49.1372
802.006	6.86621
806.557	147.77
811.105	195.17
815.651	84.54
820.194	128.465
824.734	120.24
829.272	230.498
833.807	256.661
838.34	156.457
842.87	211.045
847.398	213.75
851.923	335.131
856.446	269.319
860.966	322.16
865.483	213.534
869.998	298.365
874.511	209.685
879.021	275.193
883.528	156.762
888.033	8.42578
892.536	32.3276
897.036	92.8452
901.533	146.697
906.028	75.5977
910.52	263.316
915.01	380.12
919.498	430.221
923.983	660.701
928.465	651.381
932.945	528.099
937.423	683.366
941.898	538.893
946.37	518.438
950.84	462.997
955.308	463.387
959.773	494.576
964.235	392.645
968.696	441.386
973.153	376.157
977.608	578.92
982.061	751.912
986.512	1384.93
990.959	2077.83
995.405	3015.27
999.848	3254.49
1004.29	2689.17
1008.73	1663.65
1013.16	877.189
1017.6	444.164
1022.03	224.406
1026.45	21.3535
1030.88	26.4043
1035.3	14.0078
1039.72	111.371
1044.14	124.055
1048.56	248.537
1052.97	66.5498
1057.38	4.90723
1061.79	78.9072
1066.2	210.799
1070.6	243.888
1075.01	413.32
1079.4	618.684
1083.8	944.017
1088.2	1189.63
1092.59	1657.44
1096.98	1993.07
1101.37	2283.62
1105.75	2506.97
1110.13	2781.06
1114.51	2744.11
1118.89	2489.14
1123.27	2094.36
1127.64	1688.23
1132.01	1203.38
1136.38	819.074
1140.74	486.611
1145.11	405.869
1149.47	224.193
1153.83	269.604
1158.18	293.086
1162.54	197.738
1166.89	507.711
1171.24	741.717
1175.59	810.323
1179.93	1047.81
1184.27	1107.06
1188.61	1421.66
1192.95	1739.24
1197.28	1849.8
1201.62	2244.05
1205.95	2496.73
1210.28	2606.7
1214.6	2951.46
1218.93	3309.88
1223.25	3407.28
1227.57	3420.12
1231.88	3436.34
1236.2	3819.95
1240.51	3732.93
1244.82	4032.26
1249.13	4138.92
1253.43	4199.85
1257.73	4528.15
1262.03	4795.73
1266.33	5048.25
1270.63	5425.27
1274.92	5416.6
1279.21	5563.01
1283.5	5921.31
1287.79	6204.69
1292.07	6587.06
1296.36	6552.02
1300.63	6652.87
1304.91	6620.31
1309.19	6509.9
1313.46	6449.64
1317.73	6046.17
1322	5696.17
1326.27	5314.12
1330.53	5039.86
1334.79	4552.05
1339.05	3915.72
1343.31	3576.55
1347.56	3155.69
1351.82	2842.85
1356.07	2427.55
1360.31	1968.48
1364.56	1669.77
1368.8	1261.96
1373.04	1017.3
1377.28	639.855
1381.52	523.477
1385.75	256.891
1389.99	259.877
1394.22	50.3711
1398.44	78.0557
1402.67	221.951
1406.89	114.523
1411.12	193.48
1415.33	146.062
1419.55	14.2148
1423.77	15.6594
1427.98	6.96125
1432.19	171.323
1436.39	323.902
1440.6	452.569
1444.81	547.618
1449.01	661.543
1453.2	714.966
1457.4	718.493
1461.6	667.194
1465.79	762.094
1469.98	630.752
1474.17	655.767
1478.35	630.255
1482.54	638.194
1486.72	508.606
1490.9	431.427
1495.08	217.883
1499.25	106.786
1503.42	201
1507.59	11.9619
1511.76	115.76
1515.93	263.621
1520.09	41.2598
1524.26	113.05
1528.41	149.689
1532.57	143.869
1536.73	244.91
1540.88	162.428
1545.03	102.503
1549.18	412.385
1553.33	556.079
1557.47	371.613
1561.62	99.5312
1565.76	207.985
1569.89	11.7695
1574.03	255.64
1578.16	31.29
