Measurement: Raman, 514 nm, ccw, Raman Data Processed
Mineral: Goethite
Rruff sample: R050142
Ideal chemistry: Fe^3+^O(OH)
Locality: Park County, Colorado, USA
Source: Dave Bunk Minerals
Description: Radiating spray of black to brown platy crystals
Measured chemistry: FeO(OH)
Pin_id: M00281
Orientation: Laser parallel to a* (1 0 0). Fiducial mark perpendicular to laser is parallel to b [0 1 0]
Raman shift (cm-1)	intensity
94.498	0
99.461	11.4251
104.421	1152.51
109.378	2895.13
114.332	3416.24
119.283	3415.22
124.232	2226.57
129.178	1036.28
134.12	723.43
139.061	902.686
143.998	602.899
148.932	550.18
153.864	421.976
158.792	414.979
163.718	517.951
168.641	315.354
173.562	170.454
178.479	7.15869
183.394	164.621
188.305	204.667
193.214	191.761
198.12	206.949
203.024	158.505
207.924	166.58
212.822	188.951
217.717	257.07
222.609	339.42
227.498	521.026
232.385	919.555
237.269	2274.51
242.149	4302.81
247.027	3649.38
251.903	1544.42
256.775	379.699
261.645	84.6504
266.512	126.698
271.376	210.034
276.237	203.35
281.096	19.8169
285.952	270.822
290.805	1780.03
295.655	4786.89
300.502	5988.84
305.347	4829.65
310.189	2521.13
315.028	1686.37
319.864	1524.37
324.698	1627.11
329.528	1903.45
334.356	2302.42
339.182	3058.85
344.004	3688.27
348.824	4763.68
353.641	6583.06
358.455	9119.4
363.266	14021.6
368.075	23648.7
372.881	43361.7
377.684	83859.3
382.484	132678
387.282	137278
392.077	92815.5
396.869	53464.2
401.658	32007.8
406.445	17655.4
411.229	10284.8
416.01	6302.22
420.788	4378.03
425.564	2641.67
430.337	1834.38
435.107	1124.44
439.875	812.339
444.639	514.535
449.401	446.293
454.161	375.123
458.917	402.062
463.671	748.619
468.422	1517.29
473.17	2721.09
477.916	4172.8
482.659	4309.85
487.399	3074.03
492.137	1598.38
496.872	555.737
501.604	151.106
506.333	133.734
511.06	181.444
515.784	172.576
520.505	42.9727
525.223	387.056
529.939	1040.22
534.652	2158.61
539.363	4805.15
544.07	8940.6
548.775	12029
553.478	10956.5
558.177	7345.41
562.874	4447.81
567.568	2923.74
572.26	2006.57
576.949	1385.44
581.635	1169.61
586.319	1109.23
590.999	1084.05
595.677	1025.4
600.353	1117.43
605.026	1366.29
609.696	1375.46
614.363	1397.67
619.028	1484.03
623.69	1594.83
628.349	1982.53
633.006	2574.53
637.66	1743.6
642.311	1659.74
646.96	1265.32
651.606	1388.18
656.25	1318.02
660.89	1373.76
665.528	1317
670.164	1408.65
674.797	1409.83
679.427	1431.38
684.054	1412.36
688.679	1150.68
693.301	928.602
697.921	767.372
702.537	468.657
707.152	339.722
711.763	255.558
716.372	145.039
720.978	92.9336
725.582	49.5147
730.183	43.3608
734.781	98.8672
739.377	76.2134
743.97	62.7412
748.561	46.3105
753.149	45.04
757.734	4.90674
762.316	70.6103
766.896	10.4898
771.474	135.783
776.048	20.227
780.62	82.376
785.19	18.5762
789.757	8.77783
794.321	19.7148
798.883	63.0752
803.442	31.834
807.998	81.2935
812.552	11.2656
817.103	13.5171
821.652	74.2319
826.198	92.4927
830.741	119.201
835.282	81.3047
839.82	20.1924
844.355	7.31934
848.888	77.9541
853.419	25.4145
857.946	169.542
862.472	206.403
866.994	280.103
871.514	110.694
876.032	292.601
880.546	87.7012
885.059	164.496
889.568	155.711
894.075	132.872
898.58	142.86
903.082	201.669
907.581	365.624
912.078	445.673
916.572	396.604
921.063	477.315
925.552	621.767
930.039	700.062
934.523	778.696
939.004	827.065
943.483	816.794
947.959	671.625
952.432	506.071
956.903	660.845
961.372	596.348
965.838	516.247
970.301	614.508
974.762	715.607
979.22	867.115
983.676	991.54
988.129	1872.48
992.58	2681.07
997.028	3603.02
1001.47	3820.35
1005.92	2908.05
1010.36	1805.68
1014.79	850.754
1019.23	508.857
1023.66	158.648
1028.09	88.5059
1032.52	186.801
1036.94	212.31
1041.37	229.228
1045.79	95.6143
1050.2	61.081
1054.62	9.31934
1059.03	120.451
1063.44	121.463
1067.85	209.15
1072.26	366.926
1076.66	464.006
1081.06	715.481
1085.45	973.21
1089.85	1505.16
1094.24	1967.26
1098.63	2497.64
1103.02	2768.35
1107.4	3224.33
1111.79	3350.84
1116.17	3441.75
1120.54	3115.61
1124.92	2820.5
1129.29	2268.12
1133.66	1616.74
1138.03	1155.59
1142.39	792.582
1146.75	575.618
1151.11	550.467
1155.47	464.887
1159.83	512.832
1164.18	735.144
1168.53	758.956
1172.87	956.094
1177.22	987.066
1181.56	1257
1185.9	1490.92
1190.24	1765.88
1194.57	2078.71
1198.9	2314.54
1203.23	2637.64
1207.56	2960.13
1211.89	3211.01
1216.21	3562.43
1220.53	3932.44
1224.85	4017.9
1229.16	4068.06
1233.47	4250.74
1237.78	4451.11
1242.09	4358.08
1246.4	4620.61
1250.7	4691.66
1255	4756.3
1259.3	4981.8
1263.59	5352.68
1267.88	5569.13
1272.17	5834.8
1276.46	5874.57
1280.75	6131.64
1285.03	6267.45
1289.31	6485.89
1293.59	6718.5
1297.87	6900.25
1302.14	6816.1
1306.41	6620.09
1310.68	6759.54
1314.94	6299.49
1319.21	6116.19
1323.47	5872.99
1327.72	5537.32
1331.98	5327.07
1336.23	4650.55
1340.49	4094.52
1344.73	3556.36
1348.98	3217.05
1353.22	2742.54
1357.47	2487.81
1361.7	2257.83
1365.94	1558.37
1370.17	1108.02
1374.41	959.737
1378.64	603.71
1382.86	513.905
1387.09	172.986
1391.31	200.217
1395.53	37.3906
1399.75	14.2676
1403.96	180.57
1408.17	117.592
1412.38	243.064
1416.59	181.647
1420.8	83.9248
1425	68.1191
1429.2	175.928
1433.4	451.845
1437.59	339.892
1441.78	555.365
1445.97	762.224
1450.16	687.474
1454.35	907.894
1458.53	903.011
1462.71	811.503
1466.89	1001.05
1471.07	681.154
1475.24	656.825
1479.41	776.399
1483.58	739.225
1487.75	740.096
1491.91	508.431
1496.07	362.801
1500.23	265.994
1504.39	21.3271
1508.55	12.4199
1512.7	25.4766
1516.85	206.193
1520.99	228.75
1525.14	284.75
1529.28	106.165
1533.42	37.2627
1537.56	155.724
1541.7	229.724
1545.83	146.291
1549.96	141.448
1554.09	475.51
1558.22	249.422
1562.34	90.4502
1566.46	64.0732
1570.58	159.305
1574.7	56.79
1578.81	160.208
