Measurement: Raman, 514 nm, depolarized, Raman Data Processed
Mineral: Goethite
Rruff sample: R050142
Ideal chemistry: Fe^3+^O(OH)
Locality: Park County, Colorado, USA
Source: Dave Bunk Minerals
Description: Radiating spray of black to brown platy crystals
Measured chemistry: FeO(OH)
Pin_id: M00090
Orientation: Laser parallel to b* (0 1 0). Fiducial mark perpendicular to laser is parallel to -c [0 0 -1]
Raman shift (cm-1)	intensity
164.853	0
168.998	173.043
173.142	26.172
177.284	193.561
181.424	90.949
185.562	33.523
189.698	168.096
193.831	221.012
197.963	318.172
202.093	475.021
206.221	523.613
210.347	654.803
214.472	218.673
218.594	417.002
222.714	548.629
226.832	435.909
230.948	358.959
235.063	311.934
239.175	361.798
243.286	693.021
247.394	896.347
251.501	1003
255.605	861.521
259.708	992.064
263.808	696.328
267.907	608.37
272.004	416.042
276.099	332.962
280.192	328.688
284.283	279.108
288.372	237.156
292.459	472.655
296.544	915.312
300.627	1648.9
304.709	1369.28
308.788	549.085
312.865	224.014
316.941	25.96
321.015	111.383
325.086	95.798
329.156	38.763
333.224	65.213
337.29	124.144
341.354	9.847
345.416	87.029
349.476	77.071
353.534	180.885
357.591	249.221
361.645	262.191
365.698	402.825
369.748	439.538
373.797	584.916
377.844	557.274
381.889	664.726
385.932	977.89
389.973	1405.72
394.012	2328.89
398.049	3877.38
402.084	4944.29
406.118	3939.65
410.15	2792.71
414.179	2760.78
418.207	3513.46
422.233	3303.67
426.257	2109.36
430.279	1330.73
434.299	953.933
438.318	868.428
442.334	775.33
446.349	707.296
450.361	722.734
454.372	683.671
458.381	689.292
462.388	749.823
466.394	760.871
470.397	763.315
474.398	856.802
478.398	907.471
482.396	930.051
486.391	906.762
490.385	872.375
494.377	757.555
498.368	706.314
502.356	667.248
506.342	648.575
510.327	686.737
514.31	739.593
518.291	838.567
522.27	915.037
526.247	1013.47
530.222	1091.02
534.196	1475.61
538.167	1835.96
542.137	2651.26
546.105	3708.69
550.071	4240.35
554.035	4044.5
557.998	3347.88
561.958	2730.5
565.917	1842.58
569.874	1522.37
573.829	1063.36
577.782	918.101
581.733	574.148
585.683	554.494
589.63	472.188
593.576	351.243
597.52	287.557
601.462	303.337
605.402	261.563
609.341	240.373
613.277	262.888
617.212	229.481
621.145	196.582
625.076	101.015
629.006	149.258
632.933	175.173
636.859	178.596
640.783	245.416
644.705	281.307
648.625	340.09
652.543	423.453
656.46	627.451
660.375	608.496
664.288	786.265
668.199	1062.18
672.108	1259.13
676.016	1531.57
679.921	1652.17
683.825	1857.73
687.727	1819.28
691.628	1485.26
695.526	1304.68
699.423	965.88
703.318	764.558
707.211	651.372
711.102	491.668
714.992	415.809
718.879	224.424
722.765	134.507
726.649	254.203
730.532	237.333
734.412	104.668
738.291	49.634
742.168	59.155
746.043	81.599
749.916	158.638
753.788	5.879
757.658	21.486
761.526	55.852
765.392	78.791
769.257	10.109
773.119	5.412
776.98	26.854
780.839	7.879
784.697	22.688
788.552	4.538
792.406	11.421
796.258	49.776
800.108	19.505
803.957	12.168
807.804	34.21
811.649	10.338
815.492	53.786
819.333	76.855
823.173	47.332
827.011	9.426
830.847	64.581
834.681	129.625
838.514	84.33
842.345	19.567
846.174	40.209
850.001	28.581
853.827	56.349
857.651	45.455
861.473	10.138
865.293	96.651
869.112	307.047
872.928	2.66
876.744	56.016
880.557	41.798
884.369	45.211
888.178	121.736
891.987	6.59
895.793	29.666
899.598	136.035
903.401	75.285
907.202	80.351
911.001	90.087
914.799	184.993
918.595	78.892
922.389	171.591
926.182	167.011
929.972	95.628
933.761	136.547
937.549	115.542
941.334	184.988
945.118	157.472
948.9	169.81
952.681	160.043
956.459	151.721
960.236	237.731
964.012	211.438
967.785	246.765
971.557	207.035
975.327	230.73
979.095	269.362
982.862	386.271
986.627	518.659
990.39	561.109
994.152	679.801
997.912	835.158
1001.67	835.804
1005.43	783.994
1009.18	755.169
1012.93	688.299
1016.68	554.432
1020.43	493.233
1024.18	339.857
1027.93	305.456
1031.67	307.261
1035.42	312.504
1039.16	259.514
1042.9	203.755
1046.63	118.699
1050.37	103.597
1054.11	144.772
1057.84	197.021
1061.57	268.282
1065.3	129.507
1069.03	271.819
1072.75	222.56
1076.47	228.904
1080.2	242.267
1083.92	218.654
1087.64	267.072
1091.36	289.52
1095.07	203.006
1098.79	372.52
1102.5	287.058
1106.21	306.652
1109.92	322.333
1113.62	383.125
1117.33	270.01
1121.04	319.973
1124.74	355.004
1128.44	248.131
1132.14	198.305
1135.83	172.579
1139.53	135.079
1143.22	61.718
1146.92	47.077
1150.61	15.343
1154.3	11.685
1157.98	16.254
1161.67	40.175
1165.35	64.896
1169.04	26.042
1172.72	1.296
1176.4	54.376
1180.07	58.766
1183.75	76.549
1187.42	54.573
1191.1	81.403
1194.77	50.313
1198.44	201.288
1202.1	203.813
1205.77	245.332
1209.43	228.397
1213.1	278.493
1216.76	311.614
1220.42	408.785
1224.07	387.992
1227.73	435.223
1231.38	436.475
1235.04	519.746
1238.69	459.037
1242.34	511.367
1245.99	491.737
1249.63	487.17
1253.28	517.001
1256.92	700.502
1260.56	733.146
1264.2	661.343
1267.84	669.027
1271.48	857.918
1275.11	841.618
1278.74	823.465
1282.38	872.73
1286.01	894.372
1289.63	1004.66
1293.26	1003.64
1296.89	957.11
1300.51	969.784
1304.13	966.238
1307.75	914.474
1311.37	904.188
1314.99	863.521
1318.6	756.438
1322.22	731.946
1325.83	695.828
1329.44	733.684
1333.05	723.506
1336.66	648.149
1340.26	727.657
1343.87	435.114
1347.47	482.495
1351.07	421.957
1354.67	409.213
1358.27	378.522
1361.86	353.651
1365.46	313.838
1369.05	263.89
1372.64	227.855
1376.23	227.47
1379.82	70.778
1383.41	248.065
1386.99	111.388
1390.57	25.679
1394.16	197.937
1397.74	58.125
1401.32	161.289
1404.89	119.401
1408.47	41.354
1412.04	27.768
1415.61	74.281
1419.18	23.494
1422.75	91.098
1426.32	9.207
1429.89	0.526
1433.45	20.677
1437.01	86.202
1440.58	130.18
1444.13	157.26
1447.69	103.469
1451.25	63.883
1454.81	71.458
1458.36	84.071
1461.91	144.791
1465.46	195.214
1469.01	108.851
1472.56	162.794
1476.1	176.231
1479.64	160.145
1483.19	94.058
1486.73	91.943
1490.27	62.508
1493.81	79.218
1497.34	17.466
1500.88	62.245
1504.41	10.484
1507.94	86.839
1511.47	90.621
1515	45.784
1518.53	57.2
