Measurement: Raman, 514 nm, ccw, Raman Data Processed
Mineral: Goethite
Rruff sample: R050142
Ideal chemistry: Fe^3+^O(OH)
Locality: Park County, Colorado, USA
Source: Dave Bunk Minerals
Description: Radiating spray of black to brown platy crystals
Measured chemistry: FeO(OH)
Pin_id: M00281
Orientation: Laser parallel to a* (1 0 0). Fiducial mark perpendicular to laser is parallel to b [0 1 0]
Raman shift (cm-1)	intensity
126.006	0
130.95	313.463
135.892	1164.69
140.83	1064.1
145.765	379.753
150.698	231.072
155.627	96.814
160.553	128.906
165.477	626.8
170.397	616.023
175.315	7.38428
180.229	3.3374
185.141	20.0625
190.05	73.1523
194.956	199.185
199.858	453.239
204.758	669.91
209.655	788.966
214.549	924.048
219.441	1286.38
224.329	1752.56
229.214	2738.4
234.097	6534.95
238.976	15757
243.853	22127.9
248.726	13822.2
253.597	4634.03
258.465	866.366
263.33	14.707
268.192	136.183
273.051	281.887
277.908	227.35
282.761	38.3359
287.612	1256.85
292.459	7295.83
297.304	9582.16
302.146	7220.09
306.985	2999.55
311.822	1238.73
316.655	424.021
321.485	386.55
326.313	394.562
331.138	327.584
335.96	371.527
340.779	359.791
345.595	457.553
350.409	529.265
355.219	799.977
360.027	1105.35
364.832	1680.38
369.634	3071.07
374.434	5684.42
379.23	10408.5
384.024	12648.2
388.814	11047.7
393.603	12294.9
398.388	14220.8
403.17	10236.5
407.95	5628.15
412.727	3041.87
417.501	2174.74
422.272	1948.05
427.04	1875.78
431.806	1900.48
436.569	2048.87
441.329	2279.73
446.086	2382.56
450.841	2868.56
455.593	3679.29
460.342	4756.76
465.088	6919.14
469.831	10579.7
474.572	16141.6
479.31	20126.5
484.045	17639.3
488.778	12032.8
493.507	6894.23
498.234	4309.15
502.958	2745.67
507.68	2226.81
512.398	2024.99
517.114	2039.36
521.828	2105.88
526.538	2147.6
531.246	2193.53
535.951	2488.61
540.653	3083.75
545.353	3395.81
550.05	2445.62
554.744	1248.56
559.436	357.276
564.125	105.653
568.811	180.018
573.494	146.071
578.175	120.221
582.853	25.3193
587.528	123.936
592.201	333.995
596.871	340.098
601.538	468.905
606.202	652.823
610.864	656.797
615.523	707.446
620.18	815.813
624.834	904.46
629.485	930.633
634.134	938.51
638.779	722.214
643.423	684.152
648.063	753.617
652.701	561.78
657.336	734.064
661.969	742.818
666.599	637.893
671.226	670.288
675.851	723.201
680.473	585.383
685.092	523.993
689.709	526.536
694.323	434.15
698.935	389.627
703.544	350.255
708.15	241.039
712.754	290.853
717.355	279.977
721.953	247.699
726.549	107.17
731.142	58.9429
735.733	51.3101
740.321	140.118
744.907	59.1084
749.489	80.293
754.07	151.848
758.647	143.052
763.222	68.2773
767.795	159.543
772.365	183.374
776.932	19.1694
781.497	126.34
786.059	164.307
790.619	60.1484
795.176	61.5493
799.73	4.37305
804.282	31.2544
808.831	59.8149
813.378	16.9932
817.922	151.176
822.464	107.946
827.003	159.614
831.54	198.216
836.074	258.133
840.605	233.265
845.134	215.874
849.661	189.86
854.185	102.416
858.706	179.905
863.225	190.473
867.741	202.048
872.255	164.955
876.766	133.537
881.275	62.7578
885.781	116.996
890.285	1.32373
894.786	57.0303
899.285	35.605
903.781	195.178
908.274	50.2393
912.766	177.894
917.254	229.772
921.741	302.503
926.224	363.57
930.705	341.832
935.184	342.392
939.66	314.424
944.134	221.19
948.605	245.708
953.074	321.467
957.541	265.94
962.004	459.548
966.466	482.204
970.925	547.062
975.381	838.361
979.835	1093.28
984.287	1735.48
988.736	2657.96
993.182	3995.43
997.627	4898.45
1002.07	4406.42
1006.51	3226.32
1010.94	1743.58
1015.38	853.606
1019.81	572.013
1024.24	269.027
1028.67	30.5117
1033.09	74.1885
1037.51	180.661
1041.93	31.9688
1046.35	173.06
1050.77	33.7832
1055.18	61.9287
1059.59	150.012
1064	3.21875
1068.4	64.9707
1072.81	119.981
1077.2	14.8721
1081.6	286.062
1086	668.852
1090.39	1019.09
1094.78	1214.58
1099.17	1726.16
1103.56	2135.83
1107.94	2449.61
1112.32	2626.53
1116.7	2367.62
1121.08	2323.9
1125.45	1917.4
1129.82	1672.24
1134.19	1501.81
1138.56	1159.86
1142.92	1071.49
1147.29	1097.69
1151.65	1048.39
1156.01	1248.3
1160.36	1455.18
1164.71	1493.01
1169.06	1930.34
1173.41	2002
1177.76	2202.4
1182.1	2436.43
1186.44	2434.84
1190.78	2715.99
1195.12	2916.7
1199.45	2908.42
1203.78	3159.03
1208.11	3105.01
1212.44	3293.29
1216.76	3187.87
1221.09	3275.73
1225.41	3190.87
1229.72	3037.86
1234.04	2918.95
1238.35	3072.8
1242.66	2913.11
1246.97	2941.06
1251.28	2875.36
1255.58	2922.32
1259.88	2804.04
1264.18	2833.62
1268.48	2823.86
1272.78	2871.52
1277.07	3063
1281.36	3093.94
1285.64	3021.09
1289.93	3067.71
1294.21	3081.03
1298.49	3204.09
1302.77	3112.62
1307.05	2944.9
1311.32	2888.61
1315.6	2713.18
1319.87	2568.01
1324.13	2238.18
1328.4	2180.43
1332.66	1938.04
1336.92	1754.63
1341.18	1480.54
1345.43	1253.33
1349.69	943.479
1353.94	862.398
1358.19	761.32
1362.44	529.855
1366.68	561.789
1370.92	444.522
1375.16	155.894
1379.4	201.248
1383.64	86.4922
1387.87	74.4912
1392.1	1.08301
1396.33	31.3184
1400.56	205.108
1404.78	237.023
1409	28.7627
1413.22	111.381
1417.44	57.6162
1421.66	162.079
1425.87	302.94
1430.08	477.107
1434.29	648.923
1438.5	903.222
1442.7	921.851
1446.91	1124.78
1451.11	1068.64
1455.3	1158.59
1459.5	1200.68
1463.69	1001.51
1467.88	975.265
1472.07	1034.31
1476.26	861.173
1480.45	791.063
1484.63	740.102
1488.81	634.513
1492.99	392.406
1497.16	276.012
1501.34	193.801
1505.51	119.662
1509.68	210.403
1513.85	49.7793
1518.01	61.793
1522.17	222.122
1526.34	117.776
1530.49	50.6172
1534.65	130.051
1538.81	69.6934
1542.96	138.544
1547.11	160.06
1551.26	456.13
1555.4	460.879
1559.54	230.832
1563.69	183.395
1567.83	40.9932
1571.96	370.84
1576.1	32.6621
