Measurement: Raman, 514 nm, ccw, Raman Data Processed
Mineral: Goethite
Rruff sample: R050142
Ideal chemistry: Fe^3+^O(OH)
Locality: Park County, Colorado, USA
Source: Dave Bunk Minerals
Description: Radiating spray of black to brown platy crystals
Measured chemistry: FeO(OH)
Pin_id: M00281
Orientation: Laser parallel to a* (1 0 0). Fiducial mark perpendicular to laser is parallel to b [0 1 0]
Raman shift (cm-1)	intensity
110.617	0
115.57	1213.06
120.521	1785.56
125.469	149.028
130.414	62.5532
135.356	2.11572
140.295	269.856
145.232	50.5571
150.165	190.057
155.096	313.797
160.024	142.766
164.949	335.373
169.872	197.581
174.791	118.097
179.708	194.095
184.622	13.3716
189.533	37.209
194.441	270.198
199.347	223.688
204.249	312.106
209.149	255.986
214.046	56.1499
218.94	16.0879
223.832	187.082
228.72	326.271
233.606	674.626
238.489	2407.58
243.369	3885.62
248.247	3657.22
253.121	1526.35
257.993	526.341
262.862	833.129
267.728	358.408
272.592	84.1602
277.452	299.471
282.31	160.099
287.165	148.704
292.017	466.613
296.867	1583.61
301.714	1591.26
306.558	1180.14
311.399	477.636
316.237	509.294
321.073	399.661
325.906	484.998
330.736	278.12
335.563	313.819
340.387	271.787
345.209	316.961
350.028	420.222
354.844	377.004
359.658	724.085
364.469	1273.23
369.277	2482.32
374.082	5054.45
378.884	9698.78
383.684	13605
388.481	12638
393.275	13498
398.066	14635.3
402.855	10868.6
407.641	5401.35
412.424	3005.53
417.205	2307.77
421.983	1282.31
426.758	331.832
431.53	170.699
436.299	172.027
441.066	130.849
445.83	151.56
450.591	132.941
455.35	376.459
460.106	649.758
464.859	1148.73
469.609	2002.25
474.357	3620.22
479.102	4766.72
483.844	4778.52
488.584	3546.59
493.321	2472.92
498.055	2016.5
502.786	1972.46
507.515	2561.41
512.241	3237.05
516.964	4263.76
521.685	5822.92
526.402	8266.18
531.118	12627.6
535.83	21175.1
540.54	37098.8
545.247	58691.7
549.951	66274.8
554.653	51675.3
559.352	31790.9
564.048	18222.1
568.742	11031.4
573.432	6668.9
578.121	5256.02
582.806	2897.91
587.489	1915.26
592.169	1792.53
596.847	1776.31
601.521	1659.23
606.193	1409.48
610.863	1299.67
615.53	1290.56
620.194	1064.42
624.855	1010.64
629.514	892.388
634.17	851.735
638.823	893.977
643.474	893.335
648.122	802.925
652.767	1143.18
657.41	1020.11
662.05	1247.8
666.688	1419.45
671.322	1621.18
675.954	1705.23
680.584	1895.51
685.211	1659.54
689.835	1466.44
694.456	1007.65
699.075	534.931
703.691	333.621
708.305	148.705
712.916	15.581
717.524	3.66309
722.13	50.6514
726.733	79.0283
731.333	45.0947
735.931	65.9902
740.526	86.2764
745.118	114.853
749.708	83.2158
754.295	36.6621
758.88	73.6836
763.462	131.362
768.041	184.988
772.618	275.72
777.192	331.573
781.763	287.35
786.332	227.975
790.898	284.37
795.462	188.492
800.023	312.712
804.581	154.54
809.137	151.327
813.69	96.2207
818.24	159.665
822.788	15.4932
827.334	53.7305
831.876	26.2235
836.416	88.6719
840.954	76.2764
845.489	0.697266
850.021	149.122
854.551	134.106
859.078	306.784
863.602	242.84
868.124	268.294
872.644	214.607
877.16	241.246
881.675	178.076
886.186	215.201
890.695	141.253
895.202	232.406
899.705	279.403
904.207	399.003
908.705	399.012
913.201	516.878
917.695	576.429
922.186	850.216
926.674	1030.47
931.16	1192.51
935.643	1142.45
940.124	1166.62
944.602	1064.66
949.077	875.235
953.55	903.708
958.021	580.871
962.489	527.398
966.954	575.8
971.417	391.579
975.877	343.397
980.334	323.726
984.789	589.209
989.242	1117.32
993.692	1728.28
998.139	2432.05
1002.58	2465.52
1007.03	1889.71
1011.47	1197
1015.9	455.259
1020.34	307.159
1024.77	88.3652
1029.2	52.2978
1033.63	36.3203
1038.05	42.3721
1042.47	107.487
1046.89	46.9297
1051.31	126.327
1055.72	260.06
1060.14	222.807
1064.55	430.586
1068.95	633.257
1073.36	868.226
1077.76	1108.08
1082.16	1337.05
1086.55	1927.15
1090.95	2251.57
1095.34	2754.45
1099.73	3416.81
1104.12	3730.52
1108.5	3806.38
1112.88	4282.14
1117.26	4119.28
1121.64	3584.64
1126.01	3227.3
1130.38	2591.24
1134.75	1556.48
1139.12	1051.56
1143.48	603.312
1147.84	297.99
1152.2	0.367188
1156.56	183.369
1160.91	133.29
1165.27	180.63
1169.61	42.4102
1173.96	231.894
1178.31	470.765
1182.65	542.438
1186.98	948.921
1191.32	1252.31
1195.66	1560.73
1199.99	2139.6
1204.32	2727.92
1208.64	3249.66
1212.97	3678
1217.29	4002.64
1221.61	4419.01
1225.93	4807.47
1230.24	5241.84
1234.55	5452.1
1238.86	6010.9
1243.17	6369.1
1247.47	6834.13
1251.78	7222.89
1256.07	7716.12
1260.37	8447.9
1264.67	8630.97
1268.96	9269.41
1273.25	9970.7
1277.54	10529.6
1281.82	11116
1286.1	11496.7
1290.38	11965.5
1294.66	12457.2
1298.93	12654
1303.21	13005.9
1307.48	13183.3
1311.74	13008.6
1316.01	12560.9
1320.27	11899.8
1324.53	11415.1
1328.79	10505.2
1333.05	9812.81
1337.3	9279.97
1341.55	8291.83
1345.8	7514.21
1350.04	6574.48
1354.29	5881.58
1358.53	4976.58
1362.76	4229.35
1367	3472.01
1371.23	2712.26
1375.46	2140.49
1379.69	1710.23
1383.92	1285.15
1388.14	1069.21
1392.36	604.776
1396.58	476.626
1400.8	238.478
1405.01	193.688
1409.22	113.838
1413.43	99.7881
1417.64	144.254
1421.85	119.297
1426.05	49.7549
1430.25	101.361
1434.44	76.8272
1438.64	88.8535
1442.83	142.222
1447.02	291.521
1451.21	374.792
1455.39	573.265
1459.58	622.38
1463.76	578.818
1467.94	546.796
1472.11	506.738
1476.28	487.708
1480.45	576.025
1484.62	547.49
1488.79	546.667
1492.95	365.683
1497.11	423.965
1501.27	105.88
1505.43	7.97363
1509.58	35.085
1513.73	38.1846
1517.88	96.5518
1522.03	192.675
1526.18	267.154
1530.32	235.616
1534.46	349.946
1538.6	501.797
1542.73	391.099
1546.86	362.764
1550.99	289.372
1555.12	395.557
1559.25	307
1563.37	329.75
1567.49	213.339
1571.61	189.652
1575.73	190.295
1579.84	0
