Measurement: Raman, 514 nm, ccw, Raman Data Processed
Mineral: Grossular
Rruff sample: R070551
Ideal chemistry: Ca_3_Al_2_(SiO_4_)_3_
Locality: Mali
Source: www.multicolour.com
Description: Green gem fragments
Measured chemistry: (Ca_2.95_Mg_0.04_Mn_0.01_)_Σ=3_(Al_1.63_Fe^3+^_0.37_)_Σ=2_(Si_1.00_O_4_)_3_
Pin_id: L01189
Orientation: Laser parallel to a* (1 0 0). Fiducial mark perpendicular to laser is parallel to c [0 0 1]
Raman shift (cm-1)	intensity
63.489	0
68.455	243.831
73.419	530.052
78.38	814.992
83.338	245.646
88.294	117.079
93.246	73.0126
98.196	466.845
103.143	1492.1
108.088	2874.65
113.029	3658.46
117.968	4260.46
122.904	4676.08
127.838	4569.01
132.768	4615.61
137.696	4486.02
142.621	4396.81
147.543	4108.21
152.463	4001.7
157.379	3899.89
162.293	3892.38
167.205	3981.66
172.113	5318.03
177.019	9372.44
181.922	15374.1
186.822	7124.78
191.72	3936.09
196.614	3221.07
201.506	2969.72
206.395	2726.04
211.282	2631.53
216.166	2799.56
221.047	2630.05
225.925	2686.58
230.8	3896.99
235.673	5677.21
240.543	7920.67
245.411	8831.73
250.275	6709.27
255.137	3401.97
259.996	2921.55
264.853	3424.81
269.706	4199.57
274.557	5996.63
279.405	7055.78
284.251	5249.09
289.094	4419.7
293.934	2952.57
298.771	1853.26
303.606	1943.28
308.438	2467.47
313.267	2950.11
318.093	3245.11
322.917	4406.35
327.738	5930.65
332.556	5381.79
337.372	4818.67
342.185	5819.2
346.995	7206.28
351.802	9589.8
356.607	16685.7
361.409	34762.6
366.209	73347.8
371.005	107185
375.799	113930
380.591	101357
385.379	42069
390.165	18276.7
394.948	9808.1
399.729	6837.13
404.506	6415.62
409.282	8828.06
414.054	9580.87
418.824	3721.89
423.591	531.967
428.355	554.627
433.117	764.787
437.876	657.736
442.632	341.361
447.386	580.396
452.137	1881.68
456.885	2306.37
461.63	2215.28
466.373	2403.2
471.114	2288.99
475.851	2300.5
480.586	1502.6
485.318	1747.16
490.048	2866.05
494.775	4925.15
499.499	5027.31
504.22	4316.42
508.939	3334.32
513.655	2372.12
518.369	1990.6
523.08	2197.82
527.788	2915.83
532.494	5534.56
537.197	14529.3
541.897	33655.8
546.594	39086.7
551.289	14088.2
555.982	4520.31
560.671	2627.25
565.358	2207.28
570.043	2363.71
574.724	2195.57
579.403	1999.93
584.08	1673.79
588.754	1582.73
593.425	1250.16
598.093	1733.92
602.759	2819.06
607.422	3887.04
612.083	4374.15
616.741	5135.96
621.396	5928.6
626.049	6807.97
630.699	5208.98
635.346	2675.52
639.991	1232.52
644.633	600.885
649.273	64.5322
653.91	9.07812
658.544	197.917
663.175	359.671
667.804	258.248
672.431	159.284
677.055	245.874
681.676	97.0391
686.294	142.704
690.91	6.19434
695.524	39.2471
700.134	25.8066
704.742	80.8701
709.348	47.4033
713.951	120.938
718.551	65.6338
723.149	208.697
727.744	269.68
732.336	394.132
736.926	539.211
741.513	490.099
746.098	549.904
750.68	823.689
755.259	889.514
759.836	1142.41
764.41	1250.41
768.982	1733.56
773.551	2295.89
778.117	2271.45
782.681	1916.34
787.243	2294.79
791.801	2744.75
796.357	3526.34
800.911	5175.57
805.462	8355.79
810.01	13829.3
814.556	19834.5
819.099	27538.5
823.64	33874.9
828.178	31921.5
832.713	26743
837.246	22733.7
841.776	20400.8
846.304	19955.2
850.829	19843.5
855.352	20747.7
859.872	23524.2
864.389	31505.2
868.904	49795.3
873.416	83677.4
877.926	113893
882.433	108104
886.938	65591.2
891.44	35603.3
895.939	22235.9
900.436	16235.1
904.93	12803.9
909.422	9813.45
913.911	7614.23
918.398	6307.35
922.882	5012.73
927.364	4415.64
931.843	3855.62
936.319	4207.75
940.793	4906.79
945.265	5460.24
949.733	5120.92
954.2	3792.73
958.663	2576.1
963.125	1741.54
967.583	2135.21
972.039	3416.2
976.493	4547.1
980.944	6003.19
985.392	6685.79
989.838	7385.88
994.282	7749.98
998.723	8413.02
1003.16	9804.95
1007.6	9138.7
1012.03	5452.17
1016.46	2645.31
1020.89	1634.08
1025.32	1091.47
1029.74	652.445
1034.16	690.996
1038.58	158.123
1042.99	83.793
1047.41	63.9863
1051.82	68.5898
1056.22	163.441
1060.63	221.494
1065.03	152.477
1069.43	107.988
1073.83	123.359
1078.23	168.484
1082.62	132.746
1087.01	192.629
1091.4	10.832
1095.78	27.7051
1100.17	146.185
1104.55	85.4668
1108.92	20.2969
1113.3	158.49
1117.67	175.856
1122.04	304.879
1126.41	496.668
1130.78	414.166
1135.14	600.344
1139.5	1063.19
1143.86	1026.67
1148.21	1119.77
1152.57	996.479
1156.92	1161.86
1161.27	847.902
1165.61	1025.57
1169.95	685.106
1174.3	645.842
1178.63	673.42
1182.97	623.768
1187.3	380.543
1191.63	608.703
1195.96	583.189
1200.29	541.629
1204.61	604.869
1208.93	603.877
1213.25	582.074
1217.56	628.115
1221.88	616.279
1226.19	817.242
1230.5	775.106
1234.8	617.684
1239.11	724.258
1243.41	880.404
1247.7	984.356
1252	710.344
1256.29	841.104
1260.59	618.584
1264.87	689.787
1269.16	408.723
1273.44	462.394
1277.72	315.81
1282	158
1286.28	49.959
1290.55	107.684
1294.83	6.19727
1299.09	134.457
1303.36	38.3203
1307.62	129.242
1311.89	206.873
1316.14	39.6309
1320.4	15.8887
1324.66	112.783
1328.91	5.89062
1333.16	95.457
1337.4	306.252
1341.65	105.252
1345.89	142.518
1350.13	163.918
1354.37	148.568
1358.6	93.3633
1362.83	140.422
1367.06	281.523
1371.29	314.697
1375.52	98.918
1379.74	322.127
1383.96	239.809
1388.18	362.935
1392.39	323.055
1396.61	143.174
1400.82	388.307
1405.02	275.473
1409.23	480.082
1413.43	387.312
1417.63	486.553
1421.83	576.121
1426.03	439.635
1430.22	433.904
1434.41	657.521
1438.6	533.252
1442.79	766.166
1446.97	627.496
1451.15	665.332
1455.33	751.859
1459.51	494.728
1463.68	494.019
1467.85	274.576
1472.02	322.291
1476.19	426.799
1480.35	155.19
1484.52	264.856
1488.68	118.481
1492.83	226.068
1496.99	147.887
1501.14	58.9297
1505.29	208.324
1509.44	149.74
1513.58	15.3848
1517.73	223.568
1521.87	202.963
1526.01	223.897
1530.14	29.4121
1534.28	5.25391
1538.41	145.293
1542.53	216.389
1546.66	19.2363
1550.78	133.519
1554.91	124.109
1559.03	56.5664
1563.14	72.1797
1567.26	170.869
1571.37	9.34766
1575.48	104.908
