Measurement: Raman, 514 nm, depolarized, Raman Data Processed
Mineral: Grossular
Rruff sample: R070551
Ideal chemistry: Ca_3_Al_2_(SiO_4_)_3_
Locality: Mali
Source: www.multicolour.com
Description: Green gem fragments
Measured chemistry: (Ca_2.95_Mg_0.04_Mn_0.01_)_Σ=3_(Al_1.63_Fe^3+^_0.37_)_Σ=2_(Si_1.00_O_4_)_3_
Pin_id: L01189
Orientation: Laser parallel to a* (1 0 0). Fiducial mark perpendicular to laser is parallel to c [0 0 1]
Raman shift (cm-1)	intensity
63.489	0
68.455	219.929
73.419	497.15
78.38	712.185
83.338	179.639
88.294	122.612
93.246	87.6313
98.196	760.591
103.143	2112.33
108.088	3583.22
113.029	4414.45
117.968	4916.04
122.904	5298.38
127.838	5233.08
132.768	5173.49
137.696	4813.74
142.621	4816.61
147.543	4691.54
152.463	4480.18
157.379	4261.59
162.293	4152.78
167.205	4249.18
172.113	5304.06
177.019	8029.29
181.922	11771.7
186.822	6480.55
191.72	4052.34
196.614	3631.11
201.506	3245.89
206.395	3223.62
211.282	3034.33
216.166	2903.61
221.047	2838.6
225.925	2935.64
230.8	4181.72
235.673	6206.3
240.543	8535.3
245.411	9680.45
250.275	7268.52
255.137	3527.15
259.996	2655.08
264.853	3167.12
269.706	3946.07
274.557	6067.74
279.405	7341.93
284.251	5016.98
289.094	3936.16
293.934	2540.94
298.771	1561.09
303.606	1502.8
308.438	1862.79
313.267	2196.67
318.093	2840.37
322.917	3830.78
327.738	5274.73
332.556	4651.01
337.372	3971.34
342.185	4737.83
346.995	6043.93
351.802	7470.62
356.607	12845.2
361.409	26223.3
366.209	54982.2
371.005	89080
375.799	114224
380.591	86742.7
385.379	35984.4
390.165	15624.4
394.948	8518.5
399.729	5500.31
404.506	5153.38
409.282	6165.47
414.054	6830.48
418.824	2668.24
423.591	282.816
428.355	479.478
433.117	647.762
437.876	734.342
442.632	433.008
447.386	617.254
452.137	1417.67
456.885	1881.15
461.63	1832.54
466.373	1892.66
471.114	1754.35
475.851	1898.46
480.586	1546.89
485.318	1481.51
490.048	2261.21
494.775	3790.89
499.499	4311.41
504.22	3670.66
508.939	2773.51
513.655	1980.68
518.369	1535.38
523.08	1873.72
527.788	2497.12
532.494	4629.15
537.197	12268.2
541.897	27704
546.594	32339.3
551.289	12089.8
555.982	3619.88
560.671	2125.46
565.358	2079.95
570.043	1950.74
574.724	1835.74
579.403	1643.08
584.08	1236.97
588.754	1101.85
593.425	1142.85
598.093	1282.55
602.759	2158.77
607.422	2932.72
612.083	3553.06
616.741	4057.58
621.396	5012.2
626.049	5609.81
630.699	4516.34
635.346	2586.71
639.991	1044.82
644.633	409.604
649.273	181.989
653.91	86.3731
658.544	232.942
663.175	93.8906
667.804	273.037
672.431	188.389
677.055	232.577
681.676	111.299
686.294	126.727
690.91	36.9209
695.524	35.8096
700.134	178.394
704.742	3.03809
709.348	121.438
713.951	277.378
718.551	127.349
723.149	172.045
727.744	257.009
732.336	204.855
736.926	409.601
741.513	420.393
746.098	543.334
750.68	598.541
755.259	847.07
759.836	759.668
764.41	1096.2
768.982	1487.66
773.551	1831.98
778.117	1745.57
782.681	1720.7
787.243	1855.39
791.801	2406.59
796.357	2924.1
800.911	4486.2
805.462	6943.81
810.01	11705.6
814.556	17451.7
819.099	25139.6
823.64	31101.3
828.178	28817.9
832.713	23388.3
837.246	19244.1
841.776	17216.7
846.304	16569.2
850.829	16549.2
855.352	17088.7
859.872	19270.5
864.389	26085.3
868.904	41438.5
873.416	69275.6
877.926	97461.9
882.433	90380.5
886.938	54196.9
891.44	29402.7
895.939	18099
900.436	13242.8
904.93	10324.1
909.422	8041.94
913.911	6282.42
918.398	4926.87
922.882	4150.38
927.364	3653.55
931.843	3367.31
936.319	3440.75
940.793	4236.73
945.265	4651.11
949.733	4119.55
954.2	3205.5
958.663	1897.98
963.125	1626.79
967.583	1783.26
972.039	2823.66
976.493	4037.43
980.944	5100.22
985.392	5677.46
989.838	6120.72
994.282	6246.9
998.723	7349.88
1003.16	8520.64
1007.6	7751.15
1012.03	4845.34
1016.46	2333.14
1020.89	1425.5
1025.32	903.41
1029.74	732.863
1034.16	365.262
1038.58	147.414
1042.99	211.502
1047.41	62.0898
1051.82	54.0176
1056.22	73.9746
1060.63	246.971
1065.03	56.627
1069.43	83.791
1073.83	45.3516
1078.23	38.5039
1082.62	105.258
1087.01	7.16602
1091.4	44.7676
1095.78	139.822
1100.17	88.0078
1104.55	41.6133
1108.92	7.80273
1113.3	15.5684
1117.67	297.44
1122.04	269.242
1126.41	279.83
1130.78	675.182
1135.14	622.279
1139.5	875.102
1143.86	802.629
1148.21	739.848
1152.57	966.211
1156.92	809.184
1161.27	897.383
1165.61	534.66
1169.95	639.535
1174.3	697.969
1178.63	778.613
1182.97	498.135
1187.3	361.205
1191.63	604.604
1195.96	321.287
1200.29	187.094
1204.61	657.231
1208.93	435.135
1213.25	415.236
1217.56	635.928
1221.88	699.611
1226.19	664.502
1230.5	431.43
1234.8	580.736
1239.11	690.266
1243.41	858.039
1247.7	632.967
1252	804.66
1256.29	717.123
1260.59	455.365
1264.87	510.383
1269.16	297.19
1273.44	359.789
1277.72	429.191
1282	66.4004
1286.28	64.3887
1290.55	45.1816
1294.83	132.688
1299.09	164.932
1303.36	102.867
1307.62	171.621
1311.89	156.352
1316.14	218.137
1320.4	175.055
1324.66	81.4668
1328.91	148.898
1333.16	331.619
1337.4	233.273
1341.65	32.957
1345.89	181.658
1350.13	125.428
1354.37	157.35
1358.6	108.791
1362.83	801.773
1367.06	301.816
1371.29	283.086
1375.52	317.496
1379.74	263.918
1383.96	181.371
1388.18	278.85
1392.39	256.363
1396.61	295.928
1400.82	270.565
1405.02	264.291
1409.23	476.113
1413.43	487.654
1417.63	313.734
1421.83	374.584
1426.03	435.453
1430.22	577.754
1434.41	429.65
1438.6	526.289
1442.79	692.85
1446.97	572.801
1451.15	666.68
1455.33	700.365
1459.51	610.34
1463.68	253.129
1467.85	252.801
1472.02	432.732
1476.19	223.65
1480.35	457.432
1484.52	457.254
1488.68	56.1172
1492.83	384.018
1496.99	20.9766
1501.14	222.152
1505.29	17.7227
1509.44	136.482
1513.58	194.141
1517.73	236.84
1521.87	236.898
1526.01	261.519
1530.14	22.9863
1534.28	259.191
1538.41	121.059
1542.53	243.789
1546.66	24.4355
1550.78	68.7539
1554.91	195.197
1559.03	35.3887
1563.14	100.342
1567.26	34.418
1571.37	253.51
1575.48	168.219
