Measurement: Raman, 514 nm, depolarized, Raman Data Processed
Mineral: Grossular
Rruff sample: R060382
Ideal chemistry: Ca_3_Al_2_(SiO_4_)_3_
Locality: Lalatema, near Mount Kilimanjaro, Tanzania
Source: Herb Obodda
Description: Pale tan colored fragment
Measured chemistry: (Ca_2.95_Mg_0.03_Mn_0.02_)_Σ=3_Al_2.00_((Si_0.99_Ti_0.01_)_Σ=1_O_4_)_3_; trace amounts of Fe
Pin_id: L01581
Orientation: Laser parallel to -a* (-1 0 0). Fiducial mark perpendicular to laser is parallel to 0 1 0
Raman shift (cm-1)	intensity
118.534	0
122.247	56.7598
125.959	2.3844
129.67	33.6445
133.379	41.2258
137.086	38.8828
140.791	49.6577
144.495	15.3944
148.197	71.791
151.898	78.7737
155.597	98.2622
159.294	118.166
162.989	96.7305
166.683	116.779
170.376	144.558
174.066	315.682
177.755	613.107
181.442	948.794
185.128	423.696
188.812	149.773
192.495	74.9878
196.175	52.2439
199.854	43.4829
203.532	35.7488
207.208	7.13525
210.882	34.7126
214.555	29.5689
218.226	14.9006
221.895	23.5188
225.563	28.2844
229.229	61.1001
232.893	117.964
236.556	211.88
240.217	265.831
243.877	335.751
247.535	394.804
251.191	264.46
254.846	61.2529
258.499	84.9988
262.15	48.6953
265.8	82.1611
269.449	138.891
273.095	209.892
276.74	402.589
280.384	436.363
284.026	183.278
287.666	127.439
291.304	44.3445
294.941	103.769
298.577	50.958
302.211	50.1748
305.843	64.4724
309.473	104.01
313.103	149.765
316.73	228.763
320.356	333.2
323.98	376.146
327.603	451.334
331.224	415.983
334.843	287.203
338.461	201.642
342.077	246.54
345.692	325.104
349.305	412.863
352.916	517.629
356.526	821.687
360.135	1370.26
363.741	2495.88
367.347	4615.06
370.95	6426.2
374.552	7785.36
378.153	5566.87
381.751	2643.23
385.349	1272.19
388.944	772.111
392.539	554.24
396.131	442.104
399.722	326.927
403.312	288.715
406.899	356.551
410.486	539.375
414.07	921.162
417.654	1042.9
421.235	605.615
424.815	252.292
428.394	152.943
431.971	40.5513
435.546	31.3296
439.12	14.0635
442.692	45.5513
446.263	16.3555
449.832	51.4207
453.399	50.5425
456.966	46.1538
460.53	17.4893
464.093	9.95117
467.654	76.6672
471.214	51.4536
474.772	105.578
478.329	90.6926
481.884	20.196
485.438	34.2156
488.99	38.0344
492.541	42.6499
496.09	68.0618
499.637	139.281
503.183	148.998
506.728	260.1
510.271	324.587
513.812	182.552
517.352	118.677
520.89	137.349
524.427	248.726
527.962	275.646
531.496	227.147
535.028	230.413
538.559	430.909
542.088	797.421
545.615	1626.27
549.141	2487.85
552.666	1608.6
556.189	699.966
559.711	404.86
563.231	268.804
566.749	273.307
570.266	231.439
573.782	240.198
577.296	284.408
580.808	204.071
584.319	280.055
587.828	317.5
591.336	312.993
594.843	252.034
598.348	175.992
601.851	135.007
605.353	212.545
608.853	210.91
612.352	173.98
615.85	193.394
619.345	237.124
622.84	313.857
626.333	375.56
629.824	390.217
633.314	360.703
636.802	268.706
640.289	225.062
643.775	215.74
647.259	190.824
650.741	175.485
654.222	204.727
657.702	211.726
661.18	28.6045
664.656	215.439
668.131	57.9351
671.605	20.1773
675.077	38.8745
678.547	43.5776
682.016	18.707
685.484	46.4316
688.95	5.00293
692.415	19.4766
695.878	118.608
699.34	61.2183
702.8	8.76416
706.259	76.6724
709.716	16.4351
713.172	36.648
716.626	15.9932
720.079	47.4106
723.53	28.7256
726.98	14.481
730.429	73.5928
733.876	12.8565
737.321	32.0776
740.765	39.8779
744.208	8.1294
747.649	70.8164
751.089	23.3896
754.527	40.9297
757.964	47.6699
761.399	160.008
764.833	141.187
768.266	182.611
771.697	236.662
775.126	308.884
778.554	352.469
781.981	383.702
785.406	321.968
788.83	281.687
792.252	215.764
795.673	298.472
799.093	319.321
802.511	466.771
805.927	609.23
809.342	671.783
812.756	934.788
816.168	1130.84
819.579	1358.51
822.988	1681.92
826.396	1723.96
829.802	1387.16
833.208	1139.68
836.611	1050.46
840.013	971.207
843.414	1139.1
846.813	1140.04
850.211	1209.42
853.608	1301.76
857.003	1569.81
860.396	1714.07
863.789	2252.06
867.179	3191.84
870.569	4905.76
873.957	8080.54
877.343	11931.3
880.728	12796.7
884.112	9899.35
887.494	6924.7
890.875	5428.28
894.254	4236.1
897.632	3402.04
901.009	1984.08
904.384	1165.09
907.758	843.009
911.13	547.705
914.501	631.631
917.871	542.029
921.239	390.671
924.606	368.892
927.971	330.309
931.335	346.181
934.698	416.035
938.059	384.736
941.418	270.217
944.777	160.432
948.134	238.891
951.489	233.523
954.843	131.341
958.196	20.668
961.548	105.84
964.897	11.8594
968.246	115.754
971.593	25.3887
974.939	51.1025
978.283	149.914
981.626	190.841
984.968	99.25
988.308	198.19
991.647	201.978
994.985	196.444
998.321	309.565
1001.65	556.343
1004.99	575.738
1008.32	699.774
1011.65	759.4
1014.98	1056.61
1018.31	1061.49
1021.63	565.124
1024.96	177.472
1028.28	110.555
1031.61	50.624
1034.93	19.7979
1038.25	22.1074
1041.56	4.73633
1044.88	56.6338
1048.2	77.6963
1051.51	199.795
1054.82	162.793
1058.13	135.728
1061.44	424.394
1064.75	330.92
1068.06	93.7158
1071.37	93.8897
1074.67	5.33789
1077.97	0.773438
1081.28	105.213
1084.58	73.0898
1087.88	141.796
1091.17	85.8838
1094.47	17.9336
1097.77	286.387
1101.06	25.3809
1104.35	166.565
1107.64	137.108
1110.93	96.9512
1114.22	83.417
1117.51	153.906
1120.79	259.986
1124.08	279.198
1127.36	249.963
1130.64	350.19
1133.92	341.734
1137.2	559.695
1140.48	723.102
1143.76	760.934
1147.03	310.828
1150.3	335.887
1153.58	404.25
1156.85	436.807
1160.12	229.547
1163.38	215.598
1166.65	360.137
1169.92	159.76
1173.18	0
