Measurement: Raman, 514 nm, depolarized, Raman Data Processed
Mineral: Grossular
Rruff sample: R040065
Ideal chemistry: Ca_3_Al_2_(SiO_4_)_3_
Locality: Feng Tien mine, Taiwan
Source: University of Arizona Mineral Museum
Description: Orange-brown trapezohedral crystals
Measured chemistry: (Ca_2.90_Fe^2+^_0.05_Mn_0.05_)_Σ=3_(Al_1.95_Fe^3+^_0.03_Ti_0.02_)_Σ=2_((Si_0.99_Al_0.01_)_Σ=1_O_4_)_3_
Pin_id: M00027
Orientation: Laser parallel to -a* (-1 0 0). Fiducial mark perpendicular to laser is parallel to b [0 1 0]
Raman shift (cm-1)	intensity
76.49	0
80.692	68.162
84.891	209.082
89.089	26.721
93.284	21.227
97.477	81.002
101.667	23.21
105.856	61.984
110.042	61.769
114.226	85.152
118.408	170.6
122.588	331.123
126.765	148.509
130.94	29.791
135.113	22.025
139.284	31.252
143.452	45.248
147.618	114.357
151.782	112.677
155.944	94.03
160.104	78.129
164.261	87.591
168.417	48.198
172.57	92.293
176.72	294.636
180.869	1289.63
185.015	3204.66
189.16	1282.07
193.302	300.829
197.442	104.192
201.579	29.621
205.715	19.327
209.848	25.585
213.979	65.976
218.108	30.446
222.235	20.967
226.359	12.997
230.482	32.378
234.602	139.323
238.72	382.108
242.836	914.51
246.949	1155.43
251.061	1962.27
255.17	883.015
259.277	204.158
263.382	102.559
267.485	90.125
271.586	125.265
275.684	413.713
279.781	1296.99
283.875	2024.95
287.967	689.134
292.057	344.368
296.144	274.638
300.23	159.746
304.313	53.001
308.395	70.771
312.474	255.742
316.551	373.1
320.625	618.609
324.698	478.215
328.769	441.115
332.837	659.294
336.903	684.113
340.968	566.605
345.03	711.405
349.089	910.212
353.147	1247.06
357.203	1739.95
361.256	2663.7
365.308	4729.78
369.357	9817.08
373.404	19423.1
377.449	29109.3
381.492	25786
385.533	9879.26
389.571	4353.29
393.608	2446.26
397.642	1595.49
401.675	1090.39
405.705	969.681
409.733	1044.85
413.759	1344.86
417.783	2779.72
421.804	3847.38
425.824	1435.74
429.842	509.535
433.857	176.543
437.871	53.86
441.882	90.088
445.891	21.213
449.898	29.764
453.903	16.094
457.906	100.853
461.907	194.197
465.906	82.367
469.902	28.419
473.897	71.613
477.889	180.149
481.88	424.639
485.868	180.081
489.854	83.057
493.839	137.802
497.821	201.371
501.801	261.889
505.779	319.519
509.755	679.891
513.729	1212.68
517.7	525.098
521.67	289.505
525.638	377.956
529.603	972.549
533.567	671.048
537.528	392.364
541.488	638.404
545.445	1669.28
549.4	5526.16
553.354	9816.96
557.305	4084.66
561.254	1462.73
565.201	892.208
569.146	730.76
573.089	589.645
577.03	513.767
580.969	543.322
584.906	455.771
588.841	567.143
592.774	787.751
596.705	711.525
600.633	414.31
604.56	278.064
608.485	275.749
612.408	292.725
616.328	334.205
620.247	446.786
624.163	495.03
628.078	715.554
631.991	935.976
635.901	778.467
639.81	535.666
643.716	290.569
647.621	135.027
651.523	65.26
655.424	110.18
659.322	108.743
663.218	48.946
667.113	29.266
671.005	92.951
674.896	44.234
678.784	6.088
682.671	56.486
686.555	24.49
690.437	63.044
694.318	9.246
698.196	0.076
702.073	34.489
705.947	49.491
709.82	60.091
713.69	16.307
717.558	30.034
721.425	23.676
725.289	6.075
729.152	1.748
733.013	3.185
736.871	92.248
740.728	88.962
744.582	30.34
748.435	160.381
752.286	142.111
756.134	334.546
759.981	370.748
763.826	485.71
767.668	670.484
771.509	816.041
775.348	1176.41
779.185	1157.54
783.02	925.452
786.853	694.188
790.684	735.742
794.513	744.085
798.34	871.236
802.165	1068.03
805.988	1394.14
809.809	1862.62
813.628	2647.78
817.446	3593.71
821.261	4687.3
825.074	6298.15
828.886	6898.07
832.695	5302.04
836.503	4179.1
840.309	3817.89
844.112	3568.13
847.914	3862.12
851.714	4058.37
855.512	4351.72
859.308	4873.03
863.102	5738.31
866.894	7410.73
870.684	10583.8
874.472	17377.9
878.258	32532.8
882.043	47440.6
885.825	39259.1
889.606	22788.4
893.384	12538.4
897.161	7587.29
900.936	5090.66
904.709	3711.26
908.479	2794.13
912.248	2281.38
916.016	1885.31
919.781	1516.14
923.544	1408.25
927.305	1207.87
931.065	1062.66
934.822	810.1
938.578	650.551
942.332	581.09
946.083	697.779
949.833	734.852
953.581	682.432
957.328	364.975
961.072	190.001
964.814	79.215
968.555	103.315
972.293	262.166
976.03	433.614
979.765	563.162
983.497	563.03
987.228	596.222
990.958	684.146
994.685	900.124
998.41	1031.91
1002.13	1336.91
1005.86	1687.44
1009.58	1860.91
1013.29	1125.06
1017.01	729.667
1020.72	437.444
1024.43	308.21
1028.14	205.444
1031.85	86.014
1035.56	20.875
1039.27	58.112
1042.97	144.574
1046.67	184.054
1050.37	248.032
1054.07	121.627
1057.76	35.418
1061.45	41.125
1065.15	38.381
1068.84	26.424
1072.52	140.329
1076.21	125.037
1079.89	77.891
1083.58	70.931
1087.26	47.227
1090.94	31.839
1094.61	56.403
1098.29	186.336
1101.96	237.116
1105.63	96.671
1109.3	7.118
1112.97	20.497
1116.63	75.24
1120.3	64.751
1123.96	207.736
1127.62	314.533
1131.28	226.416
1134.94	66.633
1138.59	94.077
1142.24	73.908
1145.89	228.614
1149.55	366.645
1153.19	500.706
1156.84	465.319
1160.48	507.231
1164.12	354.024
1167.76	296.822
1171.4	188.112
1175.04	305.193
1178.67	509.204
1182.31	517.021
1185.94	473.93
1189.57	373.764
1193.19	138.414
1196.82	139.001
1200.44	237.636
1204.07	253.667
1207.69	389.889
1211.3	555.262
1214.92	534.862
1218.54	468.378
1222.15	259.499
1225.76	292.739
1229.37	322.443
1232.98	495.038
1236.58	632.898
1240.19	648.057
1243.79	624.188
1247.39	735.438
1250.99	460.482
1254.59	317.586
1258.18	389.255
1261.77	383.759
1265.37	562.465
1268.95	637.962
1272.54	793.226
1276.13	739.377
1279.71	371.95
1283.3	333.276
1286.88	186.247
1290.46	22.622
1294.03	146.385
1297.61	161.74
1301.18	227.123
1304.75	336.865
1308.32	414.539
1311.89	380.181
1315.46	114.083
1319.02	116.965
1322.59	61.467
1326.15	17.696
1329.71	265.295
1333.27	340.938
1336.82	543.288
1340.38	524.502
1343.93	374.777
1347.48	354.451
1351.03	111.856
1354.58	97.92
1358.12	36.017
1361.66	136.433
1365.21	244.618
1368.75	51.76
1372.29	578.586
1375.82	773.23
1379.36	595.348
1382.89	467.716
1386.42	228.758
1389.95	163.847
1393.48	85.913
1397.01	151.999
1400.53	325.339
1404.05	504.525
1407.57	719.496
1411.09	1102.61
1414.61	821.419
1418.13	704.746
1421.64	419.232
1425.15	339.098
1428.66	177.157
1432.17	25.96
1435.68	241.916
1439.19	367.675
1442.69	795.055
1446.19	630.054
1449.69	1112.47
1453.19	935.653
1456.69	877
1460.18	610.016
1463.68	539.408
1467.17	243.344
1470.66	127.93
1474.15	326.848
1477.63	338.639
1481.12	706.039
1484.6	666.633
1488.08	838.447
1491.56	815.99
1495.04	830.604
1498.52	742.562
