Measurement: Raman, 514 nm, depolarized, Raman Data Processed
Mineral: Grossular
Rruff sample: R050081
Ideal chemistry: Ca_3_Al_2_(SiO_4_)_3_
Locality: Kayes Region, Mali
Source: Rock Currier
Description: Dark brown dodecahedron
Measured chemistry: (Ca_2.92_Mg_0.07_Mn_0.01_)_Σ=3_(Al_1.04_Fe^3+^_0.89_Ti_0.07_)_Σ=2_((Si_0.98_Al_0.02_)_Σ=1_O_4_)_3_; trace amounts of Y
Pin_id: L00149
Orientation: Laser parallel to c* (0 0 1). Fiducial mark perpendicular to laser is parallel to a [1 0 0]
Raman shift (cm-1)	intensity
94.307	0
98.492	59.4
102.675	144.897
106.856	328.056
111.035	605.096
115.212	1055.33
119.386	1418.96
123.559	1172.9
127.73	1252.49
131.898	1363.03
136.065	1654.47
140.229	1386.71
144.392	1250.28
148.552	938.427
152.71	851.897
156.866	704.125
161.02	647.461
165.172	553.535
169.322	547.148
173.47	1047.17
177.616	1160.84
181.76	820.869
185.902	472.544
190.042	293.486
194.179	253.696
198.315	155.153
202.449	30.86
206.58	63.913
210.71	21.888
214.837	90.608
218.963	72.244
223.086	55.793
227.207	145.744
231.327	337.364
235.444	546.996
239.559	879.329
243.673	749.195
247.784	175.12
251.893	30.238
256	77.425
260.105	94.249
264.208	65.946
268.31	236.158
272.409	492.496
276.506	508.315
280.601	367.463
284.694	266.828
288.785	251.356
292.874	270.948
296.961	248.515
301.046	464.082
305.129	438.666
309.21	550.366
313.289	656.23
317.366	1142.91
321.441	1404.12
325.514	1225.75
329.585	1137.39
333.654	1194.12
337.721	1162.94
341.786	1251.85
345.849	1656.83
349.91	2634.85
353.969	4376.92
358.026	7369.02
362.081	8501.17
366.134	10063.3
370.185	14705.5
374.234	15801.5
378.281	10208.9
382.326	5836.53
386.369	3511.07
390.411	2400.2
394.45	1771.44
398.487	1402.93
402.522	936.663
406.555	403.738
410.587	113.112
414.616	60.87
418.644	1.308
422.669	61.521
426.692	90.029
430.714	42.891
434.733	111.597
438.751	191.375
442.767	196.912
446.78	227.389
450.792	323.802
454.802	313.143
458.809	243.412
462.815	259.603
466.819	39.957
470.821	71.731
474.821	94.212
478.819	136.747
482.815	421.076
486.809	605.147
490.802	752
494.792	683.349
498.78	698.596
502.767	591.736
506.751	552.768
510.734	481.684
514.714	446.481
518.693	857.156
522.67	1599.7
526.644	3209.62
530.617	5442.66
534.588	4399.36
538.557	1962.12
542.524	1037.26
546.489	515.417
550.453	377.574
554.414	535.342
558.374	562.934
562.331	618.126
566.287	394.25
570.24	321.392
574.192	143.324
578.142	123.442
582.09	149.599
586.036	154.385
589.98	243.412
593.922	427.556
597.862	515.464
601.801	416.105
605.737	495.481
609.672	540.587
613.605	563.427
617.536	599.996
621.464	392.295
625.391	297.285
629.317	85.982
633.24	132.203
637.161	62.247
641.081	210.021
644.998	187.51
648.914	311.718
652.828	423.657
656.74	461.33
660.65	606.735
664.558	814.874
668.464	975.747
672.368	804.354
676.271	425.694
680.171	347.771
684.07	162.578
687.967	76.088
691.862	28.762
695.755	93.214
699.646	73.328
703.536	60.923
707.423	25.499
711.309	52.635
715.193	24.479
719.075	21.829
722.955	150.684
726.833	97.91
730.709	4.315
734.584	127.191
738.457	277.229
742.327	351.465
746.196	548.181
750.063	816.445
753.929	991.342
757.792	1185.23
761.654	1367.94
765.513	1440.47
769.371	1432.82
773.227	1265.06
777.081	1047.2
780.933	887.963
784.784	924.336
788.633	955.686
792.479	1015.41
796.324	1228.81
800.167	1619.66
804.009	1981.02
807.848	2502.33
811.686	2673.54
815.522	3234.62
819.355	3785.6
823.188	3456.48
827.018	3227.24
830.846	2907.93
834.673	2653.15
838.498	2428.12
842.321	2416.41
846.142	2617.6
849.961	2600.24
853.779	2588.78
857.595	2925.27
861.409	3296.81
865.221	4042.89
869.031	4865.64
872.839	5829.47
876.646	6442.41
880.451	5909.31
884.254	4894.44
888.055	3783.13
891.855	2692.84
895.652	2183.18
899.448	1703.68
903.242	1204.15
907.034	1195.64
910.825	1066.5
914.613	980.414
918.4	1321.46
922.185	1105.02
925.969	943.288
929.75	1110.05
933.53	1332.86
937.308	1328.75
941.084	1304.88
944.858	1246.31
948.63	882.946
952.401	799.493
956.17	765.013
959.937	881
963.703	952.935
967.466	1045.69
971.228	1221.01
974.988	1313.11
978.746	1285.13
982.503	1404.32
986.258	1319.42
990.011	1511.9
993.762	1286.89
997.511	1359.4
1001.26	1251.86
1005	1420.04
1008.75	1292.62
1012.49	1338.44
1016.23	1169.63
1019.97	864.292
1023.71	710.49
1027.44	616.258
1031.18	282.34
1034.91	197.153
1038.64	47.539
1042.37	97.249
1046.09	41.94
1049.82	127.481
1053.54	91.901
1057.26	56.547
1060.98	29.241
1064.7	55.053
1068.41	59.249
1072.13	65.987
1075.84	72.011
1079.55	8.69
1083.26	115.143
1086.97	57.898
1090.67	110.311
1094.38	47.246
1098.08	5.099
1101.78	31.32
1105.48	28.433
1109.18	224.094
1112.87	135.698
1116.57	96.81
1120.26	177.63
1123.95	88.355
1127.63	10.86
1131.32	29.628
1135.01	90.2
1138.69	93.673
1142.37	255.152
1146.05	312.33
1149.73	263.866
1153.4	179.192
1157.08	103.552
1160.75	204.212
1164.42	97.779
1168.09	188.156
1171.76	428.716
1175.42	370.522
1179.09	410.913
1182.75	285.397
1186.41	276.854
1190.07	281.316
1193.73	138.41
1197.38	362.838
1201.04	386.097
1204.69	547.057
1208.34	497.842
1211.99	317.793
1215.64	147.931
1219.28	372.413
1222.92	363.438
1226.57	400.347
1230.21	556.146
1233.85	393.809
1237.48	322.916
1241.12	277.96
1244.75	160.969
1248.38	239.614
1252.01	200.363
1255.64	452.171
1259.27	535.679
1262.89	411.999
1266.52	421.301
1270.14	412.655
1273.76	302.717
1277.38	137.329
1280.99	4.507
1284.61	103.394
1288.22	250.124
1291.83	57.071
1295.44	233.76
1299.05	154.099
1302.66	69.579
1306.26	25.559
1309.87	81.947
1313.47	78.95
1317.07	17.906
1320.67	12.874
1324.26	102.851
1327.86	133.364
1331.45	302.931
1335.04	222.366
1338.63	140.692
1342.22	149.07
1345.81	147.49
1349.39	134.688
1352.98	221.721
1356.56	318.405
1360.14	273.575
1363.72	469.432
1367.29	224.778
1370.87	179.936
1374.44	124.322
1378.02	19.444
1381.59	16.605
1385.15	188.612
1388.72	268.891
1392.29	299.791
1395.85	509.855
1399.41	568.672
1402.97	463.354
1406.53	416.551
1410.09	353.025
1413.64	245.807
1417.2	133.536
1420.75	190.022
1424.3	121.797
1427.85	288.595
1431.39	339.902
1434.94	486.743
1438.48	533.185
1442.03	549.107
1445.57	473.385
1449.11	337.994
1452.64	460.205
1456.18	164.1
1459.71	227.033
1463.25	267.373
1466.78	326.785
1470.31	284.32
1473.83	532.795
1477.36	521.082
1480.88	323.088
1484.41	414.367
1487.93	245.453
1491.45	207.754
1494.97	8.254
1498.48	157.609
1502	75.771
1505.51	33.119
1509.02	101.221
1512.53	136.275
1516.04	340.197
1519.55	456.9
