Measurement: Raman, 514 nm, depolarized, Raman Data Processed
Mineral: Grossular
Rruff sample: R060442
Ideal chemistry: Ca_3_Al_2_(SiO_4_)_3_
Locality: Pakistan(?)
Source: Gemological Institute of America
Description: Orange crystals
Measured chemistry: (Ca_2.85_Fe^2+^_0.15_)_Σ=3_(Al_1.85_Fe^3+^_0.15_)_Σ=2_(Si_1.00_O_4_)_3_; trace amounts of Ti, Mg
Pin_id: M01870
Orientation: Laser parallel to a* (1 0 0). Fiducial mark perpendicular to laser is parallel to c [0 0 1]
Raman shift (cm-1)	intensity
129	0
133.933	14.3633
138.864	108.889
143.791	9.62109
148.716	10.0207
153.638	47.2837
158.558	44.1392
163.475	103.781
168.389	510.448
173.3	1593.36
178.209	3598.92
183.115	1757.9
188.018	653.944
192.918	275.778
197.816	106.261
202.711	132.288
207.604	104.428
212.494	34.3306
217.381	127.343
222.265	226.697
227.147	650.31
232.026	1406.24
236.902	2830.54
241.775	3432.21
246.646	3936.91
251.514	1401.02
256.38	573.593
261.243	806.646
266.103	1045.24
270.96	2042.41
275.815	3492.16
280.667	2355.53
285.516	1198.12
290.363	752.59
295.207	226.942
300.048	167.354
304.887	329.708
309.723	567.458
314.556	768.46
319.387	948.198
324.215	1488.17
329.04	2048.37
333.862	1518.75
338.682	1607.26
343.5	2379.86
348.314	3222.52
353.126	4842.06
357.935	9483.42
362.742	19795.1
367.546	36130.7
372.347	51354.3
377.145	36423.9
381.941	14944.6
386.735	6870.64
391.525	3859.96
396.313	2706.69
401.098	2439.54
405.881	2748.31
410.661	3994.99
415.438	3794.88
420.213	1269.92
424.985	316.203
429.754	62.2852
434.521	70.7634
439.285	94.5894
444.046	25.9802
448.805	240.231
453.561	478.131
458.315	578.684
463.065	514.86
467.813	586.631
472.559	835.963
477.302	1097.83
482.042	640.186
486.78	659.013
491.515	1004.28
496.247	1393.97
500.977	1657.17
505.704	1940.75
510.428	1587.65
515.15	874.77
519.869	823.058
524.586	1099.34
529.3	919.928
534.011	1641.86
538.719	4876.05
543.425	12349.6
548.129	12807.9
552.83	4444.48
557.528	1720.9
562.223	1363.38
566.916	1189.7
571.607	1091.9
576.294	994.235
580.979	980.314
585.662	950.686
590.341	929.169
595.019	621.447
599.693	653.832
604.365	876.725
609.035	1169.02
613.701	1284.96
618.366	1867.26
623.027	2064
627.686	2454.16
632.342	1620.73
636.996	866.684
641.647	491.016
646.296	253.71
650.942	162.758
655.585	42.0955
660.226	12.467
664.864	59.1924
669.499	91.4502
674.132	60.3823
678.763	50.144
683.39	76.7197
688.015	42.0335
692.638	54.9089
697.258	46.3997
701.875	50.356
706.49	23.2944
711.102	55.969
715.712	5.00732
720.319	63.5764
724.923	56.606
729.525	45.0586
734.124	146.956
738.721	247.336
743.315	264.22
747.907	364.625
752.496	592.568
757.082	821.069
761.666	1191.15
766.247	1703.83
770.826	2068.12
775.402	2142.05
779.975	1838.65
784.546	1729.95
789.115	1689.02
793.681	1849.57
798.244	2585.5
802.804	3698.58
807.363	5616.45
811.918	7962.22
816.471	11369.7
821.022	15986.7
825.569	17326.2
830.115	14047.4
834.657	10887.4
839.198	9233.73
843.735	8805.74
848.27	9074.96
852.803	9041.57
857.333	9418.59
861.86	11445.8
866.385	16534.8
870.907	28444.7
875.427	49571.1
879.944	62294.9
884.459	48194.1
888.971	25984.7
893.481	13559.7
897.988	8319.2
902.492	5712.15
906.994	4480.57
911.493	3559.48
915.99	2743.46
920.485	2180.64
924.976	1831.02
929.466	1596.05
933.952	1320.57
938.436	1390.3
942.918	1669.67
947.397	1670.43
951.874	1357.96
956.348	906.21
960.819	529.106
965.288	508.616
969.755	789.679
974.219	1173.79
978.68	1640.85
983.139	2044.72
987.595	2320.79
992.049	2631.32
996.501	2943.25
1000.95	3611.51
1005.4	4476.08
1009.84	3725.93
1014.28	1927.05
1018.72	766.428
1023.16	465.044
1027.59	304.886
1032.02	203.947
1036.45	158.227
1040.88	121.724
1045.3	2.41626
1049.72	28.2681
1054.14	71.7771
1058.56	10.7549
1062.97	28.8716
1067.38	73.0688
1071.79	83.3628
1076.19	41.1138
1080.6	34.3164
1085	86.9827
1089.4	49.0999
1093.79	33.6692
1098.19	18.3423
1102.58	7.89868
1106.97	28.8872
1111.35	22.3044
1115.74	95.1362
1120.12	186.688
1124.5	191.029
1128.87	154.147
1133.25	186.03
1137.62	174.661
1141.99	330.029
1146.35	389.123
1150.72	455.932
1155.08	476.551
1159.44	417.15
1163.79	380.323
1168.15	428.596
1172.5	352.043
1176.85	320.914
1181.19	387.334
1185.54	142.867
1189.88	228.667
1194.22	193.741
1198.55	224.109
1202.89	213.615
1207.22	322.818
1211.55	227.957
1215.88	268.948
1220.2	255.148
1224.52	301.245
1228.84	304.479
1233.16	330.895
1237.47	289.116
1241.78	357.255
1246.09	314.854
1250.4	308.485
1254.7	316.303
1259.01	375.343
1263.31	268.221
1267.6	261.976
1271.9	133.137
1276.19	121.107
1280.48	131.82
1284.77	96.2996
1289.05	88.5549
1293.33	3.42383
1297.61	34.3198
1301.89	68.7664
1306.16	2.04517
1310.44	49.8779
1314.71	139.5
1318.97	23.9329
1323.24	29.4382
1327.5	41.6628
1331.76	47.6326
1336.02	39.6799
1340.28	17.7876
1344.53	20.9231
1348.78	2.91309
1353.03	65.2346
1357.27	85.4053
1361.52	106.645
1365.76	67.0947
1370	38.4507
1374.23	62.9248
1378.47	25.3638
1382.7	77.5598
1386.93	0.051514
1391.15	117.04
1395.38	70.9622
1399.6	63.8184
1403.82	56.644
1408.03	136.394
1412.25	166.737
1416.46	106.922
1420.67	147.655
1424.88	148.795
1429.08	214.965
1433.28	161.738
1437.48	160.675
1441.68	168.798
1445.87	194.873
1450.07	119.992
1454.26	132.148
1458.44	199.627
1462.63	156.591
1466.81	153.411
1470.99	155.529
1475.17	102.576
1479.34	93.543
1483.52	78.0952
1487.69	93.471
1491.86	177.658
1496.02	98.8469
1500.19	12.1148
1504.35	63.481
1508.51	98.1096
1512.66	65.3032
1516.82	70.7388
1520.97	83.3672
1525.12	31.0571
1529.26	54.5293
1533.41	72.3176
1537.55	67.8645
1541.69	31.5129
1545.83	47.4265
1549.96	111.585
1554.09	147.438
1558.22	76.1843
1562.35	0
