Measurement: Raman, 514 nm, depolarized, Raman Data Processed
Mineral: Grossular
Rruff sample: R060453
Ideal chemistry: Ca_3_Al_2_(SiO_4_)_3_
Locality: unknown
Source: Gemological Institute of America
Description: Green colored fragment
Measured chemistry: (Ca_2.91_Mg_0.05_Mn_0.04_)_Σ=3_(Al_1.96_Ti_0.02_[box]_0.02_)_Σ=2_(Si_1.00_O_4_)_3_; trace amounts of Fe and Cr
Pin_id: L01253
Orientation: Laser parallel to a* (1 0 0). Fiducial mark perpendicular to laser is parallel to b [0 1 0]
Raman shift (cm-1)	intensity
125.959	0
129.67	0.942383
133.379	10.5132
137.086	75.8916
140.791	58.1318
144.495	65.3098
148.197	50.8921
151.898	45.4592
155.597	12.8332
159.294	33.8857
162.989	68.1846
166.683	49.1875
170.376	192.587
174.066	411.454
177.755	636.608
181.442	925.096
185.128	657.881
188.812	163.918
192.495	81.1506
196.175	66.5354
199.854	10.9678
203.532	33.5349
207.208	55.5635
210.882	20.9873
214.555	31.6668
218.226	47.7185
221.895	44.0371
225.563	96.7183
229.229	38.6387
232.893	178.62
236.556	284.636
240.217	438.839
243.877	479.055
247.535	502.211
251.191	283.294
254.846	99.3032
258.499	31.2405
262.15	93.1079
265.8	79.9031
269.449	148.625
273.095	310.92
276.74	479.39
280.384	554.139
284.026	210.016
287.666	114.253
291.304	45.3406
294.941	25.3428
298.577	23.7524
302.211	12.6343
305.843	96.9102
309.473	85.4512
313.103	202.464
316.73	175.158
320.356	265.398
323.98	284.026
327.603	292.113
331.224	351.483
334.843	267.365
338.461	277.402
342.077	271.554
345.692	388.556
349.305	596.975
352.916	798.388
356.526	1296.41
360.135	2249.05
363.741	3906.13
367.347	6547.15
370.95	8491.15
374.552	9539.1
378.153	7807.01
381.751	3859.86
385.349	1792.66
388.944	1038.4
392.539	669.141
396.131	509.816
399.722	451.369
403.312	453.861
406.899	628.288
410.486	767.657
414.07	971.967
417.654	1216.25
421.235	678.46
424.815	269.606
428.394	134.615
431.971	34.8464
435.546	46.6011
439.12	32.491
442.692	30.4424
446.263	5.78638
449.832	58.8328
453.399	40.613
456.966	11.2498
460.53	3.28442
464.093	13.4582
467.654	4.90698
471.214	14.5845
474.772	27.7666
478.329	95.4204
481.884	119.248
485.438	67.7683
488.99	17.9963
492.541	131.917
496.09	91.7044
499.637	176.867
503.183	216.555
506.728	225.328
510.271	378.732
513.812	300.662
517.352	222.037
520.89	245.406
524.427	297.08
527.962	316.523
531.496	248.773
535.028	201.773
538.559	541.208
542.088	1215.52
545.615	2114.78
549.141	3078.97
552.666	2510.79
556.189	1050.72
559.711	577.039
563.231	375.094
566.749	330.604
570.266	241.264
573.782	281.876
577.296	323.995
580.808	269.223
584.319	255.551
587.828	362.962
591.336	332.709
594.843	290.671
598.348	192.295
601.851	162.317
605.353	182.286
608.853	152.682
612.352	156.81
615.85	235.571
619.345	261.857
622.84	347.634
626.333	424.555
629.824	421.865
633.314	292.002
636.802	203.421
640.289	202.409
643.775	138.29
647.259	81.5601
650.741	140.15
654.222	94.2598
657.702	130.938
661.18	111.96
664.656	100.644
668.131	111.142
671.605	31.0508
675.077	124.269
678.547	0.055664
682.016	14.2422
685.484	3.1333
688.95	57.9355
692.415	56.4155
695.878	36.458
699.34	86.0723
702.8	81.1641
706.259	56.6582
709.716	24.478
713.172	97.5195
716.626	36.9448
720.079	1.69727
723.53	3.48291
726.98	6.85352
730.429	1.60205
733.876	8.54004
737.321	32.9419
740.765	13.7119
744.208	46.1411
747.649	108.439
751.089	31.2666
754.527	76.7124
757.964	81.5781
761.399	121.451
764.833	108.571
768.266	172.067
771.697	259.863
775.126	287.689
778.554	212.605
781.981	313.828
785.406	419.095
788.83	302.53
792.252	316.711
795.673	315.797
799.093	444.573
802.511	518.623
805.927	765.238
809.342	905.135
812.756	1056.34
816.168	1504.57
819.579	1689.72
822.988	2209.36
826.396	2068.01
829.802	1812.55
833.208	1526.68
836.611	1182.98
840.013	1321.1
843.414	1471.6
846.813	1536.62
850.211	1772.66
853.608	1801.06
857.003	1932.52
860.396	2416.9
863.789	2921.14
867.179	4488.8
870.569	6896.52
873.957	10998.2
877.343	15625.9
880.728	17679.5
884.112	14608.1
887.494	9894.64
890.875	6586.88
894.254	4710.91
897.632	3222.93
901.009	2018.64
904.384	1411.24
907.758	951.337
911.13	719.502
914.501	654.86
917.871	666.077
921.239	454.467
924.606	469.617
927.971	440.06
931.335	390.525
934.698	314.224
938.059	308.625
941.418	300.903
944.777	163.962
948.134	169.884
951.489	223.45
954.843	12.1973
958.196	25.1299
961.548	84.6309
964.897	113.244
968.246	35.4883
971.593	23.6738
974.939	185.763
978.283	75.7119
981.626	295.99
984.968	271.174
988.308	125.341
991.647	340.92
994.985	400.872
998.321	442.618
1001.65	411.934
1004.99	648.285
1008.32	699.14
1011.65	874.295
1014.98	740.766
1018.31	746.689
1021.63	372.183
1024.96	237.957
1028.28	145.159
1031.61	140.281
1034.93	186.773
1038.25	96.3789
1041.56	12.7852
1044.88	120.195
1048.2	106.182
1051.51	191.836
1054.82	77.7188
1058.13	194.3
1061.44	215.685
1064.75	231.266
1068.06	197.014
1071.37	50.6035
1074.67	77.2129
1077.97	193.54
1081.28	45.5176
1084.58	45.581
1087.88	44.7734
1091.17	111.484
1094.47	141.38
1097.77	139.239
1101.06	201.493
1104.35	190.998
1107.64	235.113
1110.93	331.121
1114.22	89.3203
1117.51	141.619
1120.79	246.74
1124.08	374.986
1127.36	307.746
1130.64	363.625
1133.92	572.205
1137.2	660.732
1140.48	663.301
1143.76	692.379
1147.03	458.273
1150.3	361.291
1153.58	405.955
1156.85	260.688
1160.12	142.182
1163.38	139.977
1166.65	158.09
1169.92	57.1055
1173.18	138.908
1176.44	288.162
1179.7	175.291
1182.96	0
