Measurement: Raman, 514 nm, depolarized, Raman Data Processed
Mineral: Grossular
Rruff sample: R060278
Ideal chemistry: Ca_3_Al_2_(SiO_4_)_3_
Locality: Diakon, Kayes Region, Mali
Source: Herb Obodda
Description: Dark brown dodecahedral single crystal
Measured chemistry: (Ca_2.93_Mg_0.05_Mn_0.02_)_Σ=3_(Al_1.19_Fe^3+^_0.78_Ti_0.03_)_Σ=2_((Si_0.99_Al_0.01_)_Σ=1_O_4_)_3_
Pin_id: L01488
Orientation: Laser parallel to -a* (-1 0 0). Fiducial mark perpendicular to laser is parallel to b [0 1 0]
Raman shift (cm-1)	intensity
197.52	0
202.413	178.864
207.305	4.67432
212.193	26.6113
217.079	183.427
221.963	841.294
226.844	2048.07
231.723	3471.71
236.599	4417.04
241.472	3591.89
246.343	1555.32
251.211	754.371
256.077	670.974
260.94	1060.46
265.801	1700.73
270.66	2273.99
275.515	2145.43
280.368	1725.12
285.219	1390.21
290.067	1030.16
294.913	1198.18
299.756	1614.4
304.596	1664.87
309.434	2549.77
314.27	3934.69
319.102	4927.17
323.933	4528.87
328.76	3928.63
333.586	4216.18
338.408	4659.38
343.229	5904.5
348.046	9475.83
352.861	16864
357.674	27155.1
362.484	37663.4
367.291	51082.8
372.096	49398
376.898	29216.7
381.698	14712.7
386.495	8272.83
391.29	5694.92
396.082	4335.9
400.872	3147.64
405.659	1495.97
410.443	463.195
415.225	18.0601
420.005	351.376
424.782	240.47
429.556	165.126
434.328	155.948
439.097	571.723
443.864	738.026
448.628	699.099
453.389	770.232
458.148	701.144
462.905	635.726
467.659	408.41
472.41	344.734
477.159	719.827
481.905	1669.44
486.649	2536.93
491.39	2630.53
496.129	2405.31
500.865	2136.28
505.598	1368.29
510.329	1129.24
515.057	1805.06
519.783	3881.7
524.506	8563.1
529.227	15140.2
533.945	14667
538.661	6586.3
543.374	2537.22
548.084	1471.36
552.792	1620.48
557.498	1581.49
562.2	1360.04
566.901	952.331
571.598	464.606
576.293	286.74
580.986	283.273
585.676	524.779
590.363	1120.75
595.048	1679.85
599.731	2083.84
604.41	2411.37
609.088	2531.43
613.762	2582.99
618.434	2393.01
623.104	1790.47
627.771	1060.34
632.435	591.605
637.097	607.224
641.756	788.175
646.413	1077.44
651.067	1058
655.719	1115.85
660.368	791.96
665.014	720.339
669.658	915.973
674.299	915.856
678.938	548.977
683.574	256.33
688.208	43.7861
692.839	114.753
697.468	249.623
702.094	260.96
706.717	241.658
711.338	204.941
715.956	276.631
720.572	180.107
725.185	14.5039
729.795	168.62
734.403	805.901
739.009	1101.47
743.611	1510.36
748.212	2260.58
752.809	2894.15
757.405	3678.1
761.997	4325.46
766.587	4664.24
771.174	4030.48
775.759	3570.33
780.342	3109.02
784.921	3177.55
789.498	3798.14
794.073	4700.76
798.645	6387.61
803.215	9113.65
807.781	12155.8
812.346	15786.1
816.907	18609.3
821.467	18509.9
826.023	16099.4
830.577	13497
835.129	11715
839.678	10913.8
844.224	10672.8
848.768	10471.4
853.309	10394.8
857.847	11321
862.383	13847.6
866.917	18037.6
871.448	22542
875.976	24161
880.502	20882.5
885.025	15545.7
889.545	10913.5
894.063	8033.02
898.579	5903.16
903.092	4655
907.602	3725.22
912.11	3470.32
916.615	3401.33
921.118	3500.43
925.618	3485.05
930.115	3902.65
934.61	4458.59
939.102	4501.96
943.592	4063.19
948.079	3113.01
952.564	2423.33
957.046	2245.96
961.525	2793.02
966.002	3603.26
970.476	4265.71
974.948	4874.73
979.417	4934.87
983.883	5125.05
988.347	5114.1
992.809	5206.04
997.268	4863.75
1001.72	4298.53
1006.18	2826.5
1010.63	1478.45
1015.08	1082.23
1019.52	1293.71
1023.97	1274.95
1028.41	807.462
1032.85	279.224
1037.28	1.70557
1041.71	40.606
1046.14	28.293
1050.57	156.4
1055	44.0615
1059.42	72.2681
1063.84	118.445
1068.26	99.9136
1072.67	136.435
1077.09	18.8291
1081.5	115.087
1085.9	43.9097
1090.31	38.4761
1094.71	168.486
1099.11	3.26221
1103.51	177.683
1107.9	245.828
1112.29	297.668
1116.68	757.24
1121.07	1264.95
1125.45	951.169
1129.84	587.925
1134.21	435.552
1138.59	312.892
1142.96	372.567
1147.34	310.757
1151.7	345.677
1156.07	315.816
1160.43	316.257
1164.79	220.594
1169.15	334.263
1173.51	238.884
1177.86	289.245
1182.21	209.056
1186.56	306.088
1190.91	298.347
1195.25	329.394
1199.59	288.133
1203.93	275.897
1208.26	201.831
1212.6	303.095
1216.92	286.809
1221.25	239.256
1225.58	313.002
1229.9	270.304
1234.22	313.946
1238.54	328.522
1242.85	170.935
1247.16	94.5674
1251.47	179.515
1255.78	26.9424
1260.08	63.856
1264.38	75.3481
1268.68	64.8408
1272.98	56.9639
1277.28	5.11719
1281.57	4.51953
1285.86	15.3262
1290.14	8.70654
1294.42	35.249
1298.71	56.7988
1302.98	8.97705
1307.26	75.9102
1311.53	82.0654
1315.8	23.9526
1320.07	148.243
1324.34	89.7827
1328.6	156.657
1332.86	8.73389
1337.12	110.824
1341.38	150.128
1345.63	178.48
1349.88	116.752
1354.13	178.189
1358.37	195.232
1362.61	53.1514
1366.85	9.08203
1371.09	167.533
1375.33	54.7168
1379.56	74.6567
1383.79	143.419
1388.01	101.54
1392.24	158.714
1396.46	47.7798
1400.68	132.305
1404.9	104.047
1409.11	163.057
1413.32	87.71
1417.53	36.5859
1421.74	257.456
1425.94	160.118
1430.14	127.21
1434.34	142.82
1438.54	88.6397
1442.73	101.272
1446.92	62.2124
1451.11	128.872
1455.3	95.9224
1459.48	126.721
1463.66	100.725
1467.84	118.879
1472.01	73.2593
1476.19	121.941
1480.36	99.4614
1484.53	102.907
1488.69	185.297
1492.85	144.004
1497.01	153.873
1501.17	206.977
1505.33	269.284
1509.48	80.8335
1513.63	226.804
1517.78	212.243
1521.92	127.367
1526.06	180.655
1530.2	126.258
1534.34	43.3272
1538.47	66.1245
1542.6	154.918
1546.73	148.478
1550.86	173.221
1554.98	202.445
1559.11	93.5171
1563.22	230.572
