Measurement: Raman, 514 nm, depolarized, Raman Data Processed
Mineral: Grossular
Rruff sample: R050036
Ideal chemistry: Ca_3_Al_2_(SiO_4_)_3_
Locality: Wah Wah Mountains, Utah, USA
Source: Eugene Schlepp
Description: Colorless single crystal in rhyolite matrix
Measured chemistry: (Ca_2.95_Mg_0.05_)_Σ=3_(Al_1.70_Fe^3+^_0.30_)_Σ=2_(Si_1.00_O_4_)_3_; trace amounts of P
Pin_id: L00123
Orientation: Laser parallel to c* (0 0 1). Fiducial mark perpendicular to laser is parallel to a [1 0 0]
Raman shift (cm-1)	intensity
119.919	0
124.092	146.389
128.263	88.85
132.432	102.667
136.599	99.69
140.764	211.024
144.927	100.673
149.088	65.728
153.247	148.513
157.404	35.994
161.559	7.544
165.711	85.084
169.862	70.734
174.011	417.734
178.158	2003.44
182.303	3230.04
186.446	337.464
190.587	45.666
194.726	34.637
198.862	84.418
202.997	54.886
207.13	93.687
211.261	30.931
215.39	71.121
219.517	43.615
223.642	73.467
227.765	139.816
231.886	403.475
236.005	987.534
240.122	1522.01
244.237	2206.85
248.35	1721.9
252.461	477.361
256.57	373.243
260.677	329.594
264.782	516.095
268.885	673.991
272.986	1192.01
277.085	2362.26
281.182	1122.99
285.278	791.187
289.371	827.862
293.462	435.24
297.552	43.07
301.639	201.229
305.724	269.669
309.808	418.258
313.889	627.06
317.969	696.096
322.046	895.369
326.122	1244.54
330.196	1253.2
334.267	1132.66
338.337	1112.37
342.405	1282.39
346.471	1552.98
350.535	2074.01
354.597	2855.43
358.657	4056.06
362.715	8057.45
366.771	16741.9
370.825	24603.9
374.877	37095.4
378.928	24739.9
382.976	11524.8
387.023	5875.73
391.067	2968.87
395.11	2004.96
399.15	1681.45
403.189	1528.32
407.226	1765.46
411.261	3112.83
415.294	2490.45
419.325	958.341
423.354	266.441
427.381	85.248
431.406	23.222
435.43	23.098
439.451	120.587
443.471	189.425
447.488	288.388
451.504	637.513
455.518	746.785
459.53	586.198
463.54	615.124
467.548	694.788
471.554	744.572
475.558	924.468
479.561	474.468
483.561	364.564
487.559	594.858
491.556	875.592
495.551	1110.4
499.544	1133.14
503.535	1451.23
507.524	1238.78
511.511	775.837
515.496	645.101
519.48	643.423
523.461	835.003
527.441	759.103
531.418	943.861
535.394	1792.52
539.368	4354.89
543.34	10718.1
547.311	8502.52
551.279	2568.26
555.245	1337.4
559.21	1380
563.173	679.322
567.133	720.621
571.092	741.723
575.049	917.059
579.005	587.741
582.958	508.694
586.909	568.2
590.859	566.962
594.807	525.029
598.753	561.925
602.697	539.812
606.639	837.465
610.579	914.875
614.518	1262.04
618.454	1298.95
622.389	1435.62
626.322	1542.03
630.253	1268.17
634.182	864.051
638.109	349.658
642.035	174.992
645.958	90.047
649.88	74.812
653.8	29.246
657.718	3.26
661.634	6.729
665.549	30.453
669.461	31.877
673.372	82.111
677.281	14.373
681.188	6.996
685.093	33.795
688.997	102.635
692.898	19.254
696.798	88.096
700.696	124.986
704.592	38.693
708.486	2.1
712.378	87.959
716.269	113.525
720.158	10.348
724.045	73.902
727.93	117.164
731.813	0.039
735.694	7.441
739.574	15.23
743.452	16.676
747.328	38.346
751.202	229.781
755.075	221.012
758.945	162.021
762.814	252.82
766.681	393.414
770.546	493.811
774.409	514.012
778.271	460.842
782.131	533.852
785.989	423.51
789.845	693
793.699	902.324
797.552	901.596
801.402	1070.43
805.251	1899.02
809.098	3352.74
812.944	4548.32
816.787	6150.17
820.629	7580.03
824.469	8616.15
828.307	7819.89
832.144	6697.25
835.978	5904.15
839.811	5151.77
843.642	4867.71
847.472	5025.1
851.299	5436.05
855.125	5562.41
858.949	6183.08
862.771	6839.39
866.591	9404.57
870.41	15870.1
874.227	26168.1
878.042	35377.4
881.855	29986
885.667	18308.6
889.476	11047.1
893.284	7295.14
897.09	5535.23
900.895	4355.75
904.698	3496.69
908.499	2717.81
912.298	2179.34
916.095	1860.87
919.891	1643.07
923.685	1655.05
927.477	1257.25
931.267	1079.69
935.056	922.379
938.843	1005.54
942.628	1098.72
946.411	1499.4
950.193	1133.09
953.973	1027.31
957.751	577.09
961.527	519.705
965.302	281.801
969.075	527.328
972.846	844.824
976.615	1040.82
980.383	1097.31
984.149	1489.82
987.913	1617.43
991.675	1835.52
995.436	1844.11
999.195	1913.28
1002.95	2292.92
1006.71	2223.09
1010.46	1593.78
1014.21	1075.03
1017.96	796.939
1021.71	639.268
1025.46	422.066
1029.2	5.408
1032.95	148.941
1036.69	192.684
1040.43	376.744
1044.17	431.09
1047.9	176.355
1051.64	362.332
1055.37	117.699
1059.1	203.152
1062.83	308.85
1066.56	25.211
1070.29	330.928
1074.01	237.373
1077.73	193.957
1081.46	151.842
1085.17	11.045
1088.89	86.283
1092.61	353.83
1096.32	271.436
1100.04	99.029
1103.75	56.561
1107.46	185.992
1111.16	208.266
1114.87	211.229
1118.57	85.484
1122.28	513.24
1125.98	210.363
1129.67	198.033
1133.37	90.873
1137.07	270.912
1140.76	49.932
1144.45	39.91
1148.14	370.051
1151.83	512.139
1155.52	437.512
1159.21	88.887
1162.89	221.49
1166.57	205.24
1170.25	216.654
1173.93	275.297
1177.61	443.586
1181.28	302.793
1184.96	354.445
1188.63	242.738
1192.3	61.197
1195.97	99.121
1199.64	168.775
1203.3	303.973
1206.97	428.752
1210.63	559.867
1214.29	559.51
1217.95	463.885
1221.6	425.953
1225.26	92.859
1228.91	479.016
1232.57	765.258
1236.21	807.801
1239.86	899.682
1243.51	693.578
1247.16	565.432
1250.8	417.404
1254.44	235.084
1258.08	385.889
1261.72	588.572
1265.36	438.025
1268.99	705.434
1272.63	673.889
1276.26	581.67
1279.89	384.086
1283.52	71.709
1287.15	112.18
1290.77	182.652
1294.4	126.963
1298.02	350.611
1301.64	503.895
1305.26	275.818
1308.88	23.223
1312.49	136.943
1316.11	113.432
1319.72	65.457
1323.33	103.523
1326.94	271.045
1330.55	398.061
1334.15	394.412
1337.76	509.732
1341.36	454.279
1344.96	327.988
1348.56	291.924
1352.16	44.604
1355.75	8.344
1359.35	270.854
1362.94	223.033
1366.53	554.805
1370.12	311.211
1373.71	393.242
1377.3	621.51
1380.88	417.801
1384.46	359.311
1388.05	260.576
1391.63	131.34
1395.2	261.533
1398.78	440.953
1402.36	480.066
1405.93	960.389
1409.5	694.729
1413.07	1033.92
1416.64	837.775
1420.21	497.059
1423.78	111.486
1427.34	269.795
1430.9	345.1
1434.46	395.162
1438.02	399.977
1441.58	903.936
1445.13	1156.49
1448.69	943.814
1452.24	922.086
1455.79	978.764
1459.34	749.209
1462.89	580.754
1466.44	570.725
1469.98	391.543
1473.53	437.15
1477.07	307.791
1480.61	979.48
1484.14	760.814
1487.68	1006.86
1491.22	983.607
1494.75	861.84
1498.28	423.049
1501.81	528.082
1505.34	418.102
1508.87	54.996
1512.4	72.77
1515.92	44.383
1519.44	0
