Measurement: Raman, 514 nm, depolarized, Raman Data Processed
Mineral: Grossular
Rruff sample: R050312
Ideal chemistry: Ca_3_Al_2_(SiO_4_)_3_
Locality: Eden Mills mine, Vermont, USA
Source: Eugene Schlepp
Description: Red crystal
Measured chemistry: Ca_3.00_(Al_1.75_Fe^3+^_0.23_Ti_0.02_)_Σ=2_((Si_0.99_Al_0.01_)_Σ=1_O_4_)_3_
Pin_id: L01494
Orientation: Laser parallel to a* (1 0 0). Fiducial mark perpendicular to laser is parallel to c [0 0 1]
Raman shift (cm-1)	intensity
144.753	0
149.673	34.6509
154.592	105.298
159.508	62.4783
164.421	201.267
169.332	920.64
174.24	2381.16
179.146	3124.06
184.049	1418.02
188.95	425.043
193.848	163.655
198.743	73.2595
203.636	72.5278
208.527	35.9185
213.415	18.9712
218.301	31.1201
223.183	208.568
228.064	596.284
232.942	1367.35
237.817	2199.95
242.69	2637.19
247.56	2006.16
252.428	750.662
257.293	559.922
262.156	749.018
267.016	1151.98
271.874	1880.87
276.729	2323.76
281.581	1508.67
286.431	1021.62
291.279	536.889
296.124	316.38
300.966	287.697
305.806	504.804
310.643	830.043
315.478	966.235
320.31	1210.23
325.14	1648.54
329.967	1765.49
334.792	1579.07
339.614	2001.19
344.433	2847.8
349.25	4178.69
354.065	7273.89
358.876	14815.3
363.686	29069.1
368.493	44148.4
373.297	48533.8
378.099	28961.6
382.898	12409
387.694	6412.09
392.488	3917.84
397.28	3048.33
402.069	3025.48
406.855	3666.16
411.639	4560.46
416.42	2838.2
421.199	900.412
425.975	1252.95
430.749	35.4004
435.52	86.7812
440.289	67.1348
445.055	33.4956
449.818	365.102
454.579	571.634
459.338	518.048
464.094	551.287
468.847	702.313
473.597	673.085
478.346	585.563
483.091	552.706
487.834	849.472
492.575	1268.83
497.313	1462.81
502.048	1429.33
506.781	1452.33
511.511	1068.76
516.239	830.327
520.964	896.204
525.687	1068.28
530.407	1446.08
535.124	3854.09
539.839	9323.61
544.552	14516.7
549.262	8411.96
553.969	2874.81
558.674	1582.36
563.376	1373.66
568.075	1404.3
572.772	1269.16
577.467	1092.49
582.159	1045.34
586.848	1000.44
591.535	858.043
596.219	759.452
600.901	1015.74
605.58	1330.32
610.257	1593.31
614.931	1867.68
619.602	2137.41
624.271	2407.47
628.937	2161.85
633.601	1415.53
638.262	724.481
642.921	348.691
647.577	230.142
652.23	66.8174
656.881	19.616
661.53	49.823
666.175	58.019
670.819	51.0784
675.459	124.1
680.097	96.2744
684.733	73.3694
689.366	15.385
693.996	42.3474
698.624	70.0879
703.25	30.9231
707.872	24.9131
712.492	14.5889
717.11	54.0239
721.725	4.18555
726.338	114.505
730.947	84.1023
735.555	126.993
740.16	242.212
744.762	254.794
749.361	353.76
753.958	547.129
758.553	836.924
763.145	1048.17
767.734	1370.88
772.321	1889.08
776.905	2422.8
781.487	2939.06
786.066	2926.89
790.642	2772.89
795.216	3066.32
799.788	4184.19
804.356	5985.79
808.923	8424.85
813.486	11080
818.047	14057.2
822.606	16628.6
827.162	15654.5
831.715	12870.7
836.266	11003.4
840.814	10230.8
845.36	9739.86
849.903	9780.25
854.444	10171.3
858.982	11423.7
863.517	14857.1
868.05	22615.2
872.58	38562.6
877.108	56670.8
881.633	56254.6
886.155	36469.9
890.675	19734.5
895.193	11568.6
899.707	7654.23
904.22	5641.32
908.729	4470.91
913.236	3560.03
917.741	2787.71
922.243	2233.95
926.742	1989.81
931.239	1581.75
935.733	1566.3
940.225	1823.52
944.714	2030.03
949.2	1962.46
953.684	1586.47
958.166	993.886
962.644	556.134
967.121	730.565
971.594	1164.64
976.065	1725.77
980.534	2256.24
985	2682.49
989.463	2861.37
993.924	3026.91
998.382	3495.9
1002.84	4023.27
1007.29	3951
1011.74	2645.06
1016.19	1298.43
1020.63	660.138
1025.08	387.14
1029.52	264.426
1033.95	178.02
1038.39	160.859
1042.82	89.9712
1047.25	15.3062
1051.68	9.91455
1056.1	10.7246
1060.53	17.332
1064.95	85.3735
1069.36	61.6919
1073.78	7.7666
1078.19	68.1543
1082.6	100.585
1087.01	6.53076
1091.41	71.7036
1095.81	10.7656
1100.21	55.4409
1104.61	31.9111
1109	3.10107
1113.39	8.48682
1117.78	236.457
1122.16	501.205
1126.55	365.751
1130.93	224.113
1135.31	226.232
1139.68	344.098
1144.06	327.705
1148.43	456.252
1152.8	294.319
1157.16	353.664
1161.52	457.451
1165.88	358.959
1170.24	386.622
1174.6	309.329
1178.95	363.278
1183.3	278.759
1187.65	247.566
1191.99	246.587
1196.33	213.295
1200.67	240.212
1205.01	235.335
1209.35	330.112
1213.68	186.944
1218.01	289.489
1222.33	253.336
1226.66	336.265
1230.98	204.167
1235.3	268.704
1239.62	342.159
1243.93	330.606
1248.24	293.149
1252.55	360.571
1256.86	334.028
1261.16	350.282
1265.46	159.92
1269.76	221.631
1274.05	109.629
1278.35	2.38769
1282.64	106.191
1286.93	75.5283
1291.21	87.5859
1295.49	62.3369
1299.78	24.1401
1304.05	104.057
1308.33	18.0171
1312.6	47.5928
1316.87	84.918
1321.14	113.97
1325.4	9.84717
1329.67	79.8052
1333.93	178.75
1338.18	44.7769
1342.44	81.9268
1346.69	39.019
1350.94	3.80762
1355.19	87.5337
1359.43	99.833
1363.67	12.353
1367.91	0.660645
1372.15	83.1377
1376.38	52.9072
1380.62	70.3872
1384.84	8.94141
1389.07	99.4062
1393.29	23.771
1397.52	33.1006
1401.73	43.3359
1405.95	91.6856
1410.16	175.995
1414.37	150.274
1418.58	100.947
1422.79	162.424
1426.99	233.548
1431.19	101.837
1435.39	126.039
1439.59	215.636
1443.78	255.555
1447.97	274.942
1452.16	191.237
1456.34	230.433
1460.52	292.677
1464.7	341.096
1468.88	179.162
1473.06	248.646
1477.23	149.269
1481.4	172.203
1485.57	145.752
1489.73	181.82
1493.89	121.888
1498.05	113.988
1502.21	47.7612
1506.36	118.861
1510.52	109.636
1514.66	218.406
1518.81	33.3076
1522.95	119.718
1527.1	31.6328
1531.23	34.9541
1535.37	90.3657
1539.51	78.8003
1543.64	23.2349
1547.77	3.85254
1551.89	146.699
1556.02	272.278
1560.14	52.8096
1564.25	3.3794
