Measurement: Raman, 514 nm, depolarized, Raman Data Processed
Mineral: Grossular
Rruff sample: R060452
Ideal chemistry: Ca_3_Al_2_(SiO_4_)_3_
Locality: unknown
Source: Gemological Institute of America
Description: Yellowish-brown colored fragment
Measured chemistry: (Ca_2.94_Mn_0.03_Mg_0.03_)_Σ=3_(Al_1.91_Fe^3+^_0.06_Ti_0.03_)_Σ=2_((Si_0.99_Al_0.01_)_Σ=1_O_4_)_3_
Pin_id: L01823
Orientation: Laser parallel to a* (1 0 0). Fiducial mark perpendicular to laser is parallel to c [0 0 1]
Raman shift (cm-1)	intensity
119.772	0
123.485	30.7471
127.196	25.3801
130.906	1.65454
134.615	46.4675
138.321	5.13159
142.026	20.4856
145.729	0.181396
149.431	23.1682
153.131	28.521
156.829	13.96
160.526	34.509
164.221	66.2878
167.914	129.247
171.606	320.067
175.296	368.637
178.984	991.487
182.671	1139.57
186.356	381.834
190.04	138.264
193.722	36.8318
197.402	29.8345
201.08	49.1326
204.757	29.1221
208.433	33.9702
212.106	71.259
215.778	83.8965
219.449	14.9678
223.118	107.217
226.785	71.4214
230.45	214.618
234.114	384.82
237.777	645.045
241.437	785.221
245.096	891.386
248.754	892.54
252.41	393.689
256.064	191.834
259.716	155.979
263.367	141.126
267.017	192.081
270.664	337.41
274.31	648.95
277.955	1007.48
281.598	702.232
285.239	251.096
288.879	46.6738
292.517	145.238
296.153	31.2002
299.788	16.6011
303.422	34.9653
307.053	90.707
310.683	33.5581
314.312	186.545
317.939	223.582
321.564	233.775
325.188	265.859
328.81	401.424
332.43	351.78
336.049	314.049
339.666	284.348
343.282	376.789
346.896	583.061
350.509	745.16
354.12	977.448
357.729	1491.85
361.337	2553.4
364.943	4795.24
368.548	8213.45
372.151	11513.7
375.753	13411
379.352	7807.19
382.951	3484.42
386.548	1770.67
390.143	1103.94
393.736	710.229
397.328	532.525
400.919	674.85
404.508	527.282
408.095	537.747
411.681	745.239
415.265	1421.84
418.848	1061.51
422.429	507.196
426.008	187.955
429.586	101.766
433.163	15.4119
436.737	25.6616
440.311	28.0908
443.882	27.8777
447.453	3.3396
451.021	85.3535
454.588	23.2949
458.154	66.229
461.718	33.1321
465.28	32.8813
468.841	146.555
472.4	147.135
475.958	153.641
479.514	171.415
483.069	146.485
486.622	91.7481
490.174	3.12158
493.724	112.835
497.272	147.639
500.819	113.276
504.365	324.73
507.909	550.001
511.451	553.148
514.992	314.387
518.531	245.271
522.069	277.183
525.605	299.5
529.14	325.152
532.673	311.538
536.205	340.769
539.735	743.612
543.264	1601.43
546.791	3489.91
550.317	4188.35
553.841	2141.99
557.363	757.865
560.884	496.861
564.404	416.34
567.922	387.425
571.438	341.422
574.953	325.846
578.467	358.527
581.979	394.002
585.489	370.887
588.998	375.841
592.505	467.147
596.011	337.844
599.516	295.65
603.018	336.147
606.52	324.758
610.02	360.062
613.518	309.417
617.015	440.837
620.51	591.244
624.004	802.096
627.497	992.789
630.988	839.777
634.477	530.123
637.965	401.31
641.451	512.341
644.936	393.992
648.42	417.175
651.902	386.923
655.382	292.497
658.861	168.315
662.339	136.657
665.815	90.5049
669.289	45.8218
672.762	75.583
676.234	19.8174
679.704	1.65576
683.172	38.5278
686.639	17.9463
690.105	20.2373
693.569	126.981
697.032	24.54
700.493	8.49414
703.953	46.1372
707.411	17.5107
710.868	69.4707
714.323	25.8706
717.777	9.66943
721.23	31.9463
724.681	7.68408
728.13	23.8628
731.578	48.419
735.024	0.644043
738.47	68.5796
741.913	88.1397
745.355	49.1377
748.796	43.4898
752.235	58.2212
755.673	108.314
759.109	94.7461
762.544	161.605
765.978	166.923
769.41	383.742
772.84	455.15
776.269	382.181
779.697	433.841
783.123	480.202
786.548	566.586
789.971	406.802
793.393	447.519
796.813	490.364
800.232	569.107
803.65	713.961
807.066	1001.72
810.48	1337.8
813.893	1688.55
817.305	2134.53
820.715	2984.06
824.124	3564.31
827.532	3427.26
830.938	2610.69
834.342	2110.57
837.745	1826.05
841.147	1960.55
844.547	2049.49
847.946	2306.78
851.344	2362.24
854.74	2441.49
858.134	2646.3
861.527	3099.55
864.919	3876.58
868.309	5458.88
871.698	8615.85
875.086	13745.3
878.472	19739.7
881.856	20662.7
885.239	14866.3
888.621	9251.3
892.002	5854.54
895.381	3708.9
898.758	2510.28
902.134	1687.96
905.509	1309.48
908.882	1000.86
912.254	917.602
915.625	653.188
918.994	684.757
922.361	363.868
925.728	544.582
929.093	465.534
932.456	340.067
935.818	422.951
939.179	228.773
942.538	335.32
945.896	204.243
949.252	270.244
952.607	172.348
955.961	147.203
959.313	52.0352
962.664	40.3115
966.014	68.4121
969.362	16.4941
972.709	94.4697
976.054	107.975
979.398	228.914
982.74	230.016
986.082	286.723
989.421	163.721
992.76	456.517
996.097	566.401
999.432	886.971
1002.77	1147.53
1006.1	995.252
1009.43	1039.11
1012.76	577.018
1016.09	467.834
1019.42	435.509
1022.74	242.034
1026.07	167.455
1029.39	135.735
1032.71	76.6543
1036.03	38.3008
1039.35	75.2461
1042.67	40.0898
1045.99	87.1807
1049.3	38.5469
1052.62	43.0898
1055.93	58.9355
1059.24	15.8848
1062.55	128.689
1065.86	109.951
1069.16	93.21
1072.47	10.8115
1075.77	80.1231
1079.08	215.182
1082.38	280.937
1085.68	77.0781
1088.97	210.408
1092.27	127.106
1095.57	234.239
1098.86	185.074
1102.16	150.281
1105.45	185.656
1108.74	239.277
1112.03	342.22
1115.32	307.834
1118.6	387.119
1121.89	298.394
1125.17	331.886
1128.45	71.457
1131.73	151.226
1135.02	190.251
1138.29	261.438
1141.57	339.937
1144.85	337.775
1148.12	217.453
1151.39	211.203
1154.67	188.631
1157.94	294.576
1161.2	343.88
1164.47	172.401
1167.74	155.344
1171.01	260.387
1174.27	83.3008
1177.53	268.736
1180.79	263.691
1184.05	177.506
1187.31	224.82
