Measurement: Raman, 514 nm, ccw, Raman Data Processed
Mineral: Grossular
Rruff sample: R070551
Ideal chemistry: Ca_3_Al_2_(SiO_4_)_3_
Locality: Mali
Source: www.multicolour.com
Description: Green gem fragments
Measured chemistry: (Ca_2.95_Mg_0.04_Mn_0.01_)_Σ=3_(Al_1.63_Fe^3+^_0.37_)_Σ=2_(Si_1.00_O_4_)_3_
Pin_id: L01189
Orientation: Laser parallel to a* (1 0 0). Fiducial mark perpendicular to laser is parallel to c [0 0 1]
Raman shift (cm-1)	intensity
63.489	0
68.455	194.737
73.419	481.339
78.38	573.095
83.338	113.829
88.294	132.858
93.246	80.7158
98.196	780.104
103.143	1889.59
108.088	3255.82
113.029	3991.32
117.968	4342.27
122.904	4450.03
127.838	4203.21
132.768	4187.24
137.696	4042.34
142.621	3890.42
147.543	3707.18
152.463	3547.58
157.379	3433.74
162.293	3332.27
167.205	3603.6
172.113	5024.98
177.019	9182.61
181.922	15391.5
186.822	7389.76
191.72	3528.6
196.614	2781.07
201.506	2535.19
206.395	2447.94
211.282	2338.51
216.166	2261.81
221.047	2251.28
225.925	2178.59
230.8	2820.11
235.673	3894.89
240.543	4704.11
245.411	4772.05
250.275	3832.5
255.137	2739.14
259.996	2616.72
264.853	2995.08
269.706	3428.03
274.557	3980.41
279.405	4482.01
284.251	4159.11
289.094	3705.64
293.934	2796.93
298.771	2101.41
303.606	2168.4
308.438	2668.27
313.267	3153.81
318.093	3123.92
322.917	3599.52
327.738	4630.44
332.556	4294.48
337.372	4301.57
342.185	5010.6
346.995	6398.5
351.802	8995.16
356.607	15720.5
361.409	34016.2
366.209	69933.4
371.005	100352
375.799	115814
380.591	85411.5
385.379	35231.6
390.165	15162.5
394.948	8049.98
399.729	5319.82
404.506	5573.04
409.282	8337.28
414.054	9854.34
418.824	4064
423.591	702.305
428.355	498.287
433.117	650.597
437.876	710.023
442.632	431.048
447.386	416.66
452.137	1367.37
456.885	1805.95
461.63	1666.21
466.373	1774.01
471.114	1650.18
475.851	1470.63
480.586	907.227
485.318	1096.87
490.048	2277.43
494.775	3690.81
499.499	3937.08
504.22	3096.57
508.939	2230.4
513.655	1390.61
518.369	1194.81
523.08	1299.53
527.788	2150.41
532.494	4286.34
537.197	11738.8
541.897	26635.9
546.594	31199.2
551.289	11364.5
555.982	3393.15
560.671	1820.34
565.358	1686.17
570.043	1800.39
574.724	1610.65
579.403	1542.38
584.08	1510.57
588.754	1377.09
593.425	1347.67
598.093	1400.09
602.759	2289.41
607.422	3252.85
612.083	3909.19
616.741	4479.52
621.396	5089.85
626.049	5346.11
630.699	4223.21
635.346	2327.06
639.991	946.594
644.633	503.463
649.273	97.3809
653.91	19.9111
658.544	244.065
663.175	314.483
667.804	165.88
672.431	99.8027
677.055	72.0488
681.676	255.68
686.294	76.9805
690.91	35.3125
695.524	210.527
700.134	191.675
704.742	92.1807
709.348	55.9141
713.951	248.11
718.551	21.9629
723.149	182.777
727.744	282.755
732.336	311.519
736.926	411.216
741.513	507.013
746.098	559.355
750.68	741.196
755.259	693.688
759.836	934.487
764.41	1170.62
768.982	1729.13
773.551	2011.06
778.117	1940.45
782.681	1818.34
787.243	2011.75
791.801	2186.03
796.357	3003.39
800.911	4267.5
805.462	7329.63
810.01	11562.8
814.556	16244
819.099	21096.1
823.64	24220.3
828.178	23802.7
832.713	21184
837.246	18923.3
841.776	17688.1
846.304	17330.9
850.829	17403.9
855.352	17918.5
859.872	20104.6
864.389	27075.6
868.904	42532.1
873.416	71823
877.926	100919
882.433	94816.4
886.938	57989.2
891.44	32001.4
895.939	19972.1
900.436	14459.2
904.93	11363.8
909.422	8932.14
913.911	7039.7
918.398	5368.77
922.882	4471.21
927.364	3941.98
931.843	3401.87
936.319	3385.94
940.793	4039.93
945.265	4608.75
949.733	4233.12
954.2	3045.5
958.663	2060.73
963.125	1650.65
967.583	1749.24
972.039	2658.69
976.493	3942.32
980.944	4662.25
985.392	5481.18
989.838	6123.62
994.282	6001.96
998.723	6768.11
1003.16	7651.01
1007.6	7082.57
1012.03	4508.73
1016.46	2279.43
1020.89	1256.66
1025.32	827.399
1029.74	529.643
1034.16	450.417
1038.58	63.2617
1042.99	24.5469
1047.41	162.538
1051.82	118.98
1056.22	18.2998
1060.63	300.845
1065.03	149.342
1069.43	202.398
1073.83	44.8193
1078.23	134.246
1082.62	4.1875
1087.01	15.7852
1091.4	61.4961
1095.78	140.743
1100.17	67.2041
1104.55	45.5264
1108.92	77.0019
1113.3	130.257
1117.67	169.105
1122.04	342.739
1126.41	393.143
1130.78	415.295
1135.14	575.176
1139.5	792.766
1143.86	763.047
1148.21	796.006
1152.57	905.628
1156.92	899.053
1161.27	733.843
1165.61	721.099
1169.95	657.294
1174.3	515.425
1178.63	600.474
1182.97	437.109
1187.3	335.284
1191.63	476.049
1195.96	389.477
1200.29	278.427
1204.61	650.463
1208.93	669.89
1213.25	541.523
1217.56	657.412
1221.88	579.374
1226.19	609.52
1230.5	568.952
1234.8	523.351
1239.11	764.405
1243.41	667.795
1247.7	715.007
1252	745.329
1256.29	547.4
1260.59	593.227
1264.87	493.812
1269.16	501.166
1273.44	319.293
1277.72	463.259
1282	55.0185
1286.28	42.5557
1290.55	318.857
1294.83	94.8135
1299.09	269.466
1303.36	25.9707
1307.62	11.6602
1311.89	210.5
1316.14	103.43
1320.4	168.642
1324.66	29.2422
1328.91	78.9394
1333.16	113.952
1337.4	60.876
1341.65	180.957
1345.89	27.084
1350.13	306.193
1354.37	204.531
1358.6	200.147
1362.83	149.066
1367.06	239.19
1371.29	269.357
1375.52	231.592
1379.74	300.82
1383.96	227.055
1388.18	218.31
1392.39	238.598
1396.61	162.94
1400.82	339.504
1405.02	328.018
1409.23	315.732
1413.43	394.205
1417.63	139.373
1421.83	428.725
1426.03	254.951
1430.22	605.064
1434.41	448.441
1438.6	483.705
1442.79	857.654
1446.97	332.225
1451.15	576.881
1455.33	414.713
1459.51	641.924
1463.68	614.32
1467.85	311.586
1472.02	483.941
1476.19	305.352
1480.35	358.812
1484.52	345.324
1488.68	168.893
1492.83	274.418
1496.99	245.945
1501.14	176.754
1505.29	126.908
1509.44	311.236
1513.58	202.215
1517.73	129.697
1521.87	40.3848
1526.01	272.762
1530.14	212.701
1534.28	318.344
1538.41	84.8926
1542.53	214.602
1546.66	94.7461
1550.78	177.617
1554.91	374.469
1559.03	11.127
1563.14	236.631
1567.26	115.719
1571.37	343.727
1575.48	326.031
