Measurement: Raman, 514 nm, depolarized, Raman Data Processed
Mineral: Grossular
Rruff sample: R060499
Ideal chemistry: Ca_3_Al_2_(SiO_4_)_3_
Locality: Lake Jaco, Chihuahua, Mexico
Source: Michael Scott
Description: Tan colored single dodecahedral crystal
Measured chemistry: (Ca_2.90_Mg_0.10_)_Σ=3_(Al_1.78_Fe^3+^_0.19_Ti_0.03_)_Σ=2_(Si_1.00_O_4_)_3_
Pin_id: L01514
Orientation: Laser parallel to -a* (-1 0 0). Fiducial mark perpendicular to laser is parallel to -c [0 0 -1]
Raman shift (cm-1)	intensity
125.959	0
130.906	15.8728
135.85	37.9749
140.791	118.54
145.729	11.346
150.664	31.0015
155.597	99.0654
160.526	85.7629
165.452	228.787
170.376	631.586
175.296	1552.22
180.213	5153.52
185.128	1181.59
190.04	155.174
194.949	126.132
199.854	142.378
204.757	117.266
209.657	88.5967
214.555	63.9919
219.449	39.5513
224.34	162.633
229.229	483.619
234.114	1504.48
238.997	2896.25
243.877	3355.77
248.754	2713.09
253.628	1077.39
258.499	749.738
263.367	908.229
268.233	1428.87
273.095	2426.53
277.955	3645.97
282.812	1930.74
287.666	1408.3
292.517	846.871
297.365	224.026
302.211	159.456
307.053	486.078
311.893	773.489
316.73	1138.18
321.564	1338.71
326.395	2082.71
331.224	1942.29
336.049	1573.41
340.872	1958.12
345.692	2591.64
350.509	3104.28
355.323	5036.05
360.135	9818.05
364.943	21069.5
369.749	33532.4
374.552	47632.8
379.352	31052.1
384.15	13742.4
388.944	6958.69
393.736	4250.8
398.525	3287.34
403.312	3040.29
408.095	3574.59
412.876	4744.29
417.654	2444.72
422.429	698.032
427.201	98.9253
431.971	58.8408
436.737	102.411
441.501	82.7222
446.263	116.097
451.021	614.032
455.777	770.938
460.53	847.734
465.28	843.38
470.028	875.836
474.772	1100.06
479.514	1080
484.254	945.628
488.99	1096.9
493.724	1488.77
498.455	1693.23
503.183	1562.28
507.909	1357.84
512.632	1016.99
517.352	817.363
522.069	951.096
526.784	1147.57
531.496	1508.45
536.205	3485.46
540.912	8989.92
545.615	15670.3
550.317	6449.72
555.015	2353.14
559.711	1799.65
564.404	1843.4
569.094	1683.42
573.782	1555.72
578.467	1227.11
583.149	993.098
587.828	928.245
592.505	715.816
597.179	733.084
601.851	1073.73
606.52	1733.79
611.186	1870.05
615.85	2228.68
620.51	2584.59
625.169	3141.77
629.824	3085.19
634.477	2317.85
639.127	1205.72
643.775	434.784
648.42	160.038
653.062	45.6201
657.702	131.886
662.339	92.3025
666.973	77.0679
671.605	97.2468
676.234	22.5989
680.86	40.1204
685.484	44.2087
690.105	69.0129
694.724	72.0417
699.34	117.236
703.953	42.4563
708.564	20.9416
713.172	14.4229
717.777	131.115
722.38	49.3589
726.98	17.7275
731.578	198.044
736.173	246.21
740.765	626.838
745.355	1094.96
749.943	1474.59
754.527	1667.77
759.109	2041.53
763.689	3026.9
768.266	4696.91
772.84	5789.59
777.412	5194.97
781.981	3675.09
786.548	2932.05
791.112	2627.36
795.673	2753.85
800.232	3071.41
804.788	3765.45
809.342	4992.57
813.893	6761.96
818.442	9222.82
822.988	10175.6
827.532	9089.42
832.073	7268.09
836.611	6441.48
841.147	5927.61
845.68	6136.58
850.211	6372.85
854.74	6911.13
859.265	8380.62
863.789	11747.1
868.309	19475.3
872.827	32757.1
877.343	43411.9
881.856	35606.4
886.367	20513.7
890.875	11572.8
895.381	7381.73
899.884	5358.44
904.384	4605.98
908.882	3883.36
913.378	4010.6
917.871	4131.61
922.361	4207.18
926.849	4241.54
931.335	4031.1
935.818	4184.71
940.299	4193.32
944.777	3877.39
949.252	3443.5
953.726	2623.03
958.196	1968.45
962.664	1382.32
967.13	1501.81
971.593	2474.27
976.054	3615.02
980.512	4228.42
984.968	4311.52
989.421	4300.87
993.872	4074.22
998.321	4225.27
1002.77	4164.86
1007.21	3769.89
1011.65	2465.3
1016.09	1510.09
1020.53	1198.18
1024.96	1148.73
1029.39	1383.53
1033.82	1167.72
1038.25	546.223
1042.67	237
1047.09	2.00488
1051.51	4.15088
1055.93	19.7918
1060.34	85.7366
1064.75	59.8167
1069.16	118.62
1073.57	96.1379
1077.97	100.322
1082.38	21.8777
1086.78	8.54102
1091.17	75.7561
1095.57	3.81592
1099.96	56.3945
1104.35	23.6291
1108.74	54.0344
1113.12	3.5415
1117.51	182.266
1121.89	278.684
1126.27	283.717
1130.64	227.362
1135.02	395.575
1139.39	474.337
1143.76	497.739
1148.12	415.08
1152.48	480.489
1156.85	418.9
1161.2	310.287
1165.56	370.642
1169.92	460.158
1174.27	485.015
1178.62	430.275
1182.96	332.938
1187.31	239.825
1191.65	237.047
1195.99	257.364
1200.33	265.618
1204.67	269.043
1209	196.756
1213.33	182.49
1217.66	219.387
1221.98	222.792
1226.31	166.557
1230.63	194.509
1234.95	245.82
1239.27	181.933
1243.58	220.273
1247.89	241.065
1252.2	228.685
1256.51	239.582
1260.81	199.578
1265.12	160.03
1269.42	155.188
1273.72	40.1138
1278.01	10.5828
1282.31	9.69995
1286.6	33.5298
1290.88	62.8083
1295.17	107.071
1299.46	38.6038
1303.74	19.7214
1308.02	84.5147
1312.3	94.0625
1316.57	23.3857
1320.84	182.586
1325.11	106.714
1329.38	59.106
1333.65	122.93
1337.91	90.8721
1342.17	150.921
1346.43	115.388
1350.69	93.9126
1354.94	15.2124
1359.2	9.7749
1363.45	21.8857
1367.69	152.115
1371.94	1.48779
1376.18	55.9155
1380.42	7.28662
1384.66	49.5825
1388.9	11.1836
1393.13	46.1958
1397.37	63.0996
1401.6	111.835
1405.82	99.7896
1410.05	149.942
1414.27	1.0791
1418.49	70.8062
1422.71	95.8945
1426.93	38.5674
1431.14	146.026
1435.35	157.765
1439.56	193.132
1443.77	247.992
1447.97	167.969
1452.18	235.433
1456.38	301.063
1460.58	232.765
1464.77	254.642
1468.97	320.534
1473.16	285.892
1477.35	202.616
1481.54	189.799
1485.72	238.556
1489.9	158.086
1494.08	201.31
1498.26	126.018
1502.44	57.0581
1506.61	143.236
1510.79	112.468
1514.95	27.7744
1519.12	31.7031
1523.29	67.5356
1527.45	49.2876
1531.61	89.6211
1535.77	105.496
1539.93	14.8701
1544.08	17.8462
1548.23	62.1699
1552.38	122.678
1556.53	66.8008
1560.68	5.34668
