Measurement: Raman, 514 nm, depolarized, Raman Data Processed
Mineral: Grossular
Rruff sample: R060443
Ideal chemistry: Ca_3_Al_2_(SiO_4_)_3_
Locality: unknown
Source: Gemological Institute of America
Description: Yellowish tan colored single crystal
Measured chemistry: (Ca_2.92_Mn_0.03_Mg_0.03_Fe^2+^_0.02_)_Σ=3_(Al_1.86_Fe^3+^_0.14_)_Σ=2_(Si_1.00_O_4_)_3_; trace amounts of Ti
Pin_id: L01228
Orientation: Laser parallel to a* (1 0 0). Fiducial mark perpendicular to laser is parallel to c [0 0 1]
Raman shift (cm-1)	intensity
114.818	0
119.772	31.9936
124.722	99.6509
129.67	7.21899
134.615	45.9531
139.556	50.2273
144.495	16.4092
149.431	15.2573
154.364	29.5859
159.294	24.3625
164.221	136.357
169.145	309.21
174.066	1164.16
178.984	3251.17
183.9	2232.13
188.812	527.948
193.722	104.692
198.628	116.986
203.532	7.20166
208.433	40.1226
213.331	12.5647
218.226	53.6565
223.118	36.8921
228.007	321.169
232.893	812.504
237.777	1792.82
242.657	2046.15
247.535	2596.57
252.41	865.085
257.281	371.749
262.15	493.182
267.017	725.187
271.88	1326.6
276.74	2330.81
281.598	1668.66
286.453	847.38
291.304	605.919
296.153	267.791
301	11.8916
305.843	154.357
310.683	409.054
315.521	662.619
320.356	636.074
325.188	997.391
330.017	1188.54
334.843	988.502
339.666	930.252
344.487	1484.79
349.305	1931.1
354.12	3033.93
358.932	6243.71
363.741	13376.2
368.548	27592.5
373.352	40154.4
378.153	33405.3
382.951	12498.1
387.746	5038.06
392.539	2558.99
397.328	1663.94
402.115	1356.59
406.899	1815.89
411.681	2872.04
416.459	3282.09
421.235	1043.02
426.008	207.9
430.779	30.4861
435.546	119.274
440.311	43.3616
445.073	47.387
449.832	168.519
454.588	442.124
459.342	501.375
464.093	492.125
468.841	513.346
473.587	649.008
478.329	761.089
483.069	482.568
487.806	497.423
492.541	653.633
497.272	1077.2
502.001	1184.1
506.728	1346.31
511.451	952.78
516.172	675.448
520.89	674.965
525.605	885.16
530.318	681.672
535.028	1245.75
539.735	3859.73
544.44	9346.97
549.141	11345.8
553.841	3510.81
558.537	1096.27
563.231	607.674
567.922	583.119
572.61	644.853
577.296	561.883
581.979	581.086
586.659	644.162
591.336	622.725
596.011	376.821
600.683	444.538
605.353	659.216
610.02	809.108
614.684	997.602
619.345	1229.72
624.004	1493.46
628.661	1764.81
633.314	1198.73
637.965	544.242
642.613	281.312
647.259	55.9363
651.902	87.0999
656.542	31.333
661.18	63.6826
665.815	51.9522
670.447	63.1863
675.077	67.3166
679.704	43.3462
684.328	41.4138
688.95	19.8267
693.569	15.4204
698.186	17.1943
702.8	81.8845
707.411	34.0772
712.02	2.42529
716.626	37.823
721.23	4.79785
725.83	82.4243
730.429	50.8674
735.024	19.5029
739.618	83.5295
744.208	119.124
748.796	149.307
753.381	198.095
757.964	212.502
762.544	321.537
767.122	390.21
771.697	800.534
776.269	970.519
780.839	686.178
785.406	643.55
789.971	582.644
794.533	757.305
799.093	895.42
803.65	1411.8
808.204	2381.61
812.756	3845.43
817.305	5891.59
821.852	8725.3
826.396	9394.73
830.938	7209.72
835.477	5931.74
840.013	5223.83
844.547	5194.17
849.079	5429.22
853.608	5892.38
858.134	6476.26
862.658	8399.48
867.179	13011.8
871.698	23628.6
876.214	41419
880.728	48583.7
885.239	32210
889.748	16406.4
894.254	8555.99
898.758	5370.74
903.259	3987.66
907.758	3138.74
912.254	2500.01
916.748	2022.55
921.239	1612.24
925.728	1466.77
930.214	1193.46
934.698	986.284
939.179	1071.47
943.657	1220.5
948.134	1180.3
952.607	960.543
957.079	525.539
961.548	291.647
966.014	299.884
970.478	516.195
974.939	895.641
979.398	1215.01
983.854	1503.68
988.308	1734.03
992.76	1851.72
997.209	2028.26
1001.65	2513.31
1006.1	2878.5
1010.54	2339.47
1014.98	1229.38
1019.42	729.308
1023.85	308.283
1028.28	240.259
1032.71	238.276
1037.14	122.296
1041.56	76.3169
1045.99	67.3188
1050.41	38.6948
1054.82	3.21387
1059.24	8.94531
1063.65	35.666
1068.06	127.776
1072.47	49.8145
1076.87	0.084961
1081.28	16.6484
1085.68	211.106
1090.08	140.362
1094.47	71.3945
1098.86	53.6641
1103.25	11.7041
1107.64	52.813
1112.03	40.7153
1116.41	28.0737
1120.79	46.9551
1125.17	125.457
1129.55	115.626
1133.92	163.472
1138.29	143.193
1142.66	260.517
1147.03	369.678
1151.39	387.639
1155.76	378.976
1160.12	261.362
1164.47	273.295
1168.83	369.957
1173.18	294.362
1177.53	249.984
1181.88	189.657
1186.22	248.435
1190.57	107.61
1194.91	170.146
1199.25	122.934
1203.58	168.697
1207.92	126.367
1212.25	131.932
1216.58	149.822
1220.9	135.148
1225.23	229.886
1229.55	189.178
1233.87	122.308
1238.19	273.192
1242.5	215.348
1246.81	286.389
1251.12	200.042
1255.43	232.608
1259.74	182.439
1264.04	172.249
1268.34	176.711
1272.64	195.884
1276.94	41.7241
1281.23	100.542
1285.52	77.4595
1289.81	33.6455
1294.1	48.499
1298.39	28.9834
1302.67	77.1284
1306.95	34.0786
1311.23	91.9443
1315.5	63.5791
1319.78	46.8477
1324.05	102.96
1328.32	48.7344
1332.58	14.2529
1336.85	161.585
1341.11	156.305
1345.37	36.9175
1349.63	147.813
1353.88	58.3374
1358.13	76.522
1362.38	139.118
1366.63	143.575
1370.88	16.418
1375.12	57.9565
1379.36	9.57324
1383.6	127.946
1387.84	7.98242
1392.08	3.21777
1396.31	93.3037
1400.54	135.017
1404.77	31.7319
1408.99	111.715
1413.21	116.518
1417.44	168.333
1421.66	95.2031
1425.87	165.025
1430.09	36.6968
1434.3	213.874
1438.51	162.033
1442.72	69.3701
1446.92	122.075
1451.13	148.754
1455.33	263.802
1459.53	286.581
1463.72	178.442
1467.92	170.706
1472.11	91.1787
1476.3	129.19
1480.49	85.8774
1484.67	223.389
1488.86	65.2183
1493.04	165.037
1497.22	124.395
1501.39	136.238
1505.57	47.5903
1509.74	193.523
1513.91	85.2998
1518.08	138.315
1522.25	109.951
1526.41	124.523
1530.57	144.057
1534.73	43.4395
1538.89	126.91
1543.04	74.9219
1547.2	274.382
1551.35	68.0059
1555.49	139.69
1559.64	21.6631
1563.79	0
