Measurement: Raman, 514 nm, ccw, Raman Data Processed
Mineral: Grossular
Rruff sample: R070551
Ideal chemistry: Ca_3_Al_2_(SiO_4_)_3_
Locality: Mali
Source: www.multicolour.com
Description: Green gem fragments
Measured chemistry: (Ca_2.95_Mg_0.04_Mn_0.01_)_Σ=3_(Al_1.63_Fe^3+^_0.37_)_Σ=2_(Si_1.00_O_4_)_3_
Pin_id: L01189
Orientation: Laser parallel to a* (1 0 0). Fiducial mark perpendicular to laser is parallel to c [0 0 1]
Raman shift (cm-1)	intensity
63.489	0
68.455	203.413
73.419	451.923
78.38	648.646
83.338	178.647
88.294	126.526
93.246	11.2356
98.196	542.772
103.143	1517.52
108.088	2814.32
113.029	3494.81
117.968	4053.19
122.904	4108.98
127.838	4111.8
132.768	3958.98
137.696	3913.75
142.621	3825.32
147.543	3705.57
152.463	3535.34
157.379	3352.29
162.293	3243.34
167.205	3331.89
172.113	3988.2
177.019	5772.62
181.922	8592.25
186.822	5386.74
191.72	3418.47
196.614	2982.5
201.506	2811.05
206.395	2495.48
211.282	2518.26
216.166	2482.19
221.047	2534.47
225.925	2755.84
230.8	4224.38
235.673	7139.13
240.543	10782.3
245.411	12957.3
250.275	10522.5
255.137	3986.65
259.996	2573.5
264.853	2733.86
269.706	4087.57
274.557	6934.44
279.405	9791.31
284.251	5678.69
289.094	3857.9
293.934	2413.93
298.771	1303.31
303.606	881.274
308.438	1323.89
313.267	1742.94
318.093	2447.33
322.917	3895.97
327.738	6401.66
332.556	5601.25
337.372	4191.65
342.185	4873.77
346.995	6014.54
351.802	6640.85
356.607	10974.7
361.409	21733.5
366.209	44907.7
371.005	83609.3
375.799	116421
380.591	98595.3
385.379	41595.9
390.165	18140
394.948	9557.31
399.729	6406.94
404.506	5443.42
409.282	5593.6
414.054	5344.51
418.824	2050.99
423.591	36.4736
428.355	618.653
433.117	643.415
437.876	519.518
442.632	205.547
447.386	605.559
452.137	1809.46
456.885	2348
461.63	2249.08
466.373	3057.49
471.114	2686.14
475.851	2809.9
480.586	2156.64
485.318	1893.27
490.048	2826.67
494.775	4451.73
499.499	4882.35
504.22	4767.42
508.939	3934.24
513.655	2857.17
518.369	2524.99
523.08	2189.42
527.788	2842.33
532.494	5366.47
537.197	13047.8
541.897	29366.3
546.594	37237.4
551.289	14550.6
555.982	4875.94
560.671	2796.51
565.358	2492.59
570.043	2294.93
574.724	2206.09
579.403	1669.13
584.08	1599.57
588.754	1279.42
593.425	1067.91
598.093	1261.41
602.759	2091.86
607.422	2989
612.083	3756.27
616.741	4050.95
621.396	5028.65
626.049	5962.3
630.699	4810.81
635.346	2733.12
639.991	1038.13
644.633	412.796
649.273	168.007
653.91	36.5684
658.544	140.908
663.175	264.035
667.804	124.7
672.431	171.647
677.055	335.897
681.676	21.7734
686.294	77.4199
690.91	76.0557
695.524	70.915
700.134	52.4297
704.742	24.3818
709.348	78.8496
713.951	73.0547
718.551	66.2812
723.149	109.107
727.744	285.873
732.336	389.617
736.926	172.477
741.513	503.463
746.098	345.768
750.68	650.385
755.259	645.394
759.836	794.827
764.41	1047.62
768.982	1385.09
773.551	1665
778.117	1746.46
782.681	1941.54
787.243	1884.6
791.801	2372.68
796.357	3198.3
800.911	4558.55
805.462	7243.28
810.01	11825.7
814.556	18880.2
819.099	29095.1
823.64	38664.2
828.178	35224.1
832.713	26819.5
837.246	21267.1
841.776	18212.8
846.304	17277.8
850.829	17095.1
855.352	17588.2
859.872	19739.7
864.389	26471.8
868.904	42132.7
873.416	71027.1
877.926	100831
882.433	94749.6
886.938	57602.3
891.44	30549.7
895.939	18695.5
900.436	13272.9
904.93	10171.9
909.422	8126.54
913.911	6338.89
918.398	5154.08
922.882	4150.69
927.364	3881.64
931.843	3520.73
936.319	3568.01
940.793	4361.73
945.265	4874.32
949.733	4671.32
954.2	3642.96
958.663	2246.05
963.125	1604.88
967.583	1919.3
972.039	2994.71
976.493	4249.52
980.944	5399.44
985.392	6245.75
989.838	6734
994.282	7068.28
998.723	8243.47
1003.16	9766.41
1007.6	9095.05
1012.03	5801.35
1016.46	2958.25
1020.89	1577.73
1025.32	1090.19
1029.74	897.369
1034.16	603.571
1038.58	408.255
1042.99	126.457
1047.41	88.1494
1051.82	103.302
1056.22	74.209
1060.63	128.003
1065.03	86.3731
1069.43	181.912
1073.83	87.0859
1078.23	87.5352
1082.62	14.708
1087.01	12.248
1091.4	2.0293
1095.78	96.8721
1100.17	20.6396
1104.55	11.3779
1108.92	213.164
1113.3	80.0811
1117.67	198.065
1122.04	104.816
1126.41	391.319
1130.78	571.547
1135.14	497.478
1139.5	722.096
1143.86	774.377
1148.21	915.309
1152.57	809.87
1156.92	747.358
1161.27	696.969
1165.61	940.324
1169.95	591.573
1174.3	780.371
1178.63	649.611
1182.97	532.46
1187.3	480.925
1191.63	389.903
1195.96	486.001
1200.29	445.711
1204.61	655.598
1208.93	606.644
1213.25	563.043
1217.56	726.17
1221.88	588.908
1226.19	623.081
1230.5	780.519
1234.8	540.212
1239.11	837.715
1243.41	921.543
1247.7	771.718
1252	921.894
1256.29	764.657
1260.59	619.137
1264.87	615.34
1269.16	553.27
1273.44	314.94
1277.72	399.353
1282	215.523
1286.28	92.4424
1290.55	184.938
1294.83	271.135
1299.09	105.126
1303.36	30.7793
1307.62	114.171
1311.89	202.326
1316.14	144.397
1320.4	62.7881
1324.66	64.2529
1328.91	100.715
1333.16	260.441
1337.4	41.2344
1341.65	9.27148
1345.89	54.252
1350.13	11.8584
1354.37	129.068
1358.6	70.4004
1362.83	58.0498
1367.06	180.134
1371.29	117.457
1375.52	23.7852
1379.74	221.098
1383.96	211.411
1388.18	211.735
1392.39	177.08
1396.61	252.462
1400.82	272.901
1405.02	239.426
1409.23	329.058
1413.43	345.51
1417.63	300.594
1421.83	413.699
1426.03	299.701
1430.22	405.62
1434.41	440.615
1438.6	549.43
1442.79	583.243
1446.97	512.359
1451.15	742.041
1455.33	708.633
1459.51	499.353
1463.68	526.42
1467.85	238.297
1472.02	557.646
1476.19	318.18
1480.35	280.588
1484.52	380.223
1488.68	143.918
1492.83	261.684
1496.99	92.5352
1501.14	219.861
1505.29	146.617
1509.44	240.408
1513.58	241.344
1517.73	223.002
1521.87	239.129
1526.01	136.445
1530.14	194.842
1534.28	81.0352
1538.41	242.217
1542.53	317.623
1546.66	140.535
1550.78	219.428
1554.91	223.742
1559.03	50.0684
1563.14	285.537
1567.26	32.043
1571.37	227.676
1575.48	249.266
