Measurement: Raman, 514 nm, depolarized, Raman Data Processed
Mineral: Grossular
Rruff sample: R040066
Ideal chemistry: Ca_3_Al_2_(SiO_4_)_3_
Locality: Redding, Connecticut, USA
Source: University of Arizona Mineral Museum
Description: Reddish orange coarsely crystalline
Measured chemistry: (Ca_2.90_Fe^2+^_0.08_Mn_0.02_)_Σ=3_(Al_1.87_Fe^3+^_0.13_)_Σ=2_(Si_1.00_O_4_)_3_
Pin_id: M00416
Orientation: Laser parallel to a* (1 0 0). Fiducial mark perpendicular to laser is parallel to b [0 1 0]
Raman shift (cm-1)	intensity
50.85	0
55.054	246.807
59.255	225.204
63.454	222.829
67.652	114.873
71.847	140.984
76.04	194.129
80.232	347.78
84.421	313.751
88.608	118.3
92.793	167.185
96.976	139.486
101.157	163.742
105.336	218.68
109.513	417.181
113.688	384.466
117.861	446.944
122.032	224.864
126.201	197.17
130.367	239.406
134.532	240.609
138.695	221.337
142.856	202.768
147.014	130.901
151.171	77.282
155.325	30.354
159.478	33.944
163.629	3.671
167.777	57.644
171.924	64.902
176.068	767.904
180.211	3074.23
184.351	1847.18
188.49	398.283
192.626	107.219
196.761	38.387
200.893	7.075
205.024	64.618
209.152	115.057
213.279	88.801
217.403	66.613
221.526	24.539
225.646	138.772
229.765	208.933
233.881	617.971
237.996	1360.88
242.108	1705.1
246.219	2421.06
250.328	1784.05
254.434	759.785
258.539	565.163
262.641	590.466
266.742	631.76
270.84	909.944
274.937	1517.06
279.032	2477.75
283.125	1563.81
287.215	1124
291.304	982.787
295.391	683.56
299.476	526.53
303.558	696.496
307.639	608.949
311.718	1024.27
315.795	973.534
319.87	854.971
323.943	886.512
328.014	1305.77
332.083	1428.96
336.15	1075.12
340.215	1080.67
344.279	1429.33
348.34	1887.02
352.399	2100.4
356.457	3016.3
360.512	4928.28
364.565	10011.2
368.617	20146
372.666	30504.2
376.714	39065.1
380.76	20291.3
384.803	8698.76
388.845	4466.4
392.885	2674.01
396.923	1794.67
400.959	1424.16
404.993	1326.37
409.025	1617.24
413.055	3093.82
417.084	3585.16
421.11	1377.91
425.134	546.414
429.157	288.851
433.177	224.682
437.196	179.508
441.213	192.334
445.227	141.167
449.24	228.034
453.251	509.967
457.26	482.17
461.267	630.848
465.272	532.733
469.276	549.004
473.277	551.681
477.276	777.597
481.274	549.792
485.27	452.321
489.263	411.568
493.255	685.108
497.245	1047.7
501.233	1055.79
505.219	1035.57
509.203	1196.07
513.186	837.941
517.166	679.972
521.145	634.25
525.121	891.878
529.096	683.44
533.069	752.008
537.04	1128.59
541.009	2641.21
544.976	8169.29
548.941	11786.4
552.905	4420.85
556.866	1586.61
560.826	719.146
564.784	512.123
568.74	538.312
572.694	562.831
576.646	507.7
580.596	507.073
584.544	535.808
588.491	671.23
592.435	620.451
596.378	353.621
600.319	341.662
604.258	475.624
608.195	660.503
612.131	753.296
616.064	751.999
619.995	931.613
623.925	1190.15
627.853	1454.58
631.779	1160.91
635.703	665.126
639.625	368.224
643.546	208.198
647.464	128.037
651.381	29.718
655.296	97.794
659.209	56.701
663.12	52.013
667.029	72.776
670.937	91.105
674.842	86.038
678.746	46.479
682.648	23.628
686.548	7.299
690.447	53.416
694.343	23.525
698.238	1.003
702.13	22.113
706.021	43.882
709.91	37.68
713.798	52.657
717.683	18.061
721.567	30.179
725.448	92.195
729.328	15.997
733.206	17.423
737.083	100.892
740.957	118.013
744.83	155.949
748.701	128.707
752.57	125.288
756.437	187.696
760.302	166.933
764.166	247.001
768.027	229.908
771.887	281.664
775.745	295.283
779.602	291.751
783.456	363.064
787.309	419.22
791.16	468.238
795.009	529.149
798.856	768.928
802.702	954.194
806.545	1528.18
810.387	2197
814.227	3327.75
818.065	4780.51
821.902	7041.92
825.737	8844.07
829.569	7646.52
833.401	5960.92
837.23	5131.95
841.057	4819.69
844.883	4913.32
848.707	5144.74
852.529	5190.82
856.35	5272.1
860.168	5889.73
863.985	7397.69
867.8	10468.6
871.613	16758.8
875.425	27966.3
879.234	41263.8
883.042	38621.2
886.848	24656.9
890.653	14165.1
894.455	8273.77
898.256	5510.67
902.055	4140.68
905.852	3441.7
909.648	3009.82
913.442	2569.03
917.233	2133.32
921.024	1582.05
924.812	1411.47
928.599	1180.34
932.384	1089.61
936.167	952.08
939.948	973.802
943.728	1082.45
947.506	1241.66
951.282	1091.5
955.056	894.459
958.829	610.08
962.6	453.622
966.369	370.687
970.136	462.427
973.902	637.908
977.666	867.961
981.428	1201.38
985.188	1430.92
988.947	1444.43
992.704	1463.14
996.459	1626.04
1000.21	1896.12
1003.96	2430.36
1007.71	2735.79
1011.46	2057.37
1015.21	1056.17
1018.95	570.188
1022.7	277.401
1026.44	218.789
1030.18	227.271
1033.91	211.828
1037.65	138.547
1041.39	144.281
1045.12	108.25
1048.85	125.16
1052.58	136.333
1056.31	120.458
1060.03	6.492
1063.76	12.584
1067.48	7.313
1071.2	27.199
1074.92	15.099
1078.63	20.997
1082.35	13.137
1086.06	96.326
1089.78	92.511
1093.49	23.328
1097.19	7.3
1100.9	42.345
1104.61	29.451
1108.31	8.969
1112.01	44.402
1115.71	40.591
1119.41	54.376
1123.11	9.502
1126.8	10.303
1130.5	103.114
1134.19	153.127
1137.88	196.994
1141.57	233.885
1145.25	186.634
1148.94	183.74
1152.62	272.118
1156.3	215.949
1159.98	258.167
1163.66	263.105
1167.34	306.78
1171.01	197.91
1174.68	243.046
1178.36	170.138
1182.02	95.457
1185.69	135.97
1189.36	184.614
1193.02	149.523
1196.69	122.463
1200.35	144.987
1204.01	180.833
1207.66	129.277
1211.32	143.322
1214.98	160.957
1218.63	201.464
1222.28	324.772
1225.93	286.794
1229.58	305.012
1233.22	300.945
1236.87	233.974
1240.51	196.457
1244.15	279.967
1247.79	320.698
1251.43	409.96
1255.07	315.116
1258.7	278.965
1262.33	378.842
1265.96	243.933
1269.59	254.947
1273.22	179.564
1276.85	214.059
1280.47	122.222
1284.1	96.422
1287.72	106.418
1291.34	117.15
1294.95	51.632
1298.57	61.012
1302.19	25.93
1305.8	59.231
1309.41	24.122
1313.02	26.246
1316.63	5.847
1320.23	41.808
1323.84	95.241
1327.44	62.386
1331.05	82.388
1334.64	4.186
1338.24	14.396
1341.84	27.909
1345.43	18.155
1349.03	78.677
1352.62	178.452
1356.21	134.095
1359.8	152.587
1363.39	152.96
1366.97	48.27
1370.56	47.002
1374.14	41.064
1377.72	22.841
1381.3	24.598
1384.87	124.494
1388.45	124.412
1392.02	157.527
1395.6	197.764
1399.17	192.958
1402.74	134.497
1406.3	168.724
1409.87	91.262
1413.43	125.157
1417	112.668
1420.56	159.546
1424.12	197.059
1427.67	241.732
1431.23	226.887
1434.79	235.025
1438.34	179.313
1441.89	183.611
1445.44	155.329
1448.99	169.896
1452.54	70.491
1456.08	161.604
1459.62	154.569
1463.17	240.928
1466.71	150.218
1470.24	276.633
1473.78	254.439
1477.32	251.133
1480.85	175.654
1484.38	103.633
1487.91	141.806
1491.44	93.048
1494.97	53.606
1498.5	36.75
1502.02	136.677
1505.54	106.678
1509.07	214.964
1512.59	129.234
1516.1	127.927
1519.62	85.572
