Measurement: Raman, 514 nm, depolarized, Raman Data Processed
Mineral: Grossular
Rruff sample: R060444
Ideal chemistry: Ca_3_Al_2_(SiO_4_)_3_
Locality: Pakistan (?)
Source: Gemological Institute of America
Description: Tan colored crystals coating a surface
Measured chemistry: (Ca_2.98_Mn_0.02_)_Σ=3_(Al_1.84_Fe^3+^_0.13_Ti_0.03_)_Σ=2_((Si_0.99_Al_0.01_)_Σ=1_O_4_)_3_
Pin_id: M00607
Orientation: Laser parallel to a* (1 0 0). Fiducial mark perpendicular to laser is parallel to 0 0 -1
Raman shift (cm-1)	intensity
129	0
133.933	56.0581
138.864	103.504
143.791	16.0332
148.716	124.2
153.638	43.6333
158.558	61.395
163.475	269.493
168.389	434.301
173.3	1173.92
178.209	2645.24
183.115	1454.2
188.018	345.546
192.918	172.08
197.816	116.696
202.711	78.3198
207.604	92.5659
212.494	16.77
217.381	62.6548
222.265	112.284
227.147	280.278
232.026	844.671
236.902	1501.5
241.775	1965.76
246.646	2137.23
251.514	859.148
256.38	302.554
261.243	552.448
266.103	710.841
270.96	1348.77
275.815	1971.23
280.667	1374.61
285.516	524.345
290.363	375.913
295.207	202.211
300.048	60.312
304.887	150.654
309.723	428.722
314.556	631.245
319.387	645.943
324.215	714.079
329.04	926.696
333.862	846.462
338.682	815.269
343.5	1417.8
348.314	1832.48
353.126	2873.28
357.935	5584.95
362.742	11683.3
367.546	22170.9
372.347	30670.9
377.145	22374.1
381.941	8960.67
386.735	4000.59
391.525	2299.89
396.313	1677.66
401.098	1379.94
405.881	1895.97
410.661	2507.69
415.438	3123.18
420.213	1343.29
424.985	329.882
429.754	92.2236
434.521	38.7705
439.285	96.5332
444.046	108.623
448.805	90.2207
453.561	207.071
458.315	261.049
463.065	188.148
467.813	273.343
472.559	339.607
477.302	518.655
482.042	403.269
486.78	257.627
491.515	347.978
496.247	618.481
500.977	730.707
505.704	1105.07
510.428	1049.36
515.15	693.552
519.869	588.26
524.586	788.624
529.3	558.137
534.011	824.324
538.719	2291.62
543.425	5757.53
548.129	9279.62
552.83	4172.06
557.528	1541.35
562.223	1197.78
566.916	916.27
571.607	844.407
576.294	746.258
580.979	753.855
585.662	703.488
590.341	927.244
595.019	644.04
599.693	505.655
604.365	637.893
609.035	819.669
613.701	860.856
618.366	1188.44
623.027	1641.42
627.686	1839.78
632.342	1243.51
636.996	858.616
641.647	828.027
646.296	654.921
650.942	643.115
655.585	371.672
660.226	173.586
664.864	18.8154
669.499	166.217
674.132	48.2393
678.763	7.77734
683.39	111.583
688.015	47.0703
692.638	64.1465
697.258	6.03711
701.875	19.9326
706.49	24.6562
711.102	6.75195
715.712	36.5137
720.319	33.8057
724.923	126.213
729.525	226.811
734.124	237.876
738.721	175.398
743.315	257.37
747.907	569.833
752.496	523.811
757.082	849.315
761.666	1072.76
766.247	1578.97
770.826	1999.57
775.402	1872.15
779.975	1480.84
784.546	1482.32
789.115	1319.76
793.681	1567.3
798.244	1852.79
802.804	2665.95
807.363	3747.6
811.918	5141.4
816.471	6700.22
821.022	9101.94
825.569	9632.64
830.115	7501.45
834.657	5977.55
839.198	5435.29
843.735	5263.1
848.27	5615.24
852.803	5881.54
857.333	6386.58
861.86	7935.25
866.385	11361.1
870.907	19754.6
875.427	34736.6
879.944	45365
884.459	34770.1
888.971	18829.2
893.481	10073.5
897.988	5682.24
902.492	3884.69
906.994	3091.05
911.493	2317.52
915.99	1894.35
920.485	1610.23
924.976	1280.86
929.466	1123.25
933.952	766.6
938.436	755.95
942.918	997.758
947.397	692.269
951.874	639.64
956.348	455.467
960.819	315.844
965.288	125.491
969.755	339.928
974.219	495.937
978.68	757.508
983.139	883.842
987.595	1186.31
992.049	1145.36
996.501	1594.92
1000.95	2312.65
1005.4	2562.96
1009.84	2072.84
1014.28	1033.86
1018.72	381.592
1023.16	332.54
1027.59	86.7793
1032.02	106.001
1036.45	87.4053
1040.88	14.5654
1045.3	151.701
1049.72	121.343
1054.14	63.5928
1058.56	195.057
1062.97	72.3789
1067.38	29.9424
1071.79	43.3115
1076.19	7.35254
1080.6	138.278
1085	222.994
1089.4	133.142
1093.79	208.833
1098.19	27.8691
1102.58	101.164
1106.97	136.628
1111.35	361.776
1115.74	151.172
1120.12	398.19
1124.5	245.246
1128.87	48.5918
1133.25	290.22
1137.62	260.044
1141.99	235.882
1146.35	195.077
1150.72	138.252
1155.08	298.106
1159.44	241.19
1163.79	309.111
1168.15	166.485
1172.5	197.864
1176.85	313.245
1181.19	329.151
1185.54	261.468
1189.88	129.315
1194.22	31.6914
1198.55	15.6602
1202.89	126.748
1207.22	141.344
1211.55	171.918
1215.88	371.897
1220.2	122.387
1224.52	197.781
1228.84	207.531
1233.16	94.4043
1237.47	396.607
1241.78	421.666
1246.09	238.736
1250.4	393.656
1254.7	416.59
1259.01	297.516
1263.31	418.695
1267.6	463.357
1271.9	427.305
1276.19	244.647
1280.48	377.041
1284.77	330.731
1289.05	334.611
1293.33	434.49
1297.61	402.51
1301.89	463.82
1306.16	190.312
1310.44	564.031
1314.71	391.701
1318.97	592.057
1323.24	476.66
1327.5	73.4336
1331.76	303.635
1336.02	196.336
1340.28	117.062
1344.53	167.115
1348.78	57.7148
1353.03	15.5254
1357.27	38.5117
1361.52	54.875
1365.76	202.264
1370	47.4004
1374.23	72.7891
1378.47	195.711
1382.7	72.9336
1386.93	90.4102
1391.15	96.0312
1395.38	94.1875
1399.6	3.86914
1403.82	83.1523
1408.03	5.26953
1412.25	183.941
1416.46	189.691
1420.67	14.3555
1424.88	209.289
1429.08	195.488
1433.28	279.158
1437.48	682.369
1441.68	841.236
1445.87	670.01
1450.07	1321.42
1454.26	1063.33
1458.44	920.176
1462.63	876.486
1466.81	575.018
1470.99	512.24
1475.17	241.18
1479.34	327.533
1483.52	497.449
1487.69	126.027
1491.86	172.746
1496.02	8.43359
1500.19	69.4688
1504.35	21.8789
1508.51	131.797
1512.66	69.1328
1516.82	396.279
1520.97	85.1562
1525.12	279.469
1529.26	327.258
1533.41	159.246
1537.55	136.346
1541.69	266.801
1545.83	38.5918
1549.96	206.394
1554.09	253.598
1558.22	166.793
1562.35	0
