Measurement: Raman, 514 nm, ccw, Raman Data Processed
Mineral: Groutite
Rruff sample: R080004
Ideal chemistry: Mn^3+^O(OH)
Locality: Roberts mine, Crosby, Minnesota, USA
Source: Michael Scott
Description: Black crystalline and in some cases striated.
Pin_id: M01773
Orientation: Laser parallel to b* (0 1 0). Fiducial mark perpendicular to laser is parallel to -c [0 0 -1]
Raman shift (cm-1)	intensity
109.218	0
114.144	2290.71
119.067	3249.91
123.988	1966.59
128.907	543.85
133.824	49.4766
138.738	1068.59
143.65	600.439
148.56	781.93
153.467	747.026
158.372	1000.72
163.275	574.987
168.175	433.083
173.073	339.444
177.969	219.379
182.862	214.925
187.753	168.98
192.641	379.541
197.528	134.821
202.411	41.8232
207.293	314.451
212.172	132.211
217.049	536.606
221.923	309.033
226.795	578.976
231.665	424.198
236.533	328.712
241.398	343.857
246.26	623.415
251.12	1619.78
255.978	3681.82
260.834	7458.21
265.687	10971.8
270.537	10657.7
275.386	7590.69
280.232	4426.3
285.075	2564.56
289.916	1492.91
294.755	923.051
299.591	822.176
304.425	806.312
309.257	492.361
314.086	368.993
318.912	151.342
323.737	85.2578
328.558	25.166
333.378	54.5059
338.195	91.0264
343.009	17.2227
347.822	109.999
352.631	49.5557
357.439	7.5293
362.244	168.096
367.046	879.09
371.846	2505.77
376.644	5819.15
381.439	10093.5
386.231	8288.65
391.022	4932.68
395.809	2831.8
400.595	2026.91
405.378	1532.94
410.158	669.795
414.936	368.632
419.712	59.6289
424.485	67.0205
429.255	85.7363
434.024	68.3564
438.789	110.374
443.553	42.5654
448.313	3.82715
453.072	54.1103
457.827	58.5127
462.581	174.963
467.332	181.946
472.08	218.632
476.826	128.564
481.569	107.725
486.31	268.981
491.049	287.789
495.784	394.565
500.518	543.155
505.249	554.657
509.977	614.269
514.703	933.515
519.427	977.189
524.148	1562.49
528.866	2156.48
533.582	2982.07
538.295	4015.06
543.006	6531.33
547.715	8262.98
552.421	10061.4
557.124	10345.9
561.825	9218.34
566.523	7720.99
571.219	6412.51
575.912	4900.04
580.603	4220.34
585.291	3471.17
589.977	3245.26
594.66	3005.88
599.341	2499.82
604.019	2105.69
608.694	1787.6
613.367	1898.72
618.038	2084.44
622.706	2488.9
627.371	2949.27
632.034	2746.04
636.694	2244.43
641.352	1626.37
646.007	1178.39
650.66	908.495
655.31	607.615
659.957	438.056
664.602	353.07
669.245	438.902
673.884	364.793
678.522	347.182
683.156	94.7188
687.788	235.231
692.418	7.03418
697.045	52.7334
701.669	50.0752
706.291	21.5928
710.91	3.1582
715.527	21.2783
720.141	139.848
724.752	65.3447
729.361	105.393
733.968	177.466
738.571	117.925
743.172	111.075
747.771	198.948
752.367	174.523
756.96	267.154
761.551	229.681
766.139	57.1924
770.725	36.2822
775.307	116.91
779.888	45.0635
784.465	140.678
789.041	26.8076
793.613	43.3301
798.183	19.0166
802.75	14.2451
807.315	107.723
811.877	8.4707
816.436	78.3603
820.993	74.1963
825.547	77.2744
830.099	6.93457
834.648	174.634
839.194	56.6641
843.737	42.9346
848.278	171.39
852.817	5.12793
857.353	59.3545
861.886	222.68
866.416	316.728
870.944	222.91
875.469	99.8965
879.992	327.765
884.512	266.388
889.029	241.585
893.544	400.327
898.055	500.339
902.565	340.81
907.071	503.158
911.575	508.802
916.077	494.149
920.575	514.07
925.072	615.29
929.565	675.935
934.056	525.227
938.544	738.163
943.029	808.95
947.512	667.163
951.992	465.16
956.469	484.719
960.944	310.44
965.416	441.86
969.885	437.673
974.352	203.597
978.816	460.623
983.277	247.447
987.736	140.057
992.192	104.93
996.645	313.378
1001.1	267.987
1005.54	180.503
1009.99	231.579
1014.43	146.721
1018.87	88.7236
1023.31	125.022
1027.74	117.101
1032.17	156.803
1036.6	84.8672
1041.03	319.44
1045.45	371.861
1049.88	367.566
1054.29	587.709
1058.71	965.263
1063.12	1098.38
1067.53	1316.06
1071.94	1191.49
1076.34	1036.78
1080.75	611.674
1085.14	448.374
1089.54	450.084
1093.94	386.575
1098.33	452.051
1102.71	75.4072
1107.1	229.507
1111.48	58.3506
1115.86	330.946
1120.24	53.2227
1124.62	56.1084
1128.99	258.6
1133.36	336.659
1137.72	219.243
1142.09	454.383
1146.45	435.29
1150.81	447.995
1155.16	488.153
1159.52	392.906
1163.87	657.552
1168.21	518.56
1172.56	436.894
1176.9	526.83
1181.24	521.074
1185.58	736.993
1189.91	754.777
1194.24	419.727
1198.57	409.858
1202.9	408.36
1207.22	432.338
1211.54	313.089
1215.86	489.573
1220.17	595.896
1224.48	267.191
1228.79	254.415
1233.1	179.2
1237.4	340.969
1241.7	190.098
1246	205.606
1250.3	188.311
1254.59	166.19
1258.88	141.685
1263.17	167.079
1267.45	105.416
1271.73	115.379
1276.01	169.103
1280.29	152.412
1284.56	174.117
1288.83	107.856
1293.1	272.893
1297.36	205.898
1301.62	132.724
1305.88	52.4746
1310.14	261.373
1314.39	32.041
1318.64	6.67871
1322.89	100.171
1327.14	71.4082
1331.38	291.842
1335.62	86.1426
1339.86	96.4473
1344.09	44.5772
1348.32	178.244
1352.55	33.0703
1356.78	198.956
1361	115.191
1365.22	113.054
1369.44	18.001
1373.65	243.811
1377.87	95.0478
1382.07	65.2666
1386.28	261.842
1390.48	96.6699
1394.68	147.968
1398.88	131.387
1403.08	278.65
1407.27	241.695
1411.46	249.264
1415.64	90.7441
1419.83	262.891
1424.01	261.817
1428.19	467.117
1432.36	95.3574
1436.54	313.565
1440.71	167.488
1444.87	301.815
1449.04	474.241
1453.2	328.76
1457.36	275.648
1461.51	133.072
1465.67	142.166
1469.82	205.13
1473.96	287.283
1478.11	152.815
1482.25	187.69
1486.39	207.078
1490.52	258.419
1494.66	203.352
1498.79	246.243
1502.91	96.0898
1507.04	163.596
1511.16	161.143
1515.28	324.41
1519.4	102.856
1523.51	165.465
1527.62	244.193
1531.73	90.0478
1535.83	244.549
1539.93	208.341
1544.03	262.581
1548.13	446.666
1552.22	997.786
1556.31	263.21
1560.4	240.406
1564.49	156.766
1568.57	199.708
1572.65	60.4395
1576.72	0
