Measurement: Raman, 514 nm, ccw, Raman Data Processed
Mineral: Groutite
Rruff sample: R080004
Ideal chemistry: Mn^3+^O(OH)
Locality: Roberts mine, Crosby, Minnesota, USA
Source: Michael Scott
Description: Black crystalline and in some cases striated.
Pin_id: M01823
Orientation: Laser parallel to a* (1 0 0). Fiducial mark perpendicular to laser is parallel to b [0 1 0]
Raman shift (cm-1)	intensity
80.912	0
85.863	234.341
90.812	980.639
95.759	1256.15
100.703	1146.62
105.644	2394.41
110.583	2499.07
115.52	8086.88
120.453	11440.8
125.385	2743.38
130.313	769.875
135.239	603.33
140.163	876.62
145.084	595.089
150.002	272.31
154.918	387.25
159.832	175.481
164.742	127.58
169.651	7.32422
174.556	106.742
179.459	79.1865
184.36	67.8223
189.258	19.707
194.153	142.597
199.046	240.706
203.936	254.849
208.824	688.202
213.709	1177.72
218.592	1583.53
223.472	995.5
228.349	364.41
233.224	126.655
238.096	168.866
242.966	97.2666
247.833	508.226
252.698	791.66
257.56	1714.46
262.419	3216.67
267.276	4014.42
272.13	3226.92
276.982	1664.94
281.831	817.562
286.677	499.919
291.521	358.665
296.363	242.253
301.202	167.934
306.038	38.4893
310.872	36.0156
315.703	26.5117
320.531	15.9443
325.357	41.3223
330.181	43.3086
335.001	49.7041
339.82	21.7256
344.635	89.04
349.448	59.0605
354.259	68.1475
359.067	53.6435
363.872	12.9521
368.675	616.789
373.475	953.336
378.272	1593.36
383.067	2134.96
387.86	1491.43
392.649	707.423
397.437	382.938
402.221	294.263
407.003	171.44
411.783	124.485
416.56	63.8926
421.334	97.3154
426.106	55.2852
430.875	38.3174
435.641	90.4707
440.405	182.633
445.167	124.553
449.925	265.871
454.681	77.1953
459.435	228.658
464.186	125.079
468.934	264.21
473.68	596.776
478.423	692.496
483.164	897.092
487.902	996.664
492.637	986.903
497.37	952.724
502.1	1026.39
506.828	1336.09
511.553	1416.79
516.276	2019.18
520.995	2744.12
525.713	3428.76
530.427	4839.19
535.139	6736.17
539.849	9543.78
544.556	13965.3
549.26	19265
553.962	23220.2
558.661	23219.8
563.357	20599
568.051	15961.4
572.742	12512.2
577.431	9373.42
582.117	7980.88
586.801	6516.01
591.481	4563.46
596.16	3876.38
600.835	2878.83
605.508	2326.6
610.179	1954.1
614.847	1592.51
619.512	1326.22
624.175	1335.9
628.835	1184.18
633.492	1049.04
638.147	859.891
642.799	774.138
647.449	826.166
652.096	424.297
656.74	525.826
661.382	286.073
666.021	321.427
670.658	307.709
675.292	428.639
679.923	144.874
684.552	53.5957
689.178	75.2227
693.802	95.1836
698.423	133.487
703.041	6.61035
707.657	72.3467
712.27	128.288
716.881	47.7607
721.489	55.4053
726.094	47.6943
730.697	49.3018
735.297	115.67
739.894	164.395
744.489	117.208
749.081	57.1797
753.671	192.435
758.258	1.29297
762.842	83.6758
767.424	104.049
772.003	6.80078
776.58	105.167
781.154	152.42
785.725	185.505
790.294	196.439
794.86	59.7793
799.424	23.623
803.985	137.405
808.543	143.977
813.099	129.166
817.652	75.8467
822.202	26.5186
826.75	54.8848
831.295	95.0137
835.838	63.3252
840.378	119.863
844.915	255.407
849.45	18.6357
853.982	228.379
858.512	26.5352
863.039	31.334
867.563	31.7266
872.085	248.581
876.604	21.1699
881.12	87.4922
885.634	107.273
890.145	26.2598
894.654	138.804
899.16	211.462
903.663	176.81
908.164	138.806
912.662	243.959
917.158	326.42
921.651	255.33
926.141	293.858
930.628	210.603
935.113	194.492
939.596	103.16
944.076	204.056
948.553	287.884
953.027	195.472
957.499	197.893
961.969	276.006
966.435	166.544
970.899	17.1709
975.361	89.8389
979.82	244.894
984.276	187.151
988.73	115.644
993.181	205.059
997.629	139.06
1002.08	190.125
1006.52	413.861
1010.96	66.3623
1015.4	225.704
1019.83	17.2734
1024.26	78.2314
1028.69	219.389
1033.12	290.853
1037.55	228.363
1041.97	335.428
1046.39	273.487
1050.81	322.667
1055.22	420.082
1059.63	608.472
1064.04	651.155
1068.45	514.227
1072.85	384.144
1077.25	617.816
1081.65	411.748
1086.05	368.886
1090.44	288.222
1094.83	314.179
1099.22	257.051
1103.6	219.305
1107.99	91.0166
1112.37	282.975
1116.74	151.19
1121.12	174.745
1125.49	222.717
1129.86	50.9775
1134.23	41.9258
1138.59	8.19531
1142.95	114.639
1147.31	179.36
1151.67	154.834
1156.02	216.221
1160.38	154.541
1164.72	169.309
1169.07	90.6738
1173.41	195.655
1177.75	118.784
1182.09	362.065
1186.43	399.903
1190.76	105.743
1195.09	78.0693
1199.42	54.3574
1203.74	262.633
1208.07	35.2656
1212.39	126.056
1216.7	81.0537
1221.02	20.6719
1225.33	132.39
1229.64	93.6894
1233.95	81.4394
1238.25	101.952
1242.55	120.031
1246.85	69.251
1251.15	57.2461
1255.44	83.7656
1259.73	42.4023
1264.02	96.1543
1268.31	121.012
1272.59	155.758
1276.87	11.1592
1281.15	50.9551
1285.42	86.1074
1289.69	139.357
1293.96	68.2129
1298.23	244.533
1302.5	110.853
1306.76	202.504
1311.02	210.918
1315.27	222.372
1319.53	61.1328
1323.78	121.881
1328.03	111.603
1332.28	31.9805
1336.52	109.48
1340.76	153.733
1345	252.382
1349.23	13.7363
1353.47	34.8818
1357.7	147.242
1361.93	53.042
1366.15	164.961
1370.37	64.3066
1374.59	34.3945
1378.81	53.9228
1383.03	70.8828
1387.24	133.946
1391.45	125.809
1395.65	72.6699
1399.86	114.4
1404.06	178.058
1408.26	29.502
1412.46	101.39
1416.65	159.566
1420.84	180.633
1425.03	193.27
1429.22	52.042
1433.4	107.227
1437.58	157.63
1441.76	129.148
1445.93	75.499
1450.11	201.389
1454.28	175.435
1458.44	88.5566
1462.61	43.2178
1466.77	74.9414
1470.93	0.978516
1475.09	17.6074
1479.24	118.929
1483.39	129.807
1487.54	244.856
1491.69	161.695
1495.84	137.887
1499.98	273.508
1504.12	285.285
1508.25	55.6357
1512.38	89.8018
1516.52	20.4209
1520.64	511.358
1524.77	201.669
1528.89	269.751
1533.01	328.666
1537.13	93.3584
1541.25	24.8271
1545.36	59.3955
1549.47	401.035
1553.58	656.93
1557.68	134.977
1561.78	56.8799
1565.88	470.192
1569.98	236.232
1574.07	1.71875
