Measurement: Raman, 514 nm, ccw, Raman Data Processed
Mineral: Groutite
Rruff sample: R080004
Ideal chemistry: Mn^3+^O(OH)
Locality: Roberts mine, Crosby, Minnesota, USA
Source: Michael Scott
Description: Black crystalline and in some cases striated.
Pin_id: M01773
Orientation: Laser parallel to b* (0 1 0). Fiducial mark perpendicular to laser is parallel to -c [0 0 -1]
Raman shift (cm-1)	intensity
109.218	0
114.144	2738.19
119.067	1752.47
123.988	590.102
128.907	47.4228
133.824	137.459
138.738	788.5
143.65	335.024
148.56	351.801
153.467	399.603
158.372	398.133
163.275	241.435
168.175	315.63
173.073	39.5703
177.969	124.014
182.862	8.6543
187.753	16.335
192.641	47.2022
197.528	26.7471
202.411	155.778
207.293	389.144
212.172	833.901
217.049	1554.76
221.923	1513.22
226.795	979.08
231.665	416.953
236.533	337.065
241.398	238.213
246.26	132.879
251.12	437.95
255.978	1260.76
260.834	2520.66
265.687	3624.39
270.537	3342.78
275.386	2190.09
280.232	1250.56
285.075	777.393
289.916	568.453
294.755	302.338
299.591	286.07
304.425	175.645
309.257	433.549
314.086	334.7
318.912	210.298
323.737	40.5078
328.558	41.0352
333.378	121.71
338.195	135.574
343.009	19.2266
347.822	112.582
352.631	167.375
357.439	163.123
362.244	122.526
367.046	201.333
371.846	528.58
376.644	835.402
381.439	1061.52
386.231	855.635
391.022	587.968
395.809	680.746
400.595	779.979
405.378	966.644
410.158	329.71
414.936	105.332
419.712	43.2256
424.485	121.947
429.255	110.106
434.024	90.8369
438.789	67.7109
443.553	53.0107
448.313	21.5186
453.072	82.8936
457.827	17.4258
462.581	229.235
467.332	221.286
472.08	246.531
476.826	358.451
481.569	420.397
486.31	522.548
491.049	603.865
495.784	614.887
500.518	790.126
505.249	974.371
509.977	1290.78
514.703	1632.76
519.427	2220.19
524.148	3385.08
528.866	4638.5
533.582	6791.58
538.295	9848.42
543.006	14431.1
547.715	19482.5
552.421	23311.5
557.124	23028.5
561.825	19947.1
566.523	15771.9
571.219	12794.5
575.912	10451.8
580.603	8976.87
585.291	7449.85
589.977	6132.26
594.66	5003.08
599.341	3874.3
604.019	3163.91
608.694	2718.01
613.367	2762.65
618.038	2951.78
622.706	3503.47
627.371	3750.53
632.034	3547.06
636.694	2781.66
641.352	2026.48
646.007	1596.26
650.66	1177.05
655.31	864.217
659.957	731.167
664.602	580.403
669.245	624.956
673.884	417.759
678.522	258.55
683.156	315.823
687.788	259.501
692.418	347.333
697.045	120.358
701.669	459.598
706.291	195.467
710.91	86.1504
715.527	223.251
720.141	234.688
724.752	50.1494
729.361	144.96
733.968	137.763
738.571	201.473
743.172	246.095
747.771	196.611
752.367	159.012
756.96	132.28
761.551	62.2588
766.139	32.9717
770.725	48.7637
775.307	58.1904
779.888	36.8242
784.465	17.5947
789.041	42.3184
793.613	35.7959
798.183	14.7949
802.75	74.6738
807.315	107.357
811.877	12.8418
816.436	11.6963
820.993	134.016
825.547	27.4492
830.099	89.6426
834.648	8.8125
839.194	9.75488
843.737	8.16113
848.278	96.0625
852.817	3.01856
857.353	73.6455
861.886	87.9971
866.416	62.0732
870.944	134.874
875.469	115.412
879.992	109.689
884.512	94.71
889.029	187.477
893.544	135.645
898.055	144.903
902.565	184.436
907.071	100.189
911.575	217.967
916.077	293.82
920.575	263.319
925.072	169.71
929.565	257.483
934.056	311.53
938.544	372.856
943.029	211.57
947.512	270.099
951.992	309.236
956.469	123.859
960.944	211.053
965.416	153.75
969.885	135.798
974.352	39.8135
978.816	77.6777
983.277	187.14
987.736	153.121
992.192	213.797
996.645	252.095
1001.1	102.538
1005.54	30.2617
1009.99	317.082
1014.43	5.99902
1018.87	203.019
1023.31	61.1523
1027.74	87.4092
1032.17	326.818
1036.6	139.436
1041.03	335.252
1045.45	329.262
1049.88	395.51
1054.29	455.374
1058.71	583.775
1063.12	824.798
1067.53	1056.72
1071.94	1029.7
1076.34	890.277
1080.75	663.293
1085.14	398.442
1089.54	300.847
1093.94	431.279
1098.33	395.379
1102.71	261.565
1107.1	120.644
1111.48	154.058
1115.86	128.305
1120.24	24.1211
1124.62	119.156
1128.99	195.362
1133.36	131.805
1137.72	266.54
1142.09	273.551
1146.45	114.814
1150.81	297.494
1155.16	176.218
1159.52	189.357
1163.87	237.743
1168.21	154.391
1172.56	185.381
1176.9	184.602
1181.24	127.03
1185.58	57.1094
1189.91	9.63281
1194.24	11.2842
1198.57	23.666
1202.9	88.4121
1207.22	153.659
1211.54	60.0645
1215.86	177.634
1220.17	61.3613
1224.48	43.7871
1228.79	83.2812
1233.1	48.2637
1237.4	79.6387
1241.7	103.319
1246	127.337
1250.3	119.753
1254.59	150.358
1258.88	76.3027
1263.17	111.4
1267.45	100.728
1271.73	21.4873
1276.01	71.5273
1280.29	62.8701
1284.56	266.449
1288.83	219.404
1293.1	169.881
1297.36	113.022
1301.62	122.4
1305.88	100.178
1310.14	341.927
1314.39	155.38
1318.64	267.396
1322.89	107.294
1327.14	106.066
1331.38	88.7246
1335.62	86.4648
1339.86	75.0889
1344.09	109.041
1348.32	94.0361
1352.55	124.774
1356.78	42.1182
1361	122.224
1365.22	218.264
1369.44	122.419
1373.65	96.0508
1377.87	134.553
1382.07	2.74512
1386.28	141.717
1390.48	139.106
1394.68	167.362
1398.88	53.1865
1403.08	125.174
1407.27	19.001
1411.46	115.618
1415.64	131.114
1419.83	25.8271
1424.01	115.101
1428.19	101.663
1432.36	160.189
1436.54	215.55
1440.71	108.781
1444.87	101.311
1449.04	138.06
1453.2	129.2
1457.36	147.484
1461.51	120.589
1465.67	221.598
1469.82	158.166
1473.96	90.2266
1478.11	266.859
1482.25	83.3545
1486.39	135.184
1490.52	190.467
1494.66	135.418
1498.79	160.21
1502.91	86.8652
1507.04	127.285
1511.16	218.954
1515.28	109.772
1519.4	158.386
1523.51	139.536
1527.62	172.403
1531.73	176.614
1535.83	114.737
1539.93	169.052
1544.03	164.022
1548.13	240.266
1552.22	668.509
1556.31	128.324
1560.4	112.955
1564.49	201.798
1568.57	88.8965
1572.65	47.4414
1576.72	0
