Measurement: Raman, 514 nm, depolarized, Raman Data Processed
Mineral: Groutite
Rruff sample: R080004
Ideal chemistry: Mn^3+^O(OH)
Locality: Roberts mine, Crosby, Minnesota, USA
Source: Michael Scott
Description: Black crystalline and in some cases striated.
Pin_id: M01773
Orientation: Laser parallel to b* (0 1 0). Fiducial mark perpendicular to laser is parallel to -c [0 0 -1]
Raman shift (cm-1)	intensity
109.218	0
114.144	2674.17
119.067	3096.53
123.988	2354.34
128.907	76.6113
133.824	619.381
138.738	693.668
143.65	490.546
148.56	578.73
153.467	530.671
158.372	371.953
163.275	263.672
168.175	295.947
173.073	199.622
177.969	399.627
182.862	418.237
187.753	132.126
192.641	28.5869
197.528	93.7607
202.411	73.9697
207.293	8.76465
212.172	334.158
217.049	745.973
221.923	771.484
226.795	589.756
231.665	292.362
236.533	136.796
241.398	106.956
246.26	224.394
251.12	620.928
255.978	1496.36
260.834	3448.45
265.687	5144.79
270.537	5041.94
275.386	3551.32
280.232	2101.87
285.075	1197.01
289.916	568.939
294.755	403.062
299.591	359.876
304.425	248.106
309.257	350.959
314.086	76.4629
318.912	20.1406
323.737	148.308
328.558	24.2949
333.378	13.3174
338.195	9.29688
343.009	386.782
347.822	612.568
352.631	891.737
357.439	779.592
362.244	528.123
367.046	592.023
371.846	1193.39
376.644	2791.14
381.439	4322.87
386.231	4340.47
391.022	2768.61
395.809	2423.25
400.595	2860.01
405.378	3180.84
410.158	1931.63
414.936	683.59
419.712	194.948
424.485	93.0156
429.255	9.34863
434.024	84.0244
438.789	38.167
443.553	32.1426
448.313	21.5107
453.072	38.5078
457.827	16.3223
462.581	108.905
467.332	50.333
472.08	58.4522
476.826	230.949
481.569	189.952
486.31	295.488
491.049	345.755
495.784	464.195
500.518	561.31
505.249	712.696
509.977	765.342
514.703	1242.39
519.427	1494.93
524.148	2238.94
528.866	2957.68
533.582	4243.02
538.295	6299.78
543.006	9361.03
547.715	13293.8
552.421	15366.2
557.124	15416
561.825	13690.4
566.523	11269.8
571.219	9025.61
575.912	7373.69
580.603	6163.5
585.291	5258.86
589.977	4737.15
594.66	4138.62
599.341	3358.22
604.019	3031.56
608.694	2964.66
613.367	3355.38
618.038	4600.37
622.706	5826.12
627.371	7033.5
632.034	6714.42
636.694	5323.98
641.352	3657.89
646.007	2563.53
650.66	1990.43
655.31	1429.18
659.957	1110.12
664.602	696.483
669.245	567.355
673.884	538.704
678.522	373.269
683.156	374.095
687.788	237.116
692.418	274.005
697.045	170.785
701.669	4.45312
706.291	193.758
710.91	166.975
715.527	209.602
720.141	154.316
724.752	143.245
729.361	246.034
733.968	142.725
738.571	88.2061
743.172	174.533
747.771	190.953
752.367	116.065
756.96	194.816
761.551	205.6
766.139	32.9795
770.725	36.0791
775.307	11.7178
779.888	163.929
784.465	177.756
789.041	19.1514
793.613	56.8125
798.183	39.8789
802.75	75.2168
807.315	45.5391
811.877	87.2891
816.436	19.3877
820.993	178.989
825.547	19.8809
830.099	28.9424
834.648	134.88
839.194	30.9023
843.737	58.21
848.278	107.894
852.817	116.189
857.353	70.3418
861.886	231.02
866.416	239.977
870.944	154.498
875.469	185.236
879.992	182.915
884.512	141.406
889.029	201.369
893.544	248.035
898.055	370.602
902.565	317.793
907.071	288.665
911.575	335.452
916.077	367.558
920.575	319.644
925.072	337.031
929.565	344.556
934.056	339.039
938.544	333.601
943.029	393.037
947.512	494.613
951.992	366.017
956.469	324.33
960.944	361.058
965.416	329.05
969.885	210.087
974.352	238.818
978.816	213.702
983.277	314.747
987.736	67.3457
992.192	158.327
996.645	287.142
1001.1	157.072
1005.54	270.051
1009.99	66.7422
1014.43	129.564
1018.87	145.026
1023.31	41.3213
1027.74	59.5029
1032.17	59.71
1036.6	196.956
1041.03	228.413
1045.45	160.397
1049.88	475.58
1054.29	520.083
1058.71	700.927
1063.12	919.289
1067.53	1228.04
1071.94	1337.41
1076.34	1156.4
1080.75	788.822
1085.14	462.9
1089.54	270.475
1093.94	218.258
1098.33	202.903
1102.71	108.6
1107.1	242.754
1111.48	274.328
1115.86	118.446
1120.24	35.0352
1124.62	1.54785
1128.99	81.1475
1133.36	16.1699
1137.72	59.5772
1142.09	335.725
1146.45	173.516
1150.81	233.835
1155.16	390.558
1159.52	154.869
1163.87	393.565
1168.21	258.65
1172.56	376.1
1176.9	239.894
1181.24	253.029
1185.58	287.501
1189.91	341.3
1194.24	165.421
1198.57	243.853
1202.9	153.159
1207.22	245.028
1211.54	142.39
1215.86	207.46
1220.17	154.282
1224.48	319.349
1228.79	84.9844
1233.1	180.489
1237.4	61.0801
1241.7	132.206
1246	159.051
1250.3	37.5254
1254.59	90.4326
1258.88	9.74609
1263.17	4.27246
1267.45	49.0039
1271.73	137.692
1276.01	124.25
1280.29	89.4394
1284.56	64.8555
1288.83	180.599
1293.1	73.9502
1297.36	123.482
1301.62	270.785
1305.88	240.068
1310.14	111.093
1314.39	94.1162
1318.64	188.318
1322.89	161.778
1327.14	17.8662
1331.38	34.0938
1335.62	73.9844
1339.86	8.2041
1344.09	77.5215
1348.32	167.361
1352.55	136.828
1356.78	94.9346
1361	70.9365
1365.22	67.3252
1369.44	118.743
1373.65	129.85
1377.87	102.814
1382.07	9.80273
1386.28	142.731
1390.48	179.106
1394.68	8.98438
1398.88	177.32
1403.08	144.965
1407.27	58.625
1411.46	165.644
1415.64	125.587
1419.83	1.24902
1424.01	106.328
1428.19	221.196
1432.36	224.733
1436.54	218.871
1440.71	210.721
1444.87	534.282
1449.04	356.005
1453.2	199.164
1457.36	452.784
1461.51	224.228
1465.67	315.202
1469.82	318.325
1473.96	129.29
1478.11	269.035
1482.25	271.706
1486.39	155.366
1490.52	128.915
1494.66	188.809
1498.79	26.8711
1502.91	115.405
1507.04	201.061
1511.16	215.867
1515.28	21.0439
1519.4	123.148
1523.51	98.7481
1527.62	301.55
1531.73	120.902
1535.83	129.921
1539.93	155.07
1544.03	165.672
1548.13	254.169
1552.22	724.644
1556.31	609.967
1560.4	109.183
1564.49	150.194
1568.57	108.71
1572.65	51.0156
1576.72	0
