Measurement: Raman, 514 nm, ccw, Raman Data Processed
Mineral: Groutite
Rruff sample: R080004
Ideal chemistry: Mn^3+^O(OH)
Locality: Roberts mine, Crosby, Minnesota, USA
Source: Michael Scott
Description: Black crystalline and in some cases striated.
Pin_id: M01823
Orientation: Laser parallel to a* (1 0 0). Fiducial mark perpendicular to laser is parallel to b [0 1 0]
Raman shift (cm-1)	intensity
80.912	0
85.863	499.327
90.812	990.577
95.759	1974.41
100.703	1420.63
105.644	1704.69
110.583	5558.98
115.52	5423.85
120.453	8993.9
125.385	7112.54
130.313	776.179
135.239	428.695
140.163	795.069
145.084	526.118
150.002	165.806
154.918	159.38
159.832	263.362
164.742	188.276
169.651	91.6826
174.556	55.7451
179.459	74.8799
184.36	70.0488
189.258	110.67
194.153	270.035
199.046	195.352
203.936	262.41
208.824	540.988
213.709	567.23
218.592	631.993
223.472	460.086
228.349	54.2109
233.224	111.733
238.096	74.9404
242.966	114.815
247.833	0.99707
252.698	199.205
257.56	837.337
262.419	1710.85
267.276	2131.18
272.13	1809.39
276.982	969.996
281.831	342.019
286.677	83.1836
291.521	143.565
296.363	11.3047
301.202	135.648
306.038	46.7285
310.872	132.526
315.703	52.3418
320.531	32.7324
325.357	73.9043
330.181	98.8594
335.001	155.585
339.82	177.293
344.635	68.4863
349.448	250.466
354.259	396.264
359.067	451.769
363.872	799.033
368.675	1386.75
373.475	2878.42
378.272	4992.55
383.067	7002.31
387.86	6034.33
392.649	3359.01
397.437	1662.11
402.221	736.898
407.003	575.481
411.783	86.8828
416.56	186.139
421.334	10.0049
426.106	15.6885
430.875	54.5205
435.641	120.591
440.405	161.305
445.167	233.345
449.925	97.9639
454.681	55.9014
459.435	211.68
464.186	385.333
468.934	518.167
473.68	979.84
478.423	1677.45
483.164	3339.99
487.902	3740.25
492.637	2582.72
497.37	1791.86
502.1	1435.81
506.828	1267.62
511.553	1226.76
516.276	1629.45
520.995	2179.86
525.713	2490.15
530.427	3509.93
535.139	4579.37
539.849	6341.11
544.556	8731.3
549.26	11801
553.962	14010.3
558.661	14238.3
563.357	12842.1
568.051	10586.9
572.742	8365.16
577.431	7110.57
582.117	5786.43
586.801	4640.86
591.481	3457.75
596.16	2501.05
600.835	2107
605.508	1652.38
610.179	1371.24
614.847	1193.76
619.512	1013.84
624.175	1089.16
628.835	859.14
633.492	910.461
638.147	1030.38
642.799	869.407
647.449	620.436
652.096	521.632
656.74	393.7
661.382	271.161
666.021	281.384
670.658	383.226
675.292	109.653
679.923	105.894
684.552	95.6445
689.178	251.923
693.802	4.15723
698.423	219.973
703.041	34.3193
707.657	42.5098
712.27	151.69
716.881	4.2959
721.489	4.57617
726.094	34.1045
730.697	35.4277
735.297	114.103
739.894	205.112
744.489	42.7773
749.081	39.249
753.671	203.685
758.258	118.912
762.842	101.004
767.424	25.1846
772.003	7.65332
776.58	39.0664
781.154	89.249
785.725	39.6211
790.294	29.7676
794.86	45.4492
799.424	110.053
803.985	51.7344
808.543	32.2022
813.099	2.28027
817.652	37.9102
822.202	66.291
826.75	69.7236
831.295	12.6445
835.838	125.483
840.378	30.2764
844.915	59.0137
849.45	160.621
853.982	44.4717
858.512	82.0918
863.039	41.1055
867.563	57.7363
872.085	10.668
876.604	89.2598
881.12	46.3291
885.634	263.313
890.145	84.8867
894.654	59.2402
899.16	105.644
903.663	126.806
908.164	96.1328
912.662	211.904
917.158	76.3984
921.651	177.942
926.141	300.821
930.628	182.781
935.113	162.777
939.596	173.037
944.076	189.522
948.553	97.5566
953.027	151.76
957.499	142.055
961.969	37.5791
966.435	92.6689
970.899	200.571
975.361	168.693
979.82	299.37
984.276	181.738
988.73	287.976
993.181	149.606
997.629	246.001
1002.08	350.603
1006.52	213.971
1010.96	47.4082
1015.4	32.9219
1019.83	187.593
1024.26	50.2842
1028.69	293.218
1033.12	331.327
1037.55	329.619
1041.97	394.798
1046.39	672.19
1050.81	525.197
1055.22	605.442
1059.63	815.951
1064.04	694.437
1068.45	718.177
1072.85	691.949
1077.25	445.298
1081.65	459.757
1086.05	410.899
1090.44	397.295
1094.83	360.43
1099.22	341.388
1103.6	257.626
1107.99	297.104
1112.37	373.938
1116.74	174.93
1121.12	273.891
1125.49	363.174
1129.86	198.789
1134.23	113.84
1138.59	80.4307
1142.95	16.8408
1147.31	209.815
1151.67	285.765
1156.02	208.045
1160.38	102.553
1164.72	127.93
1169.07	64.1191
1173.41	16.5146
1177.75	275.81
1182.09	173.625
1186.43	120.38
1190.76	291.861
1195.09	27.0508
1199.42	187.148
1203.74	244.52
1208.07	151.065
1212.39	92.8574
1216.7	127.694
1221.02	70.8486
1225.33	5.24316
1229.64	145.551
1233.95	204.885
1238.25	195.947
1242.55	17.3965
1246.85	69.832
1251.15	201.6
1255.44	163.09
1259.73	31.2441
1264.02	18.1338
1268.31	57.0605
1272.59	54.3877
1276.87	203.615
1281.15	145.645
1285.42	224.977
1289.69	196.947
1293.96	77.6924
1298.23	57.584
1302.5	129.69
1306.76	81.8281
1311.02	246.872
1315.27	36.3691
1319.53	164.572
1323.78	295.874
1328.03	199.181
1332.28	228.429
1336.52	36.0557
1340.76	123.249
1345	6.42871
1349.23	204.351
1353.47	21.4756
1357.7	196.508
1361.93	7.17773
1366.15	71.1553
1370.37	70.7275
1374.59	0.264648
1378.81	318.088
1383.03	157.655
1387.24	148.418
1391.45	335.851
1395.65	191.589
1399.86	91.6211
1404.06	17.8809
1408.26	142.959
1412.46	10.8984
1416.65	162.797
1420.84	167.862
1425.03	177.617
1429.22	167.835
1433.4	12.9629
1437.58	67.5606
1441.76	85.0527
1445.93	37.0117
1450.11	167.705
1454.28	228.711
1458.44	131.631
1462.61	245.948
1466.77	207.951
1470.93	191.025
1475.09	177.686
1479.24	185.334
1483.39	29.8809
1487.54	239.461
1491.69	261.111
1495.84	202.016
1499.98	108.619
1504.12	256.396
1508.25	21.2852
1512.38	24.8242
1516.52	100.411
1520.64	161.914
1524.77	297.762
1528.89	151.953
1533.01	196.519
1537.13	243.626
1541.25	257.964
1545.36	143.053
1549.47	240.341
1553.58	929.527
1557.68	178.47
1561.78	76.0557
1565.88	9.57422
1569.98	13.083
1574.07	118.859
