Measurement: Raman, 514 nm, ccw, Raman Data Processed
Mineral: Groutite
Rruff sample: R080004
Ideal chemistry: Mn^3+^O(OH)
Locality: Roberts mine, Crosby, Minnesota, USA
Source: Michael Scott
Description: Black crystalline and in some cases striated.
Pin_id: M01823
Orientation: Laser parallel to a* (1 0 0). Fiducial mark perpendicular to laser is parallel to b [0 1 0]
Raman shift (cm-1)	intensity
80.912	0
85.863	1273.75
90.812	1324
95.759	1772.88
100.703	1448.1
105.644	1649.05
110.583	2332.67
115.52	4596.26
120.453	10688.6
125.385	9172.3
130.313	874.174
135.239	422.415
140.163	307.452
145.084	58.4961
150.002	159.738
154.918	115.68
159.832	203.581
164.742	349.416
169.651	129.51
174.556	52.6523
179.459	18.6494
184.36	42.2188
189.258	162.239
194.153	69.4453
199.046	126.017
203.936	259.055
208.824	455.825
213.709	564.855
218.592	477.054
223.472	342.281
228.349	61.7168
233.224	268.07
238.096	145.061
242.966	51.919
247.833	127.818
252.698	58.4883
257.56	122.943
262.419	567.601
267.276	959.361
272.13	766.914
276.982	284.079
281.831	75.7471
286.677	4.87402
291.521	43.6777
296.363	19.1006
301.202	13.6455
306.038	6.68652
310.872	140.326
315.703	24.9551
320.531	58.3565
325.357	41.3897
330.181	277.137
335.001	174.352
339.82	77.6836
344.635	167.699
349.448	135.954
354.259	187.482
359.067	266.81
363.872	488.894
368.675	896.763
373.475	1650.79
378.272	2692.63
383.067	2842.28
387.86	2155.22
392.649	943.131
397.437	665.072
402.221	358.009
407.003	98.6045
411.783	342.228
416.56	127.587
421.334	83.0977
426.106	85.0947
430.875	12.4014
435.641	118.747
440.405	128.982
445.167	273.769
449.925	287.753
454.681	256.614
459.435	121.003
464.186	182.147
468.934	411.942
473.68	465.779
478.423	724.195
483.164	1137.06
487.902	1147.08
492.637	1218.35
497.37	943.095
502.1	917.307
506.828	1018.86
511.553	1147.82
516.276	1366.35
520.995	1637.25
525.713	2066.03
530.427	2434.79
535.139	3017.23
539.849	4146.08
544.556	5669.79
549.26	7051
553.962	8234.29
558.661	8446.4
563.357	7438.13
568.051	6291.35
572.742	5266.38
577.431	5371.76
582.117	5196.17
586.801	4531.51
591.481	3325.86
596.16	2325.58
600.835	1826.93
605.508	1556.95
610.179	1103.77
614.847	985.032
619.512	957.983
624.175	882.401
628.835	841.135
633.492	764.319
638.147	599.579
642.799	508.907
647.449	547.254
652.096	341.309
656.74	404.007
661.382	315.773
666.021	253.75
670.658	172.727
675.292	138.744
679.923	74.7519
684.552	148.807
689.178	17.373
693.802	9.93945
698.423	72.1426
703.041	42.7803
707.657	146.357
712.27	28.0693
716.881	245.132
721.489	121.911
726.094	67.6562
730.697	36.4404
735.297	19.6445
739.894	81.1875
744.489	88.3037
749.081	118.191
753.671	4.93848
758.258	102.122
762.842	96.3164
767.424	48.6035
772.003	14.3828
776.58	55.1562
781.154	89.9434
785.725	32.7148
790.294	107.79
794.86	26.9424
799.424	41.2793
803.985	131.018
808.543	55.9629
813.099	121.621
817.652	160.601
822.202	25.2012
826.75	131.884
831.295	80.7236
835.838	39.3135
840.378	17.208
844.915	37.2129
849.45	18.1309
853.982	32.9551
858.512	94.5469
863.039	161.315
867.563	59.2539
872.085	108.731
876.604	112.083
881.12	253.643
885.634	109.358
890.145	131.784
894.654	203.398
899.16	98.7637
903.663	102.023
908.164	374.673
912.662	184.166
917.158	317.415
921.651	188.268
926.141	234.872
930.628	183.303
935.113	214.048
939.596	382.745
944.076	314.602
948.553	208.85
953.027	141.31
957.499	209.392
961.969	148.728
966.435	90.3076
970.899	236.001
975.361	313.47
979.82	200.347
984.276	118.161
988.73	289.644
993.181	225.65
997.629	171.412
1002.08	412.509
1006.52	354.61
1010.96	214.899
1015.4	123.422
1019.83	167.15
1024.26	11.3701
1028.69	174.984
1033.12	418.367
1037.55	471.024
1041.97	486.938
1046.39	549.243
1050.81	615.666
1055.22	1392.73
1059.63	1673.56
1064.04	1900.19
1068.45	1496.04
1072.85	1247.25
1077.25	714.566
1081.65	665.643
1086.05	703.591
1090.44	648.453
1094.83	872.717
1099.22	452.387
1103.6	618.625
1107.99	452.644
1112.37	519.999
1116.74	325.623
1121.12	307.386
1125.49	472.328
1129.86	383.044
1134.23	82.0596
1138.59	249.497
1142.95	374.819
1147.31	218.102
1151.67	427.284
1156.02	224.851
1160.38	247.675
1164.72	202.74
1169.07	336.056
1173.41	166.607
1177.75	256.383
1182.09	13.3008
1186.43	19.4229
1190.76	100.77
1195.09	283.748
1199.42	51.4932
1203.74	117.019
1208.07	46.1289
1212.39	160.489
1216.7	13.7715
1221.02	288.463
1225.33	229.177
1229.64	173.128
1233.95	38.7305
1238.25	249.092
1242.55	17.9346
1246.85	62.5938
1251.15	144.213
1255.44	153.059
1259.73	115.517
1264.02	31.707
1268.31	238.019
1272.59	0.679688
1276.87	66.5449
1281.15	26.5586
1285.42	47.6885
1289.69	155.023
1293.96	168.759
1298.23	206.407
1302.5	98.3379
1306.76	202.049
1311.02	72.207
1315.27	151.941
1319.53	109.636
1323.78	174.286
1328.03	42.6973
1332.28	100.774
1336.52	9.81934
1340.76	86.9824
1345	33.0273
1349.23	76.9707
1353.47	99.5625
1357.7	100.488
1361.93	166.759
1366.15	93.6269
1370.37	48.6914
1374.59	149.208
1378.81	169.905
1383.03	125.291
1387.24	128.534
1391.45	2.50195
1395.65	115.653
1399.86	201.341
1404.06	47.4307
1408.26	56.9043
1412.46	42.7988
1416.65	113.774
1420.84	2.56445
1425.03	130.188
1429.22	197.733
1433.4	136.141
1437.58	77.5723
1441.76	170.985
1445.93	51.0283
1450.11	127.085
1454.28	127.238
1458.44	199.765
1462.61	93.1318
1466.77	116.254
1470.93	31.6777
1475.09	160.095
1479.24	166.055
1483.39	121.421
1487.54	177.356
1491.69	60.4287
1495.84	3.90039
1499.98	77.7539
1504.12	161.123
1508.25	3.23438
1512.38	269.925
1516.52	360.503
1520.64	220.208
1524.77	100.069
1528.89	232.191
1533.01	313.448
1537.13	7.88867
1541.25	195.107
1545.36	162.482
1549.47	313.082
1553.58	957.348
1557.68	281.435
1561.78	5.11621
1565.88	113.443
1569.98	73.6475
1574.07	131.943
