Measurement: Raman, 514 nm, depolarized, Raman Data Processed
Mineral: Groutite
Rruff sample: R080004
Ideal chemistry: Mn^3+^O(OH)
Locality: Roberts mine, Crosby, Minnesota, USA
Source: Michael Scott
Description: Black crystalline and in some cases striated.
Pin_id: M01823
Orientation: Laser parallel to a* (1 0 0). Fiducial mark perpendicular to laser is parallel to b [0 1 0]
Raman shift (cm-1)	intensity
80.912	0
85.863	217.468
90.812	1322.08
95.759	1247.26
100.703	1238.1
105.644	1799.94
110.583	4411.97
115.52	5618.58
120.453	6928.97
125.385	4247.34
130.313	616.564
135.239	475.685
140.163	460.375
145.084	264.844
150.002	216.945
154.918	431.987
159.832	160.878
164.742	400.14
169.651	203.936
174.556	169.723
179.459	2.33691
184.36	112.141
189.258	85.9766
194.153	38.4902
199.046	25.8242
203.936	215.356
208.824	538.872
213.709	868.263
218.592	997.239
223.472	478.935
228.349	72.7812
233.224	40.3643
238.096	67.5186
242.966	67.5117
247.833	163.596
252.698	540.854
257.56	875.068
262.419	1643.99
267.276	1967.74
272.13	1692.21
276.982	959.453
281.831	434.72
286.677	129.872
291.521	184.482
296.363	200.487
301.202	100.953
306.038	176.19
310.872	132.564
315.703	121.449
320.531	28.2334
325.357	11.7891
330.181	24.4365
335.001	3.09766
339.82	170.121
344.635	1.89746
349.448	44.6777
354.259	159.783
359.067	375.784
363.872	474.759
368.675	1045.74
373.475	2022.84
378.272	3721.86
383.067	5040.94
387.86	3924.23
392.649	1997.28
397.437	1000.01
402.221	575.331
407.003	265.274
411.783	148.211
416.56	85.791
421.334	91.291
426.106	49.625
430.875	14.3594
435.641	200.721
440.405	148.898
445.167	57.3369
449.925	117.933
454.681	122.958
459.435	32.3555
464.186	315.598
468.934	532.192
473.68	833.336
478.423	1320.62
483.164	2051.49
487.902	2194.55
492.637	1587.91
497.37	1287.02
502.1	977.371
506.828	1148.36
511.553	1295.59
516.276	1559.52
520.995	1907.56
525.713	2480.68
530.427	3325.82
535.139	4537.08
539.849	6231.93
544.556	8827.98
549.26	11788.2
553.962	13971.4
558.661	13959.8
563.357	12376.5
568.051	10230.2
572.742	7953.34
577.431	6706.88
582.117	5959.95
586.801	4991.56
591.481	3596.81
596.16	2852.87
600.835	2142.61
605.508	1857.73
610.179	1409.78
614.847	1416.55
619.512	1041.19
624.175	1023.96
628.835	1007.09
633.492	820.599
638.147	795.642
642.799	601.23
647.449	575.069
652.096	463.256
656.74	303.784
661.382	235.644
666.021	426.877
670.658	371.369
675.292	231.163
679.923	193.517
684.552	110.717
689.178	332.087
693.802	195.538
698.423	53.2754
703.041	12.6045
707.657	99.9561
712.27	13.1162
716.881	114.34
721.489	156.811
726.094	55.1397
730.697	183.602
735.297	161.032
739.894	14.4229
744.489	159.712
749.081	109.965
753.671	116.037
758.258	74.2617
762.842	142.922
767.424	63.3721
772.003	69.1768
776.58	41.0068
781.154	27.3789
785.725	141.471
790.294	29.3877
794.86	76.3311
799.424	62.7793
803.985	95.4385
808.543	20.2871
813.099	248.9
817.652	20.0488
822.202	12.1055
826.75	213.16
831.295	20.3926
835.838	78.7861
840.378	40.7422
844.915	138.33
849.45	140.363
853.982	123.341
858.512	248.057
863.039	119.505
867.563	260.672
872.085	130.264
876.604	264.925
881.12	116.59
885.634	66.0088
890.145	43.6699
894.654	223.095
899.16	164.534
903.663	13.0732
908.164	325.96
912.662	141.159
917.158	76.6846
921.651	127.895
926.141	281.661
930.628	101.033
935.113	279.172
939.596	401.858
944.076	183.226
948.553	372.888
953.027	78.9463
957.499	324.63
961.969	152.948
966.435	120.77
970.899	129.683
975.361	221.502
979.82	122.546
984.276	68.5928
988.73	106.215
993.181	125.927
997.629	276.868
1002.08	70.7519
1006.52	149.74
1010.96	466.84
1015.4	22.877
1019.83	50.3447
1024.26	141.097
1028.69	299.255
1033.12	288.231
1037.55	343.687
1041.97	402.704
1046.39	460.028
1050.81	550.133
1055.22	625.464
1059.63	922.04
1064.04	1172.95
1068.45	746.895
1072.85	671.926
1077.25	598.736
1081.65	399.589
1086.05	442.877
1090.44	490.042
1094.83	367.124
1099.22	372.076
1103.6	335.164
1107.99	242.786
1112.37	171.795
1116.74	225.554
1121.12	267.881
1125.49	186.185
1129.86	138.792
1134.23	55.9102
1138.59	213.941
1142.95	179.316
1147.31	201.779
1151.67	154.747
1156.02	117.099
1160.38	244.084
1164.72	172.173
1169.07	179.01
1173.41	283.394
1177.75	149.075
1182.09	409.987
1186.43	73.1055
1190.76	209.447
1195.09	93.9805
1199.42	129.721
1203.74	61.2441
1208.07	165.142
1212.39	273.097
1216.7	0.605469
1221.02	9.30273
1225.33	8.58789
1229.64	132.691
1233.95	113.738
1238.25	124.947
1242.55	30.2949
1246.85	56.7207
1251.15	157.272
1255.44	145.489
1259.73	22.4922
1264.02	61.293
1268.31	135.252
1272.59	66.2891
1276.87	33.2559
1281.15	82.3769
1285.42	171.556
1289.69	109.838
1293.96	17.4893
1298.23	50.919
1302.5	50.3848
1306.76	140.22
1311.02	82.3398
1315.27	123.929
1319.53	40.0449
1323.78	114.202
1328.03	16.7744
1332.28	129.425
1336.52	6.28125
1340.76	113.962
1345	29.793
1349.23	46.8428
1353.47	0.915039
1357.7	212.171
1361.93	122.238
1366.15	300.69
1370.37	38.3789
1374.59	33.5938
1378.81	124.302
1383.03	24.5244
1387.24	111.352
1391.45	119.976
1395.65	209.662
1399.86	239.78
1404.06	174.369
1408.26	216.085
1412.46	132.429
1416.65	148.54
1420.84	263.356
1425.03	207.352
1429.22	35.5986
1433.4	254.944
1437.58	127.769
1441.76	151.225
1445.93	336.724
1450.11	237.072
1454.28	218.559
1458.44	165.345
1462.61	102.742
1466.77	54.8545
1470.93	208.731
1475.09	169.907
1479.24	159.527
1483.39	207.895
1487.54	9.94336
1491.69	173.064
1495.84	256.714
1499.98	202.428
1504.12	103.567
1508.25	272.732
1512.38	332.816
1516.52	33.5879
1520.64	159.649
1524.77	230.124
1528.89	166.737
1533.01	178.101
1537.13	162.393
1541.25	232.565
1545.36	201.518
1549.47	556.756
1553.58	824.531
1557.68	4.23535
1561.78	28.8203
1565.88	253.398
1569.98	116.71
1574.07	116.706
