Measurement: Raman, 514 nm, ccw, Raman Data Processed
Mineral: Groutite
Rruff sample: R080004
Ideal chemistry: Mn^3+^O(OH)
Locality: Roberts mine, Crosby, Minnesota, USA
Source: Michael Scott
Description: Black crystalline and in some cases striated.
Pin_id: M01041
Orientation: Laser parallel to c* (0 0 1). Fiducial mark perpendicular to laser is parallel to -a [-1 0 0]
Raman shift (cm-1)	intensity
101.939	0
106.879	843.332
111.818	4101.05
116.753	3636.99
121.686	1008.25
126.617	46.7617
131.545	133.381
136.471	783.936
141.393	1399.69
146.314	2199.53
151.232	1745.69
156.147	1075.76
161.06	503.091
165.97	294.914
170.877	355.612
175.782	212.215
180.685	22.5117
185.585	130.153
190.482	140.204
195.377	22.9229
200.269	61.7324
205.158	9.71582
210.045	37.8066
214.93	37.6738
219.812	168.038
224.691	18.2012
229.568	49.2725
234.442	15.5742
239.314	260.106
244.183	747.242
249.049	1443.34
253.913	2204.76
258.775	2588.85
263.633	2017.65
268.49	1346.43
273.343	731.2
278.194	618.425
283.043	588.609
287.889	579.023
292.732	304.134
297.573	379.612
302.411	131.793
307.247	143.67
312.08	254.924
316.91	259.62
321.738	204.195
326.563	558.952
331.386	512.416
336.206	694.577
341.024	1037.23
345.839	1811.89
350.651	2798.46
355.461	4562.31
360.268	4329.35
365.073	2892.96
369.875	1726.63
374.674	1165.54
379.471	1135.97
384.266	1411.2
389.057	1491.49
393.846	955.187
398.633	630.822
403.417	303.28
408.198	489.628
412.977	103.939
417.753	131.773
422.527	35.7227
427.298	47.4199
432.067	271.158
436.832	47.8809
441.596	23.8438
446.356	75.0703
451.115	40.5879
455.87	161.002
460.623	517.148
465.373	221.053
470.121	619.877
474.866	627.848
479.609	954.736
484.349	1235.72
489.086	1576.74
493.821	1667.82
498.553	2486.97
503.283	2971.11
508.01	4332.25
512.734	6455.38
517.456	9831.97
522.175	13615.8
526.892	17467.8
531.606	19036.3
536.317	18438.5
541.026	17586.8
545.732	19175
550.436	22383.4
555.137	25309.3
559.835	25279.1
564.531	17961.7
569.224	11934.1
573.915	8513.62
578.603	6177.36
583.288	4702.51
587.971	3633.59
592.651	3156.88
597.329	3128.48
602.004	3217.19
606.676	4301.98
611.346	6589.68
616.013	9297.32
620.678	11978.1
625.34	11589.1
629.999	8847.31
634.656	6270.68
639.31	4379.76
643.962	2823.44
648.611	1946.73
653.257	1479.6
657.901	956.039
662.542	711.785
667.181	620.848
671.817	471.279
676.45	296.734
681.081	88.6133
685.709	183.606
690.334	204.273
694.957	83.9297
699.578	34.2012
704.195	107.121
708.811	152.406
713.423	128.113
718.033	177.709
722.64	218.135
727.245	273.01
731.847	128.606
736.446	40.5742
741.043	101.004
745.637	192.607
750.229	217.32
754.818	223.371
759.404	314.676
763.988	54.5527
768.569	217.065
773.148	31.9766
777.724	85.2246
782.297	70.3242
786.868	140.023
791.436	20.1113
796.001	21.1113
800.564	162.287
805.125	139.025
809.682	175.309
814.237	194.33
818.79	147.078
823.339	22.5332
827.887	106.141
832.431	7.16406
836.973	125.629
841.513	120.519
846.049	7.47656
850.583	60.7969
855.115	83.0996
859.644	37.0176
864.17	97.2363
868.694	183.969
873.215	42.627
877.733	84.207
882.249	156.971
886.762	197.361
891.273	68.3769
895.781	141
900.286	138.834
904.789	112.439
909.289	239.838
913.786	282.043
918.281	219.113
922.773	314.082
927.263	235.172
931.75	230.227
936.234	373.777
940.716	244.971
945.195	458.344
949.672	221.897
954.146	269.213
958.617	285.691
963.086	287.449
967.552	326.801
972.015	215.193
976.476	221.775
980.934	125.889
985.39	235.369
989.843	152.34
994.293	65.6269
998.741	83.9336
1003.19	33.5879
1007.63	137.565
1012.07	15.625
1016.5	127.254
1020.94	47.3613
1025.37	165.443
1029.8	96.2109
1034.23	9.21094
1038.65	132.086
1043.07	82.2656
1047.49	209.029
1051.91	72.668
1056.32	354.275
1060.73	7.01172
1065.14	206.078
1069.55	211.801
1073.95	134.158
1078.35	196.803
1082.75	407.402
1087.14	435.305
1091.54	260.81
1095.93	206.139
1100.31	275.176
1104.7	339.856
1109.08	467.988
1113.46	236.281
1117.84	259.951
1122.21	312.236
1126.58	306.26
1130.95	381.793
1135.32	296.859
1139.68	192.699
1144.04	507.164
1148.4	471.357
1152.76	506.967
1157.11	409.781
1161.46	457.719
1165.81	565.438
1170.16	637.193
1174.5	351.287
1178.84	455.457
1183.18	393.231
1187.51	554.49
1191.84	413.617
1196.17	650.727
1200.5	457.488
1204.83	471.066
1209.15	537.514
1213.47	564.215
1217.78	369.307
1222.1	249.779
1226.41	383.783
1230.72	225.1
1235.02	292.35
1239.33	426.772
1243.63	474.584
1247.92	401.406
1252.22	543.269
1256.51	418.33
1260.8	348.822
1265.09	296.971
1269.38	318.094
1273.66	361.455
1277.94	323.123
1282.21	212.002
1286.49	221.078
1290.76	209.381
1295.03	236.898
1299.3	194.084
1303.56	191.926
1307.82	129.537
1312.08	170.541
1316.34	112.578
1320.59	172.188
1324.84	116.723
1329.09	20.6309
1333.34	30.4805
1337.58	220.537
1341.82	126.223
1346.06	160.391
1350.29	191.234
1354.53	113.711
1358.76	10.8945
1362.98	143.408
1367.21	68.9785
1371.43	141.281
1375.65	81.3613
1379.87	7.43164
1384.08	96.8125
1388.29	187.566
1392.5	75.8535
1396.71	130.318
1400.91	91.3281
1405.11	101.131
1409.31	166.961
1413.51	171.281
1417.7	119.361
1421.89	11.7871
1426.08	25.6191
1430.26	80.2246
1434.44	54.1191
1438.62	299.799
1442.8	127.045
1446.98	154.82
1451.15	202.076
1455.32	133.998
1459.49	167.312
1463.65	452.703
1467.81	139.465
1471.97	242.807
1476.13	196.277
1480.28	198.107
1484.43	233.66
1488.58	218.022
1492.73	122.856
1496.87	69.5977
1501.01	241.338
1505.15	48.2207
1509.29	90.2461
1513.42	264.727
1517.55	373.998
1521.67	189.26
1525.8	73.5098
1529.92	267.805
1534.04	143.297
1538.16	279.336
1542.27	353.174
1546.39	116.049
1550.49	372.465
1554.6	564.914
1558.71	24.8789
1562.81	134.565
1566.91	160.709
1571	49.2168
1575.1	170.728
