Measurement: Raman, 514 nm, ccw, Raman Data Processed
Mineral: Groutite
Rruff sample: R080004
Ideal chemistry: Mn^3+^O(OH)
Locality: Roberts mine, Crosby, Minnesota, USA
Source: Michael Scott
Description: Black crystalline and in some cases striated.
Pin_id: M01041
Orientation: Laser parallel to c* (0 0 1). Fiducial mark perpendicular to laser is parallel to -a [-1 0 0]
Raman shift (cm-1)	intensity
101.939	0
106.879	328.881
111.818	463.764
116.753	6096.83
121.686	17461
126.617	471.022
131.545	98.4844
136.471	72.1865
141.393	1163.49
146.314	1575.77
151.232	1298.44
156.147	1277.4
161.06	691.604
165.97	613.553
170.877	555.092
175.782	387.899
180.685	165.056
185.585	132.12
190.482	387.607
195.377	199.573
200.269	119.772
205.158	61.6768
210.045	81.7695
214.93	245.248
219.812	320.219
224.691	146.745
229.568	130.379
234.442	101.438
239.314	175.377
244.183	185.011
249.049	684.925
253.913	1377.03
258.775	1579.32
263.633	1334.76
268.49	1008.53
273.343	680.833
278.194	750.96
283.043	995.893
287.889	624.407
292.732	383.271
297.573	342.163
302.411	377.889
307.247	374.678
312.08	413.49
316.91	692.148
321.738	809.135
326.563	972.469
331.386	961.462
336.206	1046.35
341.024	1492.39
345.839	1886.87
350.651	3173.35
355.461	4396.31
360.268	4627.12
365.073	3140.61
369.875	2284.55
374.674	1945.09
379.471	2832.69
384.266	4281.85
389.057	4424.43
393.846	2972.99
398.633	1951.48
403.417	1142.49
408.198	554.129
412.977	334.562
417.753	111.961
422.527	29.4141
427.298	172.652
432.067	150.076
436.832	171.035
441.596	26.3438
446.356	31.4668
451.115	97.6348
455.87	324.295
460.623	302.135
465.373	465.353
470.121	520.979
474.866	879.852
479.609	1096.92
484.349	1670.13
489.086	2059.49
493.821	2445.48
498.553	2763.35
503.283	3268.76
508.01	4392.55
512.734	6462.64
517.456	9642.2
522.175	13362.3
526.892	16925.9
531.606	18231.1
536.317	17252.6
541.026	17019.2
545.732	18232.2
550.436	21459.3
555.137	23873.7
559.835	22450.4
564.531	17342.6
569.224	12283
573.915	8901.04
578.603	6436.09
583.288	4876.73
587.971	3866.34
592.651	3692.49
597.329	4376.39
602.004	5547.51
606.676	8387.9
611.346	14012.6
616.013	21696.4
620.678	29224.4
625.34	29226.5
629.999	22039.8
634.656	14731.2
639.31	9731.61
643.962	6211.14
648.611	4154.69
653.257	2946.97
657.901	2018.14
662.542	1497.18
667.181	825.564
671.817	975.826
676.45	368.135
681.081	440.01
685.709	272.022
690.334	186.225
694.957	111.518
699.578	231.406
704.195	125.447
708.811	114.227
713.423	174.49
718.033	153.644
722.64	234.643
727.245	171.695
731.847	50.377
736.446	153.738
741.043	127.998
745.637	99.8848
750.229	175.557
754.818	156.791
759.404	261.32
763.988	77.8457
768.569	82.7285
773.148	138.742
777.724	57.957
782.297	105.769
786.868	218.684
791.436	139.9
796.001	117.658
800.564	5.52539
805.125	138.59
809.682	132.723
814.237	78.1875
818.79	27.8848
823.339	116.281
827.887	230.065
832.431	64.7637
836.973	53.373
841.513	13.3711
846.049	44.4121
850.583	201.084
855.115	85.5254
859.644	4.31641
864.17	157.301
868.694	97.4531
873.215	209.025
877.733	105.049
882.249	173.035
886.762	280.615
891.273	292.113
895.781	75.8789
900.286	157.285
904.789	452.627
909.289	215.662
913.786	140.85
918.281	386.361
922.773	341.641
927.263	392.369
931.75	521.545
936.234	553.104
940.716	327.801
945.195	331.83
949.672	591.084
954.146	466.815
958.617	324.098
963.086	411.199
967.552	264.773
972.015	449.389
976.476	234.135
980.934	474.9
985.39	368.316
989.843	278.801
994.293	397.881
998.741	270.201
1003.19	248.394
1007.63	198.227
1012.07	257.644
1016.5	29.3438
1020.94	79.4238
1025.37	46.7734
1029.8	41.3945
1034.23	57.0957
1038.65	242.09
1043.07	248.836
1047.49	69.4434
1051.91	321.607
1056.32	308.894
1060.73	136.627
1065.14	300.435
1069.55	374.477
1073.95	290.984
1078.35	435.07
1082.75	225.768
1087.14	459.951
1091.54	242.533
1095.93	295.613
1100.31	316.238
1104.7	421.543
1109.08	565.559
1113.46	243.356
1117.84	691.84
1122.21	420.695
1126.58	441.322
1130.95	525.441
1135.32	643.332
1139.68	541.703
1144.04	507.846
1148.4	496.201
1152.76	625.35
1157.11	617.676
1161.46	556.922
1165.81	553.721
1170.16	482.135
1174.5	692.391
1178.84	392.34
1183.18	453.76
1187.51	702.664
1191.84	512.014
1196.17	785.811
1200.5	438.492
1204.83	660.314
1209.15	587.424
1213.47	569.057
1217.78	581.836
1222.1	457.414
1226.41	530.154
1230.72	712.074
1235.02	727.072
1239.33	432.961
1243.63	470.16
1247.92	568.527
1252.22	448.527
1256.51	693.019
1260.8	489.676
1265.09	451.812
1269.38	544.518
1273.66	500.842
1277.94	430.803
1282.21	502.594
1286.49	404.44
1290.76	289.613
1295.03	261.9
1299.3	194.309
1303.56	428.453
1307.82	222.697
1312.08	285.215
1316.34	217.125
1320.59	104.688
1324.84	155.062
1329.09	191.328
1333.34	70.0195
1337.58	87.4004
1341.82	7.0293
1346.06	53.0137
1350.29	44.9199
1354.53	1.08203
1358.76	247.141
1362.98	105.641
1367.21	154.705
1371.43	159.57
1375.65	46.3242
1379.87	119.106
1384.08	38.7285
1388.29	72.8301
1392.5	89.6445
1396.71	198.912
1400.91	1.99805
1405.11	179.85
1409.31	70.4824
1413.51	167.891
1417.7	344.185
1421.89	194.455
1426.08	248.529
1430.26	233.522
1434.44	83.5293
1438.62	208.584
1442.8	211.227
1446.98	232.059
1451.15	50.7148
1455.32	275.728
1459.49	189.062
1463.65	155.633
1467.81	280.764
1471.97	248.682
1476.13	208.453
1480.28	48.3398
1484.43	277.203
1488.58	229.592
1492.73	197.648
1496.87	65.7539
1501.01	315.35
1505.15	203.879
1509.29	402.635
1513.42	100.246
1517.55	347.969
1521.67	212.693
1525.8	335.971
1529.92	253.305
1534.04	109.723
1538.16	294.482
1542.27	25.5449
1546.39	316.762
1550.49	603.592
1554.6	1177.69
1558.71	252.266
1562.81	270.062
1566.91	383.238
1571	252.455
1575.1	146.736
