Measurement: Raman, 514 nm, ccw, Raman Data Processed
Mineral: Groutite
Rruff sample: R080004
Ideal chemistry: Mn^3+^O(OH)
Locality: Roberts mine, Crosby, Minnesota, USA
Source: Michael Scott
Description: Black crystalline and in some cases striated.
Pin_id: M01041
Orientation: Laser parallel to c* (0 0 1). Fiducial mark perpendicular to laser is parallel to -a [-1 0 0]
Raman shift (cm-1)	intensity
101.939	0
106.879	799.436
111.818	328.047
116.753	2298.02
121.686	6295.88
126.617	445.601
131.545	392.291
136.471	677.076
141.393	1579.93
146.314	2360.52
151.232	1955.89
156.147	1353.81
161.06	848.348
165.97	446.389
170.877	178.556
175.782	96.168
180.685	57.5474
185.585	37.1675
190.482	86.1162
195.377	31.8794
200.269	18.3306
205.158	46.1489
210.045	49.3145
214.93	83.981
219.812	124.495
224.691	34.7695
229.568	118.221
234.442	288.731
239.314	663.174
244.183	1562.51
249.049	2855.86
253.913	4249.55
258.775	4868.93
263.633	3921.48
268.49	2636.1
273.343	1787.03
278.194	1506.8
283.043	1521.04
287.889	1356.29
292.732	1069.1
297.573	728.035
302.411	718.499
307.247	662.96
312.08	647.905
316.91	711.687
321.738	804.518
326.563	877.896
331.386	959.02
336.206	1107.51
341.024	1546.96
345.839	2309.48
350.651	3876.65
355.461	5464.66
360.268	5605.74
365.073	3972.12
369.875	2671.03
374.674	1859.56
379.471	1721.36
384.266	1752.64
389.057	1713
393.846	1170.43
398.633	744.656
403.417	367.555
408.198	296.147
412.977	77.4668
417.753	45.4512
422.527	15.9453
427.298	111.91
432.067	35.6519
436.832	66.9365
441.596	52.5381
446.356	45.23
451.115	53.0478
455.87	58.502
460.623	264.205
465.373	322.204
470.121	335.616
474.866	581.627
479.609	783.269
484.349	1138.54
489.086	1535.44
493.821	1602.92
498.553	1658.1
503.283	2375.36
508.01	3495.69
512.734	5103.83
517.456	7749.46
522.175	10977.5
526.892	13936
531.606	15161.8
536.317	14882.1
541.026	14474.9
545.732	15280.1
550.436	17012.8
555.137	18530.2
559.835	17013.9
564.531	12848.8
569.224	8806.62
573.915	6221.29
578.603	4590.37
583.288	3589.42
587.971	3003.07
592.651	2832.01
597.329	2831.54
602.004	3196.6
606.676	4185.81
611.346	6264.34
616.013	9382.46
620.678	11746.1
625.34	11561.2
629.999	8809.8
634.656	6043.7
639.31	4215.98
643.962	2808.73
648.611	1974.13
653.257	1465.89
657.901	891.044
662.542	634.616
667.181	537.377
671.817	358.588
676.45	223.928
681.081	231.885
685.709	135.147
690.334	13.7012
694.957	77.8232
699.578	2.60059
704.195	34.2476
708.811	161.188
713.423	122.665
718.033	69.6011
722.64	81.4351
727.245	225.616
731.847	162.634
736.446	143.273
741.043	130.883
745.637	198.227
750.229	116.362
754.818	262.991
759.404	62.4878
763.988	176.928
768.569	95.2793
773.148	82.8023
777.724	44.7266
782.297	40.5493
786.868	226.276
791.436	42.2993
796.001	10.1958
800.564	94.3564
805.125	40.2744
809.682	21.937
814.237	84.231
818.79	8.90674
823.339	72.7495
827.887	4.10498
832.431	14.5127
836.973	19.5537
841.513	41.8745
846.049	15.7407
850.583	18.6138
855.115	66.8936
859.644	5.35303
864.17	14.4673
868.694	38.6284
873.215	64.3511
877.733	15.2886
882.249	161.555
886.762	60.9404
891.273	103.193
895.781	212.216
900.286	111.827
904.789	80.1084
909.289	207.774
913.786	257.681
918.281	243.509
922.773	224.017
927.263	216.213
931.75	225.06
936.234	230.874
940.716	224.747
945.195	240.011
949.672	301.166
954.146	345.662
958.617	296.859
963.086	260.819
967.552	371.503
972.015	350.441
976.476	207.266
980.934	127.635
985.39	228.83
989.843	285.601
994.293	171.804
998.741	258.131
1003.19	79.6675
1007.63	57.1602
1012.07	235.848
1016.5	21.835
1020.94	132.709
1025.37	17.5625
1029.8	0.539063
1034.23	23.8872
1038.65	26.7798
1043.07	15.2725
1047.49	29.4023
1051.91	52.3062
1056.32	71.418
1060.73	178.751
1065.14	226.318
1069.55	253.136
1073.95	273.236
1078.35	287.629
1082.75	384.104
1087.14	383.487
1091.54	297.976
1095.93	399.807
1100.31	394.076
1104.7	420.002
1109.08	423.615
1113.46	367.991
1117.84	422.231
1122.21	404.326
1126.58	370.192
1130.95	502.863
1135.32	501.137
1139.68	533.756
1144.04	546.952
1148.4	617.085
1152.76	604.941
1157.11	615.995
1161.46	686.763
1165.81	690.803
1170.16	751.411
1174.5	712.049
1178.84	687.997
1183.18	832.35
1187.51	782.111
1191.84	783.276
1196.17	756.838
1200.5	756.793
1204.83	738.144
1209.15	667.902
1213.47	681.046
1217.78	735.562
1222.1	607.162
1226.41	630.683
1230.72	718.218
1235.02	779.404
1239.33	592
1243.63	733.613
1247.92	659.39
1252.22	732.296
1256.51	747.29
1260.8	638.87
1265.09	643.394
1269.38	634.444
1273.66	621.434
1277.94	466.802
1282.21	518.985
1286.49	494.508
1290.76	515.188
1295.03	326.705
1299.3	236.962
1303.56	340.828
1307.82	364.838
1312.08	179.04
1316.34	142.373
1320.59	164.648
1324.84	180.79
1329.09	100.906
1333.34	130.833
1337.58	1.77148
1341.82	100.778
1346.06	61.2188
1350.29	104.365
1354.53	135.112
1358.76	20.7349
1362.98	100.868
1367.21	52.8237
1371.43	101.186
1375.65	56.2754
1379.87	44.5347
1384.08	151.375
1388.29	40.5059
1392.5	34.8403
1396.71	0.200195
1400.91	12.9771
1405.11	8.63135
1409.31	28.7085
1413.51	60.7964
1417.7	121.081
1421.89	88.7002
1426.08	18.0645
1430.26	124.893
1434.44	107.015
1438.62	62.7593
1442.8	106.411
1446.98	138.611
1451.15	167.802
1455.32	109.632
1459.49	106.189
1463.65	105.511
1467.81	116.015
1471.97	189.074
1476.13	99.71
1480.28	180.418
1484.43	174.714
1488.58	170.794
1492.73	13.4634
1496.87	33.5654
1501.01	74.3023
1505.15	175.716
1509.29	41.6572
1513.42	157.202
1517.55	91.4805
1521.67	55.4785
1525.8	140.881
1529.92	110.207
1534.04	140.991
1538.16	86.5996
1542.27	112.06
1546.39	71.6333
1550.49	386.018
1554.6	546.606
1558.71	61.8032
1562.81	93.5405
1566.91	30.9351
1571	127.941
1575.1	20.0278
