Measurement: Raman, 514 nm, ccw, Raman Data Processed
Mineral: Groutite
Rruff sample: R080004
Ideal chemistry: Mn^3+^O(OH)
Locality: Roberts mine, Crosby, Minnesota, USA
Source: Michael Scott
Description: Black crystalline and in some cases striated.
Pin_id: M01773
Orientation: Laser parallel to b* (0 1 0). Fiducial mark perpendicular to laser is parallel to -c [0 0 -1]
Raman shift (cm-1)	intensity
109.218	0
114.144	2994.49
119.067	2296.67
123.988	1046.64
128.907	62.0537
133.824	202.333
138.738	1543.06
143.65	559.059
148.56	240.62
153.467	532.49
158.372	641.54
163.275	658.116
168.175	270.067
173.073	464.91
177.969	732.511
182.862	1570.21
187.753	430.6
192.641	144.37
197.528	78.5879
202.411	62.9111
207.293	91.9922
212.172	62.2275
217.049	484.624
221.923	689.417
226.795	682.182
231.665	368.188
236.533	174.766
241.398	34.9922
246.26	202.746
251.12	636.396
255.978	1234.57
260.834	2524.46
265.687	3773.11
270.537	4363.11
275.386	3121.93
280.232	1994.54
285.075	923.625
289.916	466.678
294.755	266.242
299.591	325.644
304.425	162.238
309.257	388.606
314.086	306.065
318.912	197.01
323.737	11.7451
328.558	210.836
333.378	6.15137
338.195	336.75
343.009	608.15
347.822	1237.8
352.631	1437.25
357.439	1183.88
362.244	944.993
367.046	983.759
371.846	1448.42
376.644	3042.43
381.439	4511.45
386.231	4596.19
391.022	3317.28
395.809	3445.05
400.595	4434.49
405.378	5177.39
410.158	3115.27
414.936	1148.36
419.712	390.894
424.485	107.125
429.255	46.0322
434.024	19.8105
438.789	59.1162
443.553	62.3457
448.313	54.3467
453.072	0.972656
457.827	88.709
462.581	59.457
467.332	46.8584
472.08	192.591
476.826	72.001
481.569	275.968
486.31	216.447
491.049	438.775
495.784	436.606
500.518	524.932
505.249	728.762
509.977	888.889
514.703	994.264
519.427	1395.97
524.148	1625.07
528.866	2321.88
533.582	3425.61
538.295	4782.45
543.006	7227.68
547.715	9885.21
552.421	11699.7
557.124	11644.3
561.825	10435.6
566.523	8936.24
571.219	7502.5
575.912	6146.49
580.603	5351.03
585.291	4719.82
589.977	4115.92
594.66	3593.6
599.341	3250.58
604.019	3048.69
608.694	3252.83
613.367	4240.95
618.038	5939.78
622.706	8270.3
627.371	10065.1
632.034	9811.34
636.694	7549.67
641.352	5081.09
646.007	3371.94
650.66	2325.81
655.31	1865.02
659.957	1336.44
664.602	986.269
669.245	886.925
673.884	518.703
678.522	417.171
683.156	539.868
687.788	412.135
692.418	187.891
697.045	225.688
701.669	109.727
706.291	184.266
710.91	5.53125
715.527	300.276
720.141	48.9131
724.752	192.619
729.361	244.348
733.968	207.926
738.571	68.4951
743.172	232.143
747.771	26.3184
752.367	186.727
756.96	454.463
761.551	202.249
766.139	92.6543
770.725	142.786
775.307	298.576
779.888	170.842
784.465	6.53027
789.041	95.3418
793.613	75.5635
798.183	205.484
802.75	140.131
807.315	48.8818
811.877	91.4365
816.436	115.055
820.993	14.0049
825.547	51.7217
830.099	110.543
834.648	201.944
839.194	9.60254
843.737	36.5205
848.278	23.5488
852.817	97.8848
857.353	107.928
861.886	103.546
866.416	142.134
870.944	137.959
875.469	282.989
879.992	202.117
884.512	294.074
889.029	327.974
893.544	248.032
898.055	377.874
902.565	349.412
907.071	224.526
911.575	410.487
916.077	437.339
920.575	577.503
925.072	365.041
929.565	421.359
934.056	291.699
938.544	301.835
943.029	426.846
947.512	416.56
951.992	450.894
956.469	343.205
960.944	494.352
965.416	351.159
969.885	218.199
974.352	230.815
978.816	138.52
983.277	275.014
987.736	5.10352
992.192	271.127
996.645	221.435
1001.1	142.783
1005.54	73.5488
1009.99	43.8164
1014.43	97.2305
1018.87	39.8838
1023.31	15.0791
1027.74	144.227
1032.17	290.987
1036.6	237.268
1041.03	193.537
1045.45	225.086
1049.88	406.999
1054.29	456.278
1058.71	465.773
1063.12	1170.18
1067.53	1569.19
1071.94	1800.03
1076.34	1520.11
1080.75	987.83
1085.14	839.782
1089.54	571.173
1093.94	323.185
1098.33	330.985
1102.71	358.485
1107.1	228.614
1111.48	99.3359
1115.86	169.417
1120.24	178.282
1124.62	103.655
1128.99	144.138
1133.36	176.99
1137.72	49.1357
1142.09	115.557
1146.45	301.834
1150.81	325.248
1155.16	221.733
1159.52	339.598
1163.87	340.808
1168.21	271.403
1172.56	381.38
1176.9	354.72
1181.24	375.438
1185.58	367.957
1189.91	402.993
1194.24	397.217
1198.57	379.978
1202.9	239.518
1207.22	256.607
1211.54	220.757
1215.86	193.341
1220.17	114.908
1224.48	224.967
1228.79	139.165
1233.1	87.0938
1237.4	141.715
1241.7	60.5303
1246	209.712
1250.3	71.8848
1254.59	27.9746
1258.88	73.2959
1263.17	12.7998
1267.45	222.15
1271.73	41.957
1276.01	112.464
1280.29	29.4932
1284.56	111.894
1288.83	59.5195
1293.1	170.884
1297.36	228.699
1301.62	186.323
1305.88	214.945
1310.14	121.736
1314.39	105.834
1318.64	18.375
1322.89	140.812
1327.14	70.8291
1331.38	152.599
1335.62	173.27
1339.86	352.396
1344.09	183.784
1348.32	94.4336
1352.55	213.459
1356.78	97.2012
1361	186.735
1365.22	23.3115
1369.44	12.8145
1373.65	289.974
1377.87	117.632
1382.07	147.757
1386.28	8.54688
1390.48	176.523
1394.68	213.74
1398.88	66.0879
1403.08	20.0615
1407.27	204.02
1411.46	371.565
1415.64	216.23
1419.83	100.664
1424.01	50.7451
1428.19	241.471
1432.36	103.293
1436.54	181.106
1440.71	92.0342
1444.87	165.731
1449.04	188.643
1453.2	206.845
1457.36	145.158
1461.51	215.144
1465.67	159.103
1469.82	198.872
1473.96	149.079
1478.11	244.226
1482.25	213.041
1486.39	183.954
1490.52	7.27441
1494.66	259.326
1498.79	327.035
1502.91	66.2246
1507.04	22.334
1511.16	228.122
1515.28	128.19
1519.4	134.192
1523.51	109.696
1527.62	104.674
1531.73	171.654
1535.83	45.9375
1539.93	241.33
1544.03	130.994
1548.13	256.525
1552.22	684.483
1556.31	166.481
1560.4	154.259
1564.49	10.2598
1568.57	184.379
1572.65	260.221
1576.72	0
