Measurement: Raman, 514 nm, depolarized, Raman Data Processed
Mineral: Groutite
Rruff sample: R080004
Ideal chemistry: Mn^3+^O(OH)
Locality: Roberts mine, Crosby, Minnesota, USA
Source: Michael Scott
Description: Black crystalline and in some cases striated.
Pin_id: M01041
Orientation: Laser parallel to c* (0 0 1). Fiducial mark perpendicular to laser is parallel to -a [-1 0 0]
Raman shift (cm-1)	intensity
101.939	0
106.879	1126.28
111.818	975.372
116.753	2903.55
121.686	3837.64
126.617	83.9443
131.545	107.441
136.471	568.645
141.393	1328.51
146.314	1795.52
151.232	1701.57
156.147	1282.26
161.06	721.02
165.97	603.126
170.877	453.482
175.782	219.512
180.685	70.2656
185.585	80.2007
190.482	61.3272
195.377	2.07959
200.269	136.224
205.158	53.917
210.045	42.8897
214.93	12.5483
219.812	12.4722
224.691	74.8257
229.568	19.8945
234.442	169.052
239.314	501.289
244.183	951.535
249.049	2099.21
253.913	2515.26
258.775	2867.78
263.633	2323.31
268.49	1750.42
273.343	1195.86
278.194	1081
283.043	1167.14
287.889	1004.72
292.732	589.168
297.573	504.068
302.411	447.418
307.247	515.318
312.08	601.479
316.91	741.439
321.738	716.972
326.563	907.63
331.386	1025.55
336.206	1038.11
341.024	1362.84
345.839	2139.64
350.651	3467.78
355.461	4662.82
360.268	4940.51
365.073	3530.17
369.875	2391.33
374.674	2093.22
379.471	2262.34
384.266	3200.85
389.057	3322.18
393.846	2382.74
398.633	1551.09
403.417	759.141
408.198	522.928
412.977	303.514
417.753	71.959
422.527	59.3633
427.298	117.356
432.067	143.648
436.832	99.5869
441.596	35.9287
446.356	33.1973
451.115	50.8721
455.87	27.8789
460.623	160.045
465.373	178.748
470.121	279.634
474.866	478.216
479.609	808.097
484.349	1162.91
489.086	1530.65
493.821	1884.29
498.553	1973.52
503.283	2541.61
508.01	3582.41
512.734	5488.07
517.456	8296.95
522.175	11934.7
526.892	14794.3
531.606	16538.6
536.317	15953.7
541.026	15690.5
545.732	16802.1
550.436	19562.6
555.137	21104.8
559.835	19941.9
564.531	15136.9
569.224	10358.8
573.915	7111.11
578.603	5138.81
583.288	4129.88
587.971	3560.94
592.651	3420.43
597.329	3535.76
602.004	4461
606.676	6225.1
611.346	9970.02
616.013	15309.8
620.678	20507.3
625.34	20554.6
629.999	15666.7
634.656	10712.6
639.31	7046.64
643.962	4630.92
648.611	3247.98
653.257	2313.71
657.901	1562.83
662.542	1193.05
667.181	751.779
671.817	525.66
676.45	387.915
681.081	276.772
685.709	192.567
690.334	127.122
694.957	77.1045
699.578	18.3281
704.195	63.4775
708.811	127.451
713.423	248.191
718.033	226.319
722.64	179.067
727.245	184.37
731.847	171.622
736.446	285.59
741.043	194.108
745.637	171.495
750.229	50.5576
754.818	122.596
759.404	102.428
763.988	162.62
768.569	157.731
773.148	49.332
777.724	72.7939
782.297	53.5723
786.868	135.455
791.436	63.2685
796.001	122.926
800.564	34.2822
805.125	42.707
809.682	72.7764
814.237	88.8496
818.79	85.5518
823.339	29.7168
827.887	38.332
832.431	7.47656
836.973	27.8877
841.513	108.118
846.049	48.4336
850.583	19.8574
855.115	51.0176
859.644	45.0391
864.17	17.4844
868.694	60.4736
873.215	77.8369
877.733	26.4473
882.249	162.475
886.762	184.716
891.273	79.9092
895.781	144.427
900.286	102.138
904.789	139.207
909.289	108.454
913.786	262.144
918.281	195.751
922.773	252.826
927.263	178.552
931.75	247.549
936.234	286.965
940.716	290.048
945.195	300.16
949.672	292.034
954.146	377.5
958.617	381.86
963.086	288.937
967.552	300.426
972.015	376.611
976.476	256.18
980.934	321.088
985.39	263.523
989.843	276.907
994.293	186.004
998.741	164.606
1003.19	83.9111
1007.63	112.427
1012.07	167.525
1016.5	51.5283
1020.94	11.2715
1025.37	96.5439
1029.8	17.8496
1034.23	19.5996
1038.65	81.6894
1043.07	29.0234
1047.49	99.6357
1051.91	48.3691
1056.32	126.238
1060.73	235.31
1065.14	186.629
1069.55	252.186
1073.95	157.008
1078.35	286.199
1082.75	298.685
1087.14	427.512
1091.54	153.249
1095.93	208.755
1100.31	354.97
1104.7	345.993
1109.08	348.232
1113.46	403.301
1117.84	383.92
1122.21	349.13
1126.58	377.958
1130.95	331.391
1135.32	445.425
1139.68	477.997
1144.04	512.078
1148.4	633.285
1152.76	613.956
1157.11	687.464
1161.46	608.526
1165.81	676.109
1170.16	683.012
1174.5	683.17
1178.84	640.877
1183.18	767.769
1187.51	637.505
1191.84	547.359
1196.17	683.638
1200.5	706.431
1204.83	636.609
1209.15	527.171
1213.47	724.746
1217.78	600.074
1222.1	623.615
1226.41	562.761
1230.72	656.123
1235.02	577.113
1239.33	614.205
1243.63	736.12
1247.92	600.589
1252.22	615.775
1256.51	578.587
1260.8	634.806
1265.09	588.944
1269.38	558.053
1273.66	583.557
1277.94	409.486
1282.21	493.174
1286.49	438.293
1290.76	373.661
1295.03	271.367
1299.3	298.714
1303.56	204.468
1307.82	311.257
1312.08	154.117
1316.34	168.894
1320.59	171.63
1324.84	123.357
1329.09	171.62
1333.34	110.562
1337.58	12.1035
1341.82	0.045898
1346.06	44.7031
1350.29	1.10449
1354.53	18.7842
1358.76	86.4004
1362.98	160.667
1367.21	32.9463
1371.43	56.1348
1375.65	159.472
1379.87	36.3574
1384.08	155.057
1388.29	33.3555
1392.5	216.741
1396.71	49.4717
1400.91	66.8857
1405.11	49.3438
1409.31	13.3633
1413.51	218.698
1417.7	48.4307
1421.89	10.8135
1426.08	129.25
1430.26	229.898
1434.44	239.623
1438.62	70.5938
1442.8	137.438
1446.98	289.273
1451.15	199.472
1455.32	233.75
1459.49	52.2588
1463.65	208.583
1467.81	65.5508
1471.97	46.0342
1476.13	35.7441
1480.28	218.768
1484.43	44.0908
1488.58	159.225
1492.73	153.222
1496.87	127.648
1501.01	113.85
1505.15	161.369
1509.29	147.4
1513.42	131.822
1517.55	129.676
1521.67	66.457
1525.8	196.992
1529.92	81.0713
1534.04	92.0547
1538.16	64.376
1542.27	86.5518
1546.39	167.346
1550.49	239.444
1554.6	624.363
1558.71	19.9697
1562.81	46.3428
1566.91	13.7168
1571	153.663
1575.1	31.6162
