Measurement: Raman, 514 nm, ccw, Raman Data Processed
Mineral: Grunerite
Rruff sample: R040150
Ideal chemistry: [box]Fe^2+^_2_Fe^2+^_5_Si_8_O_22_(OH)_2_
Locality: Smallwood mine, Heath Lake, Newfoundland, Canada
Source: University of Arizona Mineral Museum
Description: Brown bladed crystals in parallel aggregate
Measured chemistry: (Fe_0.69_Mg_0.27_Ca_0.02_Mn_0.02_)_7_Si_8.02_O_22_((OH)_0.98_Cl_0.02_)_2_
Pin_id: M00276
Orientation: Laser parallel to (1 0 1). Fiducial mark perpendicular to laser is parallel to b [0 1 0]
Raman shift (cm-1)	intensity
72.074	0
77.039	998.417
82	1000.3
86.959	185.592
91.916	42.5837
96.869	450.204
101.82	870.845
106.768	163.95
111.713	79.3474
116.656	295.941
121.596	794.736
126.533	1140.35
131.467	613.481
136.399	775.299
141.328	149.043
146.254	203.378
151.178	1657.53
156.098	5942.59
161.017	5699.03
165.932	2152.05
170.845	2187.29
175.755	4204.53
180.662	9813.76
185.567	14342
190.469	11452.2
195.368	6681.69
200.264	5004.03
205.158	4143.53
210.049	3996.53
214.937	3804.64
219.823	3767.27
224.706	3028.32
229.586	2085.81
234.464	1595.27
239.339	1199.65
244.211	809.287
249.081	514.344
253.947	347.387
258.812	328.69
263.673	110.262
268.532	298.474
273.388	201.263
278.241	350.575
283.092	644.356
287.94	911.547
292.785	1161.65
297.628	1162.2
302.468	1082.87
307.305	938.953
312.14	1000.58
316.972	1107.98
321.801	1128.52
326.628	1028.85
331.451	1112.92
336.273	1432.69
341.091	2394.76
345.907	3890
350.72	4692.05
355.531	4057.9
360.339	3565.52
365.144	4034.91
369.947	3925.11
374.746	2273.14
379.544	1213.04
384.338	815.875
389.13	776.658
393.919	987.301
398.706	1597.78
403.49	1829.25
408.271	1611.67
413.05	1554.88
417.826	1540.84
422.599	1996.56
427.37	1632
432.138	627.161
436.903	164.025
441.666	24.4663
446.426	109.532
451.183	142.852
455.938	109.526
460.69	105.025
465.44	13.0845
470.187	52.9893
474.931	100.489
479.672	100.118
484.411	281.27
489.148	421.019
493.881	800.369
498.612	637.322
503.341	767.88
508.066	1086.05
512.789	1191.82
517.51	1198.22
522.228	1856.29
526.943	2962.09
531.656	3428.81
536.365	2138.43
541.073	1252.97
545.778	747.248
550.48	558.286
555.179	575.03
559.876	687.53
564.57	579.705
569.262	409.519
573.951	227.989
578.637	163.119
583.321	3.38281
588.002	4.49609
592.68	65.2578
597.356	76.7622
602.03	104.492
606.7	123.219
611.368	277.707
616.034	456.306
620.697	777.374
625.357	1405.6
630.014	2237.9
634.67	3433.15
639.322	4520.39
643.972	6361.6
648.619	10224.8
653.264	17995.1
657.906	31964.4
662.545	39936.7
667.182	24097.2
671.816	10564.5
676.448	5373.78
681.077	3619.27
685.703	2717.53
690.327	2561.18
694.948	2130.52
699.567	1386.67
704.183	929.494
708.797	665.394
713.407	497.243
718.016	307.388
722.621	345.87
727.225	173.083
731.825	92.5244
736.423	122.591
741.019	209.638
745.611	291.38
750.202	76.8047
754.789	232.994
759.374	432.618
763.957	591.552
768.537	316.795
773.114	108.357
777.689	263.252
782.261	175.491
786.831	168.085
791.398	40.6567
795.963	4.63428
800.524	20.0747
805.084	72.4189
809.641	14.0117
814.195	75.6665
818.747	26.4688
823.296	26.9868
827.842	80.668
832.386	59.9414
836.928	34.9053
841.467	83.6157
846.003	55.8462
850.537	153.581
855.068	19.8501
859.597	166.689
864.123	229.185
868.646	245.392
873.167	337.187
877.686	428.594
882.202	418.505
886.715	506.512
891.226	555.391
895.734	728.122
900.24	960.523
904.743	1322.58
909.244	1463.29
913.742	1370.6
918.238	1278.52
922.731	954.078
927.221	1024.3
931.709	905.497
936.195	904.42
940.678	902.942
945.158	1062.91
949.636	1178.96
954.111	1763.03
958.584	2406.74
963.054	3652.15
967.522	4491.6
971.987	4420.4
976.45	3519.67
980.91	2746.69
985.368	2503.58
989.823	2533.68
994.275	3219.13
998.725	4216.96
1003.17	4519.47
1007.62	4506.66
1012.06	6076.54
1016.5	8822.24
1020.94	12295.2
1025.37	13202.2
1029.81	10212.9
1034.23	6582.95
1038.66	4370.61
1043.09	3117.18
1047.51	2336.63
1051.93	1741.89
1056.35	1334.65
1060.76	1219.45
1065.17	904.493
1069.58	931.234
1073.99	803.836
1078.4	858.978
1082.8	831.505
1087.2	1148.42
1091.6	1295.8
1095.99	1906.98
1100.38	1823.16
1104.77	1118.89
1109.16	563.091
1113.55	393.212
1117.93	183.313
1122.31	340.084
1126.68	157.319
1131.06	111.865
1135.43	187.793
1139.8	70.8467
1144.17	12.0356
1148.54	181.605
1152.9	93.3184
1157.26	13.6885
1161.62	82.5698
1165.97	22.1343
1170.32	46.0957
1174.67	26.9648
1179.02	13.0806
1183.37	18.1348
1187.71	28.0508
1192.05	48.377
1196.39	41.2402
1200.72	52.1133
1205.05	153.667
1209.38	90.2671
1213.71	12.3848
1218.04	58.5352
1222.36	83.9727
1226.68	144.934
1231	48.021
1235.31	22.7119
1239.63	120.082
1243.94	126.889
1248.25	145.261
1252.55	123.8
1256.86	205.768
1261.15	176.698
1265.45	245.102
1269.75	227.77
1274.04	172.603
1278.33	308.422
1282.62	340.435
1286.91	305.833
1291.19	355.133
1295.47	247.769
1299.75	314.216
1304.03	229.533
1308.3	323.242
1312.57	283.728
1316.84	266.13
1321.11	246.188
1325.37	206.137
1329.63	123.703
1333.89	76.7061
1338.15	30.5459
1342.4	84.4976
1346.65	26.3135
1350.9	56.624
1355.15	104.138
1359.4	123.193
1363.64	74.4556
1367.88	16.9722
1372.12	41.0337
1376.35	112.452
1380.58	73.7602
1384.81	3.21973
1389.04	126.784
1393.26	44.8438
1397.49	97.7236
1401.71	43.4141
1405.92	27.9902
1410.14	22.5273
1414.35	11.5664
1418.56	82.7627
1422.77	26.6924
1426.98	183.121
1431.18	165.542
1435.38	293.219
1439.58	293.569
1443.78	174.029
1447.97	345.302
1452.16	249.961
1456.35	250.244
1460.54	210.736
1464.72	284.552
1468.9	291.924
1473.08	249.273
1477.26	184.102
1481.43	208.456
1485.6	209.036
1489.77	193.959
1493.94	228.795
1498.1	215.125
1502.27	175.204
1506.43	9.93164
1510.58	118.159
1514.74	82.4023
1518.89	100.492
1523.04	158.323
1527.19	236.001
1531.34	108.019
1535.48	129.171
1539.62	31.2031
1543.76	49.7647
1547.89	130.906
1552.03	137.486
1556.16	34.584
1560.29	75.916
1564.41	14.9473
1568.54	9.69336
1572.66	32.3516
1576.78	125.393
