Measurement: Raman, 514 nm, ccw, Raman Data Processed
Mineral: Grunerite
Rruff sample: R040150
Ideal chemistry: [box]Fe^2+^_2_Fe^2+^_5_Si_8_O_22_(OH)_2_
Locality: Smallwood mine, Heath Lake, Newfoundland, Canada
Source: University of Arizona Mineral Museum
Description: Brown bladed crystals in parallel aggregate
Measured chemistry: (Fe_0.69_Mg_0.27_Ca_0.02_Mn_0.02_)_7_Si_8.02_O_22_((OH)_0.98_Cl_0.02_)_2_
Pin_id: M00372
Orientation: Laser parallel to c* (0 0 1). Fiducial mark perpendicular to laser is parallel to a [1 0 0]
Raman shift (cm-1)	intensity
73.316	0
78.279	301.358
83.24	330.034
88.199	45.9875
93.154	52.8605
98.107	209.835
103.057	163.246
108.004	38.0866
112.949	151.768
117.891	256.654
122.83	351.259
127.767	200.351
132.7	161.754
137.631	120.423
142.56	86.4077
147.485	496.56
152.408	1635.29
157.328	4541.18
162.246	3236.42
167.16	1408.18
172.073	1533.49
176.982	2958.47
181.888	5709.87
186.792	6429.79
191.694	3848.36
196.592	2254.91
201.488	1550.61
206.381	1365.2
211.271	1362.07
216.159	1701.26
221.044	2102.63
225.926	2098.71
230.806	1828.12
235.683	1524.76
240.557	1152.67
245.429	908.274
250.298	576.473
255.164	393.198
260.027	280.195
264.888	186.013
269.746	36.1554
274.601	11.3967
279.454	31.1043
284.304	74.125
289.151	54.4351
293.996	91.0112
298.838	54.838
303.677	145.188
308.514	115.951
313.348	185.143
318.179	142.152
323.008	35.7315
327.834	10.781
332.657	94.6151
337.478	345.654
342.295	802.713
347.111	1544.88
351.923	1899.13
356.733	1727.46
361.54	1917.85
366.345	2775.32
371.147	2411.91
375.946	1351.64
380.743	904.188
385.537	837.612
390.328	1205.8
395.116	1719.08
399.902	2463.11
404.686	2591.89
409.466	2336.39
414.244	2210.96
419.019	2431.48
423.792	2734.13
428.562	1595.82
433.329	578.518
438.094	176.233
442.856	14.1537
447.616	0.665588
452.372	12.2173
457.126	13.9866
461.878	12.7701
466.627	45.3836
471.373	34.9515
476.116	30.1841
480.857	58.0653
485.596	98.8643
490.331	182.579
495.064	342.204
499.795	510.736
504.522	860.172
509.247	1071.51
513.97	1075.75
518.69	1158.91
523.407	1835.01
528.121	2886.07
532.833	2672.09
537.543	1442.98
542.249	775.774
546.953	489.476
551.655	445.109
556.354	388.642
561.05	403.064
565.743	356.361
570.434	247.504
575.123	189.495
579.808	124.328
584.491	22.9938
589.172	4.92816
593.85	1.77618
598.525	1.1925
603.197	15.5298
607.868	15.0124
612.535	40.4421
617.2	54.0804
621.862	194.434
626.522	315.767
631.178	537.97
635.833	804.043
640.485	1106.99
645.134	1725.8
649.78	3080.49
654.424	6287.96
659.066	11825.7
663.704	12670.7
668.341	6978.78
672.974	3222.82
677.605	1835.82
682.234	1186.3
686.859	1013.69
691.483	812.767
696.103	638.764
700.721	447.894
705.337	366.093
709.949	259.092
714.56	199.564
719.167	168.317
723.772	114.873
728.375	96.5819
732.975	143.536
737.572	196.53
742.167	361.02
746.759	322.842
751.349	131.872
755.936	75.4873
760.52	79.2152
765.102	50.8887
769.681	25.5478
774.258	38.0901
778.832	47.6265
783.404	50.1266
787.973	7.40454
792.539	1.00677
797.103	7.31567
801.665	5.50281
806.223	29.4662
810.779	3.66632
815.333	11.1577
819.884	28.0772
824.433	36.5574
828.979	6.08533
833.522	11.4465
838.063	3.94928
842.601	5.34137
847.137	17.2357
851.67	25.2008
856.2	35.6794
860.729	50.2109
865.254	77.8509
869.777	36.653
874.297	76.6334
878.815	84.7726
883.33	202.047
887.843	236.44
892.353	397.221
896.861	546.482
901.366	688.156
905.869	848.064
910.369	825.79
914.866	767.779
919.361	588.941
923.854	489.469
928.344	437.561
932.831	365.878
937.316	396.363
941.798	412.66
946.278	453.514
950.755	618.457
955.23	899.299
959.702	1333.45
964.171	1983.3
968.638	2323.8
973.103	2032.07
977.565	1465.84
982.025	1104.22
986.482	894.33
990.936	924.57
995.388	1150.94
999.837	1267.44
1004.28	1441.69
1008.73	1701.82
1013.17	2460.96
1017.61	3808.99
1022.05	4952.36
1026.48	4768.92
1030.91	3318.15
1035.34	2174.01
1039.77	1517.53
1044.19	1169.44
1048.62	891.567
1053.03	791.807
1057.45	594.584
1061.87	548.947
1066.28	471.137
1070.69	334.604
1075.09	313.058
1079.5	297.02
1083.9	287.893
1088.3	225.674
1092.69	295.596
1097.09	308.722
1101.48	250.935
1105.87	159.233
1110.26	153.387
1114.64	151.682
1119.02	73.9953
1123.4	115.382
1127.78	64.7684
1132.15	32.189
1136.53	34.6119
1140.89	16.049
1145.26	1.50745
1149.63	35.0701
1153.99	7.66815
1158.35	7.77386
1162.7	24.9132
1167.06	11.6499
1171.41	4.13104
1175.76	41.02
1180.11	24.0594
1184.45	32.9825
1188.79	1.2804
1193.13	8.58685
1197.47	3.24524
1201.81	27.8548
1206.14	19.7047
1210.47	16.2476
1214.79	24.5153
1219.12	32.7805
1223.44	16.678
1227.76	24.7601
1232.08	16.2031
1236.39	12.9286
1240.7	41.7016
1245.02	50.307
1249.32	61.7922
1253.63	77.2184
1257.93	59.5567
1262.23	44.82
1266.53	57.1766
1270.82	69.3637
1275.12	79.1125
1279.41	66.2496
1283.69	22.5874
1287.98	91.54
1292.26	64.3575
1296.54	27.1163
1300.82	63.4548
1305.1	81.2992
1309.37	71.4428
1313.64	53.0524
1317.91	40.8464
1322.17	44.8637
1326.44	73.6906
1330.7	42.9218
1334.96	4.94604
1339.21	24.5676
1343.47	43.248
1347.72	28.0468
1351.97	5.77496
1356.21	14.5743
1360.46	49.8582
1364.7	5.27008
1368.94	36.0731
1373.17	44.5815
1377.41	26.9868
1381.64	34.3478
1385.87	48.6351
1390.1	20.176
1394.32	20.1041
1398.54	63.214
1402.76	61.3115
1406.98	12.3628
1411.19	8.26038
1415.41	7.73792
1419.62	3.24048
1423.82	40.8105
1428.03	28.705
1432.23	2.58374
1436.43	28.4925
1440.63	0.437927
1444.82	36.6418
1449.02	60.6371
1453.21	19.4227
1457.4	31.3831
1461.58	3.39356
1465.77	37.7156
1469.95	23.236
1474.12	32.9431
1478.3	69.8452
1482.47	34.2259
1486.64	27.3875
1490.81	32.64
1494.98	66.767
1499.14	21.5734
1503.31	35.6383
1507.47	25.9728
1511.62	20.2628
1515.78	11.8301
1519.93	64.1689
1524.08	4.95892
1528.23	31.8396
1532.37	28.6609
1536.51	67.3767
1540.65	54.0601
1544.79	9.93903
1548.93	25.524
1553.06	87.0544
1557.19	51.5167
1561.32	37.8438
1565.44	3.47192
1569.57	48.0877
1573.69	52.8028
1577.81	0
