Measurement: Raman, 514 nm, depolarized, Raman Data Processed
Mineral: Grunerite
Rruff sample: R040150
Ideal chemistry: [box]Fe^2+^_2_Fe^2+^_5_Si_8_O_22_(OH)_2_
Locality: Smallwood mine, Heath Lake, Newfoundland, Canada
Source: University of Arizona Mineral Museum
Description: Brown bladed crystals in parallel aggregate
Measured chemistry: (Fe_0.69_Mg_0.27_Ca_0.02_Mn_0.02_)_7_Si_8.02_O_22_((OH)_0.98_Cl_0.02_)_2_
Pin_id: M00276
Orientation: Laser parallel to (1 0 1). Fiducial mark perpendicular to laser is parallel to b [0 1 0]
Raman shift (cm-1)	intensity
73.316	0
78.279	1047.48
83.24	1378.53
88.199	24.3203
93.154	181.344
98.107	1266.46
103.057	1264.26
108.004	29.1099
112.949	42.9976
117.891	402.401
122.83	1565.28
127.767	1261.83
132.7	1131.66
137.631	1137.94
142.56	269.91
147.485	799.158
152.408	3834.86
157.328	10852.3
162.246	7380.22
167.16	3217.86
172.073	3640.19
176.982	7618.85
181.888	15693.8
186.792	19126
191.694	13134
196.592	7642.62
201.488	5364.56
206.381	4382.31
211.271	3879.64
216.159	3757.25
221.044	3506.34
225.926	3070.91
230.806	2474.45
235.683	1944.36
240.557	1488.87
245.429	1283.6
250.298	883
255.164	741.937
260.027	448.53
264.888	105.18
269.746	255.683
274.601	118.96
279.454	220.94
284.304	515.553
289.151	754.767
293.996	757.385
298.838	849.218
303.677	838.308
308.514	667.49
313.348	858.84
318.179	947.936
323.008	843.617
327.834	769.149
332.657	1062.26
337.478	1833.36
342.295	3005.4
347.111	4850.15
351.923	5791.74
356.733	5083.12
361.54	4576.28
366.345	5249.21
371.147	4473.91
375.946	2442.46
380.743	1308.94
385.537	1065.55
390.328	1279.1
395.116	1872.54
399.902	2783.84
404.686	3111.2
409.466	2921.44
414.244	2548.44
419.019	2563.19
423.792	2817.67
428.562	1726.85
433.329	563.706
438.094	118.226
442.856	57.1387
447.616	106.256
452.372	82.5312
457.126	87.5449
461.878	89.1397
466.627	161.859
471.373	148.695
476.116	90.7422
480.857	189.316
485.596	282.501
490.331	506.857
495.064	767.863
499.795	894.359
504.522	1360.35
509.247	1711.84
513.97	1794.82
518.69	2022.45
523.407	2943.74
528.121	4794.74
532.833	4563.74
537.543	2706.13
542.249	1526.73
546.953	1055.11
551.655	961.016
556.354	858.512
561.05	797.56
565.743	809.114
570.434	534.182
575.123	549.769
579.808	241.755
584.491	91.9629
589.172	109.527
593.85	133.452
598.525	19.2725
603.197	76.3047
607.868	212.484
612.535	345.882
617.2	644.461
621.862	994.046
626.522	1747.1
631.178	3051.36
635.833	4527.52
640.485	5633.61
645.134	7781.64
649.78	13050.6
654.424	23857
659.066	41607.5
663.704	44255.5
668.341	23957.6
672.974	10777.4
677.605	6118.4
682.234	4290.94
686.859	3724.67
691.483	3529.72
696.103	2848.31
700.721	1867.5
705.337	1218.79
709.949	866.208
714.56	517.769
719.167	445.503
723.772	324.522
728.375	267.312
732.975	218.068
737.572	156.374
742.167	283.933
746.759	238.443
751.349	98.6035
755.936	270.692
760.52	504.326
765.102	473.423
769.681	293.992
774.258	145.055
778.832	238.632
783.404	270.742
787.973	64.4111
792.539	60.5791
797.103	33.9385
801.665	65.8223
806.223	79.3418
810.779	149.962
815.333	3.93848
819.884	25.3447
824.433	16.3906
828.979	138.858
833.522	161.424
838.063	87.4775
842.601	20.3535
847.137	97.0723
851.67	66.6543
856.2	210.121
860.729	396.554
865.254	266.046
869.777	358.707
874.297	422.486
878.815	658.417
883.33	531.331
887.843	673.276
892.353	1003.24
896.861	1357.17
901.366	1677.06
905.869	2101.97
910.369	2305.01
914.866	2095.95
919.361	1682.05
923.854	1495.31
928.344	1334.31
932.831	1218.23
937.316	1108.27
941.798	1423.05
946.278	1381.09
950.755	1848.87
955.23	2423.24
959.702	3539.56
964.171	5046.66
968.638	5639.71
973.103	5190.32
977.565	4321.12
982.025	3352.12
986.482	3041.44
990.936	3114.06
995.388	4103.86
999.837	4802.87
1004.28	5177.03
1008.73	5657.35
1013.17	7946.79
1017.61	11852.4
1022.05	15820.7
1026.48	15169.5
1030.91	11289.4
1035.34	7370.03
1039.77	4863.93
1044.19	3553.05
1048.62	2861.22
1053.03	2187.84
1057.45	1581.9
1061.87	1523.26
1066.28	1058.78
1070.69	1027.58
1075.09	1076.28
1079.5	1059.99
1083.9	880.367
1088.3	1099.14
1092.69	1462.34
1097.09	1633.93
1101.48	1556.07
1105.87	854.644
1110.26	461.29
1114.64	316.426
1119.02	290.85
1123.4	344.015
1127.78	152.502
1132.15	157.135
1136.53	98.9053
1140.89	150.838
1145.26	221.749
1149.63	137.609
1153.99	62.3809
1158.35	131.867
1162.7	15.0898
1167.06	19.2559
1171.41	129.147
1175.76	22.5176
1180.11	244.619
1184.45	77.0498
1188.79	31.3965
1193.13	85.666
1197.47	28.6455
1201.81	29.502
1206.14	31.1299
1210.47	13.4678
1214.79	10.5879
1219.12	111.462
1223.44	45.8359
1227.76	190.791
1232.08	177.475
1236.39	112.868
1240.7	123.914
1245.02	141.755
1249.32	75.7559
1253.63	360.26
1257.93	215.38
1262.23	342.917
1266.53	377.083
1270.82	380.804
1275.12	194.224
1279.41	272.986
1283.69	309.103
1287.98	307.755
1292.26	357.603
1296.54	450.853
1300.82	398.673
1305.1	245.297
1309.37	282.335
1313.64	398.024
1317.91	261.694
1322.17	352.96
1326.44	211.328
1330.7	166.128
1334.96	256.519
1339.21	154.549
1343.47	112.447
1347.72	159.231
1351.97	142.973
1356.21	66.6719
1360.46	169.268
1364.7	19.7842
1368.94	152.868
1373.17	114.964
1377.41	189.181
1381.64	153.976
1385.87	156.299
1390.1	59.4502
1394.32	84.9531
1398.54	104.22
1402.76	39.3301
1406.98	113.106
1411.19	7.08008
1415.41	97.5889
1419.62	108.465
1423.82	166.928
1428.03	212.889
1432.23	135.94
1436.43	230.325
1440.63	281.022
1444.82	497.862
1449.02	453.797
1453.21	402.955
1457.4	340.336
1461.58	357.779
1465.77	415.057
1469.95	403.33
1474.12	344.947
1478.3	444.742
1482.47	294.861
1486.64	258.088
1490.81	261.127
1494.98	265.519
1499.14	159.234
1503.31	367.613
1507.47	8.92969
1511.62	343.408
1515.78	196.994
1519.93	379.57
1524.08	231.084
1528.23	172.656
1532.37	286.9
1536.51	236.69
1540.65	100.932
1544.79	223.728
1548.93	249.234
1553.06	293.795
1557.19	86.3418
