Measurement: Raman, 514 nm, ccw, Raman Data Processed
Mineral: Grunerite
Rruff sample: R040150
Ideal chemistry: [box]Fe^2+^_2_Fe^2+^_5_Si_8_O_22_(OH)_2_
Locality: Smallwood mine, Heath Lake, Newfoundland, Canada
Source: University of Arizona Mineral Museum
Description: Brown bladed crystals in parallel aggregate
Measured chemistry: (Fe_0.69_Mg_0.27_Ca_0.02_Mn_0.02_)_7_Si_8.02_O_22_((OH)_0.98_Cl_0.02_)_2_
Pin_id: M00350
Orientation: Laser parallel to a* (1 0 0). Fiducial mark perpendicular to laser is parallel to -b [0 -1 0]
Raman shift (cm-1)	intensity
54.966	0
59.164	115.432
63.36	33.83
67.554	87.808
71.747	969.374
75.937	2565.48
80.125	4150.39
84.311	2959.01
88.496	1702.51
92.678	1302.15
96.858	960.691
101.036	751.808
105.212	718.118
109.387	851.799
113.559	854.336
117.729	1371.52
121.897	1317.46
126.063	980.454
130.228	615.642
134.39	489.325
138.55	709.557
142.709	781.498
146.865	1903.69
151.019	4575.7
155.171	8753.76
159.322	10648
163.47	6335.45
167.617	3922.22
171.761	4086.5
175.904	6268.21
180.044	9958.62
184.183	13237.5
188.319	12052.1
192.454	8352.5
196.586	6017.56
200.717	4825.28
204.846	4534.62
208.972	4291.52
213.097	3697.03
217.22	3958.03
221.341	4220.88
225.46	4173.66
229.577	3795.5
233.692	3223.44
237.805	2693.36
241.916	2155.28
246.025	1691.93
250.132	1280.09
254.237	966.599
258.34	653.324
262.442	410.219
266.541	231.261
270.639	138.435
274.734	136.696
278.828	415.038
282.919	788.766
287.009	1046.67
291.097	1309.18
295.183	1305.28
299.266	1247.03
303.348	1249.23
307.428	1268.4
311.507	1474.73
315.583	1543.85
319.657	1398.56
323.729	1048.05
327.8	717.479
331.868	790.175
335.935	1111.11
339.999	2135.25
344.062	3684.55
348.123	5155.98
352.182	5319.5
356.239	4712.06
360.294	4705.65
364.347	5716.27
368.398	6384.88
372.448	5031.48
376.495	3212.05
380.54	2347.59
384.584	2165.11
388.626	2559.82
392.666	3644.77
396.704	5124.93
400.74	6163.22
404.774	6358.6
408.806	5778.04
412.836	5423.52
416.865	5146.19
420.891	5424.12
424.916	4981.44
428.939	3061.34
432.959	1296.86
436.978	479.342
440.996	108.163
445.011	77.402
449.024	86.099
453.036	109.305
457.045	102.653
461.053	96.63
465.059	68.448
469.063	72.031
473.065	163.563
477.065	108.25
481.063	48.954
485.06	131.628
489.054	300.273
493.047	630.913
497.038	1087.7
501.027	1817.29
505.014	2836.71
508.999	3678.14
512.982	3588.69
516.964	3413.13
520.944	3995.26
524.921	5591.03
528.897	7392.42
532.871	6779.42
536.844	4321.02
540.814	2514.23
544.783	1574.94
548.749	1058.43
552.714	960.409
556.677	958.972
560.638	918.111
564.597	766.82
568.555	548.097
572.511	373.938
576.464	208.336
580.416	94.235
584.366	48.458
588.315	11.867
592.261	13.346
596.206	11.162
600.148	12.302
604.089	48.656
608.028	147.648
611.965	196.373
615.901	265.521
619.834	404.105
623.766	602.701
627.696	955.798
631.624	1301.49
635.551	1825.08
639.475	2589.38
643.398	3913.99
647.318	6409.07
651.237	11607.5
655.155	21183.8
659.07	34556.7
662.984	41084.5
666.895	29608.2
670.805	16037.7
674.713	8865.83
678.62	5553.96
682.524	3857.91
686.427	2864.39
690.328	2158.63
694.227	1771.64
698.124	1438.43
702.02	1147
705.913	866.364
709.805	794.531
713.695	630.51
717.584	540.31
721.47	560.939
725.355	471.408
729.238	517.725
733.119	578.268
736.998	714.438
740.876	1107.62
744.752	1462.93
748.626	1295.42
752.498	1083.21
756.368	1358.44
760.237	2120.09
764.104	2107.85
767.969	1272.81
771.832	754.761
775.693	570.112
779.553	495.658
783.411	415.098
787.267	280.983
791.122	194.375
794.974	18.178
798.825	49.807
802.674	87.808
806.522	31.916
810.367	84.132
814.211	104.546
818.053	40.8
821.893	60.178
825.732	34.288
829.568	50.653
833.403	8.972
837.236	8.855
841.068	62.869
844.898	15.078
848.726	57.491
852.552	75.533
856.376	116.959
860.199	141.027
864.02	174.327
867.839	295.866
871.656	367.649
875.472	423.684
879.286	733.997
883.098	562.624
886.909	646.557
890.717	833.853
894.524	1072.63
898.33	1355.96
902.133	1742.92
905.935	2042.57
909.735	2111.96
913.533	1947.99
917.33	1712.55
921.124	1564.59
924.918	1303.04
928.709	1129.92
932.499	1097.17
936.286	969.718
940.073	1053.58
943.857	1252.76
947.64	1405.21
951.421	1747.88
955.2	2705.22
958.978	3566.5
962.753	5044.08
966.527	6575.49
970.3	6891.23
974.071	5967.68
977.84	4575.4
981.607	3449.02
985.372	2827.62
989.136	2636.24
992.898	3247.18
996.659	3424.42
1000.42	3791.95
1004.17	3961.76
1007.93	4538.87
1011.68	5985.9
1015.43	8371.93
1019.18	11704.9
1022.93	14553.1
1026.68	14783.9
1030.42	12012.4
1034.17	8671.52
1037.91	6400.97
1041.65	4895.25
1045.39	3933.44
1049.12	3220.73
1052.86	2697.35
1056.59	2247.15
1060.33	1983.19
1064.06	1896.17
1067.78	1719.43
1071.51	1476.42
1075.23	1324.81
1078.96	1256.29
1082.68	1241.98
1086.4	1192.93
1090.12	1264.12
1093.83	1450.19
1097.55	1791.3
1101.26	1592.48
1104.97	1280.76
1108.68	931.183
1112.39	843.843
1116.1	670.729
1119.8	651.838
1123.5	508.062
1127.2	440.397
1130.9	379.714
1134.6	297.794
1138.3	216.539
1141.99	220.987
1145.69	192.334
1149.38	163.98
1153.07	115.449
1156.76	83.219
1160.44	40.622
1164.13	86.99
1167.81	26.316
1171.49	11.594
1175.17	12.187
1178.85	53.893
1182.52	34.865
1186.2	14.651
1189.87	34.597
1193.54	28.887
1197.21	24.956
1200.88	45.911
1204.55	29.657
1208.21	47.849
1211.88	22.544
1215.54	83.536
1219.2	30.645
1222.86	24.19
1226.51	47.77
1230.17	52.531
1233.82	7.589
1237.47	81.038
1241.12	112.444
1244.77	123.183
1248.42	123.653
1252.06	140.504
1255.71	124.355
1259.35	107.678
1262.99	187.789
1266.63	130.318
1270.26	147.992
1273.9	197.038
1277.53	176.935
1281.16	167.229
1284.8	163.283
1288.42	226.812
1292.05	152.651
1295.68	196.531
1299.3	105.927
1302.92	168.049
1306.55	156.929
1310.16	188.594
1313.78	172.031
1317.4	206.241
1321.01	165.309
1324.62	161.787
1328.24	269.194
1331.85	136.218
1335.45	139.166
1339.06	105.641
1342.66	81.497
1346.27	96.806
1349.87	83.224
1353.47	62.322
1357.07	22.085
1360.66	50.19
1364.26	60.842
1367.85	32.777
1371.44	30.493
1375.04	51.855
1378.62	73.194
1382.21	29.111
1385.8	36.461
1389.38	51.487
1392.96	37.287
1396.54	35.193
1400.12	2.526
1403.7	67.434
1407.28	37.275
1410.85	51.408
1414.42	29.753
1417.99	90.132
1421.56	31.093
1425.13	19.686
1428.7	24.01
1432.26	6.412
1435.83	20.653
1439.39	81.681
1442.95	86.348
1446.51	86.04
1450.06	85.892
1453.62	80.157
1457.17	109.338
1460.73	79.408
1464.28	114.746
1467.83	46.393
1471.37	62.316
1474.92	65.432
1478.46	18.216
1482.01	44.156
1485.55	56.792
1489.09	36.402
1492.63	0.312
1496.16	22.898
1499.7	1.146
1503.23	4.837
1506.76	35.069
1510.29	43.046
1513.82	57.197
1517.35	23.206
1520.88	12.695
1524.4	0
