Measurement: Raman, 514 nm, depolarized, Raman Data Processed
Mineral: Grunerite
Rruff sample: R040150
Ideal chemistry: [box]Fe^2+^_2_Fe^2+^_5_Si_8_O_22_(OH)_2_
Locality: Smallwood mine, Heath Lake, Newfoundland, Canada
Source: University of Arizona Mineral Museum
Description: Brown bladed crystals in parallel aggregate
Measured chemistry: (Fe_0.69_Mg_0.27_Ca_0.02_Mn_0.02_)_7_Si_8.02_O_22_((OH)_0.98_Cl_0.02_)_2_
Pin_id: M00334
Orientation: Laser parallel to b* (0 1 0). Fiducial mark perpendicular to laser is parallel to -c [0 0 -1]
Raman shift (cm-1)	intensity
159.478	0
163.629	921.245
167.777	15.3428
171.924	578.211
176.068	3629.83
180.211	9123.54
184.351	13489.8
188.49	12122.2
192.626	7911.12
196.761	5641.76
200.893	4604.38
205.024	4182.84
209.152	3778.58
213.279	3709.64
217.403	3216.55
221.526	2343.57
225.646	1181.68
229.765	459.875
233.881	66.6421
237.996	48.7363
242.108	29.0884
246.219	211.341
250.328	517.307
254.434	538.127
258.539	566.399
262.641	302.543
266.742	274.539
270.84	261.295
274.937	272.625
279.032	365.1
283.125	485.744
287.215	624.529
291.304	760.238
295.391	713.365
299.476	551.02
303.558	357.876
307.639	265.606
311.718	488.387
315.795	607.921
319.87	479.834
323.943	179.188
328.014	5.51269
332.083	10.804
336.15	112.57
340.215	519.596
344.279	1100.14
348.34	1584.92
352.399	1349.74
356.457	1023.62
360.512	865.062
364.565	901.742
368.617	981.723
372.666	694.936
376.714	531.498
380.76	436.403
384.803	456.84
388.845	602.902
392.885	862.426
396.923	1291.93
400.959	1477.56
404.993	1404.72
409.025	1267.57
413.055	1068.31
417.084	956.199
421.11	936.476
425.134	909.306
429.157	467.672
433.177	223.792
437.196	47.3984
441.213	23.3523
445.227	73.8311
449.24	31.5806
453.251	31.012
457.26	46.8274
461.267	30.1062
465.272	58.302
469.276	60.3997
473.277	18.1699
477.276	26.1726
481.274	33.76
485.27	26.8472
489.263	144.97
493.255	142.394
497.245	160.694
501.233	147.531
505.219	174.482
509.203	197.695
513.186	246.281
517.166	312.247
521.145	385.606
525.121	597.35
529.096	873.649
533.069	810.022
537.04	622.858
541.009	422.791
544.976	400.121
548.941	489.546
552.905	529.026
556.866	680.31
560.826	755.408
564.784	613.378
568.74	460.182
572.694	451.762
576.646	327.087
580.596	231.169
584.544	264.025
588.491	256.968
592.435	280.3
596.378	338.537
600.319	375.075
604.258	516.697
608.195	505.895
612.131	590.623
616.064	674.02
619.995	816.477
623.925	1096.26
627.853	1401.78
631.779	1822.92
635.703	2372.54
639.625	3282.43
643.546	4876.81
647.464	7398.44
651.381	12273.5
655.296	21708.5
659.209	33978.5
663.12	34566.3
667.029	21256.7
670.937	10728.7
674.842	5846.35
678.746	3520.32
682.648	2354.3
686.548	1637.57
690.447	1166.71
694.343	803.281
698.238	649.895
702.13	553.564
706.021	392.282
709.91	235.269
713.798	226.037
717.683	151.834
721.567	183.664
725.448	576.532
729.328	64.4443
733.206	96.406
737.083	269.423
740.957	462.499
744.83	592.644
748.701	390.899
752.57	227.297
756.437	151.871
760.302	118.676
764.166	95.7966
768.027	125.409
771.887	114.888
775.745	112.863
779.602	240.116
783.456	220.712
787.309	82.6348
791.16	18.8413
795.009	27.7112
798.856	47.1707
802.702	0.388672
806.545	56.9399
810.387	17.2847
814.227	13.6489
818.065	7.04492
821.902	23.1729
825.737	37.5825
829.569	30.4014
833.401	2.6919
837.23	34.707
841.057	59.3657
844.883	75.5727
848.707	83.9219
852.529	54.4287
856.35	51.0903
860.168	66.9043
863.985	85.8813
867.8	164.062
871.613	219.47
875.425	201.09
879.234	275.943
883.042	404.972
886.848	545.163
890.653	733.567
894.455	928.144
898.256	1272.9
902.055	1616.91
905.852	1800.18
909.648	1831.7
913.442	1601.68
917.233	1344.29
921.024	1186.38
924.812	975.619
928.599	787.019
932.384	768.581
936.167	670.288
939.948	714.139
943.728	686.126
947.506	736.915
951.282	775.524
955.056	950.012
958.829	1252.98
962.6	1605.21
966.369	1839.77
970.136	1715.67
973.902	1753.64
977.666	1543.41
981.428	1388.53
985.188	1563.12
988.947	1729.51
992.704	2091.19
996.459	2639.44
1000.21	2931.38
1003.96	3379.14
1007.71	4109.34
1011.46	5481.66
1015.21	7658.98
1018.95	9954.24
1022.7	11205.6
1026.44	9923.02
1030.18	7154.71
1033.91	4869.02
1037.65	3267.04
1041.39	2441.04
1045.12	1851.88
1048.85	1494.53
1052.58	1242.43
1056.31	1047.88
1060.03	894.312
1063.76	768.931
1067.48	649.272
1071.2	637.191
1074.92	599.701
1078.63	565.106
1082.35	647.596
1086.06	667.316
1089.78	681.809
1093.49	906.039
1097.19	941.892
1100.9	742.153
1104.61	538.364
1108.31	345.7
1112.01	293.9
1115.71	333.451
1119.41	168.998
1123.11	95.5439
1126.8	79.9717
1130.5	159.62
1134.19	104.166
1137.88	60.7095
1141.57	91.2295
1145.25	6.48291
1148.94	11.1777
1152.62	38.498
1156.3	26.1357
1159.98	20.291
1163.66	32.1025
1167.34	50.4458
1171.01	11.5229
1174.68	2.66113
1178.36	14.4995
1182.02	43.9575
1185.69	57.0049
1189.36	27.1186
1193.02	94.5229
1196.69	50.4907
1200.35	4.26221
1204.01	8.31348
1207.66	9.20947
1211.32	45.5391
1214.98	8.95947
1218.63	37.2793
1222.28	42.46
1225.93	47.4746
1229.58	55.3706
1233.22	115.776
1236.87	77.7432
1240.51	36.3052
1244.15	98.5898
1247.79	147.233
1251.43	151.795
1255.07	199.282
1258.7	177.595
1262.33	125.953
1265.96	101.814
1269.59	120.154
1273.22	79.4927
1276.85	160.342
1280.47	175.38
1284.1	168.617
1287.72	131.3
1291.34	131.78
1294.95	85.4878
1298.57	136.661
1302.19	73.2939
1305.8	77.1728
1309.41	53.2725
1313.02	110.924
1316.63	155.105
1320.23	182.716
1323.84	212.743
1327.44	121.545
1331.05	145.213
1334.64	2.59815
1338.24	27.7769
1341.84	42.9727
1345.43	39.9385
1349.03	42.9702
1352.62	135.482
1356.21	23.3926
1359.8	99.8823
1363.39	12.7632
1366.97	18.0869
1370.56	44.6196
1374.14	46.626
1377.72	20.0542
1381.3	31.9365
1384.87	86.2676
1388.45	133.13
1392.02	163.523
1395.6	64.8467
1399.17	85.0664
1402.74	42.1519
1406.3	43.1533
1409.87	14.5957
1413.43	66.334
1417	130.535
1420.56	133.44
1424.12	157.862
1427.67	205.312
1431.23	182.427
1434.79	169.676
1438.34	97.9248
1441.89	158.529
1445.44	99.0606
1448.99	100.913
1452.54	124.707
1456.08	133.769
1459.62	174.884
1463.17	158.197
1466.71	210.718
1470.24	197.995
1473.78	152.316
1477.32	139.421
1480.85	119.533
1484.38	128.762
1487.91	55.7266
1491.44	55.8667
1494.97	38.4277
1498.5	108.999
1502.02	202.835
1505.54	203.15
1509.07	186.523
1512.59	236.979
1516.1	213.247
1519.62	298.988
