Measurement: Raman, 514 nm, ccw, Raman Data Processed
Mineral: Grunerite
Rruff sample: R040150
Ideal chemistry: [box]Fe^2+^_2_Fe^2+^_5_Si_8_O_22_(OH)_2_
Locality: Smallwood mine, Heath Lake, Newfoundland, Canada
Source: University of Arizona Mineral Museum
Description: Brown bladed crystals in parallel aggregate
Measured chemistry: (Fe_0.69_Mg_0.27_Ca_0.02_Mn_0.02_)_7_Si_8.02_O_22_((OH)_0.98_Cl_0.02_)_2_
Pin_id: M00350
Orientation: Laser parallel to a* (1 0 0). Fiducial mark perpendicular to laser is parallel to -b [0 -1 0]
Raman shift (cm-1)	intensity
54.966	0
59.164	84.227
63.36	16.027
67.554	217.753
71.747	1913.95
75.937	6340.38
80.125	11407.7
84.311	8261.81
88.496	4640.12
92.678	3155.48
96.858	2170.31
101.036	1620
105.212	1381.88
109.387	1381.95
113.559	1370.61
117.729	1497.57
121.897	966.853
126.063	754.375
130.228	563.724
134.39	466.462
138.55	547.141
142.709	572.522
146.865	876.234
151.019	1696.9
155.171	3304.78
159.322	4632.01
163.47	2817.68
167.617	1679.82
171.761	1613.86
175.904	2217.55
180.044	3417.22
184.183	5302.91
188.319	5631.61
192.454	4644.35
196.586	3914.97
200.717	3661.27
204.846	3668.22
208.972	3560.78
213.097	3082.89
217.22	2561.52
221.341	2018.44
225.46	1557.56
229.577	1241.48
233.692	1084.29
237.805	999.763
241.916	931.582
246.025	874.473
250.132	849.1
254.237	776.281
258.34	767.846
262.442	615.692
266.541	493.76
270.639	474.031
274.734	580.419
278.828	963.104
282.919	1474.81
287.009	1807.82
291.097	2067.51
295.183	1931.83
299.266	1664.79
303.348	1400.57
307.428	1340.06
311.507	1516.16
315.583	1856.03
319.657	1970.55
323.729	1716.16
327.8	1330.82
331.868	1564.11
335.935	2119.41
339.999	3418.91
344.062	5332.58
348.123	6930.35
352.182	6868.07
356.239	4936.04
360.294	3977.9
364.347	4211.75
368.398	4393.57
372.448	3351.35
376.495	2180.07
380.54	1736.72
384.584	1743.33
388.626	1976.18
392.666	2729.29
396.704	3744.6
400.74	4505.05
404.774	4404.59
408.806	3872.18
412.836	3067.8
416.865	2307.41
420.891	1504.21
424.916	853.139
428.939	532.86
432.959	218.469
436.978	113.197
440.996	39.606
445.011	87.828
449.024	36.901
453.036	85.748
457.045	118.894
461.053	89.139
465.059	115.291
469.063	93.478
473.065	151.746
477.065	94.196
481.063	63.675
485.06	48.965
489.054	87.083
493.047	239.829
497.038	330.245
501.027	396.338
505.014	498.116
508.999	602.561
512.982	833.673
516.964	1127.44
520.944	1666.37
524.921	2487.99
528.897	3400.74
532.871	3227.12
536.844	2062.14
540.814	1249.79
544.783	867.072
548.749	814.983
552.714	916.509
556.677	1117.65
560.638	1153.39
564.597	1044.74
568.555	691.683
572.511	445.224
576.464	293.368
580.416	138.092
584.366	90.28
588.315	6.817
592.261	75.528
596.206	62.517
600.148	88.881
604.089	121.757
608.028	130.635
611.965	164.921
615.901	270.807
619.834	374.208
623.766	509.459
627.696	763.165
631.624	989.4
635.551	1528.31
639.475	2329.01
643.398	3470.24
647.318	5880.08
651.237	10897.9
655.155	20889
659.07	35040.5
662.984	43182.4
666.895	31840.5
670.805	17447.8
674.713	9659.58
678.62	6099.22
682.524	4228.65
686.427	3081.25
690.328	2285.73
694.227	1869.42
698.124	1446.24
702.02	1248.76
705.913	1000.45
709.805	908.331
713.695	720.871
717.584	685.773
721.47	620.116
725.355	493.396
729.238	529.216
733.119	586.394
736.998	655.823
740.876	1124.04
744.752	1627.67
748.626	1461.05
752.498	995.087
756.368	804.193
760.237	894.819
764.104	811.173
767.969	689.496
771.832	763.838
775.693	816.598
779.553	851.804
783.411	785.519
787.267	594.783
791.122	343.659
794.974	115.893
798.825	53.563
802.674	41.452
806.522	46.508
810.367	5.689
814.211	22.001
818.053	22.584
821.893	10.969
825.732	18.34
829.568	56.49
833.403	8.455
837.236	42.431
841.068	13.142
844.898	11.647
848.726	13.947
852.552	11.042
856.376	7.065
860.199	14.401
864.02	1.605
867.839	20.221
871.656	48.821
875.472	21.115
879.286	3.334
883.098	5.469
886.909	31.54
890.717	50.938
894.524	286.735
898.33	655.015
902.133	74.835
905.935	84.156
909.735	145.966
913.533	210.239
917.33	254.953
921.124	254.058
924.918	255.505
928.709	322.287
932.499	263.39
936.286	301.778
940.073	438.458
943.857	524.395
947.64	713.583
951.421	1011.01
955.2	1524.68
958.978	2312.57
962.753	3462.23
966.527	4698.92
970.3	5057.84
974.071	4202.26
977.84	3117.38
981.607	2149.3
985.372	1604.62
989.136	1386.04
992.898	1453.68
996.659	1681.58
1000.42	1808.26
1004.17	1837.04
1007.93	2161.4
1011.68	2916.44
1015.43	4262.35
1019.18	6123.32
1022.93	7993.98
1026.68	8248.84
1030.42	6828.82
1034.17	5055.53
1037.91	3787.7
1041.65	3010.57
1045.39	2494.09
1049.12	2125.9
1052.86	1757.66
1056.59	1552.41
1060.33	1445.25
1064.06	1409.35
1067.78	1224.35
1071.51	1070.85
1075.23	1120.64
1078.96	1029.18
1082.68	991.992
1086.4	1104.64
1090.12	1204.42
1093.83	1650.07
1097.55	2203.68
1101.26	2188.66
1104.97	1642.42
1108.68	1155.12
1112.39	909.917
1116.1	749.776
1119.8	628.711
1123.5	508.774
1127.2	459.837
1130.9	401.944
1134.6	382.127
1138.3	316.333
1141.99	263.558
1145.69	202.79
1149.38	203.028
1153.07	153.263
1156.76	147.491
1160.44	98.693
1164.13	56.869
1167.81	48.011
1171.49	37.114
1175.17	42.167
1178.85	40.166
1182.52	11.891
1186.2	23.921
1189.87	4.737
1193.54	27.968
1197.21	7.156
1200.88	8.401
1204.55	16.67
1208.21	20.503
1211.88	17.929
1215.54	19.827
1219.2	28.157
1222.86	29.974
1226.51	18.158
1230.17	10.42
1233.82	38.166
1237.47	39.575
1241.12	65.675
1244.77	89.318
1248.42	68.372
1252.06	98.85
1255.71	160.178
1259.35	120.801
1262.99	135.76
1266.63	116.281
1270.26	131.486
1273.9	138.407
1277.53	145.511
1281.16	172.338
1284.8	144.59
1288.42	131.264
1292.05	138.866
1295.68	116.738
1299.3	137.12
1302.92	185.26
1306.55	183.148
1310.16	220.853
1313.78	157.283
1317.4	199.438
1321.01	139.356
1324.62	159.029
1328.24	139.318
1331.85	144.902
1335.45	72.224
1339.06	79.315
1342.66	81.52
1346.27	85.88
1349.87	60.65
1353.47	34.035
1357.07	52.138
1360.66	66.901
1364.26	72.895
1367.85	34.71
1371.44	18.855
1375.04	28.825
1378.62	17.89
1382.21	30.521
1385.8	10.311
1389.38	25.451
1392.96	55.968
1396.54	71.171
1400.12	45.059
1403.7	73.646
1407.28	51.938
1410.85	39.939
1414.42	55.656
1417.99	56.182
1421.56	35.65
1425.13	77.827
1428.7	73.561
1432.26	76.322
1435.83	26.079
1439.39	76.826
1442.95	62.012
1446.51	112.604
1450.06	80.897
1453.62	127.055
1457.17	91.246
1460.73	99.531
1464.28	81.924
1467.83	33.398
1471.37	66.675
1474.92	54.877
1478.46	0.133
1482.01	95.289
1485.55	34.162
1489.09	73.657
1492.63	45.523
1496.16	0.595
1499.7	5.502
