Measurement: Raman, 514 nm, depolarized, Raman Data Processed
Mineral: Grunerite
Rruff sample: R040150
Ideal chemistry: [box]Fe^2+^_2_Fe^2+^_5_Si_8_O_22_(OH)_2_
Locality: Smallwood mine, Heath Lake, Newfoundland, Canada
Source: University of Arizona Mineral Museum
Description: Brown bladed crystals in parallel aggregate
Measured chemistry: (Fe_0.69_Mg_0.27_Ca_0.02_Mn_0.02_)_7_Si_8.02_O_22_((OH)_0.98_Cl_0.02_)_2_
Pin_id: M00372
Orientation: Laser parallel to c* (0 0 1). Fiducial mark perpendicular to laser is parallel to a [1 0 0]
Raman shift (cm-1)	intensity
73.316	0
78.279	1233.32
83.24	1064.61
88.199	99.386
93.154	76.4559
98.107	420.205
103.057	377.061
108.004	78.8282
112.949	27.5125
117.891	293.095
122.83	708.936
127.767	573.352
132.7	270.074
137.631	281.156
142.56	138.683
147.485	783.371
152.408	2889.56
157.328	7923.78
162.246	5788.62
167.16	2751.63
172.073	3250.81
176.982	6553.93
181.888	12838
186.792	15470
191.694	10343.6
196.592	6510.57
201.488	5093.61
206.381	4445.1
211.271	4206.07
216.159	3998.37
221.044	3604.85
225.926	2572
230.806	1756.97
235.683	1216.03
240.557	936.109
245.429	749.03
250.298	696.09
255.164	696.738
260.027	589.764
264.888	479.185
269.746	422.235
274.601	413.86
279.454	481.015
284.304	574.654
289.151	690.754
293.996	741.201
298.838	640.443
303.677	471.988
308.514	368.096
313.348	268.407
318.179	185.535
323.008	88.7371
327.834	139.731
332.657	185.164
337.478	495.455
342.295	967.48
347.111	1597.46
351.923	1838.46
356.733	1579.47
361.54	1346.48
366.345	1551.48
371.147	1347.53
375.946	649.609
380.743	435.746
385.537	292.96
390.328	476.284
395.116	789.681
399.902	1232.16
404.686	1284.99
409.466	1214.92
414.244	1088.87
419.019	1148.81
423.792	1332.72
428.562	698.607
433.329	252.444
438.094	30.2239
442.856	45.0796
447.616	52.0963
452.372	47.1649
457.126	28.3972
461.878	35.4373
466.627	49.2003
471.373	32.6757
476.116	5.21252
480.857	37.7764
485.596	84.2368
490.331	242.601
495.064	307.867
499.795	356.995
504.522	621.978
509.247	794.814
513.97	745.504
518.69	728.106
523.407	1087.54
528.121	1633.4
532.833	1712.84
537.543	980.356
542.249	589.91
546.953	438.398
551.655	446.745
556.354	475.949
561.05	542.969
565.743	408.801
570.434	369.443
575.123	241.894
579.808	235.152
584.491	121.596
589.172	81.4702
593.85	70.1564
598.525	111.722
603.197	175.482
607.868	182.89
612.535	241.538
617.2	410.198
621.862	577.588
626.522	1087.69
631.178	1633.09
635.833	2288.44
640.485	3049.73
645.134	4498.42
649.78	7861.05
654.424	14579.7
659.066	25884.7
663.704	26258.5
668.341	13275.5
672.974	5771.43
677.605	2912.57
682.234	2028.8
686.859	1649.1
691.483	1409.92
696.103	1125.96
700.721	668.678
705.337	433.307
709.949	305.854
714.56	191.322
719.167	128.716
723.772	85.0657
728.375	112.54
732.975	108.289
737.572	121.371
742.167	219.73
746.759	260.336
751.349	113.191
755.936	64.2345
760.52	2.24841
765.102	28.1514
769.681	19.9183
774.258	87.6018
778.832	56.532
783.404	103.893
787.973	4.51306
792.539	50.8872
797.103	54.5118
801.665	49.4667
806.223	16.6314
810.779	44.015
815.333	42.7451
819.884	2.15356
824.433	39.922
828.979	32.6207
833.522	39.295
838.063	56.0022
842.601	57.7502
847.137	63.5443
851.67	71.3889
856.2	66.2894
860.729	99.2499
865.254	82.2727
869.777	212.356
874.297	236.513
878.815	316.728
883.33	372.032
887.843	417.412
892.353	571.918
896.861	916.241
901.366	1207.04
905.869	1576.39
910.369	1492.37
914.866	1304.49
919.361	1010.71
923.854	838.979
928.344	693.069
932.831	649.051
937.316	683.801
941.798	610.276
946.278	684.05
950.755	767.517
955.23	957.529
959.702	1343.88
964.171	1895.74
968.638	2164.75
973.103	2161.58
977.565	1801.84
982.025	1455.27
986.482	1340.87
990.936	1424.64
995.388	1725.56
999.837	2145.63
1004.28	2578.55
1008.73	3524.92
1013.17	5140.08
1017.61	7625.23
1022.05	9769.49
1026.48	8697.61
1030.91	6001.73
1035.34	3717.47
1039.77	2456.63
1044.19	1793.1
1048.62	1422.7
1053.03	1038.51
1057.45	763.186
1061.87	704.704
1066.28	481.209
1070.69	518.104
1075.09	459.931
1079.5	383.331
1083.9	404.618
1088.3	450.059
1092.69	521.783
1097.09	720.131
1101.48	536.619
1105.87	287.336
1110.26	100.183
1114.64	95.2053
1119.02	75.9829
1123.4	62.7847
1127.78	45.5986
1132.15	21.4663
1136.53	47.26
1140.89	3.97949
1145.26	53.7529
1149.63	32.4866
1153.99	37.9563
1158.35	46.3926
1162.7	12.6802
1167.06	11.1155
1171.41	50.8928
1175.76	26.7681
1180.11	16.4839
1184.45	2.9292
1188.79	15.1987
1193.13	11.2717
1197.47	3.82324
1201.81	6.18066
1206.14	0.500244
1210.47	42.9194
1214.79	1.96436
1219.12	31.1069
1223.44	36.2126
1227.76	26.9014
1232.08	74.5376
1236.39	91.5251
1240.7	53.1931
1245.02	42.1726
1249.32	98.5076
1253.63	138.378
1257.93	62
1262.23	146.481
1266.53	70.3042
1270.82	131.403
1275.12	60.8599
1279.41	94.2519
1283.69	95.4021
1287.98	71.9336
1292.26	117.827
1296.54	30.3799
1300.82	60.5422
1305.1	37.2554
1309.37	119.254
1313.64	116.07
1317.91	66.8611
1322.17	45.9795
1326.44	48.4475
1330.7	45.1892
1334.96	12.5371
1339.21	55.2549
1343.47	51.3723
1347.72	20.0686
1351.97	35.1714
1356.21	75.5762
1360.46	25.2109
1364.7	1.3894
1368.94	41.7949
1373.17	75.7139
1377.41	28.9351
1381.64	107.009
1385.87	69.0139
1390.1	8.03125
1394.32	76.7031
1398.54	74.4492
1402.76	39.1377
1406.98	93.9224
1411.19	112.946
1415.41	54.7441
1419.62	4.66382
1423.82	28.571
1428.03	116.898
1432.23	59.3679
1436.43	82.0476
1440.63	9.62329
1444.82	8.76416
1449.02	62.8137
1453.21	15.9665
1457.4	88.3193
1461.58	19.2097
1465.77	4.19727
1469.95	32.6526
1474.12	92.3872
1478.3	38.9197
1482.47	70.6636
1486.64	86.2585
1490.81	48.1326
1494.98	58.0193
1499.14	43.218
1503.31	78.8782
1507.47	82.3096
1511.62	16.3452
1515.78	37.7019
1519.93	106.212
1524.08	76.939
1528.23	23.854
1532.37	97.0933
1536.51	38.1672
1540.65	93.1865
1544.79	31.7302
1548.93	81.5044
1553.06	74.97
1557.19	71.9302
1561.32	18.7097
1565.44	46.0359
1569.57	28.491
1573.69	0.540771
1577.81	0
