Measurement: Raman, 514 nm, ccw, Raman Data Processed
Mineral: Grunerite
Rruff sample: R040150
Ideal chemistry: [box]Fe^2+^_2_Fe^2+^_5_Si_8_O_22_(OH)_2_
Locality: Smallwood mine, Heath Lake, Newfoundland, Canada
Source: University of Arizona Mineral Museum
Description: Brown bladed crystals in parallel aggregate
Measured chemistry: (Fe_0.69_Mg_0.27_Ca_0.02_Mn_0.02_)_7_Si_8.02_O_22_((OH)_0.98_Cl_0.02_)_2_
Pin_id: M00372
Orientation: Laser parallel to c* (0 0 1). Fiducial mark perpendicular to laser is parallel to a [1 0 0]
Raman shift (cm-1)	intensity
64.623	0
69.591	128.51
74.557	337.197
79.52	809.374
84.48	417.092
89.438	35.4019
94.393	196.132
99.345	965.583
104.294	524.082
109.241	9.53406
114.185	168.523
119.126	476.606
124.064	1019.39
129	632.705
133.933	700.634
138.864	369.879
143.791	114.815
148.716	554.321
153.638	2578.72
158.558	4949.13
163.475	2691.58
168.389	1378.06
173.3	2010.57
178.209	4403.06
183.115	8134.54
188.018	7927.95
192.918	4906.44
197.816	3157.23
202.711	2477.46
207.604	2239.15
212.494	2194.97
217.381	2187.81
222.265	2002.14
227.147	1442.67
232.026	1060.85
236.902	776.333
241.775	516.926
246.646	335.498
251.514	311.925
256.38	225.112
261.243	170.44
266.103	75.9347
270.96	5.99939
275.815	73.5867
280.667	47.6478
285.516	94.1365
290.363	170.026
295.207	219.312
300.048	182.423
304.887	226.456
309.723	172.907
314.556	156.302
319.387	141.9
324.215	26.1885
329.04	94.5121
333.862	333.646
338.682	539.821
343.5	1063.63
348.314	1582.48
353.126	1803.36
357.935	1705.3
362.742	1572.48
367.546	1754.9
372.347	1156.5
377.145	600.818
381.941	369.986
386.735	371.105
391.525	551.15
396.313	896.25
401.098	1242.39
405.881	1217.56
410.661	1108.73
415.438	1114.9
420.213	1300.06
424.985	1280.18
429.754	557.252
434.521	184.273
439.285	1.77539
444.046	20.6108
448.805	61.858
453.561	39.8953
458.315	0.543701
463.065	23.0465
467.813	19.7699
472.559	28.8287
477.302	35.9279
482.042	131.534
486.78	193.227
491.515	214.102
496.247	274.933
500.977	367.616
505.704	691.128
510.428	759.478
515.15	833.656
519.869	1002.68
524.586	1471.54
529.3	2084.31
534.011	1643.94
538.719	898.45
543.425	521.87
548.129	416.104
552.83	309.16
557.528	362.121
562.223	350.927
566.916	293.528
571.607	225.912
576.294	205.076
580.979	140.214
585.662	55.9772
590.341	36.6704
595.019	72.8825
599.693	57.2623
604.365	25.8251
609.035	90.7612
613.701	141.093
618.366	292.95
623.027	563.997
627.686	929.042
632.342	1566.85
636.996	1902.85
641.647	2288.42
646.296	3117.88
650.942	5355.63
655.585	10414.2
660.226	16946.1
664.864	14473.7
669.499	6775.87
674.132	3313.16
678.763	2096.52
683.39	1624.36
688.015	1608.84
692.638	1622.93
697.258	1123.16
701.875	726.905
706.49	460.023
711.102	297.387
715.712	206.222
720.319	134.408
724.923	159.473
729.525	80.7822
734.124	166.288
738.721	202.04
743.315	220.989
747.907	133.728
752.496	87.6487
757.082	23.6312
761.666	42.5773
766.247	27.4791
770.826	0.655518
775.402	63.1511
779.975	75.9048
784.546	6.36438
789.115	20.3954
793.681	23.0719
798.244	16.5311
802.804	12.0957
807.363	13.8697
811.918	41.7521
816.471	32.8463
821.022	1.87891
825.569	10.5923
830.115	17.7831
834.657	43.3614
839.198	26.9793
843.735	41.3501
848.27	0.750488
852.803	58.1959
857.333	74.708
861.86	72.2972
866.385	175.015
870.907	144.831
875.427	137.868
879.944	253.736
884.459	309.795
888.971	352.913
893.481	539.089
897.988	755.372
902.492	890.645
906.994	1088.73
911.493	990.442
915.99	833.125
920.485	745.24
924.976	601.411
929.466	502.442
933.952	483.269
938.436	468.263
942.918	478.459
947.397	574.967
951.874	772.722
956.348	993.414
960.819	1434.51
965.288	1881.14
969.755	2191.08
974.219	1898.4
978.68	1620.02
983.139	1174.43
987.595	1120.43
992.049	1230.59
996.501	1501.88
1000.95	1705.32
1005.4	2098.62
1009.84	2573.71
1014.28	3882.59
1018.72	5603.66
1023.16	6716.8
1027.59	5623.03
1032.02	3819.94
1036.45	2463.39
1040.88	1734.7
1045.3	1347.49
1049.72	993.98
1054.14	803.965
1058.56	610.864
1062.97	447.034
1067.38	402.229
1071.79	303.498
1076.19	356.075
1080.6	297.02
1085	373.594
1089.4	378.799
1093.79	436.02
1098.19	565.996
1102.58	435.836
1106.97	170.79
1111.35	123.754
1115.74	167.489
1120.12	50.5529
1124.5	49.7156
1128.87	48.7711
1133.25	59.8276
1137.62	13.9042
1141.99	7.93445
1146.35	56.9618
1150.72	8.15613
1155.08	4.36194
1159.44	7.58814
1163.79	14.3758
1168.15	31.7063
1172.5	45.1246
1176.85	1.77991
1181.19	31.3932
1185.54	8.13196
1189.88	1.69934
1194.22	7.55505
1198.55	10.6534
1202.89	43.162
1207.22	23.8888
1211.55	38.3698
1215.88	72.8949
1220.2	4.04224
1224.52	99.5509
1228.84	68.6536
1233.16	48.8156
1237.47	66.7903
1241.78	42.6272
1246.09	50.7217
1250.4	79.9447
1254.7	58.2819
1259.01	107.353
1263.31	128.107
1267.6	105.862
1271.9	85.3534
1276.19	77.6072
1280.48	42.1517
1284.77	145.74
1289.05	95.3943
1293.33	60.9515
1297.61	61.5548
1301.89	52.5072
1306.16	109.12
1310.44	82.6771
1314.71	106.33
1318.97	152.09
1323.24	62.8204
1327.5	48.2776
1331.76	60.7893
1336.02	67.5278
1340.28	79.6797
1344.53	67.3408
1348.78	43.7073
1353.03	56.6162
1357.27	10.7861
1361.52	80.5161
1365.76	55.635
1370	35.5344
1374.23	82.6953
1378.47	16.5054
1382.7	89.9932
1386.93	53.5127
1391.15	36.0295
1395.38	42.2598
1399.6	101.404
1403.82	42.4336
1408.03	86.0439
1412.25	49.8591
1416.46	86.5349
1420.67	15.0835
1424.88	34.7124
1429.08	49.0842
1433.28	79.4514
1437.48	63.0974
1441.68	72.6123
1445.87	69.8733
1450.07	33.0391
1454.26	8.43896
1458.44	35.4224
1462.63	65.488
1466.81	4.71851
1470.99	17.8672
1475.17	68.7793
1479.34	70.4172
1483.52	31.7971
1487.69	25.1235
1491.86	56.8379
1496.02	82.7563
1500.19	12.6428
1504.35	71.2549
1508.51	69.4067
1512.66	87.4058
1516.82	33.1487
1520.97	59.1394
1525.12	59.1782
1529.26	74.8884
1533.41	69.7898
1537.55	40.3948
1541.69	111.66
1545.83	65.3511
1549.96	67.8794
1554.09	87.29
1558.22	46.8552
1562.35	74.2
1566.48	8.8335
1570.6	78.9004
1574.72	5.3894
