Measurement: Raman, 514 nm, ccw, Raman Data Processed
Mineral: Grunerite
Rruff sample: R040150
Ideal chemistry: [box]Fe^2+^_2_Fe^2+^_5_Si_8_O_22_(OH)_2_
Locality: Smallwood mine, Heath Lake, Newfoundland, Canada
Source: University of Arizona Mineral Museum
Description: Brown bladed crystals in parallel aggregate
Measured chemistry: (Fe_0.69_Mg_0.27_Ca_0.02_Mn_0.02_)_7_Si_8.02_O_22_((OH)_0.98_Cl_0.02_)_2_
Pin_id: M00276
Orientation: Laser parallel to (1 0 1). Fiducial mark perpendicular to laser is parallel to b [0 1 0]
Raman shift (cm-1)	intensity
67.107	0
72.074	428.99
77.039	1293.77
82	1504.4
86.959	204.003
91.916	157.753
96.869	1497.11
101.82	3033.24
106.768	531.262
111.713	123.811
116.656	349.28
121.596	1628.5
126.533	2551.24
131.467	1925.38
136.399	2375.26
141.328	906.559
146.254	1109.15
151.178	4541.23
156.098	14981.3
161.017	14450
165.932	6007.94
170.845	5136.56
175.755	9539.04
180.662	20072.3
185.567	28417.4
190.469	21145.3
195.368	11859
200.264	7187.79
205.158	5233.76
210.049	4451.4
214.937	4015.01
219.823	3988.48
224.706	3676.93
229.586	3461.85
234.464	2877.12
239.339	2464.1
244.211	2002.72
249.081	1655.08
253.947	1161.98
258.812	967.934
263.673	621.46
268.532	494.132
273.388	241.858
278.241	133.554
283.092	493.128
287.94	540.489
292.785	481.574
297.628	314.387
302.468	460.558
307.305	388.628
312.14	464.603
316.972	528.375
321.801	374.438
326.628	497.971
331.451	958.163
336.273	1682.79
341.091	2923.76
345.907	5029.77
350.72	6844.33
355.531	7028.67
360.339	6310.53
365.144	6498.56
369.947	5983.76
374.746	3518.11
379.544	2012.59
384.338	1601.32
389.13	1733.17
393.919	2908.06
398.706	4319.97
403.49	5207.96
408.271	4824.03
413.05	4421.02
417.826	4223.89
422.599	4705.63
427.37	3196.2
432.138	1032.57
436.903	373.222
441.666	35.0855
446.426	123.814
451.183	127.012
455.938	131.238
460.69	200.959
465.44	127.812
470.187	90.8296
474.931	36.5635
479.672	193.693
484.411	243.484
489.148	379.86
493.881	572.819
498.612	1069.36
503.341	1642.49
508.066	2651.19
512.789	2701.45
517.51	2717.28
522.228	4120.92
526.943	6541.64
531.656	7230.24
536.365	4419.67
541.073	2238.98
545.778	1422.98
550.48	1018.58
555.179	930.8
559.876	965.529
564.57	789.833
569.262	603.657
573.951	270.984
578.637	289.8
583.321	177.735
588.002	103.486
592.68	137.03
597.356	63.6855
602.03	41.6645
606.7	187.4
611.368	454.521
616.034	656.167
620.697	1186.76
625.357	2214.3
630.014	3664.66
634.67	5273.84
639.322	6421.55
643.972	8141.39
648.619	12855.1
653.264	23840.6
657.906	44461.2
662.545	56516.5
667.182	35225.3
671.816	15845
676.448	8481.81
681.077	6165.41
685.703	5363.06
690.327	5198.84
694.948	4567.12
699.567	3213.15
704.183	2008.61
708.797	1351.47
713.407	1016.25
718.016	843.467
722.621	614.09
727.225	489.529
731.825	292.028
736.423	340.389
741.019	366.719
745.611	522.202
750.202	240.647
754.789	182.559
759.374	264.158
763.957	258.683
768.537	78.3291
773.114	66.1094
777.689	115.014
782.261	120.074
786.831	135.314
791.398	74.7481
795.963	102.697
800.524	163.653
805.084	22.4106
809.641	41.5185
814.195	0.980957
818.747	11.8413
823.296	96.3438
827.842	14.6655
832.386	34.1089
836.928	78.9917
841.467	56.0615
846.003	187.507
850.537	100.362
855.068	217.655
859.597	214.442
864.123	508.773
868.646	512.644
873.167	484.022
877.686	542.915
882.202	739.3
886.715	944.203
891.226	1240.65
895.734	1741.59
900.24	2472.03
904.743	3156.07
909.244	3355.98
913.742	2957.31
918.238	2476.15
922.731	2208.63
927.221	1853.79
931.709	1545.39
936.195	1552.33
940.678	1624.8
945.158	1805.13
949.636	2143.95
954.111	3045.9
958.584	4178.6
963.054	5752
967.522	7230.47
971.987	6918.33
976.45	5808.13
980.91	4534.01
985.368	3670.46
989.823	3730.65
994.275	4488.54
998.725	5350.12
1003.17	5974.39
1007.62	6758.49
1012.06	9122.95
1016.5	13465.5
1020.94	18608.2
1025.37	20081.4
1029.81	15209
1034.23	10235.8
1038.66	6733.32
1043.09	4754.88
1047.51	3806.82
1051.93	2834.75
1056.35	2186.95
1060.76	1545.73
1065.17	1392.77
1069.58	1298.2
1073.99	1097.75
1078.4	940.894
1082.8	1185.31
1087.2	1089.27
1091.6	1227.59
1095.99	1518.84
1100.38	1292.37
1104.77	778.023
1109.16	532.641
1113.55	327.978
1117.93	267.954
1122.31	199.28
1126.68	157.152
1131.06	101.636
1135.43	123.347
1139.8	91.3149
1144.17	10.1294
1148.54	11.1357
1152.9	110.182
1157.26	40.5796
1161.62	25.2168
1165.97	59.5376
1170.32	61.0962
1174.67	8.0083
1179.02	26.5762
1183.37	28.2974
1187.71	35.956
1192.05	22.9419
1196.39	6.73731
1200.72	14.8945
1205.05	35.9141
1209.38	28.5689
1213.71	11.2881
1218.04	49.8828
1222.36	18.2524
1226.68	112.06
1231	140.685
1235.31	115.608
1239.63	94.3818
1243.94	49.853
1248.25	142.963
1252.55	189.548
1256.86	258.751
1261.15	209.96
1265.45	317.594
1269.75	350.866
1274.04	231.019
1278.33	253.093
1282.62	428.416
1286.91	378.742
1291.19	421.804
1295.47	395.309
1299.75	294.859
1304.03	287.545
1308.3	422.491
1312.57	448.963
1316.84	222.791
1321.11	195.784
1325.37	186.017
1329.63	146.035
1333.89	80.251
1338.15	86.7778
1342.4	63.4805
1346.65	80.438
1350.9	109.395
1355.15	93.9541
1359.4	124.908
1363.64	21.627
1367.88	40.6274
1372.12	142.329
1376.35	169.727
1380.58	47.0478
1384.81	66.8135
1389.04	45.3774
1393.26	94.6148
1397.49	168.662
1401.71	58.419
1405.92	91.4023
1410.14	27.523
1414.35	31.4902
1418.56	27.813
1422.77	127.978
1426.98	94.2642
1431.18	69.7925
1435.38	239.938
1439.58	304.288
1443.78	277.381
1447.97	315.772
1452.16	365.473
1456.35	316.393
1460.54	262.254
1464.72	327.485
1468.9	183.961
1473.08	230.716
1477.26	82.6221
1481.43	352.99
1485.6	182.094
1489.77	235.884
1493.94	137.945
1498.1	104.165
1502.27	152.535
1506.43	104.055
1510.58	108.376
1514.74	106.385
1518.89	218.804
1523.04	326.233
1527.19	98.8623
1531.34	143.466
1535.48	71.7266
1539.62	109.785
1543.76	53.751
1547.89	99.2988
1552.03	134.537
1556.16	176.533
1560.29	0
