Measurement: Raman, 514 nm, ccw, Raman Data Processed
Mineral: Grunerite
Rruff sample: R040150
Ideal chemistry: [box]Fe^2+^_2_Fe^2+^_5_Si_8_O_22_(OH)_2_
Locality: Smallwood mine, Heath Lake, Newfoundland, Canada
Source: University of Arizona Mineral Museum
Description: Brown bladed crystals in parallel aggregate
Measured chemistry: (Fe_0.69_Mg_0.27_Ca_0.02_Mn_0.02_)_7_Si_8.02_O_22_((OH)_0.98_Cl_0.02_)_2_
Pin_id: M00372
Orientation: Laser parallel to c* (0 0 1). Fiducial mark perpendicular to laser is parallel to a [1 0 0]
Raman shift (cm-1)	intensity
59.652	0
64.623	11.5018
69.591	546.198
74.557	2250.95
79.52	5237.32
84.48	2910.62
89.438	920.875
94.393	293.102
99.345	255.294
104.294	32.9882
109.241	73.87
114.185	162.886
119.126	475.834
124.064	1008.91
129	386.26
133.933	92.6733
138.864	213.443
143.791	844.241
148.716	2527.2
153.638	9214.34
158.558	18506.5
163.475	9566.5
168.389	6007.76
173.3	9052.29
178.209	18696.4
183.115	34445.2
188.018	34316.8
192.918	21963.8
197.816	14734.6
202.711	12176
207.604	10965.2
212.494	10436.4
217.381	9582.72
222.265	7405.7
227.147	4604.91
232.026	2795.89
236.902	1975.2
241.775	1520.74
246.646	1492.38
251.514	1802.9
256.38	1835.96
261.243	1839.66
266.103	1655.75
270.96	1601.54
275.815	1590.96
280.667	1793.95
285.516	2080.48
290.363	2379.77
295.207	2410.21
300.048	2013.33
304.887	1362.14
309.723	901.188
314.556	525.109
319.387	425.079
324.215	304.03
329.04	347.789
333.862	557.948
338.682	991.017
343.5	1815.12
348.314	2614.25
353.126	2143.4
357.935	1310.77
362.742	872.359
367.546	849.123
372.347	523.032
377.145	262.177
381.941	102.643
386.735	66.2611
391.525	106.731
396.313	255.083
401.098	446.577
405.881	449.198
410.661	402.813
415.438	255.4
420.213	160.944
424.985	166.427
429.754	64.834
434.521	78.9136
439.285	57.2245
444.046	43.3728
448.805	79.3705
453.561	88.2871
458.315	60.26
463.065	62.1769
467.813	47.947
472.559	11.2315
477.302	86.6606
482.042	106.707
486.78	321.717
491.515	503.601
496.247	492.339
500.977	448.882
505.704	517.223
510.428	660.357
515.15	503.045
519.869	503.993
524.586	602.651
529.3	921.313
534.011	816.922
538.719	631.446
543.425	500.827
548.129	549.008
552.83	696.033
557.528	988.871
562.223	1159.49
566.916	926.88
571.607	740.024
576.294	496.007
580.979	423.882
585.662	391.842
590.341	408.229
595.019	390.318
599.693	490.073
604.365	563.105
609.035	723.349
613.701	945.696
618.366	1415.16
623.027	1937.53
627.686	2574.14
632.342	3711.93
636.996	5171.27
641.647	7576.54
646.296	12248.8
650.942	21960.9
655.585	40533
660.226	62842.6
664.864	50656.3
669.499	22104.8
674.132	9511.82
678.763	4960.2
683.39	3017.83
688.015	2100.61
692.638	1425.81
697.258	1041.59
701.875	714.573
706.49	434.113
711.102	295.619
715.712	180.172
720.319	99.9701
724.923	89.1406
729.525	65.6593
734.124	103.392
738.721	119.969
743.315	290.747
747.907	80.8597
752.496	9.7384
757.082	46.3599
761.666	44.2567
766.247	14.6217
770.826	12.2338
775.402	119.263
779.975	135.144
784.546	125.095
789.115	35.1224
793.681	18.0991
798.244	66.6156
802.804	38.794
807.363	10.2781
811.918	5.00574
816.471	27.8492
821.022	18.2585
825.569	80.5643
830.115	4.53345
834.657	26.7135
839.198	25.9971
843.735	69.426
848.27	99.0157
852.803	45.7719
857.333	88.696
861.86	147.787
866.385	148.044
870.907	258.466
875.427	388.797
879.944	447.856
884.459	711.879
888.971	909.115
893.481	1362.83
897.988	1910.88
902.492	2558.77
906.994	3028.62
911.493	3266.15
915.99	2371.99
920.485	2006.14
924.976	1565.4
929.466	1321.33
933.952	1120.88
938.436	1108.08
942.918	1082.82
947.397	1060.85
951.874	1269.9
956.348	1420.27
960.819	1864.55
965.288	2459.32
969.755	2702.38
974.219	2512.45
978.68	2254.18
983.139	2095.16
987.595	2169.38
992.049	2549.85
996.501	3294.56
1000.95	4103.51
1005.4	5515.85
1009.84	7684.91
1014.28	11776.6
1018.72	17228.1
1023.16	19902.6
1027.59	16123
1032.02	10319.3
1036.45	6142.62
1040.88	3966.26
1045.3	2851.7
1049.72	2082.13
1054.14	1524.56
1058.56	1207.39
1062.97	1036.53
1067.38	890.089
1071.79	761.054
1076.19	716.048
1080.6	644.509
1085	756.802
1089.4	949.063
1093.79	1284.1
1098.19	1474.39
1102.58	906.785
1106.97	434.41
1111.35	240.089
1115.74	167.566
1120.12	123.049
1124.5	66.4862
1128.87	43.9003
1133.25	4.27319
1137.62	14.6282
1141.99	28.1504
1146.35	35.0897
1150.72	48.2463
1155.08	16.7513
1159.44	2.44409
1163.79	13.6345
1168.15	11.5114
1172.5	21.854
1176.85	6.61792
1181.19	19.2223
1185.54	0.74646
1189.88	39.054
1194.22	35.7289
1198.55	50.2838
1202.89	5.58984
1207.22	33.5862
1211.55	70.7324
1215.88	60.4354
1220.2	48.6603
1224.52	33.7649
1228.84	30.5771
1233.16	114.05
1237.47	83.5919
1241.78	108.652
1246.09	84.4759
1250.4	131.138
1254.7	131.05
1259.01	155.374
1263.31	136.363
1267.6	119.95
1271.9	98.7922
1276.19	121.604
1280.48	158.082
1284.77	161.263
1289.05	137.706
1293.33	138.767
1297.61	127.675
1301.89	94.6315
1306.16	91.8063
1310.44	164.602
1314.71	99.4861
1318.97	113.538
1323.24	152.023
1327.5	42.9482
1331.76	129.506
1336.02	13.7086
1340.28	53.048
1344.53	129.361
1348.78	7.82397
1353.03	58.2367
1357.27	91.4915
1361.52	13.5568
1365.76	31.4625
1370	92.0834
1374.23	37.2228
1378.47	34.1189
1382.7	19.8213
1386.93	51.4021
1391.15	73.9391
1395.38	64.3023
1399.6	47.7026
1403.82	34.0487
1408.03	27.0736
1412.25	37.0037
1416.46	25.4222
1420.67	17.9334
1424.88	34.4025
1429.08	11.1453
1433.28	43.4607
1437.48	26.2107
1441.68	31.0381
1445.87	20.9992
1450.07	15.7313
1454.26	73.475
1458.44	75.3136
1462.63	34.9349
1466.81	28.9304
1470.99	4.08472
1475.17	77.8813
1479.34	39.0295
1483.52	5.39356
1487.69	24.5656
1491.86	55.229
1496.02	29.5914
1500.19	19.0073
1504.35	57.6372
1508.51	13.0497
1512.66	9.70227
1516.82	13.4163
1520.97	39.9571
1525.12	76.1715
1529.26	40.8328
1533.41	5.40356
1537.55	56.1119
1541.69	64.3521
1545.83	43.8545
1549.96	75.77
1554.09	26.9199
1558.22	67.6202
1562.35	53.4365
1566.48	50.457
1570.6	47.0275
1574.72	47.9647
