Measurement: Raman, 514 nm, ccw, Raman Data Processed
Mineral: Grunerite
Rruff sample: R040150
Ideal chemistry: [box]Fe^2+^_2_Fe^2+^_5_Si_8_O_22_(OH)_2_
Locality: Smallwood mine, Heath Lake, Newfoundland, Canada
Source: University of Arizona Mineral Museum
Description: Brown bladed crystals in parallel aggregate
Measured chemistry: (Fe_0.69_Mg_0.27_Ca_0.02_Mn_0.02_)_7_Si_8.02_O_22_((OH)_0.98_Cl_0.02_)_2_
Pin_id: M00350
Orientation: Laser parallel to a* (1 0 0). Fiducial mark perpendicular to laser is parallel to -b [0 -1 0]
Raman shift (cm-1)	intensity
54.966	0
59.164	72.124
63.36	52.104
67.554	10.638
71.747	5.287
75.937	205.13
80.125	4.816
84.311	116.679
88.496	105.183
92.678	226.401
96.858	143.684
101.036	191.275
105.212	267.292
109.387	373.205
113.559	378.695
117.729	590.572
121.897	550.811
126.063	356.882
130.228	135.173
134.39	132.563
138.55	360.81
142.709	767.746
146.865	2121.84
151.019	5669.49
155.171	11651.9
159.322	15713.1
163.47	9109.17
167.617	5584.21
171.761	6195.21
175.904	10219.3
180.044	16653.2
184.183	21914.7
188.319	19449.8
192.454	12598.1
196.586	8223
200.717	6319.38
204.846	5564.24
208.972	5421.58
213.097	5591.36
217.22	6623.56
221.341	7600.38
225.46	7869.46
229.577	7175.21
233.692	6231.28
237.805	5132.86
241.916	4277.93
246.025	3403.98
250.132	2584.31
254.237	1969.6
258.34	1462.8
262.442	1048.94
266.541	821.973
270.639	540.913
274.734	419.668
278.828	437.226
282.919	525.439
287.009	512.236
291.097	570.757
295.183	626.233
299.266	667.197
303.348	789.697
307.428	821.309
311.507	941.134
315.583	963.142
319.657	918.084
323.729	548.117
327.8	307.573
331.868	493.281
335.935	892.227
339.999	1979.4
344.062	3737.77
348.123	5691.31
352.182	6423.98
356.239	6261.75
360.294	6647.61
364.347	8678.55
368.398	10116.6
372.448	8504.63
376.495	5250.76
380.54	3980.92
384.584	3648.14
388.626	4169.53
392.666	5786.15
396.704	7934
400.74	9704.02
404.774	9846.19
408.806	9129.48
412.836	8750.88
416.865	8924.96
420.891	9973.69
424.916	9737.92
428.939	6010.25
432.959	2568.5
436.978	1130.57
440.996	518.254
445.011	217.676
449.024	90.156
453.036	36.432
457.045	81.333
461.053	119.678
465.059	122.758
469.063	140.628
473.065	145.404
477.065	115.131
481.063	33.59
485.06	182.99
489.054	309.622
493.047	564.619
497.038	1079.61
501.027	1793.58
505.014	2990.53
508.999	3638.38
512.982	3634.1
516.964	3828.68
520.944	5008.09
524.921	7484.3
528.897	9970.29
532.871	9126.06
536.844	5511.61
540.814	2964.92
544.783	1744
548.749	1112.84
552.714	914.44
556.677	813.788
560.638	686.879
564.597	575.711
568.555	375.278
572.511	270.576
576.464	124.593
580.416	35.208
584.366	12.264
588.315	13.341
592.261	42.342
596.206	5.594
600.148	68.824
604.089	120.814
608.028	187.438
611.965	279.878
615.901	381.073
619.834	607.349
623.766	862.444
627.696	1208.63
631.624	1538.56
635.551	2145.66
639.475	3236.92
643.398	4847.31
647.318	8020.26
651.237	13939.6
655.155	25334.7
659.07	40706.6
662.984	47335.1
666.895	33320.2
670.805	17782
674.713	9667.99
678.62	6023.48
682.524	4067.9
686.427	3049.12
690.328	2252.15
694.227	1767.98
698.124	1453.64
702.02	1175.12
705.913	959.181
709.805	794.545
713.695	634.51
717.584	538.315
721.47	508.966
725.355	452.469
729.238	497.828
733.119	493.87
736.998	685.132
740.876	1090.2
744.752	1368.7
748.626	1044.87
752.498	520.463
756.368	395.562
760.237	454.585
764.104	330.927
767.969	188.521
771.832	134.18
775.693	150.045
779.553	104.246
783.411	134.785
787.267	118.745
791.122	9.083
794.974	15.359
798.825	78.805
802.674	21.457
806.522	86.279
810.367	82.441
814.211	103.867
818.053	70.554
821.893	21.359
825.732	3.222
829.568	65.111
833.403	16.979
837.236	33.151
841.068	114.41
844.898	76.763
848.726	56.216
852.552	101.774
856.376	147.443
860.199	186.228
864.02	246.135
867.839	240.171
871.656	353.35
875.472	435.678
879.286	572.159
883.098	814.814
886.909	994.716
890.717	1436.93
894.524	1786.53
898.33	2339.61
902.133	2956.17
905.935	3431.19
909.735	3617.58
913.533	3276.29
917.33	2834.31
921.124	2485.62
924.918	2160.19
928.709	1879.98
932.499	1658
936.286	1553.25
940.073	1730.68
943.857	1812.29
947.64	1976.46
951.421	2394.43
955.2	3194.06
958.978	4444.54
962.753	6208.16
966.527	7969.39
970.3	8287.23
974.071	7091.07
977.84	5542.32
981.607	4220.94
985.372	3662.61
989.136	3422.55
992.898	3747.7
996.659	4431.06
1000.42	4999.63
1004.17	5220.4
1007.93	6089.39
1011.68	7931.57
1015.43	11089
1019.18	15401.1
1022.93	18978.2
1026.68	18854.2
1030.42	14821.4
1034.17	10789.7
1037.91	7771.5
1041.65	5910.79
1045.39	4652.01
1049.12	3778.36
1052.86	3059.45
1056.59	2607.84
1060.33	2296.72
1064.06	2089.35
1067.78	1791.16
1071.51	1582.63
1075.23	1489.67
1078.96	1346.16
1082.68	1257.6
1086.4	1187.02
1090.12	1197.84
1093.83	1228.79
1097.55	1180.38
1101.26	1065.32
1104.97	824.038
1108.68	645.121
1112.39	635.451
1116.1	537.982
1119.8	486.709
1123.5	405.554
1127.2	374.51
1130.9	270.567
1134.6	279.679
1138.3	185.809
1141.99	140.958
1145.69	121.116
1149.38	101.014
1153.07	59.485
1156.76	51.64
1160.44	5.775
1164.13	30.884
1167.81	35.952
1171.49	7.035
1175.17	58.928
1178.85	24.206
1182.52	40.343
1186.2	39.664
1189.87	3.828
1193.54	29.159
1197.21	18.788
1200.88	36.455
1204.55	13.949
1208.21	19.794
1211.88	36.278
1215.54	14.656
1219.2	16.869
1222.86	23.001
1226.51	26.284
1230.17	1.805
1233.82	42.421
1237.47	52.317
1241.12	99.348
1244.77	83.322
1248.42	83.18
1252.06	122.147
1255.71	151.08
1259.35	120.751
1262.99	122.996
1266.63	123.707
1270.26	197.144
1273.9	177.189
1277.53	157.453
1281.16	178.291
1284.8	178.368
1288.42	228.27
1292.05	155.67
1295.68	179.8
1299.3	156.374
1302.92	189.746
1306.55	172.946
1310.16	236.972
1313.78	184.235
1317.4	152.493
1321.01	152.202
1324.62	107.261
1328.24	214.218
1331.85	114.655
1335.45	96.207
1339.06	53.089
1342.66	41.428
1346.27	42.244
1349.87	45.248
1353.47	59.904
1357.07	65.666
1360.66	30.141
1364.26	48.593
1367.85	274.828
1371.44	35.019
1375.04	52.276
1378.62	16.727
1382.21	85.441
1385.8	57.863
1389.38	67.309
1392.96	68.492
1396.54	45.35
1400.12	55.842
1403.7	45.926
1407.28	5.339
1410.85	31.984
1414.42	11.973
1417.99	30.62
1421.56	27.946
1425.13	26.975
1428.7	25.482
1432.26	52.856
1435.83	11.236
1439.39	81.522
1442.95	85.138
1446.51	92.631
1450.06	127.427
1453.62	118.402
1457.17	155.093
1460.73	198.933
1464.28	131.842
1467.83	122.712
1471.37	56.66
1474.92	115.805
1478.46	61.681
1482.01	34.789
1485.55	134.262
1489.09	42.393
1492.63	57.871
1496.16	24.614
1499.7	0.776
1503.23	16.686
1506.76	26.414
1510.29	54.389
1513.82	97.879
1517.35	31.35
1520.88	24.868
1524.4	0
