Measurement: Raman, 514 nm, depolarized, Raman Data Processed
Mineral: Grunerite
Rruff sample: R040150
Ideal chemistry: [box]Fe^2+^_2_Fe^2+^_5_Si_8_O_22_(OH)_2_
Locality: Smallwood mine, Heath Lake, Newfoundland, Canada
Source: University of Arizona Mineral Museum
Description: Brown bladed crystals in parallel aggregate
Measured chemistry: (Fe_0.69_Mg_0.27_Ca_0.02_Mn_0.02_)_7_Si_8.02_O_22_((OH)_0.98_Cl_0.02_)_2_
Pin_id: M00350
Orientation: Laser parallel to a* (1 0 0). Fiducial mark perpendicular to laser is parallel to -b [0 -1 0]
Raman shift (cm-1)	intensity
54.966	0
59.164	182.577
63.36	55.026
67.554	78.347
71.747	890.203
75.937	2948.44
80.125	4963.03
84.311	3685.71
88.496	2174.56
92.678	1516.79
96.858	1156.11
101.036	847.183
105.212	803.593
109.387	836.497
113.559	925.644
117.729	1067.92
121.897	723.225
126.063	608.265
130.228	461.682
134.39	383.111
138.55	387.228
142.709	663.007
146.865	1621.09
151.019	4004.03
155.171	7991.06
159.322	10362.3
163.47	6247.84
167.617	3729.72
171.761	3932.03
175.904	6208.33
180.044	10007.4
184.183	13456.4
188.319	12408.5
192.454	8517.29
196.586	5965.85
200.717	4882.1
204.846	4553.03
208.972	4475.58
213.097	3960.73
217.22	4272.43
221.341	4544.15
225.46	4432.32
229.577	4050.84
233.692	3494.65
237.805	2886.91
241.916	2456.24
246.025	1932.35
250.132	1417.02
254.237	1221.08
258.34	902.411
262.442	620.957
266.541	397.745
270.639	347.725
274.734	382.822
278.828	516.97
282.919	775.045
287.009	1125.41
291.097	1114.58
295.183	1103.2
299.266	1099.73
303.348	935.543
307.428	958.569
311.507	1128.45
315.583	1194.68
319.657	1222.17
323.729	928.354
327.8	647.907
331.868	768.723
335.935	1149.81
339.999	2243.15
344.062	3821.7
348.123	5433.41
352.182	5825.24
356.239	5048.15
360.294	4872.13
364.347	5995.15
368.398	6677.22
372.448	5246.31
376.495	3449.41
380.54	2628.5
384.584	2408.61
388.626	2907.96
392.666	3990.59
396.704	5506.48
400.74	6770.53
404.774	6868.73
408.806	6216.03
412.836	5625.41
416.865	5451.92
420.891	5649.39
424.916	5263.92
428.939	3193.24
432.959	1399.59
436.978	505.091
440.996	213.527
445.011	26.816
449.024	45.949
453.036	17.558
457.045	178.71
461.053	124.745
465.059	109.634
469.063	129.393
473.065	139.299
477.065	147.354
481.063	42.431
485.06	65.868
489.054	621.883
493.047	528.703
497.038	794.322
501.027	1365.74
505.014	2207.95
508.999	2760.91
512.982	2779.66
516.964	2783.13
520.944	3512.32
524.921	5141.22
528.897	6856.79
532.871	6412.02
536.844	3956.92
540.814	2237.46
544.783	1436.65
548.749	1055.49
552.714	887.967
556.677	925.709
560.638	961.809
564.597	762.165
568.555	523.138
572.511	339.725
576.464	146.922
580.416	71.652
584.366	19.735
588.315	2.055
592.261	6.251
596.206	63.662
600.148	72.259
604.089	136.359
608.028	158.103
611.965	221.588
615.901	331.237
619.834	435.518
623.766	683.241
627.696	929.705
631.624	1222.09
635.551	1815.39
639.475	2680.67
643.398	4014.18
647.318	6610.13
651.237	11808.1
655.155	21811.9
659.07	35764.7
662.984	42823.8
666.895	30813.7
670.805	17132.8
674.713	9165.99
678.62	5738.85
682.524	3937.39
686.427	2934.5
690.328	2240.17
694.227	1788.65
698.124	1396.93
702.02	1191.04
705.913	871.974
709.805	818.743
713.695	685.355
717.584	625.82
721.47	613.145
725.355	493.338
729.238	451.239
733.119	517.113
736.998	685.662
740.876	1102.81
744.752	1557.22
748.626	1258.34
752.498	864.602
756.368	877.267
760.237	1112.31
764.104	1164.54
767.969	755.474
771.832	580.629
775.693	525.182
779.553	435.097
783.411	413.451
787.267	346.362
791.122	191.794
794.974	23.653
798.825	32.31
802.674	29.25
806.522	54.251
810.367	40.337
814.211	45.489
818.053	53.67
821.893	52.857
825.732	6.073
829.568	24.207
833.403	40.705
837.236	10.753
841.068	51.969
844.898	78.37
848.726	90.966
852.552	125.764
856.376	26.772
860.199	56.995
864.02	171.44
867.839	231.112
871.656	279.021
875.472	302.192
879.286	363.667
883.098	416.437
886.909	732.492
890.717	785.945
894.524	913.898
898.33	1221.45
902.133	1750.63
905.935	2000.42
909.735	2066.7
913.533	1794.39
917.33	1770.47
921.124	1462.98
924.918	1327.88
928.709	1146.13
932.499	982.394
936.286	987.657
940.073	1099.87
943.857	1209.37
947.64	1491.13
951.421	2389.34
955.2	2420.95
958.978	3359.38
962.753	4821.71
966.527	6312.18
970.3	6704.39
974.071	5790.14
977.84	4418.47
981.607	3289.51
985.372	2712.17
989.136	2520.49
992.898	2639.32
996.659	3093.42
1000.42	3507.3
1004.17	3697.21
1007.93	4249.4
1011.68	5504.86
1015.43	7824.58
1019.18	11046.6
1022.93	13926.4
1026.68	14082.8
1030.42	11262.5
1034.17	8331.47
1037.91	5977.98
1041.65	4557.84
1045.39	3694.43
1049.12	3088.1
1052.86	2470.64
1056.59	2117.24
1060.33	1918.94
1064.06	1766.54
1067.78	1581.92
1071.51	1382.26
1075.23	1236.85
1078.96	1218.61
1082.68	1159.15
1086.4	1156.46
1090.12	1228.53
1093.83	1377.86
1097.55	1572.22
1101.26	1436.74
1104.97	1124.33
1108.68	804.131
1112.39	759.133
1116.1	576.371
1119.8	537.972
1123.5	437.481
1127.2	441.135
1130.9	298.894
1134.6	300.76
1138.3	279.684
1141.99	172.646
1145.69	163.638
1149.38	114.65
1153.07	123.67
1156.76	91.752
1160.44	63.759
1164.13	31.746
1167.81	58.705
1171.49	16.264
1175.17	41.405
1178.85	50.21
1182.52	10.808
1186.2	33.599
1189.87	9.908
1193.54	17.887
1197.21	38.757
1200.88	24.983
1204.55	22.054
1208.21	13.197
1211.88	37.026
1215.54	31.592
1219.2	45.722
1222.86	2.283
1226.51	21.096
1230.17	14.198
1233.82	16.5
1237.47	94.055
1241.12	60.395
1244.77	75.803
1248.42	129.499
1252.06	130.685
1255.71	138.068
1259.35	93.186
1262.99	100.166
1266.63	132.907
1270.26	184.247
1273.9	154.547
1277.53	199.507
1281.16	154.445
1284.8	156.285
1288.42	177.438
1292.05	170.767
1295.68	165.201
1299.3	154.318
1302.92	208.823
1306.55	203.988
1310.16	189.874
1313.78	139.456
1317.4	209.52
1321.01	176.235
1324.62	144.992
1328.24	145.381
1331.85	135.339
1335.45	105.375
1339.06	21.507
1342.66	99.323
1346.27	110.334
1349.87	26.41
1353.47	68.468
1357.07	14.445
1360.66	20.224
1364.26	48.416
1367.85	56.18
1371.44	63.045
1375.04	57.864
1378.62	66.174
1382.21	62.376
1385.8	15.771
1389.38	24.753
1392.96	15.745
1396.54	36.272
1400.12	60.127
1403.7	61.808
1407.28	21.052
1410.85	32.859
1414.42	41.234
1417.99	98.122
1421.56	75.694
1425.13	30.699
1428.7	89.696
1432.26	47.848
1435.83	98.271
1439.39	162.613
1442.95	200.436
1446.51	165.459
1450.06	192.893
1453.62	184.854
1457.17	150.546
1460.73	165.549
1464.28	127.128
1467.83	75.444
1471.37	118.435
1474.92	102.379
1478.46	83.494
1482.01	69.604
1485.55	82.572
1489.09	51.754
1492.63	39.666
1496.16	79.237
1499.7	34.65
1503.23	86.681
1506.76	57.441
1510.29	29.124
1513.82	28.906
1517.35	98.4
1520.88	41.194
1524.4	1.792
1527.92	0
