Measurement: Raman, 514 nm, ccw, Raman Data Processed
Mineral: Grunerite
Rruff sample: R040150
Ideal chemistry: [box]Fe^2+^_2_Fe^2+^_5_Si_8_O_22_(OH)_2_
Locality: Smallwood mine, Heath Lake, Newfoundland, Canada
Source: University of Arizona Mineral Museum
Description: Brown bladed crystals in parallel aggregate
Measured chemistry: (Fe_0.69_Mg_0.27_Ca_0.02_Mn_0.02_)_7_Si_8.02_O_22_((OH)_0.98_Cl_0.02_)_2_
Pin_id: M00276
Orientation: Laser parallel to (1 0 1). Fiducial mark perpendicular to laser is parallel to b [0 1 0]
Raman shift (cm-1)	intensity
67.107	0
72.074	353.308
77.039	1499.89
82	1733.36
86.959	292.316
91.916	164.975
96.869	796.934
101.82	1628.46
106.768	129.256
111.713	222.784
116.656	143.249
121.596	1050.4
126.533	1376.22
131.467	1023.66
136.399	1075
141.328	180.98
146.254	318.902
151.178	2501.39
156.098	8639.86
161.017	8156.14
165.932	3264.76
170.845	2761.27
175.755	5573.71
180.662	11949
185.567	17664.5
190.469	13413.5
195.368	7834.91
200.264	5248.49
205.158	4197.2
210.049	3909.25
214.937	3801.36
219.823	3810.9
224.706	3300.09
229.586	2531.24
234.464	2107.95
239.339	1478.3
244.211	1002.83
249.081	732.366
253.947	600.788
258.812	335.672
263.673	154.057
268.532	108.584
273.388	74.6846
278.241	107.301
283.092	251.382
287.94	480.873
292.785	586.728
297.628	747.746
302.468	655.568
307.305	689.983
312.14	660.726
316.972	679.108
321.801	564.754
326.628	509.459
331.451	634.125
336.273	1019.81
341.091	1849.21
345.907	3261.45
350.72	4280.58
355.531	4103.56
360.339	3623.45
365.144	3867.13
369.947	3660.73
374.746	2155.2
379.544	1249.54
384.338	959.805
389.13	1003
393.919	1639.1
398.706	2483.08
403.49	2934.26
408.271	2769.68
413.05	2535.92
417.826	2602.72
422.599	3355.41
427.37	2618.04
432.138	815.425
436.903	213.557
441.666	11.5894
446.426	44.5625
451.183	127.47
455.938	96.0869
460.69	67.9189
465.44	19.1587
470.187	72.9155
474.931	67.8545
479.672	106.962
484.411	217.601
489.148	556.835
493.881	665.671
498.612	795.108
503.341	1201.14
508.066	1784.78
512.789	1787.02
517.51	1916.93
522.228	2633.67
526.943	4168.28
531.656	4704.57
536.365	3023.73
541.073	1760.72
545.778	1113.61
550.48	1204.17
555.179	944.377
559.876	958.182
564.57	880.581
569.262	702.561
573.951	491.123
578.637	310.271
583.321	239.165
588.002	115.702
592.68	38.8315
597.356	37.9639
602.03	95.9722
606.7	82.1875
611.368	236.384
616.034	436.711
620.697	924.74
625.357	1487.95
630.014	2368.53
634.67	3690.94
639.322	4515.2
643.972	6123.31
648.619	9629.28
653.264	17038
657.906	31381.9
662.545	39551
667.182	24024
671.816	10584.3
676.448	5606.25
681.077	3870.11
685.703	3452.65
690.327	3264.79
694.948	2725.4
699.567	1865.88
704.183	1263.49
708.797	897.037
713.407	629.528
718.016	416.979
722.621	339.425
727.225	323.116
731.825	217.001
736.423	186.026
741.019	351.152
745.611	302.793
750.202	223.023
754.789	190.836
759.374	353.804
763.957	448.937
768.537	325.224
773.114	131.675
777.689	152.303
782.261	249.419
786.831	105.147
791.398	5.33984
795.963	50.4243
800.524	15.4917
805.084	15.2656
809.641	56.9609
814.195	46.4321
818.747	58.1455
823.296	38.9336
827.842	40.8145
832.386	22.6709
836.928	66.4888
841.467	78.6724
846.003	66.2437
850.537	87.2163
855.068	88.6055
859.597	162.422
864.123	301.522
868.646	294.731
873.167	436.417
877.686	478.677
882.202	518.429
886.715	622.655
891.226	857.335
895.734	1164.5
900.24	1581.18
904.743	1966.43
909.244	2098.18
913.742	1945.46
918.238	1676.95
922.731	1298.86
927.221	1196.85
931.709	1038.62
936.195	1037.57
940.678	983.175
945.158	1235.94
949.636	1371.16
954.111	1916.88
958.584	2668.81
963.054	3825.07
967.522	4678
971.987	4762.8
976.45	4043.01
980.91	3001.86
985.368	2562.42
989.823	2697.65
994.275	3215.51
998.725	3990.99
1003.17	4460.11
1007.62	4834.84
1012.06	6530.17
1016.5	9617.62
1020.94	13509.2
1025.37	14286.3
1029.81	11233.4
1034.23	7458.44
1038.66	4744.59
1043.09	3424.15
1047.51	2626.39
1051.93	1908.12
1056.35	1384.32
1060.76	1182.34
1065.17	865.275
1069.58	807.867
1073.99	874.132
1078.4	801.998
1082.8	706.87
1087.2	858.14
1091.6	1057.22
1095.99	1429.57
1100.38	1356.6
1104.77	778.451
1109.16	403.082
1113.55	353.924
1117.93	217.654
1122.31	130.29
1126.68	105.726
1131.06	158.756
1135.43	122.672
1139.8	114.15
1144.17	24.3472
1148.54	0.18457
1152.9	45.0449
1157.26	46.2031
1161.62	45.7007
1165.97	47.0298
1170.32	1.2124
1174.67	1.30664
1179.02	75.667
1183.37	8.44824
1187.71	12.5088
1192.05	23.8926
1196.39	25.4805
1200.72	23.0791
1205.05	94.4004
1209.38	3.54492
1213.71	129.725
1218.04	14.0308
1222.36	18.3179
1226.68	61.8843
1231	63.9292
1235.31	149.601
1239.63	139.336
1243.94	44.8315
1248.25	213.26
1252.55	134.709
1256.86	165.008
1261.15	220.616
1265.45	246.059
1269.75	256.078
1274.04	243.218
1278.33	185.477
1282.62	240.806
1286.91	163.766
1291.19	234.6
1295.47	365.599
1299.75	356.23
1304.03	230.115
1308.3	216.738
1312.57	218.708
1316.84	207.179
1321.11	228.154
1325.37	216.664
1329.63	132.503
1333.89	103.99
1338.15	121.335
1342.4	174.945
1346.65	83.5356
1350.9	176.281
1355.15	27.0137
1359.4	5.16699
1363.64	89.5581
1367.88	112.669
1372.12	46.7993
1376.35	5.85693
1380.58	92.332
1384.81	177.541
1389.04	55.8315
1393.26	85.8433
1397.49	29.354
1401.71	95.957
1405.92	42.8267
1410.14	11.0923
1414.35	60.7773
1418.56	96.1343
1422.77	114.792
1426.98	32.1143
1431.18	68.8892
1435.38	144.872
1439.58	213.616
1443.78	309.053
1447.97	383.787
1452.16	235.723
1456.35	185.753
1460.54	298.546
1464.72	279.639
1468.9	239.719
1473.08	243.685
1477.26	210.951
1481.43	139.289
1485.6	188.701
1489.77	135.734
1493.94	191.361
1498.1	85.4414
1502.27	128.176
1506.43	56.6992
1510.58	180.19
1514.74	226.17
1518.89	28.7656
1523.04	71.9258
1527.19	5.34766
1531.34	7.2959
1535.48	69.6953
1539.62	207.091
1543.76	132.964
1547.89	20.7363
1552.03	61.9131
1556.16	126.677
1560.29	78.2314
