Measurement: Raman, , ccw, Raman Data Processed
Mineral: Gypsum
Rruff sample: R060509
Ideal chemistry: CaS^6+^O_4_2H_2_O
Locality: Pierre Shale, Hermosa, Custer County, South Dakota, USA
Source: Michael Scott
Description: Colorless tabular single crystal
Pin_id: L01293
Orientation: Laser parallel to b* (0 1 0). Fiducial mark perpendicular to laser is parallel to c [0 0 1]
Raman shift (cm-1)	intensity
158.365	0
163.303	32.2461
168.238	1.25244
173.17	161.06
178.1	303.36
183.026	492.234
187.948	199.865
192.868	135.887
197.785	260.768
202.699	400.61
207.609	678.455
212.517	758.606
217.422	565.628
222.323	256.7
227.222	155.724
232.117	123.933
237.01	82.8101
241.899	30.9268
246.785	18.9182
251.669	55.1208
256.549	77.4365
261.426	46.2627
266.3	64.802
271.172	53.4875
276.04	4.97241
280.905	16.4043
285.767	38.7236
290.627	20.9075
295.483	22.0547
300.336	25.9353
305.186	18.1538
310.034	24.1284
314.878	82.21
319.72	75.2876
324.558	9.24683
329.393	0.057617
334.226	24.3069
339.055	22.094
343.882	6.28394
348.706	0.282227
353.526	33.6296
358.344	7.56226
363.159	12.1235
367.971	15.9568
372.78	35.8997
377.586	30.6987
382.389	14.4805
387.189	69.0874
391.986	65.5378
396.78	222.399
401.572	285.088
406.36	773.893
411.146	1268.37
415.929	1673.1
420.709	740.525
425.486	201.489
430.26	71.8852
435.031	15.2507
439.799	71.0925
444.564	41.7705
449.327	73.3894
454.087	136.149
458.843	159.065
463.597	164.023
468.348	273.921
473.097	408.727
477.842	674.127
482.585	1306.75
487.324	2368.55
492.061	3809.51
496.795	3480.66
501.526	1582.71
506.255	763.955
510.98	436.818
515.703	356.82
520.423	279.388
525.14	291.972
529.854	236.689
534.566	277.494
539.274	262.411
543.98	282.585
548.683	321.012
553.383	395.272
558.081	378.673
562.775	493.028
567.467	566.315
572.156	694.761
576.843	633.504
581.526	698.541
586.207	671.096
590.885	768.034
595.56	854.236
600.233	1034.16
604.902	1243.26
609.569	1624.76
614.234	2275.87
618.895	2773.73
623.554	2404.11
628.21	1382.05
632.863	639.926
637.514	323.796
642.161	281.803
646.806	185.828
651.449	228.805
656.088	149.818
660.725	0.824707
665.36	76.8096
669.991	53.2249
674.62	101.177
679.246	111.369
683.869	47.5879
688.49	0.345947
693.108	13.0691
697.723	50.3877
702.336	35.2112
706.946	56.9778
711.553	50.979
716.158	33.8447
720.759	26.3799
725.359	45.1643
729.955	22.6245
734.549	43.9578
739.14	4.11475
743.729	40.1768
748.315	58.1765
752.898	71.1133
757.479	27.0139
762.057	34.2463
766.632	17.3621
771.205	11.948
775.775	1.32056
780.342	55.0759
784.907	65.6777
789.469	32.5007
794.029	25.9873
798.586	62.041
803.14	9.55884
807.692	61.844
812.241	20.7703
816.788	64.6191
821.332	51.2261
825.873	42.1414
830.412	58.0657
834.948	69.5474
839.481	100.552
844.012	186.723
848.541	82.2405
853.066	154.477
857.59	142.337
862.11	183.638
866.628	130.759
871.144	76.6338
875.657	46.7087
880.167	64.7346
884.675	119.99
889.18	33.2361
893.683	71.1533
898.183	67.1812
902.681	51.3538
907.176	90.5105
911.669	21.1902
916.159	6.74097
920.646	47.3865
925.131	108.534
929.613	4.33691
934.093	68.8079
938.571	51.0405
943.046	19.4734
947.518	56.6685
951.988	104.702
956.455	97.6738
960.92	150.075
965.382	192.569
969.842	220.137
974.3	310.757
978.754	497.508
983.207	750.356
987.657	1219.28
992.104	1711.31
996.549	3391.51
1000.99	12939.8
1005.43	36119.1
1009.87	42243.5
1014.3	8032.03
1018.74	2315.58
1023.17	1184.18
1027.59	625.854
1032.02	459.612
1036.44	278.293
1040.86	155.163
1045.28	59.2122
1049.7	67.9387
1054.11	85.9119
1058.52	59.4155
1062.93	51.8298
1067.33	34.0129
1071.74	16.4294
1076.14	37.7148
1080.54	106.045
1084.93	31.4858
1089.33	168.957
1093.72	107.487
1098.11	72.3916
1102.49	96.9058
1106.88	79.052
1111.26	161.81
1115.64	152.627
1120.01	207.866
1124.39	278.495
1128.76	507.475
1133.13	1120.52
1137.49	2138.62
1141.86	2419.8
1146.22	1483.04
1150.58	610.329
1154.94	210.655
1159.3	150.02
1163.65	60.4236
1168	24.8486
1172.35	25.2617
1176.69	60.7454
1181.04	50.1067
1185.38	83.6606
1189.72	39.2947
1194.05	61.9526
1198.39	24.8672
1202.72	40.8171
1207.05	54.571
1211.38	92.7756
1215.7	61.4333
1220.02	33.2288
1224.34	50.9265
1228.66	75.6426
1232.97	17.3735
1237.29	62.123
1241.6	36.0051
1245.91	41.1833
1250.21	24.8323
1254.52	84.5837
1258.82	111.497
1263.12	131.808
1267.41	59.5901
1271.71	93.0374
1276	99.8589
1280.29	80.6982
1284.58	34.5627
1288.87	113.448
1293.15	100.351
1297.43	166.404
1301.71	149.344
1305.98	98.9644
1310.26	176.983
1314.53	141.033
1318.8	96.269
1323.07	181.65
1327.33	30.2981
1331.6	78.8257
1335.86	31.9287
1340.11	47.0447
1344.37	19.1228
1348.62	45.2473
1352.88	65.3608
1357.12	89.1184
1361.37	92.8914
1365.62	32.9624
1369.86	29.0456
1374.1	82.146
1378.34	54.1865
1382.57	92.3779
1386.81	26.4343
1391.04	144.742
1395.27	46.845
1399.49	43.3015
1403.72	11.5154
1407.94	30.7463
1412.16	54.6711
1416.38	108.422
1420.6	75.2407
1424.81	73.7703
1429.02	127.096
1433.23	23.5659
1437.44	170.483
1441.64	188.377
1445.85	199.864
1450.05	206.979
1454.25	232.04
1458.44	270.617
1462.64	167.396
1466.83	115.606
1471.02	148.339
1475.21	194.099
1479.39	120.866
1483.58	72.187
1487.76	78.939
1491.93	86.6973
1496.11	128.477
1500.29	3.27148
1504.46	26.0801
1508.63	11.0059
1512.8	35.0249
1516.96	56.0972
1521.13	135.384
1525.29	131.241
1529.45	39.5894
1533.61	8.95459
1537.76	210.026
1541.92	69.4243
1546.07	55.1543
1550.22	87.9893
1554.36	133.81
1558.51	160.512
1562.65	0
