Measurement: Raman, 514 nm, depolarized, Raman Data Processed
Mineral: Gypsum
Rruff sample: R040029
Ideal chemistry: CaS^6+^O_4_2H_2_O
Locality: Twin Buttes, Pima County, Arizona, USA
Source: University of Arizona Mineral Museum
Description: Colorless prismatic crystal
Pin_id: L00233
Orientation: Laser parallel to [-1 0 -1]. Fiducial mark perpendicular to laser is parallel to -b* (0 -1 0)
Raman shift (cm-1)	intensity
91.981	0
96.161	26.679
100.34	90.988
104.516	521.652
108.691	735.21
112.864	311.735
117.034	438.174
121.203	248.014
125.369	207.919
129.534	426.837
133.696	221.495
137.857	474.061
142.016	591.646
146.172	394.807
150.327	193.569
154.48	116.51
158.63	544.256
162.779	812.61
166.926	395.033
171.07	773.105
175.213	1433.9
179.354	2200.34
183.493	1396.54
187.63	493.11
191.765	271.572
195.898	255.616
200.029	324.798
204.158	276.725
208.285	311.508
212.41	356.504
216.533	193.676
220.654	128.459
224.773	92.663
228.891	79.854
233.006	29.463
237.119	30.244
241.231	53.63
245.34	67.469
249.448	62.765
253.553	36.123
257.657	48.229
261.758	11.697
265.858	36.231
269.956	53.268
274.052	28.608
278.146	66.87
282.237	59.683
286.327	66.254
290.416	79.607
294.502	42.032
298.586	12.199
302.668	79.332
306.749	91.396
310.827	182.96
314.903	129.206
318.978	162.186
323.051	188.069
327.121	38.171
331.19	164.379
335.257	121.679
339.322	18.736
343.385	184.648
347.446	31.5
351.505	128.119
355.563	58.646
359.618	181.188
363.672	54.368
367.723	169.427
371.773	38.524
375.821	65.417
379.866	76.054
383.91	214.953
387.952	195.213
391.992	253.44
396.031	349.703
400.067	496.147
404.101	919.438
408.134	2193.45
412.165	5296.86
416.193	3359.86
420.22	1273.63
424.245	625.242
428.268	331.85
432.289	326.408
436.309	242.118
440.326	161.448
444.342	138.958
448.355	11.973
452.367	251.635
456.377	83.527
460.385	1.816
464.391	27.546
468.395	61.74
472.398	248.09
476.398	151.737
480.397	315.987
484.394	498.139
488.389	948.354
492.382	1512.92
496.373	833.662
500.362	386.154
504.349	291.79
508.335	229.98
512.319	118.404
516.3	223.502
520.28	207.503
524.259	149.457
528.235	108.7
532.209	99.17
536.182	68.994
540.152	132.137
544.121	133.26
548.088	75.119
552.053	121.743
556.017	100.693
559.978	34.372
563.938	100.086
567.895	197.615
571.851	136.354
575.805	92.293
579.758	301.674
583.708	266.504
587.657	320.091
591.603	112.805
595.548	258.872
599.491	335.354
603.432	251.007
607.372	167.515
611.309	149.893
615.245	332.829
619.179	438.147
623.111	562.217
627.041	614.816
630.97	573.622
634.896	195.307
638.821	237.925
642.744	442.251
646.665	523.339
650.584	354.052
654.502	426.044
658.418	612.198
662.331	575.925
666.244	1247.52
670.154	2056.02
674.062	775.493
677.969	315.555
681.874	403.563
685.777	147.467
689.678	210.062
693.577	249.252
697.475	80.774
701.371	98.542
705.265	277.396
709.157	154.412
713.047	14.342
716.936	16.539
720.823	158.327
724.708	69.608
728.591	177.228
732.472	26.451
736.352	27.685
740.23	19.729
744.106	284.683
747.98	222.749
751.853	69.067
755.723	123.192
759.592	118.317
763.459	1.765
767.325	31.502
771.188	44.202
775.05	196.96
778.91	107.059
782.768	66.082
786.625	8.985
790.479	28.205
794.332	229.463
798.183	108.061
802.033	52.584
805.88	127.021
809.726	102.391
813.57	124.283
817.413	156.574
821.253	112.709
825.092	83.838
828.929	23.809
832.764	121.902
836.598	374.828
840.429	424.592
844.259	365.686
848.088	261.305
851.914	380.844
855.739	459.324
859.562	509.129
863.383	509.773
867.203	264.496
871.02	338.871
874.836	67.111
878.65	216.311
882.463	124.111
886.274	175.818
890.083	139.574
893.89	275.891
897.695	398.709
901.499	221.955
905.301	291.445
909.102	40.475
912.9	174.078
916.697	153.24
920.492	172.484
924.285	323.619
928.077	68.869
931.867	234.033
935.655	24.199
939.442	87.113
943.226	318.975
947.009	279.676
950.791	332.475
954.57	309.555
958.348	216.127
962.124	39.264
965.899	332.154
969.671	228.08
973.442	208.441
977.211	171.889
980.979	265.875
984.745	481.494
988.509	874.006
992.271	1015.54
996.032	2033.14
999.791	3453.91
1003.55	9662.61
1007.3	41521.4
1011.06	13881.4
1014.81	3344.48
1018.56	1516.11
1022.31	850.133
1026.06	765.09
1029.8	566.248
1033.55	716.834
1037.29	422.111
1041.03	314.35
1044.77	231.357
1048.5	482.393
1052.24	317.436
1055.97	397.568
1059.7	183.215
1063.43	205.615
1067.16	347.355
1070.89	450.994
1074.61	350.418
1078.34	297.889
1082.06	302.506
1085.78	347.764
1089.5	255.941
1093.21	168.092
1096.93	362.699
1100.64	12.264
1104.35	202.129
1108.06	154.322
1111.77	134.381
1115.48	159.686
1119.18	37.129
1122.89	600.135
1126.59	696.686
1130.29	1481.49
1133.99	3849.31
1137.68	3623.52
1141.38	1287.63
1145.07	745.137
1148.76	240.322
1152.45	212.248
1156.14	94.885
1159.83	113.922
1163.51	165.893
1167.19	66.686
1170.88	4.67
1174.56	199.525
1178.23	89.73
1181.91	310.285
1185.59	114.793
1189.26	101.949
1192.93	47.336
1196.6	319.803
1200.27	122.74
1203.94	100.043
1207.6	4.139
1211.27	39.51
1214.93	357.369
1218.59	265.617
1222.25	48.521
1225.9	157.123
1229.56	259.461
1233.21	380.258
1236.86	416.77
1240.51	434.777
1244.16	52.783
1247.81	168.971
1251.45	194.912
1255.1	374.896
1258.74	190.631
1262.38	198.041
1266.02	90.189
1269.66	92.566
1273.29	270.605
1276.93	216.104
1280.56	246.115
1284.19	397.684
1287.82	265.76
1291.45	158.264
1295.07	206.297
1298.7	196.883
1302.32	39.117
1305.94	60.285
1309.56	357.74
1313.18	60.721
1316.8	243.025
1320.41	191.266
1324.02	258.576
1327.63	170.055
1331.24	104.537
1334.85	177.016
1338.46	1.594
1342.06	0.346
1345.67	13.344
1349.27	115.643
1352.87	186.463
1356.47	299.385
1360.07	346.023
1363.66	325.184
1367.25	357.535
1370.85	249.844
1374.44	280.699
1378.03	99.305
1381.61	213.486
1385.2	221.508
1388.78	153.662
1392.37	286.115
1395.95	249.221
1399.53	311.588
1403.1	186.393
1406.68	243.785
1410.26	308.887
1413.83	283.123
1417.4	206.209
1420.97	517.227
1424.54	513.752
1428.1	358.262
1431.67	595.457
1435.23	689.633
1438.8	720.477
1442.36	884.07
1445.91	1059.13
1449.47	860.742
1453.03	1082
1456.58	1223.53
1460.13	1206.76
1463.68	1145.21
1467.23	464.568
1470.78	796.16
1474.33	673.436
1477.87	665.223
1481.42	391.582
1484.96	606.854
1488.5	641.586
1492.04	543.531
1495.57	578.268
1499.11	125.475
1502.64	90.201
1506.17	89.506
1509.71	277.082
1513.23	353.521
1516.76	0
