Measurement: Raman, 514 nm, depolarized, Raman Data Processed
Mineral: Gypsum
Rruff sample: R060509
Ideal chemistry: CaS^6+^O_4_2H_2_O
Locality: Pierre Shale, Hermosa, Custer County, South Dakota, USA
Source: Michael Scott
Description: Colorless tabular single crystal
Pin_id: L01683
Orientation: Laser parallel to c* (0 0 1). Fiducial mark perpendicular to laser is parallel to -a [-1 0 0]
Raman shift (cm-1)	intensity
158.365	0
163.303	130.091
168.238	133.775
173.17	400.831
178.1	914.6
183.026	933.644
187.948	382.477
192.868	48.0623
197.785	44.4699
202.699	119.907
207.609	125.908
212.517	135.469
217.422	111.069
222.323	95.286
227.222	17.021
232.117	10.6047
237.01	36.5936
241.899	22.385
246.785	43.0654
251.669	43.3997
256.549	18.0242
261.426	36.4485
266.3	43.9888
271.172	4.11902
276.04	57.949
280.905	10.0075
285.767	5.81653
290.627	23.3776
295.483	22.7096
300.336	33.9104
305.186	34.0005
310.034	103.188
314.878	88.5782
319.72	78.4779
324.558	92.6594
329.393	59.9495
334.226	66.3833
339.055	65.0345
343.882	29.3506
348.706	71.5399
353.526	21.9149
358.344	84.833
363.159	94.3191
367.971	45.0623
372.78	119.406
377.586	80.2599
382.389	48.725
387.189	143.698
391.986	144.3
396.78	191.758
401.572	452.843
406.36	1148.41
411.146	2287.25
415.929	3062.05
420.709	1445.14
425.486	411.818
430.26	208.997
435.031	98.3156
439.799	23.9594
444.564	67.7734
449.327	69.7856
454.087	51.1815
458.843	50.5542
463.597	33.8231
468.348	67.9181
473.097	43.48
477.842	70.4995
482.585	174.444
487.324	485.879
492.061	766.702
496.795	715.051
501.526	317.986
506.255	103.909
510.98	39.7759
515.703	47.654
520.423	73.4158
525.14	74.6755
529.854	16.0605
534.566	43.7029
539.274	12.4934
543.98	10.3633
548.683	29.7114
553.383	30.5476
558.081	53.635
562.775	38.2988
567.467	59.6589
572.156	80.4519
576.843	115.805
581.526	95.1956
586.207	112.248
590.885	111.704
595.56	168.214
600.233	197.734
604.902	285.16
609.569	328.875
614.234	563.934
618.895	632.778
623.554	544.685
628.21	297.575
632.863	159.404
637.514	70.5188
642.161	84.5229
646.806	59.4895
651.449	87.5391
656.088	111.589
660.725	207.894
665.36	558.211
669.991	1102.73
674.62	808.191
679.246	243.219
683.869	150.225
688.49	34.3533
693.108	3.67017
697.723	60.2649
702.336	2.03272
706.946	86.6162
711.553	26.4875
716.158	22.0322
720.759	33.9802
725.359	10.6562
729.955	8.28442
734.549	25.8857
739.14	69.6987
743.729	31.2256
748.315	25.5459
752.898	10.5669
757.479	21.5798
762.057	53.1719
766.632	55.5605
771.205	41.4968
775.775	57.125
780.342	23.8709
784.907	43.6855
789.469	92.2759
794.029	44.4004
798.586	11.8303
803.14	27.1387
807.692	50.3948
812.241	43.0271
816.788	45.7805
821.332	63.9072
825.873	32.9846
830.412	24.5195
834.948	62.6279
839.481	88.8606
844.012	45.7004
848.541	44.9639
853.066	31.6748
857.59	72.3325
862.11	44.3105
866.628	7.85156
871.144	10.5447
875.657	9.19849
880.167	91.3013
884.675	17.4998
889.18	27.2756
893.683	27.6455
898.183	45.187
902.681	18.0203
907.176	46.084
911.669	23.4748
916.159	16.8513
920.646	10.8271
925.131	12.4053
929.613	59.9558
934.093	34.9841
938.571	18.8748
943.046	96.0369
947.518	25.928
951.988	97.3577
956.455	65.8342
960.92	54.7561
965.382	79.3552
969.842	160.004
974.3	200.575
978.754	234.731
983.207	450.38
987.657	674.115
992.104	955.893
996.549	1818.71
1000.99	6803.35
1005.43	21779.2
1009.87	24876.1
1014.3	4751.26
1018.74	1384.46
1023.17	644.064
1027.59	353.31
1032.02	298.288
1036.44	178.924
1040.86	115.92
1045.28	74.7832
1049.7	47.3613
1054.11	53.1255
1058.52	21.0322
1062.93	66.3501
1067.33	69.4062
1071.74	44.3135
1076.14	42.9451
1080.54	30.145
1084.93	9.41553
1089.33	30.7573
1093.72	51.1724
1098.11	94.8625
1102.49	150.425
1106.88	175.064
1111.26	245.784
1115.64	416.584
1120.01	626.987
1124.39	1034.02
1128.76	2028.49
1133.13	4144.94
1137.49	3888.61
1141.86	1979.01
1146.22	919.024
1150.58	484.543
1154.94	271.158
1159.3	106.466
1163.65	133.265
1168	101.918
1172.35	102.263
1176.69	67.3398
1181.04	48.48
1185.38	84.7161
1189.72	63.0088
1194.05	59.3772
1198.39	69.7944
1202.72	75.8806
1207.05	69.4206
1211.38	57.8914
1215.7	67.3689
1220.02	100.955
1224.34	52.5789
1228.66	81.241
1232.97	11.936
1237.29	23.677
1241.6	70.4338
1245.91	17.219
1250.21	52.6384
1254.52	34.8247
1258.82	56.6733
1263.12	38.5093
1267.41	1.21045
1271.71	24.9387
1276	77.1509
1280.29	45.8423
1284.58	34.5361
1288.87	85.2109
1293.15	3.80127
1297.43	34.9219
1301.71	99.6279
1305.98	8.2998
1310.26	99.0881
1314.53	141.683
1318.8	36.2007
1323.07	79.7773
1327.33	55.3877
1331.6	102.158
1335.86	78.2642
1340.11	49.8884
1344.37	114.309
1348.62	107.828
1352.88	100.206
1357.12	33.9795
1361.37	22.3572
1365.62	74.6797
1369.86	64.9846
1374.1	115.228
1378.34	24.0969
1382.57	60.2754
1386.81	67.7732
1391.04	83.1567
1395.27	41.0234
1399.49	47.8931
1403.72	62.198
1407.94	43.9736
1412.16	85.8848
1416.38	3.90015
1420.6	96.3081
1424.81	18.3994
1429.02	133.837
1433.23	43.8687
1437.44	33.6953
1441.64	167.3
1445.85	96.5894
1450.05	53.8957
1454.25	67.1977
1458.44	118.389
1462.64	75.5322
1466.83	110.618
1471.02	127.157
1475.21	98.2593
1479.39	28.9644
1483.58	37.3831
1487.76	51.8696
1491.93	57.1201
1496.11	61.3748
1500.29	71.7241
1504.46	58.2454
1508.63	13.5156
1512.8	79.7051
1516.96	77.6899
1521.13	110.559
1525.29	41.7634
1529.45	70.5708
1533.61	46.4746
1537.76	37.1138
1541.92	140.097
1546.07	3.4834
1550.22	14.3125
1554.36	106.685
1558.51	0.422363
1562.65	0
