Measurement: Raman, 532 nm, depolarized, Raman Data Processed
Mineral: Gypsum
Rruff sample: R060509
Ideal chemistry: CaS^6+^O_4_2H_2_O
Locality: Pierre Shale, Hermosa, Custer County, South Dakota, USA
Source: Michael Scott
Description: Colorless tabular single crystal
Pin_id: L01293
Orientation: Laser parallel to b* (0 1 0). Fiducial mark perpendicular to laser is parallel to c [0 0 1]
Raman shift (cm-1)	intensity
165.771	0
170.705	86.1414
175.635	272.102
180.563	504.769
185.487	425.107
190.409	99.9243
195.327	62.9878
200.242	103.675
205.155	234.425
210.064	419.401
214.97	363.888
219.873	109.316
224.773	101.951
229.67	84.4199
234.564	71.1357
239.455	2.05054
244.342	0.102783
249.227	63.0857
254.109	41.1133
258.988	100.726
263.864	50.7622
268.736	31.3757
273.606	20.7273
278.473	81.4392
283.337	3.47729
288.197	66.4785
293.055	98.2883
297.91	100.962
302.762	117.541
307.611	140.156
312.456	197.404
317.299	216.681
322.139	62.8987
326.976	31.6648
331.81	48.9297
336.641	6.63208
341.469	64.1834
346.294	45.9089
351.116	49.8076
355.936	60.8835
360.752	52.356
365.565	11.0076
370.376	84.0188
375.183	96.4587
379.988	68.8809
384.789	22.8975
389.588	146.952
394.384	163.245
399.177	282.848
403.967	772.891
408.754	1683.29
413.538	2935.42
418.319	2313.35
423.097	777.339
427.873	275.97
432.646	108.939
437.415	165.955
442.182	59.1462
446.946	22.6406
451.707	70.3591
456.465	67.2058
461.221	133.089
465.973	215.948
470.723	233.706
475.47	472.449
480.214	878.593
484.955	1971.26
489.693	3349.36
494.429	4552.32
499.161	2696.61
503.891	1185.48
508.618	598.458
513.342	272.625
518.063	220.55
522.782	116.076
527.497	171.653
532.21	136.519
536.92	31.5671
541.627	93.7625
546.332	101.274
551.034	69.4341
555.732	114.999
560.428	182.701
565.122	186.06
569.812	255.84
574.5	332.385
579.185	293.019
583.867	422.563
588.546	527.505
593.223	534.191
597.897	625.535
602.568	704.795
607.236	910.131
611.902	1182.63
616.565	1626.28
621.225	1651.15
625.882	1179.08
630.537	683.094
635.189	274.935
639.838	221.328
644.484	208.882
649.128	143.564
653.769	132.344
658.407	213.145
663.043	129.972
667.676	129.875
672.306	133.655
676.933	75.4167
681.558	4.83887
686.18	0.866699
690.799	7.49097
695.416	22.969
700.03	5.47168
704.641	37.8528
709.25	38.1287
713.856	41.2053
718.459	26.0855
723.059	71.8635
727.657	31.4919
732.253	24.9363
736.845	67.2007
741.435	97.3694
746.022	24.6448
750.607	60.686
755.189	5.38452
759.768	23.2986
764.345	9.14477
768.919	59.2515
773.49	18.562
778.059	109.766
782.625	44.8687
787.189	35.0317
791.749	56.989
796.308	91.0144
800.863	90.8193
805.416	39.575
809.967	74.2705
814.515	54.7685
819.06	73.6509
823.603	49.0981
828.143	84.0727
832.68	82.582
837.215	57.279
841.747	85.5059
846.277	104.165
850.804	143.67
855.328	141.141
859.85	178.707
864.37	112.421
868.886	47.2952
873.401	45.0642
877.912	1.90723
882.421	81.6472
886.928	41.8665
891.432	89.6677
895.933	79.925
900.432	8.32178
904.929	105.272
909.423	50.5232
913.914	25.3879
918.403	23.9341
922.889	5.62646
927.373	34.676
931.854	81.7446
936.332	75.5132
940.809	45.8386
945.282	78.1284
949.753	55.7173
954.222	38.3411
958.688	40.9815
963.152	136.891
967.613	190.619
972.071	197.392
976.527	377.193
980.981	517.064
985.432	848.047
989.881	1359.11
994.327	2198.23
998.771	5919.43
1003.21	22565.7
1007.65	47275.1
1012.09	18692.4
1016.52	3724.86
1020.95	1423.37
1025.38	794.964
1029.81	504.675
1034.23	304.468
1038.65	153.475
1043.07	111.757
1047.49	174.388
1051.9	34.1128
1056.31	53.3926
1060.72	55.375
1065.13	102.277
1069.54	48.4507
1073.94	110.001
1078.34	71.4595
1082.73	51.4375
1087.13	70.3394
1091.52	4.33106
1095.91	10.0386
1100.3	123.455
1104.68	82.9141
1109.07	171.592
1113.45	161.178
1117.82	243.81
1122.2	316.483
1126.57	479.217
1130.94	948.998
1135.31	1936.85
1139.68	2801.75
1144.04	2269.69
1148.4	972.663
1152.76	426.674
1157.12	221.721
1161.47	211.898
1165.82	105.915
1170.17	98.0977
1174.52	112.328
1178.87	64.5869
1183.21	69.3921
1187.55	12.7422
1191.88	20.459
1196.22	31.0933
1200.55	26.9526
1204.88	12.3935
1209.21	38.9492
1213.54	67.1841
1217.86	94.3994
1222.18	90.4468
1226.5	71.9214
1230.82	68.207
1235.13	89.5518
1239.44	92.875
1243.75	75.3135
1248.06	74.8125
1252.37	20.311
1256.67	30.7212
1260.97	66.6118
1265.27	54.5107
1269.56	164.945
1273.86	65.3926
1278.15	132.85
1282.44	86.3174
1286.72	23.9507
1291.01	73.5054
1295.29	230.036
1299.57	43.1499
1303.85	112.738
1308.12	71.2734
1312.39	89.7983
1316.67	111.522
1320.93	189.055
1325.2	103.745
1329.46	65.313
1333.73	127.589
1337.98	65.9893
1342.24	47.8774
1346.5	1.51025
1350.75	1.87012
1355	57.7041
1359.25	85.2861
1363.49	10.9771
1367.74	102.406
1371.98	0.439941
1376.22	128.953
1380.46	87.4082
1384.69	10.853
1388.92	38.3657
1393.15	65.7671
1397.38	22.1655
1401.61	17.7017
1405.83	75.1748
1410.05	131.777
1414.27	42.3203
1418.49	115.769
1422.7	26.8193
1426.92	35.2788
1431.13	138.472
1435.34	103.149
1439.54	195.683
1443.75	154.352
1447.95	209.144
1452.15	226.067
1456.35	292.166
1460.54	246.068
1464.73	124.67
1468.92	234.467
1473.11	183.031
1477.3	36.8062
1481.48	252.702
1485.67	12.6206
1489.85	65.2666
1494.02	116.355
1498.2	15.6938
1502.37	44.4341
1506.55	100.641
1510.71	90.9946
1514.88	95.2822
1519.05	101.611
1523.21	12.2075
1527.37	100.423
1531.53	160.076
1535.68	59.2002
1539.84	32.0615
1543.99	52.6435
1548.14	53.7978
1552.29	0.869629
1556.44	102.918
1560.58	31.8208
