Measurement: Raman, 514 nm, depolarized, Raman Data Processed
Mineral: Gypsum
Rruff sample: R040029
Ideal chemistry: CaS^6+^O_4_2H_2_O
Locality: Twin Buttes, Pima County, Arizona, USA
Source: University of Arizona Mineral Museum
Description: Colorless prismatic crystal
Pin_id: M00440
Orientation: Laser parallel to -b* (0 -1 0). Fiducial mark perpendicular to laser is parallel to -c [0 0 -1]
Raman shift (cm-1)	intensity
83.614	0
87.798	4.645
91.981	95.597
96.161	106.045
100.34	162.02
104.516	320.801
108.691	415.533
112.864	327.156
117.034	383.235
121.203	325.865
125.369	525.324
129.534	1047
133.696	671.447
137.857	547.065
142.016	750.434
146.172	613.623
150.327	302.76
154.48	169.786
158.63	156.203
162.779	132.003
166.926	171.335
171.07	353.311
175.213	659.709
179.354	835.967
183.493	475.688
187.63	250.813
191.765	133.387
195.898	142.352
200.029	206.195
204.158	304.249
208.285	417.626
212.41	380.737
216.533	232.728
220.654	148.462
224.773	138.466
228.891	86.802
233.006	69.467
237.119	15.271
241.231	52.736
245.34	23.064
249.448	15.481
253.553	24.979
257.657	0.651
261.758	6.938
265.858	58.983
269.956	42.024
274.052	0.116
278.146	20.797
282.237	8.218
286.327	11.14
290.416	22.955
294.502	28.66
298.586	60.263
302.668	45.749
306.749	77.115
310.827	129.364
314.903	144.488
318.978	93.473
323.051	55.302
327.121	54.977
331.19	44.47
335.257	30.243
339.322	65.197
343.385	10.391
347.446	28.165
351.505	28.577
355.563	1.527
359.618	12.617
363.672	18.853
367.723	48.73
371.773	39.853
375.821	3.272
379.866	7.861
383.91	29.769
387.952	82.093
391.992	75.425
396.031	173.546
400.067	241.606
404.101	457.635
408.134	1463.63
412.165	3114.93
416.193	1730.86
420.22	618.258
424.245	311.177
428.268	181.931
432.289	141.158
436.309	131.233
440.326	115.567
444.342	42.573
448.355	17.192
452.367	132.496
456.377	80.668
460.385	78.944
464.391	76.263
468.395	131.548
472.398	236.801
476.398	395.023
480.397	651.219
484.394	1328.41
488.389	2855.76
492.382	3874.56
496.373	2192.59
500.362	994.315
504.349	515.447
508.335	367.245
512.319	256.544
516.3	221.384
520.28	137.795
524.259	69.193
528.235	66.293
532.209	79.748
536.182	82.526
540.152	136.714
544.121	84.943
548.088	114.413
552.053	119.948
556.017	111.541
559.978	104.207
563.938	166.942
567.895	286.775
571.851	258.736
575.805	306.823
579.758	442.031
583.708	409.361
587.657	410.789
591.603	459.319
595.548	533.975
599.491	597.749
603.432	658.647
607.372	775.69
611.309	951.885
615.245	1299.18
619.179	1458.56
623.111	1070.04
627.041	783.635
630.97	472.336
634.896	281.136
638.821	222.05
642.744	151.077
646.665	225.208
650.584	128.762
654.502	171.156
658.418	214.74
662.331	187.495
666.244	137.513
670.154	112.567
674.062	121.786
677.969	122.662
681.874	135.184
685.777	117.862
689.678	95.701
693.577	165.643
697.475	53.03
701.371	67.17
705.265	153.17
709.157	142.469
713.047	48.911
716.936	20.53
720.823	23.108
724.708	47.004
728.591	91.81
732.472	74.541
736.352	122.563
740.23	38.324
744.106	183.774
747.98	108.209
751.853	84.529
755.723	73.676
759.592	25.396
763.459	39.07
767.325	68.649
771.188	94.393
775.05	98.132
778.91	90.508
782.768	48.252
786.625	69.451
790.479	78.737
794.332	60.544
798.183	9.339
802.033	17.491
805.88	87.457
809.726	57.452
813.57	32.269
817.413	7.901
821.253	27.937
825.092	20.76
828.929	15.448
832.764	18.298
836.598	21.001
840.429	50.66
844.259	91.271
848.088	3.169
851.914	11.327
855.739	109.762
859.562	41.12
863.383	25.407
867.203	19.375
871.02	32.738
874.836	50.223
878.65	16.365
882.463	13.658
886.274	2.859
890.083	15.759
893.89	1.561
897.695	2.144
901.499	29.471
905.301	63.611
909.102	38.572
912.9	4.203
916.697	18.631
920.492	33.418
924.285	62.301
928.077	41.159
931.867	9.308
935.655	3.32
939.442	22.668
943.226	9.046
947.009	127.47
950.791	107.191
954.57	64.47
958.348	71.022
962.124	117.77
965.899	165.881
969.671	253.184
973.442	338.646
977.211	366.341
980.979	432.658
984.745	683.021
988.509	1056.38
992.271	1341.56
996.032	2064.58
999.791	4232.38
1003.55	14102.8
1007.3	55035.4
1011.06	16820
1014.81	4023.2
1018.56	1778.06
1022.31	958.025
1026.06	561.506
1029.8	446.826
1033.55	405.269
1037.29	269.394
1041.03	179.384
1044.77	108.38
1048.5	93.507
1052.24	44.042
1055.97	68.192
1059.7	37.199
1063.43	11.564
1067.16	99.763
1070.89	85.034
1074.61	122.034
1078.34	82.703
1082.06	14.903
1085.78	60.744
1089.5	44.738
1093.21	15.772
1096.93	16.264
1100.64	1.527
1104.35	5.509
1108.06	30.708
1111.77	14.858
1115.48	31.143
1119.18	18.2
1122.89	165.408
1126.59	274.897
1130.29	519.271
1133.99	950.535
1137.68	1905.81
1141.38	2363.85
1145.07	1798.63
1148.76	828.726
1152.45	448.484
1156.14	213.118
1159.83	208.667
1163.51	152.12
1167.19	80.515
1170.88	48.777
1174.56	88.99
1178.23	133.167
1181.91	54.302
1185.59	4.411
1189.26	48.466
1192.93	80.325
1196.6	27.698
1200.27	79.962
1203.94	84.664
1207.6	46.941
1211.27	116.395
1214.93	163.768
1218.59	122.887
1222.25	79.952
1225.9	98.612
1229.56	35.654
1233.21	153.866
1236.86	193.971
1240.51	165.323
1244.16	63.911
1247.81	83.781
1251.45	52.104
1255.1	12.442
1258.74	137.631
1262.38	140.961
1266.02	78.183
1269.66	47.682
1273.29	65.298
1276.93	56.925
1280.56	10.438
1284.19	70.214
1287.82	34.115
1291.45	1.438
1295.07	97.255
1298.7	116.975
1302.32	53.727
1305.94	38.514
1309.56	94.337
1313.18	42.2
1316.8	104.923
1320.41	82.878
1324.02	125.856
1327.63	158.36
1331.24	136.731
1334.85	88.784
1338.46	55.064
1342.06	65.38
1345.67	33.798
1349.27	111.396
1352.87	159.131
1356.47	120.011
1360.07	207.056
1363.66	187.304
1367.25	187.784
1370.85	194.731
1374.44	253.143
1378.03	116.354
1381.61	76.714
1385.2	146.964
1388.78	77.478
1392.37	92.294
1395.95	125.175
1399.53	93.375
1403.1	94.527
1406.68	43.718
1410.26	67.778
1413.83	86.292
1417.4	87.956
1420.97	186.75
1424.54	94.681
1428.1	123.76
1431.67	140.581
1435.23	203.375
1438.8	149.899
1442.36	218.558
1445.91	262.329
1449.47	138.152
1453.03	187.025
1456.58	201.131
1460.13	226.493
1463.68	237.109
1467.23	72.13
1470.78	107.521
1474.33	52.26
1477.87	116.379
1481.42	121.922
1484.96	71.949
1488.5	170.573
1492.04	209.928
1495.57	139.144
1499.11	31.363
1502.64	71.824
1506.17	114.78
1509.71	42.071
1513.23	58.162
1516.76	10.266
1520.29	81.91
