Measurement: Raman, 514 nm, depolarized, Raman Data Processed
Mineral: Gypsum
Rruff sample: R040029
Ideal chemistry: CaS^6+^O_4_2H_2_O
Locality: Twin Buttes, Pima County, Arizona, USA
Source: University of Arizona Mineral Museum
Description: Colorless prismatic crystal
Pin_id: L00273
Orientation: Laser parallel to -a [-1 0 0]. Fiducial mark perpendicular to laser is parallel to b* (0 1 0)
Raman shift (cm-1)	intensity
87.798	0
91.981	24.421
96.161	5.922
100.34	44.161
104.516	477.277
108.691	834.547
112.864	475.966
117.034	932.768
121.203	1133.61
125.369	453.183
129.534	543.993
133.696	376.736
137.857	489.997
142.016	811.734
146.172	539.981
150.327	232.798
154.48	118.537
158.63	116.03
162.779	327.713
166.926	484.401
171.07	792.292
175.213	1592.77
179.354	2471.89
183.493	1600
187.63	624.827
191.765	418.146
195.898	316.9
200.029	372.043
204.158	461.321
208.285	508.652
212.41	423.986
216.533	280.041
220.654	99.621
224.773	161.174
228.891	107.562
233.006	41.985
237.119	41.464
241.231	19.898
245.34	4.614
249.448	49.006
253.553	14.631
257.657	58.625
261.758	46.089
265.858	8.572
269.956	29.108
274.052	30.998
278.146	8.032
282.237	41.147
286.327	16.721
290.416	33.379
294.502	56.483
298.586	90.562
302.668	20.003
306.749	87.988
310.827	103.944
314.903	174.874
318.978	136.778
323.051	123.659
327.121	66.41
331.19	58.965
335.257	28.314
339.322	47.384
343.385	120.863
347.446	16.952
351.505	87.106
355.563	127.078
359.618	14.066
363.672	115.056
367.723	46.076
371.773	114.124
375.821	106.079
379.866	83.144
383.91	134.767
387.952	67.834
391.992	148.931
396.031	291.775
400.067	388.772
404.101	679.643
408.134	1644.35
412.165	3579.24
416.193	2075.81
420.22	784.313
424.245	398.865
428.268	158.636
432.289	201.493
436.309	127.081
440.326	87.592
444.342	81.819
448.355	90.389
452.367	122.881
456.377	118.605
460.385	31.605
464.391	48.39
468.395	158.159
472.398	284.955
476.398	298.806
480.397	556.685
484.394	1116.61
488.389	2362.86
492.382	3274.36
496.373	1939.24
500.362	828.771
504.349	470.877
508.335	291.317
512.319	166.46
516.3	130.688
520.28	60.778
524.259	4.284
528.235	68.596
532.209	44.385
536.182	23.091
540.152	4.632
544.121	43.648
548.088	30.64
552.053	136.739
556.017	104.086
559.978	161.72
563.938	246.283
567.895	283.363
571.851	235.758
575.805	272.385
579.758	297.068
583.708	318.824
587.657	264.87
591.603	201.386
595.548	330.062
599.491	318.586
603.432	363.825
607.372	551.391
611.309	869.509
615.245	1464.27
619.179	1697.77
623.111	1079.64
627.041	620.243
630.97	458.712
634.896	108.845
638.821	74.266
642.744	104.65
646.665	246.058
650.584	48.719
654.502	115.921
658.418	114.787
662.331	131.987
666.244	388.094
670.154	522.765
674.062	208.447
677.969	64.926
681.874	136.784
685.777	65.568
689.678	95.511
693.577	159.084
697.475	98.112
701.371	106.18
705.265	230.527
709.157	186.547
713.047	11.602
716.936	32.482
720.823	19.333
724.708	19.538
728.591	122.408
732.472	47.943
736.352	71.13
740.23	8.556
744.106	163.256
747.98	91.329
751.853	93.265
755.723	39.871
759.592	117.822
763.459	54.417
767.325	35.049
771.188	15.23
775.05	37.428
778.91	80.549
782.768	17.413
786.625	60.509
790.479	27.354
794.332	99.944
798.183	13.593
802.033	23.261
805.88	156.89
809.726	58.889
813.57	105.756
817.413	113.501
821.253	8.115
825.092	31.361
828.929	47.012
832.764	90.29
836.598	110.249
840.429	162.329
844.259	104.666
848.088	4.56
851.914	42.34
855.739	225.179
859.562	184.256
863.383	207.164
867.203	157.366
871.02	88.013
874.836	37.973
878.65	25.079
882.463	38.097
886.274	18.477
890.083	40.813
893.89	101.637
897.695	170.575
901.499	100.376
905.301	111.221
909.102	62.511
912.9	45.842
916.697	29.186
920.492	142.228
924.285	203.296
928.077	90.458
931.867	76.616
935.655	76.835
939.442	2.417
943.226	41.391
947.009	135.813
950.791	177.244
954.57	217.697
958.348	172.842
962.124	87.667
965.899	227.177
969.671	298.172
973.442	245.847
977.211	350.05
980.979	442.767
984.745	687.429
988.509	1060.5
992.271	1163.57
996.032	1839.52
999.791	3891.05
1003.55	12159.3
1007.3	51049.6
1011.06	15922.7
1014.81	3806.95
1018.56	1631.3
1022.31	864.6
1026.06	443.556
1029.8	507.271
1033.55	475.638
1037.29	283.392
1041.03	182.691
1044.77	15.188
1048.5	164.971
1052.24	90.976
1055.97	15.361
1059.7	167.428
1063.43	256.726
1067.16	173.942
1070.89	154.045
1074.61	244.565
1078.34	243.769
1082.06	192.766
1085.78	204.334
1089.5	211.231
1093.21	156.664
1096.93	283.146
1100.64	353.142
1104.35	448.577
1108.06	540.604
1111.77	769.564
1115.48	1056.81
1119.18	809.688
1122.89	744.852
1126.59	544.373
1130.29	443.665
1133.99	426.793
1137.68	816.197
1141.38	705.076
1145.07	534.037
1148.76	247.201
1152.45	254.206
1156.14	28.607
1159.83	154.073
1163.51	9.238
1167.19	112.602
1170.88	0.22
1174.56	80.322
1178.23	16.353
1181.91	35.081
1185.59	31.43
1189.26	41.592
1192.93	140.335
1196.6	67.489
1200.27	95.351
1203.94	55.168
1207.6	73.286
1211.27	106.648
1214.93	105.829
1218.59	134.155
1222.25	108.065
1225.9	42.057
1229.56	141.126
1233.21	224.94
1236.86	312.512
1240.51	245.871
1244.16	85.994
1247.81	67.873
1251.45	2.789
1255.1	63.119
1258.74	152.062
1262.38	108.695
1266.02	56.046
1269.66	24.929
1273.29	164.424
1276.93	94.544
1280.56	153.002
1284.19	83.216
1287.82	109.114
1291.45	11.308
1295.07	55.944
1298.7	35.629
1302.32	115.591
1305.94	63.378
1309.56	57.937
1313.18	70.054
1316.8	141.619
1320.41	110.229
1324.02	170.208
1327.63	67.059
1331.24	150.062
1334.85	59.964
1338.46	130.918
1342.06	68.759
1345.67	74.263
1349.27	27.359
1352.87	283.893
1356.47	292.392
1360.07	225.939
1363.66	255.258
1367.25	248.002
1370.85	183.657
1374.44	197.212
1378.03	218.359
1381.61	153.265
1385.2	285.855
1388.78	219.223
1392.37	106.748
1395.95	327.69
1399.53	277.311
1403.1	224.464
1406.68	92.378
1410.26	255.771
1413.83	274.597
1417.4	282.043
1420.97	228.936
1424.54	339.178
1428.1	181.809
1431.67	301.609
1435.23	301.983
1438.8	318.178
1442.36	419.567
1445.91	505.93
1449.47	464.889
1453.03	400.222
1456.58	538.491
1460.13	605.703
1463.68	449.116
1467.23	144.357
1470.78	203.898
1474.33	277.26
1477.87	275.023
1481.42	346.202
1484.96	168.447
1488.5	304.518
1492.04	346.777
1495.57	421.303
1499.11	13.956
1502.64	14.665
1506.17	287.144
1509.71	271.346
1513.23	203.326
1516.76	75.26
