Measurement: Raman, 514 nm, depolarized, Raman Data Processed
Mineral: Gypsum
Rruff sample: R040029
Ideal chemistry: CaS^6+^O_4_2H_2_O
Locality: Twin Buttes, Pima County, Arizona, USA
Source: University of Arizona Mineral Museum
Description: Colorless prismatic crystal
Pin_id: L00192
Orientation: Laser parallel to -c [0 0 -1]. Fiducial mark perpendicular to laser is parallel to -b* (0 -1 0)
Raman shift (cm-1)	intensity
75.239	0
79.427	29.483
83.614	102.939
87.798	128.633
91.981	152.063
96.161	119.583
100.34	182.435
104.516	465.95
108.691	779.206
112.864	417.06
117.034	648.587
121.203	612.804
125.369	449.681
129.534	1036
133.696	864.566
137.857	602.379
142.016	757.635
146.172	575.551
150.327	238.037
154.48	248.106
158.63	565.915
162.779	651.727
166.926	676.993
171.07	872.547
175.213	1566.93
179.354	2428.82
183.493	1499.14
187.63	633.608
191.765	363.144
195.898	229.795
200.029	165.539
204.158	174.336
208.285	145.139
212.41	111.861
216.533	113.626
220.654	82.364
224.773	29.067
228.891	27.757
233.006	26.557
237.119	47.887
241.231	59.177
245.34	8.406
249.448	35.33
253.553	23.616
257.657	19.548
261.758	11.252
265.858	12.837
269.956	1.538
274.052	4.882
278.146	24.421
282.237	38.976
286.327	32.316
290.416	26.567
294.502	22.714
298.586	56.766
302.668	79.737
306.749	102.963
310.827	125.464
314.903	127.23
318.978	113.924
323.051	109.416
327.121	40.602
331.19	45.515
335.257	29.273
339.322	6.087
343.385	60.362
347.446	59.769
351.505	69.149
355.563	77.517
359.618	40.873
363.672	64.214
367.723	132.743
371.773	46.041
375.821	61.317
379.866	93.593
383.91	157.131
387.952	152.411
391.992	210.699
396.031	308.605
400.067	455.331
404.101	801.64
408.134	1956.46
412.165	4598.26
416.193	2776.9
420.22	998.279
424.245	482.359
428.268	261.709
432.289	195.607
436.309	169.803
440.326	138.26
444.342	128.736
448.355	82.448
452.367	97.416
456.377	69.836
460.385	36.925
464.391	36.983
468.395	66.007
472.398	125.001
476.398	150.964
480.397	221.897
484.394	435.549
488.389	901.949
492.382	1395.96
496.373	764.737
500.362	343.325
504.349	212.136
508.335	116.929
512.319	80.706
516.3	85.422
520.28	89.135
524.259	67.896
528.235	15.74
532.209	43.666
536.182	53.708
540.152	80.672
544.121	62.908
548.088	62.949
552.053	67.345
556.017	109.992
559.978	118.414
563.938	162.309
567.895	169.996
571.851	184.361
575.805	271.183
579.758	273.859
583.708	264.62
587.657	258.434
591.603	243.376
595.548	273.149
599.491	300.461
603.432	326.341
607.372	458.369
611.309	675.116
615.245	1041.94
619.179	1101.68
623.111	699.361
627.041	360.985
630.97	189.622
634.896	104.286
638.821	3.188
642.744	57.284
646.665	54.858
650.584	39.742
654.502	68.536
658.418	91.793
662.331	134.037
666.244	416.247
670.154	841.425
674.062	248.596
677.969	113.709
681.874	55.789
685.777	35.632
689.678	17.362
693.577	14.555
697.475	15.575
701.371	1.043
705.265	14.671
709.157	30.293
713.047	0.209
716.936	41.825
720.823	26.766
724.708	14.962
728.591	34.101
732.472	23.847
736.352	42.084
740.23	46.973
744.106	33.025
747.98	55.847
751.853	2.636
755.723	12.384
759.592	37.094
763.459	37.772
767.325	14.418
771.188	33.038
775.05	60.626
778.91	41.185
782.768	11.718
786.625	9.232
790.479	60.75
794.332	43.527
798.183	17.016
802.033	14.904
805.88	88.115
809.726	71.464
813.57	40.834
817.413	68.185
821.253	102.519
825.092	8.834
828.929	58.134
832.764	68.418
836.598	79.651
840.429	93.766
844.259	107.143
848.088	88.496
851.914	89.428
855.739	112.547
859.562	89.781
863.383	96.258
867.203	82.888
871.02	42.635
874.836	38.618
878.65	41.738
882.463	64.368
886.274	29.575
890.083	32.816
893.89	36.099
897.695	75.373
901.499	62.723
905.301	41.917
909.102	23.933
912.9	54.625
916.697	20.825
920.492	78.118
924.285	47.202
928.077	84.645
931.867	66.13
935.655	98.939
939.442	51.728
943.226	98.795
947.009	99.385
950.791	109.498
954.57	120.12
958.348	74.813
962.124	119.563
965.899	229.355
969.671	196.17
973.442	348.006
977.211	347.893
980.979	500.794
984.745	696.742
988.509	1088.71
992.271	1382.71
996.032	2069.74
999.791	4186.81
1003.55	13344.9
1007.3	57863.1
1011.06	19244.4
1014.81	4563.65
1018.56	1919.02
1022.31	1027.46
1026.06	631.365
1029.8	447.915
1033.55	286.514
1037.29	256.172
1041.03	114.505
1044.77	98.143
1048.5	71.211
1052.24	44.763
1055.97	87.575
1059.7	10.503
1063.43	25.313
1067.16	38.197
1070.89	36.097
1074.61	16.963
1078.34	37.733
1082.06	0.32
1085.78	24.61
1089.5	48.101
1093.21	3.707
1096.93	5.499
1100.64	56.678
1104.35	117.047
1108.06	129.149
1111.77	228.286
1115.48	348.274
1119.18	578.181
1122.89	987.144
1126.59	1216.59
1130.29	2252.44
1133.99	4386.27
1137.68	4074.17
1141.38	2866.99
1145.07	1622.01
1148.76	621.894
1152.45	333.31
1156.14	189.148
1159.83	102.974
1163.51	78.947
1167.19	90.914
1170.88	25.836
1174.56	77.344
1178.23	23.469
1181.91	47.229
1185.59	45.956
1189.26	4.559
1192.93	31.084
1196.6	75.672
1200.27	24.223
1203.94	8.568
1207.6	96.589
1211.27	31.862
1214.93	88.094
1218.59	46.904
1222.25	46.096
1225.9	61.26
1229.56	44.385
1233.21	82.248
1236.86	167.486
1240.51	112.684
1244.16	56.789
1247.81	11.608
1251.45	5.615
1255.1	102.498
1258.74	81.302
1262.38	20.326
1266.02	23.088
1269.66	46.231
1273.29	33.363
1276.93	83.921
1280.56	72.425
1284.19	85.872
1287.82	76.391
1291.45	25.755
1295.07	50.526
1298.7	32.354
1302.32	29.586
1305.94	15.785
1309.56	75.951
1313.18	15.08
1316.8	73.166
1320.41	102.445
1324.02	27.406
1327.63	8.681
1331.24	83.188
1334.85	95.993
1338.46	33.111
1342.06	1.392
1345.67	30.358
1349.27	72.994
1352.87	72.728
1356.47	68.455
1360.07	66.183
1363.66	82.786
1367.25	90.431
1370.85	38.103
1374.44	115.785
1378.03	58.182
1381.61	7.21
1385.2	45.085
1388.78	95.438
1392.37	64.912
1395.95	60.788
1399.53	76.631
1403.1	17.482
1406.68	24.303
1410.26	47.769
1413.83	109.131
1417.4	46.409
1420.97	123.421
1424.54	124.782
1428.1	75.426
1431.67	114.751
1435.23	167.46
1438.8	77.888
1442.36	137.31
1445.91	113.433
1449.47	109.772
1453.03	96.916
1456.58	208.672
1460.13	165.737
1463.68	138.021
1467.23	31.163
1470.78	64.375
1474.33	87.667
1477.87	69.843
1481.42	55.451
1484.96	49.093
1488.5	56.5
1492.04	108.608
1495.57	60.812
1499.11	19.542
1502.64	70.608
1506.17	30.298
1509.71	84.31
1513.23	62.835
1516.76	10.983
1520.29	98.76
1523.81	0
