Measurement: Raman, 514 nm, depolarized, Raman Data Processed
Mineral: Gypsum
Rruff sample: R060509
Ideal chemistry: CaS^6+^O_4_2H_2_O
Locality: Pierre Shale, Hermosa, Custer County, South Dakota, USA
Source: Michael Scott
Description: Colorless tabular single crystal
Pin_id: L01702
Orientation: Laser parallel to a* (1 0 0). Fiducial mark perpendicular to laser is parallel to b [0 1 0]
Raman shift (cm-1)	intensity
155.894	0
160.834	83.1602
165.771	406.276
170.705	797.968
175.635	1388.4
180.563	1870.51
185.487	1244.45
190.409	416.221
195.327	234.462
200.242	358.768
205.155	563.442
210.064	607.707
214.97	455.155
219.873	259.566
224.773	176.374
229.67	47.8267
234.564	13.0051
239.455	44.5034
244.342	5.73706
249.227	51.2937
254.109	24.6267
258.988	111.756
263.864	24.5051
268.736	66.2549
273.606	49.8733
278.473	39.2576
283.337	18.635
288.197	8.73315
293.055	10.0542
297.91	59.8113
302.762	4.57544
307.611	69.9761
312.456	107.612
317.299	118.835
322.139	192.382
326.976	89.0554
331.81	94.7217
336.641	69.3577
341.469	62.8867
346.294	39.2861
351.116	91.3589
355.936	68.3447
360.752	75.2659
365.565	121.116
370.376	150.205
375.183	87.6687
379.988	85.3127
384.789	158.389
389.588	268.906
394.384	288.115
399.177	454.484
403.967	1374.37
408.754	2861.27
413.538	4037.96
418.319	2823.13
423.097	943.065
427.873	402.041
432.646	266.592
437.415	103.667
442.182	53.6804
446.946	47.7412
451.707	26.8594
456.465	41.8892
461.221	29.5046
465.973	103.874
470.723	85.8662
475.47	175.634
480.214	487.2
484.955	941.906
489.693	1595.41
494.429	1761.95
499.161	1006.77
503.891	468.842
508.618	158.99
513.342	145.191
518.063	89.5818
522.782	50.0574
527.497	71.7893
532.21	1.34155
536.92	3.31299
541.627	27.925
546.332	30.4185
551.034	82.9409
555.732	120.802
560.428	161.921
565.122	284.567
569.812	360.277
574.5	366.1
579.185	408.893
583.867	370.28
588.546	404.475
593.223	484.769
597.897	426.396
602.568	670.82
607.236	942.39
611.902	1454.13
616.565	1991.27
621.225	1877.01
625.882	1182.9
630.537	557.792
635.189	236.704
639.838	99.9121
644.484	88.1231
649.128	80.3201
653.769	110.884
658.407	228.248
663.043	860.549
667.676	1602.88
672.306	1788.43
676.933	650.408
681.558	227.704
686.18	5.13574
690.799	36.3147
695.416	98.3894
700.03	25.0669
704.641	66.6389
709.25	68.5535
713.856	3.57642
718.459	127.147
723.059	11.7915
727.657	21.0752
732.253	1.53784
736.845	59.1628
741.435	64.8376
746.022	22.7375
750.607	8.40845
755.189	73.2251
759.768	38.46
764.345	119.886
768.919	46.9465
773.49	79.2405
778.059	53.8721
782.625	63.0276
787.189	82.4109
791.749	57.811
796.308	52.1167
800.863	95.9058
805.416	110.347
809.967	73.8669
814.515	72.2676
819.06	67.5347
823.603	72.6592
828.143	2.64062
832.68	50.4273
837.215	119.005
841.747	110.201
846.277	94.4102
850.804	68.104
855.328	37.6401
859.85	109.101
864.37	57.7983
868.886	34.0312
873.401	62.2246
877.912	31.3262
882.421	63.0845
886.928	12.3682
891.432	18.979
895.933	85.4546
900.432	51.7656
904.929	83.9375
909.423	3.87988
913.914	12.8706
918.403	113.596
922.889	54.273
927.373	3.42773
931.854	52.9658
936.332	49.5332
940.809	75.9932
945.282	49.4712
949.753	7.85693
954.222	70.2642
958.688	101.494
963.152	184.606
967.613	196.515
972.071	284.535
976.527	314.552
980.981	655.567
985.432	1057.75
989.881	1536.34
994.327	2524.09
998.771	7113.96
1003.21	29431.6
1007.65	48169.6
1012.09	18458.6
1016.52	3858.9
1020.95	1646.18
1025.38	801.406
1029.81	572.63
1034.23	355.704
1038.65	302.535
1043.07	239.564
1047.49	226.637
1051.9	115.189
1056.31	156.694
1060.72	79.4116
1065.13	129.968
1069.54	107.508
1073.94	151.857
1078.34	167.725
1082.73	202.795
1087.13	299.828
1091.52	349.024
1095.91	416.457
1100.3	637.626
1104.68	800.066
1109.07	1231.8
1113.45	1432.64
1117.82	1538.59
1122.2	1433.68
1126.57	1732.91
1130.94	3667.27
1135.31	5029.95
1139.68	3232.6
1144.04	1647.43
1148.4	859.507
1152.76	393.002
1157.12	223.084
1161.47	81.811
1165.82	145.282
1170.17	79.8359
1174.52	18.1548
1178.87	63.582
1183.21	68.4331
1187.55	125.35
1191.88	75.3018
1196.22	14.7197
1200.55	56.2847
1204.88	35.3164
1209.21	47.6543
1213.54	85.7783
1217.86	80.9277
1222.18	32.8711
1226.5	53.249
1230.82	4.63428
1235.13	74.7969
1239.44	125.653
1243.75	101.813
1248.06	85.4927
1252.37	28.1567
1256.67	48.4453
1260.97	52.0376
1265.27	6.00098
1269.56	77.1001
1273.86	119.305
1278.15	57.2183
1282.44	15.0483
1286.72	106.947
1291.01	91.9824
1295.29	56.6519
1299.57	91.3047
1303.85	37.5083
1308.12	17.1489
1312.39	19.7564
1316.67	147.071
1320.93	79.7803
1325.2	133.86
1329.46	22.2988
1333.73	53.6904
1337.98	157.343
1342.24	81.8101
1346.5	41.2197
1350.75	171.86
1355	84.6558
1359.25	122.52
1363.49	42.1997
1367.74	54.8306
1371.98	38.0698
1376.22	113.03
1380.46	28.1504
1384.69	11.5972
1388.92	57.9404
1393.15	87.7466
1397.38	133.333
1401.61	25.8721
1405.83	94.2754
1410.05	41.3237
1414.27	39.8711
1418.49	50.0605
1422.7	85.5859
1426.92	117.45
1431.13	71.7246
1435.34	48.9204
1439.54	121.263
1443.75	48.1982
1447.95	156.13
1452.15	159.743
1456.35	1.58545
1460.54	140.244
1464.73	42.0586
1468.92	77.8857
1473.11	58.4932
1477.3	12.3945
1481.48	185.856
1485.67	108.372
1489.85	77.5254
1494.02	0.291016
1498.2	116.726
1502.37	158.237
1506.55	121.717
1510.71	46.5898
1514.88	57.9512
1519.05	78.2637
1523.21	109.664
1527.37	87.6704
1531.53	226.826
1535.68	203.294
1539.84	48.3364
1543.99	142.366
1548.14	107.821
1552.29	76.5078
1556.44	180.721
1560.58	3.4624
