Measurement: Raman, 514 nm, depolarized, Raman Data Processed
Mineral: Gypsum
Rruff sample: R060509
Ideal chemistry: CaS^6+^O_4_2H_2_O
Locality: Pierre Shale, Hermosa, Custer County, South Dakota, USA
Source: Michael Scott
Description: Colorless tabular single crystal
Pin_id: L01423
Orientation: Laser parallel to (1 0 1). Fiducial mark perpendicular to laser is parallel to b [0 1 0]
Raman shift (cm-1)	intensity
155.894	0
160.834	364.056
165.771	402.446
170.705	526.667
175.635	1089.65
180.563	1710.38
185.487	986.281
190.409	312.312
195.327	91.1812
200.242	182.174
205.155	524.648
210.064	599.572
214.97	504.862
219.873	153.218
224.773	104.353
229.67	58.5062
234.564	32.6116
239.455	12.1515
244.342	11.5582
249.227	14.1921
254.109	10.2906
258.988	39.8426
263.864	5.54944
268.736	3.052
273.606	41.7728
278.473	0.405884
283.337	18.5259
288.197	17.0748
293.055	62.8037
297.91	15.2498
302.762	15.499
307.611	97.55
312.456	158.215
317.299	183.421
322.139	229.819
326.976	160.233
331.81	126.51
336.641	114.702
341.469	105.753
346.294	76.5216
351.116	139.69
355.936	94.575
360.752	122.674
365.565	127.988
370.376	104.095
375.183	131.544
379.988	178.725
384.789	140.716
389.588	212.305
394.384	292.22
399.177	509.379
403.967	1179.96
408.754	2707.11
413.538	4826.65
418.319	3229.22
423.097	1046.51
427.873	448.457
432.646	228.178
437.415	112.123
442.182	30.6711
446.946	12.197
451.707	51.1833
456.465	47.9917
461.221	5.52197
465.973	60.1748
470.723	5.69214
475.47	151.784
480.214	246.683
484.955	608.489
489.693	1019.06
494.429	1338.46
499.161	779.933
503.891	350.599
508.618	122.77
513.342	58.7
518.063	84.1221
522.782	25.6399
527.497	93.283
532.21	39.104
536.92	20.8709
541.627	48.4228
546.332	19.0493
551.034	21.5874
555.732	83.3826
560.428	95.3579
565.122	142.361
569.812	199.251
574.5	195.699
579.185	185.719
583.867	192.452
588.546	291.655
593.223	232.439
597.897	226.585
602.568	281.918
607.236	485.839
611.902	689.085
616.565	1056.42
621.225	1131.8
625.882	787.464
630.537	330.139
635.189	201.453
639.838	133.918
644.484	108.817
649.128	74.2244
653.769	178.212
658.407	253.184
663.043	953.182
667.676	2350.09
672.306	2723.01
676.933	972.404
681.558	314.328
686.18	159.516
690.799	125.409
695.416	54.6773
700.03	43.5144
704.641	23.7002
709.25	50.9382
713.856	17.5293
718.459	3.99365
723.059	1.35718
727.657	82.7188
732.253	34.748
736.845	15.4998
741.435	1.63135
746.022	62.0125
750.607	31.3533
755.189	39.1179
759.768	26.0088
764.345	2.677
768.919	23.3362
773.49	78.74
778.059	67.4299
782.625	30.1204
787.189	123.691
791.749	30.437
796.308	171.693
800.863	112.717
805.416	124.742
809.967	92.5691
814.515	137.367
819.06	101.054
823.603	133.632
828.143	122.102
832.68	143.462
837.215	86.7141
841.747	172.618
846.277	134.415
850.804	65.3333
855.328	122.673
859.85	48.2231
864.37	109.573
868.886	46.2847
873.401	32.1929
877.912	65.5156
882.421	32.7205
886.928	0.020752
891.432	37.644
895.933	5.93384
900.432	68.8013
904.929	13.8662
909.423	42.5671
913.914	97.7112
918.403	58.2998
922.889	1.42627
927.373	42.0454
931.854	14.2888
936.332	104.207
940.809	43.7722
945.282	7.28735
949.753	128.816
954.222	4.36792
958.688	78.9023
963.152	69.4214
967.613	224.929
972.071	192.431
976.527	337.957
980.981	504.521
985.432	814.09
989.881	1294.72
994.327	2050.37
998.771	5494.97
1003.21	21620.2
1007.65	50717
1012.09	17944.7
1016.52	3669.06
1020.95	1570.47
1025.38	755.017
1029.81	494.831
1034.23	306.238
1038.65	237.265
1043.07	182.067
1047.49	174.792
1051.9	123.347
1056.31	158.663
1060.72	67.4502
1065.13	97.7034
1069.54	35.7627
1073.94	155.471
1078.34	154.381
1082.73	192.053
1087.13	234.488
1091.52	351.985
1095.91	380.567
1100.3	380.236
1104.68	611.317
1109.07	959.162
1113.45	1156.09
1117.82	1057.12
1122.2	1114.23
1126.57	1839.45
1130.94	4686.78
1135.31	7057.68
1139.68	3908.2
1144.04	1735.02
1148.4	727.421
1152.76	349.073
1157.12	159.16
1161.47	191.386
1165.82	99.7366
1170.17	11.7678
1174.52	42.9233
1178.87	55.7712
1183.21	107.566
1187.55	105.312
1191.88	41.1414
1196.22	29.1064
1200.55	15.2332
1204.88	131.288
1209.21	41.7268
1213.54	0.537109
1217.86	4.0979
1222.18	89.0071
1226.5	17.1169
1230.82	94.2676
1235.13	42.5249
1239.44	63.7353
1243.75	116.98
1248.06	93.5576
1252.37	89.8975
1256.67	85.3015
1260.97	26.9766
1265.27	29.6384
1269.56	77.4448
1273.86	46.4595
1278.15	18.7651
1282.44	39.2681
1286.72	51.833
1291.01	15.0156
1295.29	77.1934
1299.57	4.09326
1303.85	85.3198
1308.12	70.4663
1312.39	42.6323
1316.67	60.854
1320.93	60.7656
1325.2	70.8062
1329.46	51.771
1333.73	136.164
1337.98	39.5156
1342.24	93.2998
1346.5	79.3442
1350.75	75.1826
1355	140.976
1359.25	39.7075
1363.49	53.085
1367.74	47.7573
1371.98	118.405
1376.22	81.1685
1380.46	18.8369
1384.69	8.5166
1388.92	98.7788
1393.15	17.148
1397.38	79.8789
1401.61	39.1118
1405.83	51.771
1410.05	36.3555
1414.27	75.4023
1418.49	75.2759
1422.7	92.1611
1426.92	22.6719
1431.13	82.8135
1435.34	73.2339
1439.54	66.9898
1443.75	7.58691
1447.95	126.923
1452.15	61.7651
1456.35	137.323
1460.54	74.7954
1464.73	56.1309
1468.92	12.4824
1473.11	103.806
1477.3	115.188
1481.48	173.59
1485.67	92.4004
1489.85	75.3921
1494.02	77.3687
1498.2	36.9688
1502.37	19.0659
1506.55	81.5205
1510.71	127.356
1514.88	184.342
1519.05	174.607
1523.21	149.915
1527.37	92.0859
1531.53	76.2349
1535.68	88.7144
1539.84	123.21
1543.99	65.8657
1548.14	60.9668
1552.29	44.4551
1556.44	6.94824
1560.58	9.87549
