Measurement: Raman, 514 nm, depolarized, Raman Data Processed
Mineral: Hardystonite
Rruff sample: R040026
Ideal chemistry: Ca_2_Zn^2+^Si_2_O_7_
Locality: Franklin, Sussex County, New Jersey, USA
Source: University of Arizona Mineral Museum
Description: White massive
Measured chemistry: (Ca_1.98_Mn_0.02_)_Σ=2_(Zn_0.99_Al_0.01_)_Σ=1_(Si_1.99_Al_0.01_)_Σ=2_O_7_
Pin_id: S00031
Orientation: Laser parallel to c* (0 0 1). Fiducial mark perpendicular to laser is parallel to a [1 0 0]
Raman shift (cm-1)	intensity
122.592	0
126.758	120.027
130.922	147.948
135.083	245.852
139.243	350.174
143.401	381.753
147.557	450.832
151.711	269.802
155.863	242.351
160.013	440.256
164.161	622.507
168.308	469.495
172.452	238.8
176.594	101.931
180.734	84.7568
184.872	14.1289
189.008	31.8374
193.143	6.02148
197.275	21.311
201.405	180.819
205.534	491.111
209.66	832.735
213.784	1254.29
217.907	1606.24
222.027	1867.7
226.146	2014.43
230.263	2139.25
234.377	2329.15
238.49	2676.42
242.601	2817.05
246.709	2601.37
250.816	2473.27
254.921	2287.72
259.024	2365.92
263.125	2234.17
267.224	2246
271.321	2092.05
275.416	1852.34
279.51	1502.85
283.601	1211.39
287.69	919.172
291.778	822.809
295.863	753.193
299.947	599.852
304.029	761.592
308.108	787.37
312.186	694.396
316.262	661.095
320.336	621.293
324.408	498.619
328.478	398.9
332.546	365.578
336.612	419.263
340.677	377.026
344.739	375.752
348.799	399.072
352.858	230.827
356.915	189.555
360.969	120.347
365.022	75.2783
369.073	94.8994
373.122	17.1309
377.169	159.731
381.215	200.692
385.258	229.013
389.299	383.752
393.339	346.879
397.376	191.378
401.412	111.287
405.446	24.4526
409.478	113
413.508	97.4717
417.536	62.0337
421.562	127.326
425.586	34.6919
429.609	245.079
433.629	456.47
437.648	1002.06
441.665	1365.35
445.68	1566.57
449.693	1509.73
453.704	1542.47
457.713	1502.75
461.721	1763.52
465.726	2052.75
469.73	2523.61
473.731	3037.03
477.731	3676.03
481.729	3948.57
485.725	3612.15
489.72	3118.05
493.712	2667.22
497.703	2054.32
501.691	1564.81
505.678	1429.79
509.663	1108.92
513.646	1000.63
517.627	899.581
521.607	740.294
525.584	636.12
529.56	701.524
533.534	617.491
537.506	645.512
541.476	764.917
545.444	808.838
549.41	997.778
553.375	916.696
557.337	723.042
561.298	579.617
565.257	433.87
569.214	479.248
573.17	554.857
577.123	476.511
581.075	767.037
585.024	1238.16
588.972	1739.08
592.918	2060.48
596.863	2647.06
600.805	3729.15
604.746	6395.87
608.685	11489.6
612.621	17186.7
616.557	17510.9
620.49	13336.1
624.421	10935.3
628.351	8626.36
632.279	6360.72
636.205	5344.49
640.129	5331.01
644.051	6321.3
647.972	8372.38
651.89	12438.2
655.807	20201.9
659.722	33108.5
663.636	38456.8
667.547	29165
671.457	19139
675.365	12777.8
679.271	8085.58
683.175	5294.24
687.077	3163.82
690.978	2046.33
694.877	1268.77
698.774	791.188
702.669	421.557
706.562	285.839
710.454	109.029
714.344	15.873
718.232	60.0703
722.118	11.0361
726.002	162.789
729.885	151.826
733.766	46.126
737.645	57.4883
741.522	83.166
745.397	18.2021
749.271	34.6279
753.143	44.3897
757.013	68.6445
760.881	189.406
764.748	123.784
768.613	43.501
772.476	11.5371
776.337	17.6396
780.196	54.6631
784.054	64.2891
787.91	178.558
791.764	333.812
795.616	369.073
799.467	772.343
803.316	1523.63
807.163	1831.94
811.008	1275.27
814.851	1024.64
818.693	946.053
822.533	1148.51
826.371	1496.01
830.208	2216.56
834.042	3763.18
837.875	6923.89
841.706	6175.81
845.536	4063.13
849.363	3235.96
853.189	3117.3
857.013	3626.14
860.836	4059.41
864.656	3385.59
868.475	3064.02
872.292	2943.84
876.108	3113.5
879.922	3811.96
883.733	4637.19
887.544	5982.12
891.352	8097.72
895.159	11927.5
898.964	19807.4
902.767	34297.8
906.568	49833.7
910.368	46961.2
914.166	31791.1
917.962	19015.6
921.757	11660.5
925.55	7861.46
929.341	6016.13
933.13	4931.84
936.918	4041.19
940.703	3409.37
944.488	2894.09
948.27	2576.01
952.051	2379.12
955.83	2058.43
959.607	1661.94
963.383	1446.65
967.156	1208.55
970.928	863.655
974.699	818.953
978.468	693.448
982.234	685.284
986	867.18
989.763	855.849
993.525	656.513
997.285	1207.16
1001.04	2530.52
1004.8	2202.55
1008.55	983.631
1012.31	793.155
1016.06	1120.87
1019.81	1614.97
1023.56	1900.2
1027.31	1577.54
1031.05	1160.06
1034.79	881.542
1038.53	922.38
1042.27	741.217
1046.01	765.891
1049.75	728.688
1053.48	729.698
1057.22	661.698
1060.95	493.624
1064.68	454.769
1068.4	332.871
1072.13	615.546
1075.86	668.35
1079.58	1203.27
1083.3	1844.31
1087.02	2001.45
1090.74	1133.61
1094.45	796.762
1098.17	477.906
1101.88	371.039
1105.59	290.156
1109.3	549.253
1113.01	263.328
1116.71	319.412
1120.42	286.484
1124.12	395.531
1127.82	50.541
1131.52	90.499
1135.22	108.43
1138.91	124.153
1142.61	178.851
1146.3	257.757
1149.99	228.277
1153.68	154.304
1157.37	134.782
1161.06	9.40332
1164.74	262.42
1168.42	235.24
1172.1	298.753
1175.78	407.019
1179.46	406.161
1183.14	266.174
1186.81	334.047
1190.48	157.772
1194.15	20.6719
1197.83	15.3555
1201.49	156.709
1205.16	165.556
1208.82	57.8672
1212.49	212.342
1216.15	387.392
1219.81	256.293
1223.46	192.302
1227.12	302.654
1230.78	392.141
1234.43	727.503
1238.08	920.75
1241.73	935.896
1245.38	961.966
1249.03	999.981
1252.67	906.964
1256.31	880.844
1259.95	737.952
1263.6	947.729
1267.23	1258.94
1270.87	1506.9
1274.51	1395.92
1278.14	1431.97
1281.77	1166.16
1285.4	949.196
1289.03	665.361
1292.66	809.068
1296.28	1057.87
1299.91	825.343
1303.53	674.494
1307.15	1017.81
1310.77	1037.66
1314.38	1379.87
1318	1105.03
1321.61	1122.96
1325.23	1107.39
1328.84	582.304
1332.45	372.64
1336.06	45.3438
1339.66	79.334
1343.27	72.3906
1346.87	153.426
1350.47	256.373
1354.07	193.593
1357.67	221.113
1361.26	16.8398
1364.86	84.1025
1368.45	166.935
1372.04	203.352
1375.63	252.013
1379.22	485.167
1382.81	540.24
1386.39	373.948
1389.98	492.551
1393.56	410.608
1397.14	294.586
1400.72	145.888
1404.3	48.6904
1407.87	67.5381
1411.45	259.002
1415.02	180.131
1418.59	148.142
