Measurement: Raman, 514 nm, ccw, Raman Data Processed
Mineral: Hardystonite
Rruff sample: R040026
Ideal chemistry: Ca_2_Zn^2+^Si_2_O_7_
Locality: Franklin, Sussex County, New Jersey, USA
Source: University of Arizona Mineral Museum
Description: White massive
Measured chemistry: (Ca_1.98_Mn_0.02_)_Σ=2_(Zn_0.99_Al_0.01_)_Σ=1_(Si_1.99_Al_0.01_)_Σ=2_O_7_
Pin_id: M00254
Orientation: Laser parallel to (-1 1 0). Fiducial mark perpendicular to laser is parallel to -c [0 0 -1]
Raman shift (cm-1)	intensity
124.402	0
129.316	319.391
134.229	785.359
139.138	1438.46
144.046	3055.74
148.951	3935.31
153.853	3389.22
158.753	3137.73
163.651	2935.47
168.547	3612.53
173.439	3901.39
178.33	4590.49
183.218	5225.89
188.104	4384.51
192.987	4011.52
197.868	4085.19
202.746	3143.08
207.622	2128.09
212.495	1694.21
217.366	1636.45
222.235	1765.65
227.101	2471.67
231.965	2783.75
236.826	3930.88
241.685	5116.99
246.542	5770.01
251.396	7114.11
256.247	8164.59
261.096	9165.88
265.943	10791
270.787	13352.7
275.629	16718.5
280.468	19094
285.305	18566.5
290.14	16595.8
294.972	14996.7
299.801	14585.8
304.629	16062
309.453	18016.8
314.275	21060.9
319.095	20223.6
323.912	15139
328.727	10848.7
333.54	7887.59
338.35	5486.46
343.157	4291.17
347.962	2889.49
352.765	1625.24
357.565	1379.35
362.362	754.836
367.158	752.664
371.95	566.844
376.741	81.3438
381.528	88.4297
386.314	170.477
391.096	21.4219
395.877	62.4062
400.655	63.7734
405.43	72.7344
410.203	254.211
414.974	2.59375
419.742	661.867
424.507	126.594
429.27	101.078
434.031	621.805
438.789	513.938
443.545	1131.79
448.298	1532.97
453.048	2067.4
457.797	3048.11
462.542	3143.19
467.285	3501.94
472.026	4811.47
476.764	5881.11
481.5	6420.48
486.233	6055.77
490.964	5154.91
495.693	4035.86
500.418	2973.48
505.142	2395.69
509.862	1834.44
514.581	908.633
519.297	1000.84
524.01	986.914
528.721	1188.99
533.429	1558.77
538.135	1228.5
542.838	1658.97
547.539	2396.32
552.238	2114.7
556.933	1715.56
561.627	821.625
566.318	958.422
571.006	637.82
575.692	891.844
580.375	482.344
585.056	1195.07
589.734	2381.51
594.41	3909.64
599.084	4997.22
603.754	9137.79
608.423	18188.7
613.088	31166.1
617.752	32175.1
622.412	22185.9
627.071	14022.9
631.726	10080.8
636.38	8047.91
641.03	7604.49
645.679	9307.55
650.324	14746
654.967	27736.1
659.608	52504.1
664.246	69663.8
668.882	54287.5
673.515	34105.3
678.145	20921.6
682.774	12316.9
687.399	6756.02
692.022	4541.48
696.643	2759.39
701.26	2239.02
705.876	1525.69
710.489	1150.68
715.099	1346.52
719.707	753.664
724.312	637.977
728.915	646.719
733.515	616.859
738.113	161.07
742.708	280.531
747.301	310.078
751.891	218.891
756.479	429.547
761.064	61.9375
765.646	243.008
770.226	113.5
774.804	73.6875
779.379	93.7266
783.951	44.1406
788.521	220.812
793.088	13.1719
797.653	3.0625
802.215	218.602
806.775	311
811.332	223.281
815.887	295.727
820.439	697.828
824.988	653.961
829.535	927.977
834.08	1317.98
838.621	1533.16
843.161	1870.51
847.698	2142.11
852.232	2117.32
856.763	3027.95
861.293	3093.22
865.819	2945.09
870.343	2981.94
874.865	4033.15
879.384	4771.91
883.9	6589.66
888.414	10223
892.925	16889.2
897.434	31285.8
901.94	60930.9
906.444	101673
910.945	104520
915.443	64428.5
919.939	33936.6
924.433	18314.4
928.923	10825.7
933.412	7791.73
937.897	6726.1
942.381	6541.52
946.861	5311.96
951.339	4699.79
955.815	3385.01
960.288	2967.34
964.758	2489.69
969.226	2187.03
973.691	1525.09
978.154	1313.94
982.614	1905.13
987.071	3449.81
991.526	5417.02
995.979	8602.11
1000.43	9375.74
1004.88	9315.04
1009.32	7204.27
1013.76	5020.78
1018.2	3414.66
1022.64	3243.61
1027.07	2004.43
1031.51	1442.02
1035.93	685.867
1040.36	830.609
1044.79	614.305
1049.21	619.938
1053.63	552.391
1058.04	175.922
1062.46	237.156
1066.87	72.0312
1071.28	89.5625
1075.68	378.266
1080.09	34.2656
1084.49	222.516
1088.88	337.906
1093.28	417.875
1097.67	305.609
1102.07	5.53125
1106.45	909.625
1110.84	438.062
1115.22	582.859
1119.6	682.047
1123.98	771.672
1128.36	538.734
1132.73	386.266
1137.1	400.25
1141.46	485.469
1145.83	650.906
1150.19	469.094
1154.55	100.484
1158.91	567.969
1163.26	347.875
1167.62	293.016
1171.96	1042.8
1176.31	684.156
1180.65	630.156
1185	447.766
1189.34	294.047
1193.67	475
1198.01	219.516
1202.34	31.0469
1206.67	163.734
1210.99	465.312
1215.32	292.656
1219.64	70.75
1223.95	1174.84
1228.27	152.734
1232.58	603.938
1236.89	1121.78
1241.2	772.672
1245.51	1241.59
1249.81	1177.62
1254.11	1013.86
1258.41	1823.36
1262.7	1067.81
1266.99	961.25
1271.29	1534.2
1275.57	1388.06
1279.86	825.078
1284.14	1034.52
1288.42	671.953
1292.69	952.031
1296.97	1123.36
1301.24	671.188
1305.51	740.234
1309.78	1096.61
1314.04	1143.64
1318.3	1268.09
1322.56	913.344
1326.82	1251.7
1331.07	819.328
1335.32	972.391
1339.57	997.844
1343.81	942.703
1348.06	1177.23
1352.3	1196.5
1356.53	1088.59
1360.77	1003.75
1365	868.875
1369.23	1428.28
1373.46	1251.67
1377.68	1317.39
1381.91	1077.66
1386.12	1285.42
1390.34	903.359
1394.56	1538.61
1398.77	1641.95
1402.98	916.75
1407.18	1259.95
1411.39	498.734
1415.59	667.781
1419.79	552.062
1423.98	969.969
1428.18	871.125
1432.37	561.453
1436.56	1087.02
1440.74	1252.92
1444.92	1471.56
1449.11	2082.5
1453.28	1890.12
1457.46	2240.61
1461.63	1785.38
1465.8	1685.95
1469.97	1175.36
1474.13	1368.48
1478.3	1116.34
1482.45	1197.66
1486.61	758.141
1490.77	623.25
1494.92	115.031
1499.07	947.375
1503.21	170.781
1507.36	263.484
1511.5	10.2031
1515.64	567.844
1519.77	903.844
1523.91	603.078
1528.04	612.781
1532.17	598.953
1536.29	392.906
1540.41	861.016
1544.54	565.75
1548.65	821.188
1552.77	442.25
1556.88	1088.53
1560.99	714.812
1565.1	93.4688
1569.2	177.141
1573.3	216.609
1577.4	735.438
