Measurement: Raman, 514 nm, ccw, Raman Data Processed
Mineral: Hardystonite
Rruff sample: R040026
Ideal chemistry: Ca_2_Zn^2+^Si_2_O_7_
Locality: Franklin, Sussex County, New Jersey, USA
Source: University of Arizona Mineral Museum
Description: White massive
Measured chemistry: (Ca_1.98_Mn_0.02_)_Σ=2_(Zn_0.99_Al_0.01_)_Σ=1_(Si_1.99_Al_0.01_)_Σ=2_O_7_
Pin_id: M01345
Orientation: Laser parallel to -a* (-1 0 0). Fiducial mark perpendicular to laser is parallel to -c [0 0 -1]
Raman shift (cm-1)	intensity
128.889	0
133.801	68.5312
138.711	417.176
143.619	1150.54
148.525	1930.35
153.428	1705.5
158.329	2049.42
163.227	2093.14
168.124	1898.26
173.018	1822.91
177.909	2067.39
182.799	1915.3
187.686	1626.44
192.57	1570.1
197.452	2493.47
202.332	3362.5
207.21	3468.06
212.085	1989.57
216.958	1459.95
221.829	951.594
226.697	920.152
231.563	1142.75
236.426	1932.46
241.288	2569.32
246.146	3596.25
251.003	3972.84
255.857	4893.41
260.709	6567.67
265.558	8066.22
270.405	10217.9
275.249	12442.6
280.092	13511.7
284.931	12689.7
289.769	11666.1
294.604	11111.7
299.436	12928.5
304.267	14703.2
309.095	15318.2
313.92	16016.1
318.743	13949.5
323.564	10531.3
328.382	6939.2
333.198	5063.09
338.011	3341.86
342.822	2386.29
347.631	1906.78
352.437	1211.14
357.241	741.391
362.042	680.91
366.841	249.707
371.638	231.008
376.432	400.641
381.223	78.2227
386.013	168.457
390.799	242.953
395.584	306.273
400.366	314.336
405.145	5.89062
409.922	370.074
414.697	215.719
419.469	186.695
424.239	407.848
429.006	163.113
433.771	700.125
438.533	1398.55
443.293	1960.41
448.05	2204.66
452.805	2233.31
457.558	2433.41
462.308	2638.99
467.055	2838.18
471.8	3544.77
476.543	4935.81
481.283	4982.66
486.021	4871.48
490.756	3810.95
495.488	3158.04
500.219	2110.57
504.946	1938.92
509.672	1339.73
514.394	1440.59
519.115	1010.22
523.832	662.57
528.548	686.539
533.26	574.609
537.97	1168.91
542.678	1249.77
547.383	2008.01
552.086	1352.69
556.786	1303.06
561.484	649.773
566.179	458.781
570.872	245.414
575.562	639.109
580.25	1138.93
584.935	1425.33
589.617	2210.97
594.297	2828.55
598.975	4057.8
603.65	7009.4
608.322	14604
612.992	23986
617.66	23774.9
622.325	16043.8
626.987	10500.2
631.647	7830.81
636.304	5745.98
640.959	5989.98
645.611	7397.35
650.26	11670.7
654.907	22797
659.552	41902.8
664.194	52799.8
668.833	39681
673.47	24512.2
678.104	14708.5
682.736	9609.61
687.365	5481.98
691.991	3234.84
696.615	2358.64
701.237	1939.42
705.855	1438.77
710.472	1296.13
715.085	964.359
719.696	706.109
724.305	624.086
728.911	78.6875
733.514	132.773
738.115	4.19531
742.713	106.773
747.309	201.414
751.902	351.438
756.492	269.406
761.08	60.0391
765.665	39.6016
770.248	30.75
774.828	328.633
779.405	219.727
783.98	77.9453
788.552	228.828
793.122	29.1016
797.689	128.578
802.253	421.438
806.815	97.1484
811.374	337.539
815.93	173.664
820.484	310.141
825.035	492.742
829.584	874.883
834.13	1201.13
838.674	1325.48
843.214	1970.91
847.752	2011.44
852.288	2010.21
856.821	2253.29
861.351	2140.61
865.879	1782.19
870.404	2521.52
874.926	3026.94
879.446	3826.58
883.963	4989.27
888.477	8048.82
892.989	12885.6
897.498	24397.4
902.004	48437.6
906.508	78766
911.009	78334.4
915.508	48081
920.004	25634.3
924.497	13926.1
928.987	8743.77
933.475	7445.41
937.96	6610.05
942.443	6768.88
946.923	5876.63
951.4	4006.47
955.875	3021.67
960.346	2722.59
964.816	1801.54
969.282	2290.55
973.746	1604.46
978.207	1331.71
982.666	2059.11
987.121	3199.34
991.575	5713.94
996.025	7737.19
1000.47	8154.27
1004.92	7867.88
1009.36	6206.15
1013.8	3992.62
1018.24	3338.73
1022.67	2017.38
1027.1	978.492
1031.53	456.141
1035.96	1636.15
1040.38	527.883
1044.8	227.508
1049.22	172.891
1053.64	712.617
1058.05	64.7578
1062.46	284.875
1066.87	337.352
1071.27	28.1875
1075.67	130.656
1080.07	255.781
1084.47	637.172
1088.86	86.5625
1093.25	678.453
1097.64	24.5469
1102.03	402.859
1106.41	353.688
1110.79	386.344
1115.17	250.203
1119.54	275.406
1123.91	528.344
1128.28	38.6562
1132.65	690.016
1137.01	776.516
1141.37	927.078
1145.73	687.859
1150.09	354.781
1154.44	533.781
1158.79	339.891
1163.14	652.453
1167.48	124.688
1171.83	419.047
1176.16	667.688
1180.5	345.281
1184.83	550.766
1189.16	726.062
1193.49	49.8438
1197.82	124.875
1202.14	339.016
1206.46	133.703
1210.78	589.172
1215.09	874.5
1219.4	1144.47
1223.71	887.641
1228.02	387.094
1232.32	694.328
1236.62	492.328
1240.92	619.859
1245.22	1636.36
1249.51	658.469
1253.8	1095.98
1258.09	1495.64
1262.37	776.844
1266.65	227.672
1270.93	718.969
1275.2	485.281
1279.48	1012.7
1283.75	694.844
1288.02	36.9531
1292.28	793.422
1296.54	643.422
1300.8	720.953
1305.06	588.562
1309.31	286.578
1313.56	293.172
1317.81	192.156
1322.05	296.578
1326.3	523.188
1330.54	777.031
1334.77	298.156
1339.01	992.281
1343.24	938.969
1347.46	1245.23
1351.69	1320.48
1355.91	894.219
1360.13	1583.83
1364.35	1198.48
1368.57	473.844
1372.78	938.953
1376.98	1049.16
1381.19	792.578
1385.39	911.469
1389.6	1031.56
1393.79	1028.48
1397.99	474.109
1402.18	1021.38
1406.37	1085.5
1410.55	424.156
1414.74	789.766
1418.92	480.109
1423.1	799.828
1427.27	550.656
1431.44	819.031
1435.61	414.766
1439.78	1096.39
1443.94	419.578
1448.1	883.172
1452.26	903.734
1456.42	964.641
1460.57	681.141
1464.72	604.734
1468.87	680.594
1473.01	133.828
1477.15	933.594
1481.29	369.531
1485.42	313.938
1489.56	829.062
1493.69	84.9375
1497.82	579.625
1501.94	20.1719
1506.06	1.42188
1510.18	633.984
1514.29	451.812
1518.41	1075.02
1522.52	1092.23
1526.62	1821.27
1530.73	900.031
1534.83	357.984
1538.93	1415.66
1543.02	1134.69
1547.12	999.188
1551.21	736.859
1555.29	1647.7
1559.38	1738.23
1563.46	731
1567.54	986.719
1571.61	990.875
1575.69	1225.27
