Measurement: Raman, 514 nm, ccw, Raman Data Processed
Mineral: Hardystonite
Rruff sample: R040026
Ideal chemistry: Ca_2_Zn^2+^Si_2_O_7_
Locality: Franklin, Sussex County, New Jersey, USA
Source: University of Arizona Mineral Museum
Description: White massive
Measured chemistry: (Ca_1.98_Mn_0.02_)_Σ=2_(Zn_0.99_Al_0.01_)_Σ=1_(Si_1.99_Al_0.01_)_Σ=2_O_7_
Pin_id: M00254
Orientation: Laser parallel to (-1 1 0). Fiducial mark perpendicular to laser is parallel to -c [0 0 -1]
Raman shift (cm-1)	intensity
118.255	0
123.173	1086.12
128.088	26.5078
133.001	353.031
137.911	858.422
142.819	1199.82
147.725	1563.62
152.628	2117.35
157.529	1957.09
162.427	1890.78
167.323	1865.06
172.216	1378.47
177.108	1757.81
181.996	1493.41
186.882	1529.38
191.766	1108.21
196.648	1488.35
201.527	1849.19
206.403	2050.49
211.277	2004.67
216.149	1983.42
221.018	2166.95
225.885	2027.32
230.749	2686.66
235.611	3094.95
240.471	3742.23
245.328	4500.73
250.182	4539.21
255.035	4269.13
259.884	4253.27
264.732	4092.89
269.576	4263.57
274.419	4519.23
279.259	4292.66
284.096	4667.53
288.931	3711.19
293.764	3276.16
298.594	3576.72
303.422	3916.88
308.247	3972.46
313.07	4300.31
317.89	4013.34
322.708	2905.43
327.524	2777.55
332.337	1745.61
337.147	1830.55
341.955	1501.34
346.761	690.961
351.564	513.367
356.365	257.508
361.163	389.43
365.959	305.148
370.752	188.602
375.543	14.8281
380.332	288.391
385.118	28.4297
389.901	186.711
394.682	1145.67
399.461	1163.87
404.237	505.172
409.01	35.0234
413.781	115.422
418.55	16.7031
423.316	62.4453
428.08	273.352
432.841	135.094
437.6	25.4062
442.356	630.836
447.11	1003.17
451.861	2105.39
456.61	2624.23
461.356	2005.6
466.1	2664.11
470.841	3609.38
475.58	4262.54
480.316	5335.73
485.05	5835.48
489.782	4796.41
494.511	4151.79
499.237	2561.45
503.961	1807.48
508.682	1305.4
513.401	935.141
518.118	664.266
522.832	799.531
527.543	124.508
532.252	161.164
536.959	633.891
541.663	236.641
546.364	998.125
551.063	1247.71
555.76	1137.73
560.454	763.93
565.145	1224.64
569.834	901.484
574.521	1373.49
579.205	1777.01
583.886	2410.91
588.565	4039.58
593.241	5779.73
597.915	7197.96
602.587	11446.3
607.256	22487.2
611.922	41921.7
616.586	51779.2
621.248	36288.1
625.906	22677.5
630.563	15891
635.217	11581.4
639.868	10290.6
644.517	11304.5
649.163	17111.2
653.807	30940.4
658.448	60954.7
663.087	95343.4
667.723	87315.1
672.357	55358.3
676.988	33852.1
681.617	19502.1
686.243	11431.2
690.867	6765.34
695.488	4309.97
700.106	2769.95
704.722	2156.37
709.336	1636.77
713.947	1127.85
718.555	1267.03
723.161	1271.07
727.765	858.938
732.366	734.609
736.964	240.234
741.56	440.961
746.153	263.758
750.744	524.641
755.332	88.6552
759.918	193.203
764.501	42.6875
769.082	346.086
773.66	3.14062
778.235	143.945
782.808	136.523
787.379	721.25
791.947	166.094
796.512	226.547
801.075	391.656
805.635	223.781
810.193	1870.98
814.748	2552.91
819.301	950.602
823.851	648.023
828.399	1186.18
832.944	1313.11
837.486	1601.33
842.026	3257.34
846.564	3270.62
851.098	3927.69
855.631	4061.54
860.161	3936.18
864.688	4233.66
869.212	5779.98
873.735	5188.41
878.254	5945.5
882.771	8441.55
887.286	11996.5
891.798	20003
896.307	35478.2
900.814	71676.4
905.318	131473
909.82	163035
914.319	111822
918.815	59660
923.31	31528.2
927.801	19250.6
932.29	14056.7
936.776	11375.5
941.26	11126.4
945.741	10181.4
950.22	8421.15
954.696	6093.72
959.17	5356.66
963.641	4800.08
968.109	3777.99
972.575	3742.05
977.038	4703.33
981.499	5675.23
985.957	8226.91
990.413	13841.3
994.866	21600.5
999.316	24533.9
1003.76	23353.8
1008.21	18630
1012.65	12963.8
1017.09	9377.84
1021.53	7411.95
1025.96	4910.45
1030.4	1632.36
1034.83	1277.56
1039.26	1448.94
1043.68	507.484
1048.1	930.203
1052.52	590.109
1056.94	334.844
1061.35	104.25
1065.77	129.984
1070.17	327.766
1074.58	29.8906
1078.98	398.156
1083.39	371.594
1087.79	432.391
1092.18	678.531
1096.58	105.844
1100.97	167.875
1105.36	863.609
1109.74	395.094
1114.13	615.312
1118.51	534.281
1122.88	442
1127.26	400.031
1131.63	433.266
1136.01	202.25
1140.37	359.484
1144.74	944.969
1149.1	198.047
1153.46	923.812
1157.82	529.469
1162.17	409.844
1166.53	293.922
1170.88	581.781
1175.22	991.219
1179.57	833.328
1183.91	807.531
1188.25	678.312
1192.59	523.828
1196.92	912.094
1201.26	296.5
1205.58	565.422
1209.91	189.531
1214.23	137.078
1218.56	325.438
1222.88	316.078
1227.19	993.641
1231.51	526.594
1235.82	571.031
1240.12	759.25
1244.43	1163.47
1248.73	554.609
1253.04	743.703
1257.33	713.672
1261.63	443.25
1265.92	1020.61
1270.21	612.328
1274.5	189.047
1278.79	982.125
1283.07	843.766
1287.35	688.625
1291.62	982.875
1295.9	76.8906
1300.17	1045.05
1304.44	752.328
1308.71	319.75
1312.97	1167.34
1317.23	1078.95
1321.49	944.719
1325.75	923.453
1330.01	619.891
1334.26	867.766
1338.51	1136.12
1342.75	691.047
1346.99	682.949
1351.24	994.984
1355.47	1005.88
1359.71	1088.16
1363.94	684.844
1368.17	1048.94
1372.4	202.312
1376.63	176.125
1380.85	608.812
1385.07	1421.48
1389.29	533.828
1393.5	570.672
1397.72	955.406
1401.92	707.828
1406.13	663.312
1410.34	572.609
1414.54	1095.44
1418.74	358.672
1422.93	396.75
1427.13	116.609
1431.32	428.484
1435.51	412.781
1439.7	500.062
1443.88	1364.02
1448.06	1315.42
1452.24	840.25
1456.41	842.188
1460.59	848.203
1464.76	220.078
1468.93	217.531
1473.09	1232.81
1477.26	688.938
1481.42	287.766
1485.57	369.5
1489.73	817.141
1493.88	349.688
1498.03	338.625
1502.18	423.625
1506.32	118.078
1510.46	231.031
1514.6	210.062
1518.74	510.766
1522.87	322.797
1527.01	421.203
1531.13	149.344
1535.26	399.328
1539.38	200.031
1543.51	445.125
1547.62	31.8125
1551.74	34.7969
1555.85	131.062
1559.96	578.234
1564.07	160.562
1568.18	614.094
1572.28	100.969
1576.38	489.766
1580.48	0
