Measurement: Raman, 514 nm, ccw, Raman Data Processed
Mineral: Hardystonite
Rruff sample: R040026
Ideal chemistry: Ca_2_Zn^2+^Si_2_O_7_
Locality: Franklin, Sussex County, New Jersey, USA
Source: University of Arizona Mineral Museum
Description: White massive
Measured chemistry: (Ca_1.98_Mn_0.02_)_Σ=2_(Zn_0.99_Al_0.01_)_Σ=1_(Si_1.99_Al_0.01_)_Σ=2_O_7_
Pin_id: M01345
Orientation: Laser parallel to -a* (-1 0 0). Fiducial mark perpendicular to laser is parallel to -c [0 0 -1]
Raman shift (cm-1)	intensity
131.345	0
136.256	182.719
141.165	681.184
146.072	605.457
150.977	1181.44
155.879	922.785
160.778	1104.11
165.676	1023.4
170.571	849.019
175.464	613.398
180.354	900.012
185.242	633.609
190.128	401.328
195.012	323.336
199.893	544.012
204.772	628.414
209.648	741.812
214.522	738.754
219.394	998.117
224.263	998.867
229.13	1613.26
233.995	1396.43
238.857	2289.54
243.717	2635.33
248.575	2465.67
253.43	2784.88
258.283	2652.77
263.133	2594.12
267.982	3251.64
272.827	3938.76
277.671	4096.77
282.512	4443.91
287.35	3782.15
292.187	3577.12
297.02	3564.84
301.852	3828.3
306.681	4292.15
311.508	4730.26
316.332	4793.68
321.154	3898.18
325.973	2976.61
330.79	1835.87
335.605	1271.91
340.417	1066.62
345.227	931.832
350.034	626.316
354.839	314.027
359.642	458.953
364.442	149.094
369.24	29.8516
374.035	103.371
378.828	94.8125
383.618	13.5625
388.406	190.019
393.192	28.8203
397.975	205.606
402.756	285.414
407.534	152.062
412.31	137.336
417.083	188.625
421.854	51.9844
426.623	85.4453
431.389	158.82
436.152	422.945
440.913	727.586
445.672	919.43
450.428	1324.61
455.182	1824.96
459.933	1851.21
464.682	1851.66
469.428	2769.7
474.172	3444.49
478.913	4200.64
483.652	4649.43
488.389	3861.73
493.122	3144.24
497.854	2272.17
502.583	1746.94
507.309	1527.99
512.033	1044.17
516.755	563.133
521.474	215.125
526.19	343.547
530.904	428.594
535.616	27.0312
540.325	479.375
545.031	765.328
549.735	782.75
554.437	685.797
559.136	351.344
563.832	25.5469
568.526	559.836
573.217	393.18
577.906	1032.59
582.593	1485.95
587.276	2489.08
591.958	3607.33
596.636	5370.38
601.313	8008.56
605.986	14785.4
610.658	28046.7
615.326	36212.4
619.992	28872.2
624.656	18150
629.317	12565.6
633.976	9069.45
638.631	7976.45
643.285	8079.59
647.936	11972
652.584	21914.7
657.23	42686
661.873	68047.4
666.514	67318.3
671.152	45516.5
675.787	27511
680.42	16328
685.051	9234.25
689.678	5444.8
694.304	3747.73
698.926	2592.76
703.546	2004.84
708.164	1394.42
712.779	1392.74
717.391	1001.64
722.001	1144.24
726.608	1073.14
731.213	362.242
735.815	129.352
740.414	442.039
745.011	28.2812
749.606	176.383
754.197	404.156
758.786	264.57
763.373	119.805
767.957	164.633
772.538	185.133
777.117	41.3203
781.693	146.812
786.266	107.031
790.837	172.891
795.405	257.508
799.971	234.016
804.534	166.461
809.095	19.2969
813.652	681.281
818.208	323.477
822.76	370.828
827.31	728.234
831.857	891.133
836.402	911.656
840.944	1625.86
845.484	2170.86
850.021	2457.76
854.555	2557.62
859.086	2807.73
863.615	2488.05
868.141	2980.55
872.665	3213.38
877.186	4603.42
881.704	5858.98
886.22	8536.34
890.733	13369.4
895.244	24572.1
899.751	47466.3
904.257	88863.6
908.759	119301
913.259	92911.8
917.756	50869.1
922.251	27448.1
926.742	16553.4
931.232	11335.2
935.718	8772.26
940.202	8592.48
944.683	7828.91
949.162	6813.14
953.638	5288.31
958.111	4146.05
962.581	3185.34
967.049	3173.47
971.514	3237.82
975.977	3174.56
980.437	4290.48
984.894	5822.17
989.348	9343.25
993.8	14433.5
998.249	18099.1
1002.7	17766.7
1007.14	15755.9
1011.58	11776.7
1016.02	8636.25
1020.45	5836.52
1024.89	4183.45
1029.32	2703.7
1033.74	1323.5
1038.17	1034.52
1042.59	503.141
1047.01	211.625
1051.43	191.406
1055.84	537.516
1060.25	23.8438
1064.66	190.5
1069.07	254.234
1073.47	78.4844
1077.87	43.5625
1082.27	740.469
1086.66	123.094
1091.06	717.641
1095.45	191.797
1099.83	407.828
1104.22	24.9844
1108.6	497.188
1112.98	334.688
1117.36	263.516
1121.73	295.938
1126.1	457.125
1130.47	55.8125
1134.83	932.734
1139.19	653.859
1143.55	202.734
1147.91	296.109
1152.27	227.844
1156.62	324.344
1160.96	1054.98
1165.31	728.781
1169.65	652.25
1173.99	686.078
1178.33	1135.16
1182.67	326.969
1187	940.188
1191.33	1163.59
1195.66	171.766
1199.98	666.844
1204.3	170.547
1208.62	405.469
1212.94	472.766
1217.25	782.141
1221.56	220.422
1225.87	907.719
1230.17	741.328
1234.47	529.969
1238.77	1068.75
1243.07	42.0625
1247.36	667.75
1251.65	655.531
1255.94	6.5625
1260.23	498.531
1264.51	729.922
1268.79	7.60938
1273.07	526.594
1277.34	260.5
1281.61	152
1285.88	620.281
1290.15	490.891
1294.41	651.516
1298.67	191.375
1302.93	17.6719
1307.18	834.094
1311.43	613.078
1315.68	71.5469
1319.93	407
1324.17	410.562
1328.42	1593.03
1332.65	799.594
1336.89	664.656
1341.12	1959.89
1345.35	468
1349.58	311.891
1353.8	466.766
1358.02	79.3906
1362.24	381.172
1366.46	505.109
1370.67	964.844
1374.88	1226.36
1379.09	237.266
1383.29	733.797
1387.49	24.0938
1391.69	764
1395.89	1080.48
1400.08	1042.56
1404.27	275.234
1408.46	684.844
1412.65	914.25
1416.83	884.797
1421.01	372.078
1425.18	818.562
1429.36	845.797
1433.53	693.125
1437.7	511.906
1441.86	669.219
1446.02	677.594
1450.18	1318.45
1454.34	412.734
1458.49	653.031
1462.64	528.312
1466.79	278.578
1470.94	403.938
1475.08	637.609
1479.22	43.0312
1483.36	817.484
1487.49	955.234
1491.62	562.984
1495.75	276.812
1499.88	276.031
1504	299.781
1508.12	1267.34
1512.24	923.875
1516.35	684.297
1520.46	1304.47
1524.57	714.234
1528.68	1388.81
1532.78	1098.38
1536.88	1075.25
1540.98	1366.02
1545.07	603.875
1549.16	976.312
1553.25	652.453
1557.34	766.094
1561.42	333.781
1565.5	460.078
1569.58	957.812
1573.65	316.344
1577.72	251.453
