Measurement: Raman, 514 nm, depolarized, Raman Data Processed
Mineral: Hardystonite
Rruff sample: R040026
Ideal chemistry: Ca_2_Zn^2+^Si_2_O_7_
Locality: Franklin, Sussex County, New Jersey, USA
Source: University of Arizona Mineral Museum
Description: White massive
Measured chemistry: (Ca_1.98_Mn_0.02_)_Σ=2_(Zn_0.99_Al_0.01_)_Σ=1_(Si_1.99_Al_0.01_)_Σ=2_O_7_
Pin_id: M00254
Orientation: Laser parallel to (-1 1 0). Fiducial mark perpendicular to laser is parallel to -c [0 0 -1]
Raman shift (cm-1)	intensity
124.402	0
129.316	222.922
134.229	427.266
139.138	781.758
144.046	1653.86
148.951	1854.72
153.853	2092.2
158.753	1970.51
163.651	1946.99
168.547	2066.21
173.439	1735.56
178.33	2416.59
183.218	2805.86
188.104	2080.98
192.987	1920.47
197.868	1825.82
202.746	1727.34
207.622	1559.69
212.495	1654.36
217.366	1833.89
222.235	2634.46
227.101	2748.26
231.965	2888.38
236.826	3676.84
241.685	3889.62
246.542	4352.69
251.396	5337.95
256.247	5579.7
261.096	6014.36
265.943	6181.56
270.787	7297.88
275.629	8270.2
280.468	9184.71
285.305	9137.77
290.14	8116.91
294.972	7215.19
299.801	6643.26
304.629	7128.8
309.453	8643.85
314.275	9354.07
319.095	9120.21
323.912	7201.05
328.727	4876.43
333.54	3774.27
338.35	2416.41
343.157	2006.8
347.962	1696.27
352.765	1337.69
357.565	891.047
362.362	459.305
367.158	587.453
371.95	261.492
376.741	75.3828
381.528	586.633
386.314	246.188
391.096	213.789
395.877	310.508
400.655	255.727
405.43	166.367
410.203	60.7344
414.974	233.453
419.742	574.094
424.507	364.773
429.27	119.484
434.031	140.984
438.789	510.609
443.545	558.281
448.298	1017.72
453.048	1676.02
457.797	2264.23
462.542	2573.34
467.285	3095.68
472.026	3295.44
476.764	5425.39
481.5	5662.62
486.233	5588.59
490.964	4624.83
495.693	3376.26
500.418	2735.33
505.142	1890.34
509.862	1422.56
514.581	1142.79
519.297	1127.21
524.01	597.531
528.721	924.586
533.429	677.922
538.135	1065.91
542.838	758.578
547.539	1676.93
552.238	1771.27
556.933	1700.38
561.627	1011.6
566.318	539.195
571.006	456.047
575.692	460.914
580.375	483.43
585.056	1348.15
589.734	2421.04
594.41	3624.68
599.084	5261.09
603.754	9023.84
608.423	17941
613.088	31441.2
617.752	33810.6
622.412	23147.6
627.071	14923.8
631.726	11417.8
636.38	8113.81
641.03	7565.77
645.679	9281.53
650.324	14436.5
654.967	27635.1
659.608	51720.7
664.246	70756.3
668.882	56787.2
673.515	36186.6
678.145	22007.2
682.774	13432.7
687.399	7537.75
692.022	4983.17
696.643	3202.23
701.26	2311.73
705.876	1742.34
710.489	1108.39
715.099	1052.72
719.707	796.789
724.312	670.531
728.915	855.234
733.515	34.7422
738.113	632.828
742.708	77.6641
747.301	457.367
751.891	55.0625
756.479	10.3906
761.064	322.977
765.646	205.281
770.226	341.031
774.804	27.3359
779.379	311.32
783.951	131.133
788.521	519.82
793.088	10.4844
797.653	407.672
802.215	811.539
806.775	1184.66
811.332	1860.23
815.887	1378.25
820.439	1452.69
824.988	1278.55
829.535	1447.84
834.08	1461.52
838.621	2510.69
843.161	2839.32
847.698	3040.2
852.232	2791.77
856.763	2643.19
861.293	2954.01
865.819	3232.75
870.343	3297
874.865	3735.29
879.384	4587.82
883.9	6524.17
888.414	10120
892.925	16226.5
897.434	29259.5
901.94	56737.3
906.444	96579.1
910.945	104370
915.443	66627.1
919.939	34668.1
924.433	18940.5
928.923	12297.3
933.412	8174.62
937.897	7422.73
942.381	6485.09
946.861	5482.75
951.339	4356.77
955.815	3390.86
960.288	2103.23
964.758	2281.23
969.226	2605.03
973.691	1687.05
978.154	1557.08
982.614	1992.14
987.071	3632.52
991.526	5380.05
995.979	8378.77
1000.43	9129.86
1004.88	8839.56
1009.32	6853.06
1013.76	4138.81
1018.2	3375.59
1022.64	2451.41
1027.07	2285.77
1031.51	585.062
1035.93	856.969
1040.36	711.016
1044.79	511.281
1049.21	686.906
1053.63	878.719
1058.04	765.75
1062.46	467.984
1066.87	97.375
1071.28	276.438
1075.68	243.562
1080.09	87.3594
1084.49	631.031
1088.88	456.703
1093.28	677.766
1097.67	251.891
1102.07	848.672
1106.45	1289.09
1110.84	820.219
1115.22	129.062
1119.6	535.625
1123.98	1054.89
1128.36	290.953
1132.73	441.812
1137.1	745.484
1141.46	172.906
1145.83	540.828
1150.19	29.5625
1154.55	209.719
1158.91	831.188
1163.26	506.797
1167.62	169.812
1171.96	368.75
1176.31	655.609
1180.65	1059.62
1185	669.344
1189.34	558.828
1193.67	573.656
1198.01	238.125
1202.34	198.703
1206.67	371.156
1210.99	55.875
1215.32	79.2656
1219.64	173.219
1223.95	499.141
1228.27	966.75
1232.58	274.906
1236.89	801.562
1241.2	458.75
1245.51	1069.38
1249.81	1173.73
1254.11	1204.66
1258.41	762.531
1262.7	713.141
1266.99	685.344
1271.29	1275.08
1275.57	784.203
1279.86	1169.89
1284.14	1145.02
1288.42	143.031
1292.69	1077.12
1296.97	701.766
1301.24	656.531
1305.51	670.453
1309.78	727.531
1314.04	979.875
1318.3	1360.52
1322.56	1107.23
1326.82	1285.89
1331.07	1154.39
1335.32	410.203
1339.57	1112.52
1343.81	624.812
1348.06	921.688
1352.3	1210.97
1356.53	732.594
1360.77	1308.61
1365	1286.02
1369.23	1055.86
1373.46	1449.98
1377.68	723.906
1381.91	976.031
1386.12	1743.77
1390.34	930.406
1394.56	872.172
1398.77	1034.69
1402.98	1126.58
1407.18	530.984
1411.39	829.516
1415.59	1202.12
1419.79	447.922
1423.98	677.188
1428.18	1019.5
1432.37	394
1436.56	819.828
1440.74	1103.17
1444.92	1068.42
1449.11	1318.66
1453.28	1421.66
1457.46	1796.12
1461.63	878.984
1465.8	336.094
1469.97	573.984
1474.13	659.375
1478.3	821.359
1482.45	1063.78
1486.61	958.344
1490.77	334.516
1494.92	676.359
1499.07	601.797
1503.21	30.1562
1507.36	331.406
1511.5	924.297
1515.64	341.859
1519.77	403.688
1523.91	338.844
1528.04	1612.53
1532.17	1064.88
1536.29	879.219
1540.41	444.172
1544.54	402
1548.65	920.594
1552.77	1164.77
1556.88	987.562
1560.99	772.469
1565.1	1108.42
1569.2	135.172
1573.3	901.641
1577.4	1103.09
