Measurement: Raman, 514 nm, ccw, Raman Data Processed
Mineral: Hardystonite
Rruff sample: R040026
Ideal chemistry: Ca_2_Zn^2+^Si_2_O_7_
Locality: Franklin, Sussex County, New Jersey, USA
Source: University of Arizona Mineral Museum
Description: White massive
Measured chemistry: (Ca_1.98_Mn_0.02_)_Σ=2_(Zn_0.99_Al_0.01_)_Σ=1_(Si_1.99_Al_0.01_)_Σ=2_O_7_
Pin_id: M01345
Orientation: Laser parallel to -a* (-1 0 0). Fiducial mark perpendicular to laser is parallel to -c [0 0 -1]
Raman shift (cm-1)	intensity
132.573	0
137.484	333.102
142.392	641.406
147.298	830.055
152.202	712.234
157.104	419.938
162.003	363.856
166.9	236.766
171.794	124.938
176.687	253.691
181.576	79.6641
186.464	54.5195
191.349	36.6406
196.232	418.742
201.113	688.594
205.991	972.566
210.867	1878.79
215.74	2679.6
220.611	2838.86
225.48	3310.61
230.347	3507.03
235.211	3771.09
240.073	4212.46
244.932	4516.48
249.789	4184.19
254.644	4122.64
259.496	4188.62
264.346	4196.2
269.193	4373.12
274.038	4352.5
278.881	4066.28
283.722	3800.28
288.56	3172.29
293.395	2807.4
298.228	2535.6
303.059	2294.5
307.888	2521.07
312.714	3128.28
317.538	2549.7
322.359	1894.79
327.178	1289.23
331.994	1078.03
336.808	874.539
341.62	663.512
346.429	366.699
351.236	330.539
356.04	470.344
360.842	41.1133
365.642	325.844
370.439	354.578
375.233	80.3398
380.026	117.606
384.816	70.7305
389.603	81.5859
394.388	85.8867
399.17	135.391
403.951	6.82031
408.728	75.9492
413.503	109.379
418.276	229.09
423.046	32.0039
427.814	497.852
432.58	1513.37
437.343	2862.55
442.103	4358.31
446.861	4333.35
451.617	4194.79
456.37	3268.68
461.12	3272.14
465.869	3828.41
470.614	4574.57
475.357	5723.56
480.098	6965.1
484.836	6538.77
489.572	6263.94
494.306	4775.98
499.036	3709.39
503.765	2552.91
508.491	1831.11
513.214	1441.86
517.935	1083.78
522.653	985.082
527.369	606.309
532.082	477.707
536.793	493.629
541.502	1028.36
546.207	1341.55
550.911	1547.08
555.612	1185.29
560.31	708.172
565.006	433.574
569.699	366.531
574.39	332.445
579.078	634.684
583.764	1055.78
588.447	1817.65
593.128	2918.91
597.806	3668.9
602.481	7478.87
607.154	14655.3
611.825	27335.4
616.493	31458.3
621.159	22399.6
625.822	14903.5
630.482	11157.7
635.14	7920.66
639.795	7439.16
644.448	9044.86
649.098	13509.4
653.746	24674
658.391	47852
663.033	68780.4
667.673	58954.4
672.311	36647.6
676.946	22134.8
681.578	12749.7
686.208	7843.79
690.835	5029.76
695.46	3089.54
700.082	2518.38
704.701	2013.09
709.318	1305.31
713.932	1197.97
718.544	872.531
723.153	443.797
727.76	538.484
732.364	517.75
736.965	27.5625
741.564	36.375
746.16	95.9844
750.754	266.266
755.345	314
759.933	305.867
764.519	29.6875
769.102	46.3594
773.683	43.1406
778.261	269.32
782.836	173.656
787.409	163.711
791.979	325.922
796.547	279.25
801.112	131.867
805.675	151.75
810.234	367.039
814.791	264.148
819.346	778.078
823.898	872.359
828.447	637.352
832.994	1508.66
837.538	1246.1
842.079	1633.52
846.618	2016.61
851.154	2269.78
855.688	1995.19
860.219	2410.41
864.747	2496.62
869.273	2068.95
873.796	2760.87
878.316	3714.66
882.834	5245.62
887.349	7629.44
891.861	12049
896.371	21826
900.878	42506.3
905.382	75955
909.884	89226.6
914.383	60106.3
918.88	31672.1
923.374	17262
927.865	10198.4
932.354	6982.77
936.839	6209.14
941.323	5039.51
945.803	4393.83
950.281	3580.14
954.756	2621.81
959.229	2105.07
963.699	1571.59
968.166	896.961
972.63	1227.84
977.092	1171.48
981.551	896.828
986.008	230.719
990.461	830.562
994.913	567.812
999.361	376.812
1003.81	303.438
1008.25	235.414
1012.69	773.508
1017.13	619.469
1021.56	949.078
1025.99	775.148
1030.42	810.547
1034.85	775.57
1039.28	1003.09
1043.7	1012.73
1048.12	1249.33
1052.53	888.258
1056.95	568.648
1061.36	575.141
1065.76	629.797
1070.17	344.484
1074.57	128.68
1078.97	41.7891
1083.37	280.117
1087.76	312.242
1092.15	415.633
1096.54	101.797
1100.93	387.625
1105.31	1.30469
1109.69	100.688
1114.07	552.805
1118.45	234.859
1122.82	220.531
1127.19	307.227
1131.56	123.086
1135.92	89.5938
1140.28	2.53125
1144.64	72.6484
1149	146.289
1153.35	74.4766
1157.7	90.5859
1162.05	365.719
1166.4	299.469
1170.74	698.273
1175.08	300.578
1179.42	472.469
1183.75	635.406
1188.08	301.844
1192.41	623.203
1196.74	369.797
1201.06	43.3906
1205.38	379.562
1209.7	172.266
1214.01	559.656
1218.33	96.9375
1222.64	148.016
1226.94	542.594
1231.25	1043.92
1235.55	287.406
1239.85	322.547
1244.14	704.688
1248.44	482.062
1252.73	985.75
1257.01	1109.55
1261.3	330.688
1265.58	501.109
1269.86	577.344
1274.14	226.906
1278.41	639.359
1282.68	1020.14
1286.95	242.828
1291.21	798.172
1295.48	473.75
1299.74	327.781
1303.99	132.656
1308.25	104.812
1312.5	469.562
1316.75	64.2344
1320.99	121.141
1325.23	269.5
1329.48	409.719
1333.71	866.922
1337.95	1081.09
1342.18	181.688
1346.41	401.031
1350.63	554.828
1354.86	1119.61
1359.08	962.094
1363.3	394.906
1367.51	1586.89
1371.72	662.031
1375.93	1048.22
1380.14	1197.89
1384.34	1302.59
1388.55	1739.12
1392.74	1433.03
1396.94	723.016
1401.13	655.531
1405.32	896.859
1409.51	576.75
1413.69	752.969
1417.87	86.6875
1422.05	832.516
1426.23	612.719
1430.4	105.688
1434.57	329.922
1438.74	116.078
1442.9	498.906
1447.06	755.5
1451.22	441.188
1455.38	340.422
1459.53	466.109
1463.68	1097.11
1467.83	243.062
1471.97	804.844
1476.12	340.094
1480.26	429.875
1484.39	257.156
1488.53	708.031
1492.66	348.703
1496.78	175.094
1500.91	343.25
1505.03	650.062
1509.15	222.031
1513.27	1428.09
1517.38	889.141
1521.49	403.375
1525.6	1037.25
1529.7	435.453
1533.81	977.031
1537.9	728.781
1542	135.438
1546.09	303.891
1550.18	686.812
1554.27	1510.98
1558.36	758.234
1562.44	808.516
1566.52	427.25
1570.6	679.391
1574.67	657.609
1578.74	0
