Measurement: Raman, 514 nm, depolarized, Raman Data Processed
Mineral: Hardystonite
Rruff sample: R040026
Ideal chemistry: Ca_2_Zn^2+^Si_2_O_7_
Locality: Franklin, Sussex County, New Jersey, USA
Source: University of Arizona Mineral Museum
Description: White massive
Measured chemistry: (Ca_1.98_Mn_0.02_)_Σ=2_(Zn_0.99_Al_0.01_)_Σ=1_(Si_1.99_Al_0.01_)_Σ=2_O_7_
Pin_id: M01345
Orientation: Laser parallel to -a* (-1 0 0). Fiducial mark perpendicular to laser is parallel to -c [0 0 -1]
Raman shift (cm-1)	intensity
133.801	0
138.711	217.943
143.619	420.666
148.525	673.598
153.428	595.068
158.329	607.639
163.227	825.463
168.124	610.816
173.018	425.129
177.909	419.746
182.799	325.508
187.686	420.195
192.57	517.793
197.452	994.445
202.332	1130.01
207.21	1476.8
212.085	966.969
216.958	827.914
221.829	988.887
226.697	891.398
231.563	1326.74
236.426	1793.07
241.288	2589.48
246.146	2897.38
251.003	2963.8
255.857	3477.55
260.709	4103.51
265.558	4946.49
270.405	6037.53
275.249	7216.65
280.092	7412.14
284.931	6990.13
289.769	5933.63
294.604	6048.4
299.436	6624.03
304.267	7390.47
309.095	7852.26
313.92	8421.1
318.743	7264.72
323.564	5438.91
328.382	3566.53
333.198	2619.48
338.011	1815.71
342.822	1331.09
347.631	863.41
352.437	624.484
357.241	502.188
362.042	256.508
366.841	198.445
371.638	23.4102
376.432	89.2109
381.223	40.2148
386.013	110.734
390.799	224.633
395.584	147.324
400.366	238.797
405.145	191.043
409.922	35.2578
414.697	7.45703
419.469	63.4375
424.239	225.195
429.006	469.922
433.771	842.012
438.533	1199.87
443.293	2350.24
448.05	2063.93
452.805	2258.31
457.558	2848.06
462.308	2389.98
467.055	2735.26
471.8	3529.52
476.543	4295.93
481.283	4799.35
486.021	4620.24
490.756	4038.49
495.488	3076.98
500.219	2123.92
504.946	1512.58
509.672	1035.88
514.394	922.309
519.115	286.129
523.832	498.519
528.548	715.918
533.26	521.586
537.97	697.152
542.678	906.426
547.383	910.156
552.086	1012.53
556.786	875.719
561.484	531.391
566.179	266.957
570.872	489.629
575.562	130.199
580.25	809.559
584.935	892.793
589.617	1853.59
594.297	2751.18
598.975	4297.1
603.65	8222.46
608.322	16139.8
612.992	26452.1
617.66	25590.8
622.325	16952.8
626.987	11151.5
631.647	8206.72
636.304	6243.54
640.959	6419.52
645.611	8047.89
650.26	13170.7
654.907	25716.6
659.552	46901.8
664.194	58308.3
668.833	43160.4
673.47	26348.7
678.104	16142.3
682.736	9508.17
687.365	5486.46
691.991	3338.57
696.615	2200.53
701.237	1879.8
705.855	1612.34
710.472	961.801
715.085	925.102
719.696	1039.6
724.305	562.742
728.911	460.051
733.514	465.898
738.115	442.238
742.713	242.031
747.309	278.238
751.902	11.75
756.492	473.266
761.08	277.953
765.665	116.078
770.248	192.461
774.828	267.633
779.405	45.0312
783.98	186.844
788.552	109.57
793.122	13.1875
797.689	277.828
802.253	67.9688
806.815	52.8516
811.374	155.906
815.93	518.438
820.484	524.766
825.035	821.852
829.584	594.734
834.13	1185.58
838.674	1137.58
843.214	1359.88
847.752	1532
852.288	1695.16
856.821	1882.16
861.351	1897.91
865.879	1943.88
870.404	2275.39
874.926	2869.15
879.446	4447
883.963	5430.17
888.477	8039.91
892.989	13966.5
897.498	25931.8
902.004	51635.1
906.508	85716.6
911.009	83883.6
915.508	50552.5
920.004	26098.3
924.497	14612
928.987	9348.77
933.475	6869.78
937.96	6374.44
942.443	6380.9
946.923	4985.58
951.4	3897.7
955.875	2792.32
960.346	2429.67
964.816	1602.78
969.282	1970.92
973.746	1884.72
978.207	1968.04
982.666	2390.59
987.121	4222.37
991.575	6150.26
996.025	8369.52
1000.47	9412.39
1004.92	8851.67
1009.36	6988.73
1013.8	4857.89
1018.24	4117.16
1022.67	2733.09
1027.1	1648.03
1031.53	938.469
1035.96	541.562
1040.38	866.023
1044.8	349.047
1049.22	338.734
1053.64	774.648
1058.05	519.078
1062.46	354.539
1066.87	205.078
1071.27	31.9609
1075.67	139.703
1080.07	274.367
1084.47	426.164
1088.86	663.453
1093.25	170.57
1097.64	34.9219
1102.03	358.914
1106.41	213.812
1110.79	177.562
1115.17	536.109
1119.54	455.07
1123.91	194.797
1128.28	585.227
1132.65	548.32
1137.01	298.977
1141.37	476.344
1145.73	16.3359
1150.09	507.031
1154.44	70.8828
1158.79	506.875
1163.14	197.992
1167.48	245.391
1171.83	647.898
1176.16	582.797
1180.5	913.766
1184.83	683.898
1189.16	434.102
1193.49	102.75
1197.82	228.508
1202.14	290.648
1206.46	203.078
1210.78	475.5
1215.09	253.844
1219.4	353.672
1223.71	470.148
1228.02	772.891
1232.32	907.234
1236.62	147.117
1240.92	154.047
1245.22	610.406
1249.51	814.594
1253.8	78.1094
1258.09	311.438
1262.37	614.867
1266.65	210.344
1270.93	346.797
1275.2	309.016
1279.48	650.594
1283.75	398.766
1288.02	564.875
1292.28	210.094
1296.54	509.984
1300.8	49.7344
1305.06	548.859
1309.31	28.7656
1313.56	20.8594
1317.81	124.078
1322.05	656.703
1326.3	123.688
1330.54	11.5625
1334.77	193.609
1339.01	134.328
1343.24	155.109
1347.46	344.938
1351.69	159.469
1355.91	342.344
1360.13	663.062
1364.35	647.078
1368.57	765.75
1372.78	629.891
1376.98	316.938
1381.19	648.438
1385.39	464.875
1389.6	743.141
1393.79	318.812
1397.99	554.438
1402.18	637.406
1406.37	600.234
1410.55	291.547
1414.74	722.953
1418.92	860.781
1423.1	1029.62
1427.27	471.953
1431.44	1119.11
1435.61	714.922
1439.78	905.312
1443.94	256.453
1448.1	633.281
1452.26	767.359
1456.42	596.344
1460.57	270.094
1464.72	250.078
1468.87	509.984
1473.01	484.5
1477.15	878.016
1481.29	475.766
1485.42	597.266
1489.56	550.969
1493.69	906.547
1497.82	649.281
1501.94	805.891
1506.06	445.766
1510.18	738.844
1514.29	177.172
1518.41	770.312
1522.52	626.5
1526.62	698.641
1530.73	594.141
1534.83	574.281
1538.93	849.25
1543.02	639.328
1547.12	889.844
1551.21	1089.81
1555.29	357.203
1559.38	263.125
1563.46	467.156
1567.54	869.812
1571.61	235.219
1575.69	372.031
