Measurement: Raman, 514 nm, ccw, Raman Data Processed
Mineral: Hardystonite
Rruff sample: R040026
Ideal chemistry: Ca_2_Zn^2+^Si_2_O_7_
Locality: Franklin, Sussex County, New Jersey, USA
Source: University of Arizona Mineral Museum
Description: White massive
Measured chemistry: (Ca_1.98_Mn_0.02_)_Σ=2_(Zn_0.99_Al_0.01_)_Σ=1_(Si_1.99_Al_0.01_)_Σ=2_O_7_
Pin_id: M00254
Orientation: Laser parallel to (-1 1 0). Fiducial mark perpendicular to laser is parallel to -c [0 0 -1]
Raman shift (cm-1)	intensity
124.402	0
129.316	93.2344
134.229	381.277
139.138	901.969
144.046	1191
148.951	1260.87
153.853	719.062
158.753	283.441
163.651	141.938
168.547	94.9492
173.439	412.613
178.33	429.301
183.218	355.906
188.104	207.258
192.987	45.1523
197.868	441.523
202.746	498.852
207.622	882.402
212.495	1604.37
217.366	2832.91
222.235	3762.53
227.101	3485.5
231.965	3627.18
236.826	3818.02
241.685	4264.88
246.542	4868.71
251.396	5075.34
256.247	4955.6
261.096	4777.1
265.943	4506.1
270.787	4643.04
275.629	4397.97
280.468	3744.84
285.305	3231.91
290.14	2601.61
294.972	2413.18
299.801	2257.23
304.629	2222.03
309.453	2131.94
314.275	2603.87
319.095	2413.26
323.912	1965.64
328.727	1543.7
333.54	941.359
338.35	1102.7
343.157	813.383
347.962	768.394
352.765	705.555
357.565	823.809
362.362	449.137
367.158	437.555
371.95	445.082
376.741	6.47266
381.528	556.934
386.314	1005.66
391.096	941.078
395.877	1084
400.655	854.25
405.43	231.492
410.203	79.1676
414.974	150.492
419.742	492.344
424.507	201.301
429.27	269.055
434.031	566.551
438.789	641.191
443.545	886.684
448.298	1164.22
453.048	1629.19
457.797	2006.61
462.542	2398.5
467.285	3581.9
472.026	4579.81
476.764	6296.44
481.5	7340.01
486.233	7261.41
490.964	6088.82
495.693	5106.86
500.418	3439.43
505.142	2739.89
509.862	1933.5
514.581	1536.38
519.297	1243.7
524.01	1016.79
528.721	974.57
533.429	1137.88
538.135	799.203
542.838	1104.21
547.539	1705.5
552.238	1904.05
556.933	1670.53
561.627	807.035
566.318	567.516
571.006	663.094
575.692	441.289
580.375	576.844
585.056	1340.42
589.734	1698.13
594.41	3017.39
599.084	4756.38
603.754	8724.7
608.423	17806.9
613.088	31083.5
617.752	33636.9
622.412	23028.1
627.071	16103.4
631.726	11307.6
636.38	8668.93
641.03	8247.94
645.679	10039.2
650.324	15263.9
654.967	29201.3
659.608	54674.7
664.246	74439.2
668.882	60470.4
673.515	38167.2
678.145	23312.5
682.774	13678.1
687.399	7946.83
692.022	5511.28
696.643	3190.39
701.26	1908.82
705.876	1684.64
710.489	1071.56
715.099	744.266
719.707	581.242
724.312	488.969
728.915	409.812
733.515	645.93
738.113	233.57
742.708	257.234
747.301	266.141
751.891	104.586
756.479	28.5312
761.064	100.922
765.646	504.789
770.226	191.781
774.804	84.9609
779.379	101.211
783.951	45.0781
788.521	5.07812
793.088	310.328
797.653	305.781
802.215	770.477
806.775	2583.03
811.332	3557.73
815.887	2589.72
820.439	1264.77
824.988	1298.81
829.535	1343.73
834.08	1560.66
838.621	3246.66
843.161	5741.81
847.698	5131.24
852.232	3817.71
856.763	3915.34
861.293	3722.19
865.819	3528.32
870.343	3511.45
874.865	3990.94
879.384	4910.68
883.9	6583.73
888.414	10205
892.925	15984.4
897.434	26878.2
901.94	51989.9
906.444	86563.2
910.945	93942.2
915.443	59119.1
919.939	30703.8
924.433	17275
928.923	10278.3
933.412	7722.68
937.897	5442.41
942.381	5087.69
946.861	4214.47
951.339	3761.77
955.815	3296.23
960.288	2451.73
964.758	1568.7
969.226	1058.13
973.691	519.391
978.154	98.5156
982.614	496.484
987.071	184.891
991.526	194.383
995.979	61.25
1000.43	842.273
1004.88	1442.14
1009.32	1883.61
1013.76	1331.8
1018.2	392.766
1022.64	1088
1027.07	1294.2
1031.51	1022.98
1035.93	1255.78
1040.36	1329.78
1044.79	1463.42
1049.21	1353.86
1053.63	1204.22
1058.04	814.539
1062.46	566.703
1066.87	24.4453
1071.28	297.812
1075.68	120.695
1080.09	477.227
1084.49	424.133
1088.88	1058.17
1093.28	498.062
1097.67	761.352
1102.07	1004.24
1106.45	537.93
1110.84	1029.99
1115.22	1036.88
1119.6	512.609
1123.98	792.148
1128.36	663.477
1132.73	556.445
1137.1	342.945
1141.46	664.711
1145.83	192.703
1150.19	646.422
1154.55	153.664
1158.91	411.18
1163.26	542.93
1167.62	589.391
1171.96	256.891
1176.31	465.234
1180.65	705.453
1185	487.562
1189.34	444.469
1193.67	39.7812
1198.01	18.625
1202.34	75.2656
1206.67	108.906
1210.99	313.031
1215.32	265.344
1219.64	175.391
1223.95	1172.73
1228.27	816.016
1232.58	429.531
1236.89	928.297
1241.2	1037.42
1245.51	1261.89
1249.81	1136.14
1254.11	1577.44
1258.41	1186.25
1262.7	1519.31
1266.99	1339.86
1271.29	1504.92
1275.57	890.453
1279.86	1305.53
1284.14	1035.84
1288.42	1174.06
1292.69	1051.89
1296.97	1303.36
1301.24	1214.5
1305.51	1233.31
1309.78	1276.86
1314.04	1283.14
1318.3	1523.22
1322.56	1351.89
1326.82	1469.14
1331.07	1068.59
1335.32	1129.02
1339.57	1278.86
1343.81	1188.75
1348.06	1524.98
1352.3	1565.95
1356.53	1341.11
1360.77	1744.09
1365	2003.81
1369.23	982.562
1373.46	2117.48
1377.68	1183.05
1381.91	1199.25
1386.12	1708.72
1390.34	1651.23
1394.56	1835.66
1398.77	1456.03
1402.98	1267.45
1407.18	1649.97
1411.39	710.656
1415.59	1105.77
1419.79	869.641
1423.98	681.75
1428.18	1015.12
1432.37	957.047
1436.56	1314.69
1440.74	1362.23
1444.92	1450.11
1449.11	1588.3
1453.28	1852.77
1457.46	2293.86
1461.63	1189.61
1465.8	1230.83
1469.97	922.266
1474.13	1227.61
1478.3	1333.88
1482.45	1248
1486.61	899.797
1490.77	691.422
1494.92	39
1499.07	70.5
1503.21	187.922
1507.36	31.1875
1511.5	596.172
1515.64	98.1562
1519.77	987.547
1523.91	1040.67
1528.04	703.844
1532.17	893.125
1536.29	878.5
1540.41	398.781
1544.54	313.688
1548.65	331.609
1552.77	728.531
1556.88	723.344
1560.99	981.391
1565.1	163.969
1569.2	29.1875
1573.3	862.5
1577.4	866.469
