Measurement: Raman, 514 nm, ccw, Raman Data Processed
Mineral: Hausmannite
Rruff sample: R040091
Ideal chemistry: Mn^2+^Mn^3+^_2_O_4_
Locality: Germany
Source: University of Arizona Mineral Museum
Description: Mass of black octahedral crystals
Measured chemistry: (Mn^2+^_0.96_Zn_0.02_Mg_0.02_)Mn^3+^_2.00_O_4_
Pin_id: S00049
Orientation: Laser parallel to a* (1 0 0). Fiducial mark perpendicular to laser is parallel to -c [0 0 -1]
Raman shift (cm-1)	intensity
157.576	0
162.468	115.416
167.359	294.318
172.248	245.438
177.134	157.69
182.018	173.359
186.899	149.223
191.778	401.783
196.655	490.551
201.53	439.002
206.402	335.846
211.273	252.758
216.14	299.961
221.006	197.371
225.869	41.8809
230.73	52.3672
235.589	177.393
240.445	184.113
245.299	44.6504
250.151	168.596
255	124.375
259.847	24.2402
264.692	112.631
269.534	408.543
274.374	529.42
279.212	297.254
284.047	707.57
288.88	953.326
293.711	1215.75
298.539	1862.84
303.365	2658.15
308.189	4688.55
313.01	8109.77
317.829	10923.7
322.645	9637.19
327.46	6378.38
332.271	4047.67
337.081	2745.64
341.888	2134.6
346.693	1721.24
351.495	1584.34
356.295	1834.65
361.093	1888.5
365.888	2189.79
370.681	1855.09
375.471	2077.81
380.259	1478.45
385.045	1151.84
389.828	706.352
394.609	575.836
399.388	211.557
404.164	96.2812
408.938	69.9707
413.709	43.7773
418.478	55.0957
423.244	18.9453
428.008	31.7109
432.77	197.188
437.529	105.111
442.286	101.678
447.04	79.9336
451.792	27.7656
456.542	49.0078
461.289	123.676
466.034	238.846
470.776	530.652
475.516	367.168
480.253	374.424
484.988	313.453
489.721	591.305
494.451	579.01
499.178	585.633
503.903	456.201
508.626	548.742
513.346	596.332
518.064	648.008
522.779	691.969
527.492	849.07
532.203	1000.22
536.911	1079.49
541.616	1239.9
546.319	1297.42
551.02	1452.81
555.718	1537.84
560.413	1743.4
565.106	1721.73
569.797	2107.8
574.485	2030.94
579.171	1680.97
583.854	1288.98
588.534	1001.65
593.213	920.627
597.888	819.356
602.561	941.947
607.232	1124.5
611.9	1361.86
616.566	1663.5
621.229	2143.25
625.89	2639.09
630.548	3517.95
635.204	4704.85
639.857	6227.63
644.507	9323.98
649.155	14438.9
653.801	22176.6
658.444	29612.3
663.084	31252.8
667.722	25900.2
672.358	17496.3
676.991	11019.3
681.621	7232.05
686.249	4764.44
690.874	3217.7
695.497	2304.97
700.117	1756.4
704.735	1243.29
709.35	1198.96
713.963	676.896
718.573	551.373
723.18	727.348
727.785	484.447
732.387	431.092
736.987	512.516
741.584	286.734
746.179	472.535
750.771	379.398
755.361	239.445
759.948	319.711
764.532	53.127
769.114	156.859
773.693	23.3242
778.27	196.834
782.844	140.699
787.415	100.455
791.984	187.016
796.551	108.457
801.115	85.7519
805.676	131.875
810.234	129.316
814.79	236.721
819.344	79.9941
823.895	118.299
828.443	48.5391
832.988	17.5801
837.531	10.5527
842.072	15.4023
846.61	34.9473
851.145	73.1426
855.677	91.1856
860.207	115.168
864.735	88.0312
869.259	98.3906
873.782	109.639
878.301	33.5605
882.818	249.656
887.332	76.9434
891.844	137.576
896.353	133.111
900.859	284.254
905.363	94.3144
909.864	167.385
914.363	274.102
918.858	332.309
923.352	324.986
927.842	238.166
932.33	318.863
936.815	307.078
941.298	340.816
945.778	460.092
950.256	354.91
954.73	493.277
959.202	539.15
963.672	393.398
968.138	514.721
972.603	488.055
977.064	492.236
981.523	545.861
985.979	424.068
990.432	465.498
994.883	300.051
999.331	365.008
1003.78	262.607
1008.22	207.307
1012.66	160.01
1017.1	52.9375
1021.53	72.9941
1025.96	22.7637
1030.39	60.918
1034.82	111.875
1039.24	67.4512
1043.66	219.613
1048.08	116.219
1052.5	159.953
1056.91	367.133
1061.32	400.57
1065.73	476.818
1070.14	284.078
1074.54	485.65
1078.94	258.279
1083.34	348.141
1087.73	369.992
1092.12	342.113
1096.51	476.367
1100.9	492.463
1105.28	332.115
1109.66	385.318
1114.04	283.178
1118.42	402.691
1122.79	471.266
1127.16	490.084
1131.53	669.883
1135.89	676.445
1140.25	726.516
1144.61	507.949
1148.97	396.184
1153.32	434.518
1157.67	435.557
1162.02	543.07
1166.37	407.461
1170.71	352.67
1175.05	124.836
1179.39	377.941
1183.72	199.082
1188.06	261.082
1192.38	134.205
1196.71	111.018
1201.03	196.549
1205.36	160.752
1209.67	150.609
1213.99	19.2344
1218.3	229.701
1222.61	156.435
1226.92	367.51
1231.22	131.096
1235.53	332.062
1239.82	363.791
1244.12	219.31
1248.41	302.295
1252.7	394.867
1256.99	482.01
1261.28	453.701
1265.56	342.947
1269.84	479.727
1274.12	385.016
1278.39	472.795
1282.66	472.102
1286.93	734.945
1291.2	561.133
1295.46	611.609
1299.72	717.002
1303.98	642.422
1308.23	692.186
1312.48	595.512
1316.73	531.736
1320.98	348.752
1325.22	229.266
1329.46	258.701
1333.7	448.824
1337.94	234.393
1342.17	281.598
1346.4	322.932
1350.63	262.906
1354.85	183.299
1359.07	139.631
1363.29	201.637
1367.51	278.647
1371.72	386.844
1375.93	369.15
1380.14	127.25
1384.34	250.772
1388.54	365.117
1392.74	169.315
1396.94	394.221
1401.13	405.318
1405.32	200.42
1409.51	206.58
1413.69	489.607
1417.88	222.373
1422.06	324.566
1426.23	35.9648
1430.41	186.764
1434.58	162.297
1438.74	94.5547
1442.91	242.424
1447.07	46.7266
1451.23	124.627
1455.39	153.184
1459.54	127.582
1463.69	77.668
1467.84	136.728
1471.99	290.201
1476.13	25.3184
1480.27	428.676
1484.41	78.3516
1488.54	117.416
1492.67	147.824
1496.8	237.088
1500.93	242.838
1505.05	89.6191
1509.17	142.065
1513.29	507.588
1517.4	522.709
1521.51	622.078
1525.62	160.834
1529.73	513.635
1533.83	4.58594
1537.93	49.3867
1542.03	124.879
1546.12	521.644
1550.21	562.836
1554.3	696.047
1558.39	245.082
1562.47	616.781
1566.55	124.887
1570.63	217.254
1574.7	12.8984
1578.77	0
