Measurement: Raman, 514 nm, ccw, Raman Data Processed
Mineral: Hausmannite
Rruff sample: R040090
Ideal chemistry: Mn^2+^Mn^3+^_2_O_4_
Locality: Ã–hrenstock, Ilmenau, near Thuringia, Germany
Source: University of Arizona Mineral Museum
Description: Mass of black octahedral crystals
Measured chemistry: (Mn^2+^_0.71_Zn_0.28_)Mn^3+^_2.00_O_4_
Pin_id: M01013
Orientation: Laser parallel to a* (1 0 0). Fiducial mark perpendicular to laser is parallel to c [0 0 1]
Raman shift (cm-1)	intensity
127.403	0
132.312	76.4058
137.22	159.67
142.124	103.716
147.027	84.5444
151.927	100.897
156.826	7.60083
161.721	33.5781
166.615	114.064
171.507	131.714
176.396	285.386
181.283	239.207
186.167	198.322
191.05	158.508
195.93	230.576
200.808	188.66
205.683	151.316
210.557	129.254
215.428	99.5996
220.296	117.392
225.163	114.751
230.027	15.4823
234.889	2.41809
239.749	0.474121
244.606	70.7959
249.461	33.2424
254.314	172.698
259.164	46.6852
264.012	37.6313
268.858	152.206
273.702	179.854
278.543	220.65
283.382	368.477
288.218	536.887
293.053	717.732
297.885	746.75
302.714	860.139
307.542	1359.56
312.366	2042
317.189	2838.26
322.009	2974.95
326.827	1985.76
331.643	1314.67
336.456	1094.49
341.267	856.547
346.076	804.252
350.882	786.244
355.686	923.415
360.488	1128.75
365.287	1373.18
370.084	1643.54
374.878	1484.22
379.67	1309.9
384.46	803.364
389.247	529.878
394.032	401.983
398.815	168.067
403.595	55.6221
408.373	19.668
413.148	34.7134
417.922	44.6726
422.692	37.135
427.461	55.0706
432.226	69.3958
436.99	66.9844
441.751	24.9839
446.51	3.6831
451.266	8.70679
456.02	21.4439
460.772	16.196
465.521	133.162
470.267	213.56
475.012	296.045
479.754	355.656
484.493	322.689
489.23	228.348
493.965	249.467
498.697	270.797
503.427	375.825
508.154	366.167
512.879	424.232
517.601	313.606
522.321	287.392
527.039	316.645
531.754	311.45
536.467	334.686
541.177	419.265
545.885	443.797
550.59	611.345
555.293	785.852
559.993	1055.07
564.691	1247.43
569.387	1384.06
574.08	1376.75
578.77	1223.14
583.459	1269.86
588.144	1167.7
592.827	1156.73
597.508	1198.88
602.186	1207.3
606.862	1376.29
611.535	1772.86
616.206	2097.95
620.874	2650.64
625.54	3302.84
630.204	3871.52
634.864	4802.71
639.523	6142.36
644.179	8349.47
648.832	11884
653.483	17120.1
658.131	23404.5
662.777	26280.5
667.42	23720.2
672.061	17407.8
676.699	11346.5
681.335	7322.03
685.968	4779.01
690.599	3321.64
695.227	2376.35
699.853	1724.79
704.476	1248.18
709.097	1121.27
713.715	844.25
718.331	709.506
722.944	672.216
727.554	566.753
732.162	475.137
736.768	403.042
741.371	367.995
745.971	439.131
750.569	353.531
755.164	339.133
759.757	317.602
764.347	239.062
768.935	255.66
773.52	157.342
778.103	165.965
782.683	123.603
787.26	173.242
791.835	58.8586
796.407	31.4331
800.977	74.9512
805.544	50.3943
810.109	22.2786
814.671	51.9209
819.23	2.01343
823.787	8.98901
828.341	52.177
832.893	19.6282
837.442	73.4819
841.989	6.95361
846.533	15.1963
851.074	56.0554
855.613	2.98218
860.149	23.4539
864.683	36.5227
869.214	72.2002
873.742	4.55884
878.268	7.36304
882.791	42.1602
887.312	25.3235
891.83	10.2788
896.345	126.864
900.858	132.24
905.368	165.431
909.876	116.906
914.381	128.914
918.883	156.708
923.383	135.559
927.88	196.357
932.374	124.825
936.866	168.962
941.355	144.441
945.842	174.944
950.326	145.842
954.807	250.044
959.286	216.062
963.762	245.728
968.235	199.499
972.706	264.304
977.174	182.924
981.64	250.903
986.103	260.219
990.563	229.947
995.021	203.765
999.476	186.393
1003.93	246.862
1008.38	97.3684
1012.83	150.321
1017.27	34.6382
1021.71	11.9885
1026.15	35.3999
1030.59	65.3521
1035.02	14.8931
1039.45	2.4187
1043.88	25.0142
1048.31	0.700928
1052.73	17.4482
1057.15	44.7383
1061.57	20.9011
1065.98	40.0527
1070.39	49.2041
1074.8	21.3704
1079.21	17.4299
1083.62	9.20679
1088.02	10.9548
1092.41	42.3352
1096.81	13.6929
1101.2	67.179
1105.6	68.9204
1109.98	63.9424
1114.37	137.151
1118.75	182.613
1123.13	207.406
1127.51	293.5
1131.88	304.902
1136.26	369.649
1140.63	370.74
1144.99	407.122
1149.36	438.784
1153.72	367.708
1158.08	361.706
1162.43	411.867
1166.79	364.245
1171.14	392.253
1175.48	361.238
1179.83	354.731
1184.17	329.609
1188.51	321.743
1192.85	353.245
1197.18	316.17
1201.51	326.082
1205.84	303.4
1210.17	305.009
1214.49	281.734
1218.81	299.434
1223.13	359.907
1227.44	361.712
1231.76	406.712
1236.07	375.97
1240.37	396.487
1244.68	329.262
1248.98	362.316
1253.28	356.62
1257.57	363.164
1261.87	427.94
1266.16	444.94
1270.44	422.291
1274.73	473.723
1279.01	462.36
1283.29	475.655
1287.57	499.392
1291.84	514.975
1296.11	615.065
1300.38	603.871
1304.65	577.5
1308.91	606.55
1313.17	592.687
1317.43	520.799
1321.68	443.071
1325.93	427.188
1330.18	363.433
1334.43	380.912
1338.67	311.74
1342.91	206.429
1347.15	200.187
1351.39	227.65
1355.62	211.717
1359.85	144.512
1364.08	97.3735
1368.3	139.801
1372.52	95.1128
1376.74	125.924
1380.95	71.0208
1385.17	118.059
1389.38	90.8696
1393.59	108.765
1397.79	1.7439
1401.99	137.658
1406.19	70.1521
1410.39	68.3975
1414.58	56.5863
1418.77	6.35388
1422.96	15.3495
1427.14	32.9825
1431.33	10.7704
1435.51	1.92004
1439.68	7.05969
1443.86	5.00854
1448.03	14.6434
1452.2	29.8464
1456.36	31.1233
1460.53	22.0176
1464.68	17.2125
1468.84	65.5664
1473	57.3567
1477.15	20.1044
1481.3	75.7794
1485.44	92.3795
1489.59	73.7566
1493.73	122.975
1497.86	36.3589
1502	65.2264
1506.13	81.6333
1510.26	92.077
1514.38	126.89
1518.51	117.007
1522.63	102.812
1526.75	141.896
1530.86	70.0886
1534.97	150.069
1539.08	96.2671
1543.19	105.856
1547.29	108.948
1551.39	49.7849
1555.49	61.7479
1559.59	51.4735
1563.68	18.5706
1567.77	75.2976
1571.85	77.823
1575.94	0.568359
