Measurement: Raman, 514 nm, ccw, Raman Data Processed
Mineral: Hausmannite
Rruff sample: R060512
Ideal chemistry: Mn^2+^Mn^3+^_2_O_4_
Locality: N'Chwaning II mine, Kalahari manganese field, northern Cape Province, Republic of South Africa
Source: Michael Scott
Description: Group of black pseudo-octahedra with striations parallel to the (001) plane
Measured chemistry: Mn^2+^_0.99_Mn^3+^_1.98_O_4_
Pin_id: M00870
Orientation: Laser parallel to c* (0 0 1). Fiducial mark perpendicular to laser is parallel to a [1 0 0]
Raman shift (cm-1)	intensity
149.97	0
154.891	187.736
159.809	253.31
164.724	372.016
169.637	376.831
174.547	367.009
179.454	338.343
184.359	381.316
189.261	334.375
194.16	501.776
199.056	357.344
203.95	301.115
208.841	235.144
213.729	353.328
218.614	469.417
223.497	389.728
228.377	307.216
233.254	169.578
238.129	175.25
243.001	87.458
247.87	137.062
252.737	97.0264
257.6	16.6064
262.461	11.9932
267.32	100.744
272.175	56.4072
277.028	82.9482
281.879	27.8701
286.726	117.353
291.571	164.237
296.413	88.3359
301.252	86.9199
306.089	411.522
310.923	869.592
315.755	1736.8
320.583	1612.5
325.409	807.8
330.232	441.577
335.053	224.762
339.871	292.332
344.686	386.316
349.498	429.687
354.308	471.299
359.115	816.023
363.92	1231.84
368.721	1365.98
373.52	1111.75
378.317	589.432
383.111	253.783
387.902	47.7764
392.69	131.057
397.475	73.584
402.258	93.8701
407.039	31.6709
411.816	86.6094
416.591	44.1191
421.364	104.144
426.133	42.9853
430.9	44.2139
435.664	35.959
440.426	10.7695
445.185	15.165
449.941	70.1836
454.695	154.594
459.445	42.3457
464.194	97.6465
468.939	127.531
473.682	182.03
478.423	64.3037
483.16	311.022
487.895	364.264
492.627	280.642
497.357	285.418
502.084	338.353
506.808	488.159
511.53	481.872
516.249	621.529
520.965	507.479
525.679	840.651
530.39	683.698
535.098	795.636
539.804	727.656
544.507	838.657
549.208	1038.91
553.906	999.077
558.601	1113.95
563.293	1165.17
567.983	1279.35
572.671	1179.71
577.355	988.895
582.037	606.742
586.717	270.005
591.393	40.3838
596.067	17.4121
600.739	125.12
605.408	216.447
610.074	390.137
614.737	755.212
619.398	1201.69
624.057	1237.55
628.712	1605.91
633.365	2414.65
638.016	3753.75
642.664	6658.19
647.309	12865
651.951	27544.1
656.591	46542.7
661.229	38959.5
665.863	20326.7
670.495	9736.32
675.125	5295.36
679.752	3048.76
684.376	1984.56
688.998	1385.7
693.617	889.686
698.233	739.172
702.847	476.141
707.458	364.978
712.066	456.478
716.672	526.953
721.276	364.326
725.877	490.8
730.475	370.331
735.07	486.19
739.663	368.235
744.254	385.658
748.841	289.745
753.426	422.299
758.009	310.688
762.589	338.856
767.166	310.961
771.741	312.981
776.313	231.977
780.883	0.944336
785.45	255.884
790.014	62.0498
794.576	110.889
799.135	137.695
803.692	196.837
808.246	2.32129
812.797	126.186
817.346	130.571
821.893	24.7939
826.436	37.251
830.977	46.4629
835.516	0.112305
840.052	32.8193
844.585	118.424
849.116	6.47852
853.645	49.8125
858.17	140.489
862.693	54.2988
867.214	10.3027
871.732	344.46
876.247	168.98
880.76	133.124
885.27	130.802
889.778	73.042
894.283	53.0381
898.786	3.07227
903.286	66.71
907.783	98.9111
912.278	88.2002
916.77	151.023
921.26	44.4404
925.747	169.281
930.232	140.727
934.714	76.0801
939.193	49.1133
943.67	272.853
948.145	155.189
952.617	276.2
957.086	289.961
961.553	254.156
966.017	253.294
970.479	250.906
974.938	331.945
979.394	210.855
983.848	184.692
988.3	267.714
992.749	299.536
997.195	161.844
1001.64	148.163
1006.08	205.051
1010.52	202.92
1014.96	167.365
1019.39	22.0938
1023.82	11.3828
1028.25	64.1416
1032.67	0.979492
1037.1	10.0527
1041.52	125.623
1045.94	37.54
1050.35	67.0547
1054.77	25.0557
1059.18	127.899
1063.59	11.8867
1067.99	50.3848
1072.4	55.125
1076.8	84.0996
1081.19	130.088
1085.59	113.199
1089.98	150.221
1094.38	123.413
1098.76	61.7598
1103.15	95.292
1107.53	198.013
1111.91	333.902
1116.29	354.109
1120.67	572.695
1125.04	547.6
1129.41	634.751
1133.78	641.211
1138.14	589.005
1142.51	510.143
1146.87	511.473
1151.23	496.106
1155.58	496.008
1159.93	503.034
1164.29	352.411
1168.63	395.191
1172.98	272.695
1177.32	330.755
1181.66	381.848
1186	218.049
1190.34	177.678
1194.67	186.686
1199	178.665
1203.33	163.916
1207.65	182.324
1211.98	182.58
1216.3	215.955
1220.62	160.594
1224.93	276.728
1229.24	304.646
1233.56	296.838
1237.86	240.304
1242.17	397.047
1246.47	361.097
1250.77	412.365
1255.07	476.884
1259.37	304.7
1263.66	437.066
1267.95	301.986
1272.24	414.57
1276.53	349.461
1280.81	460.503
1285.09	583.785
1289.37	478.315
1293.64	642.894
1297.92	596.602
1302.19	632.718
1306.46	512.488
1310.72	576.86
1314.99	388.014
1319.25	465.062
1323.51	182.28
1327.76	236.606
1332.02	240.337
1336.27	264.008
1340.52	169.079
1344.76	147.305
1349.01	140.476
1353.25	279.812
1357.49	157.421
1361.72	101.218
1365.96	198.986
1370.19	2.90527
1374.42	13.8145
1378.64	65.4473
1382.87	102.087
1387.09	5.36328
1391.31	15.0107
1395.53	26.3057
1399.74	37.2353
1403.95	54.0537
1408.16	45.1787
1412.37	31.7559
1416.58	119.04
1420.78	61.5772
1424.98	4.41602
1429.18	164.397
1433.37	54.9512
1437.56	24.4424
1441.75	41.332
1445.94	78.3203
1450.13	135.022
1454.31	90.2109
1458.49	32.5478
1462.67	160.533
1466.84	92.8018
1471.02	181.116
1475.19	208.392
1479.36	118.857
1483.52	148.272
1487.68	54.3584
1491.85	37.3701
1496	140.477
1500.16	77.2783
1504.31	118.283
1508.46	54.8066
1512.61	54.8721
1516.76	8.81836
1520.9	198.026
1525.05	149.903
1529.18	98.1875
1533.32	91.7578
1537.45	88.4326
1541.59	147.196
1545.72	141.236
1549.84	143.614
1553.97	337.101
1558.09	134.912
1562.21	22.624
1566.33	104.142
1570.44	127.327
1574.56	102.035
