Measurement: Raman, 514 nm, ccw, Raman Data Processed
Mineral: Hausmannite
Rruff sample: R060512
Ideal chemistry: Mn^2+^Mn^3+^_2_O_4_
Locality: N'Chwaning II mine, Kalahari manganese field, northern Cape Province, Republic of South Africa
Source: Michael Scott
Description: Group of black pseudo-octahedra with striations parallel to the (001) plane
Measured chemistry: Mn^2+^_0.99_Mn^3+^_1.98_O_4_
Pin_id: M01995
Orientation: Laser parallel to a* (1 0 0). Fiducial mark perpendicular to laser is parallel to -c [0 0 -1]
Raman shift (cm-1)	intensity
143.815	0
148.739	276.768
153.661	146.871
158.58	228.918
163.496	794.219
168.409	999.867
173.32	815.391
178.228	677.041
183.133	714.846
188.035	969.211
192.935	1494.08
197.832	1947.06
202.727	1850.08
207.618	1023.96
212.507	539.434
217.393	508.871
222.277	272.147
227.157	218.154
232.035	62.7051
236.911	340.451
241.783	152.318
246.653	64.0547
251.52	184.551
256.385	3.04688
261.246	81.6035
266.105	7.23828
270.962	192.633
275.815	21.2324
280.666	98.8672
285.514	381.934
290.36	456.629
295.203	519.551
300.043	426.135
304.88	683.967
309.715	753.529
314.547	1135.56
319.376	1573.85
324.203	1452.16
329.027	963.67
333.848	439.282
338.667	241.22
343.482	303.771
348.296	206.478
353.106	123.811
357.914	125.908
362.719	343.42
367.521	481.217
372.321	307.69
377.118	284.501
381.912	147.541
386.704	38.498
391.493	8.25
396.279	70.1426
401.063	249
405.844	170.959
410.622	57.3262
415.398	0.894531
420.171	42.3711
424.941	130.973
429.709	180.523
434.473	425.506
439.236	332.49
443.995	524.729
448.752	689.775
453.506	680.209
458.258	838.34
463.007	1052.23
467.753	1023.01
472.497	1347.67
477.238	1386.28
481.976	1824.84
486.712	2266.65
491.445	2381.12
496.175	2849.46
500.902	3280.77
505.627	3083.14
510.35	3344.56
515.069	3784.92
519.786	3985.73
524.501	4269.65
529.213	4816.65
533.922	4739.29
538.628	4478.39
543.332	5076.03
548.033	5335.3
552.731	5676.46
557.427	6299.35
562.121	6548.03
566.811	6674.62
571.499	6529.13
576.184	5913.71
580.867	3896.05
585.547	1917.28
590.224	770.195
594.899	441.92
599.571	450.129
604.241	669.467
608.908	797.072
613.572	980.664
618.233	1400.29
622.892	1746.47
627.549	2012.31
632.202	2985.61
636.853	4155.92
641.502	5843.54
646.148	9377.52
650.791	13479.3
655.432	20027.3
660.069	25196.5
664.705	23811.1
669.338	17147
673.968	10822.5
678.595	6725.43
683.22	4261.48
687.842	2884.74
692.462	2150.85
697.079	1374.88
701.694	1129.59
706.305	832.117
710.915	668.465
715.521	285.266
720.125	354.74
724.727	146.248
729.325	126.82
733.922	257.223
738.515	92.7031
743.106	31.4473
747.695	101.983
752.28	69.0244
756.864	142.08
761.444	62.127
766.022	137.207
770.598	156.007
775.17	36.627
779.741	90.5957
784.308	27.2236
788.873	97.541
793.436	207.061
797.996	30.0596
802.553	19.1436
807.108	169.662
811.66	67.5234
816.209	16.3115
820.756	63.9629
825.301	41.4258
829.842	122.262
834.382	30.4756
838.918	6.49609
843.452	21.8486
847.984	163.307
852.513	56.4932
857.039	106.445
861.563	151.91
866.084	92.0938
870.603	6.66211
875.119	166.71
879.632	72.667
884.143	282.197
888.651	172.191
893.157	37.2158
897.66	137.117
902.161	224.315
906.659	268.427
911.154	251.999
915.647	216.885
920.138	91.3438
924.626	16.5
929.111	254.123
933.594	167.53
938.074	10.541
942.551	239.218
947.026	252.298
951.499	274.031
955.969	141.074
960.436	226.381
964.901	121.523
969.363	87.8877
973.823	184.83
978.28	252.885
982.735	216.2
987.187	275.442
991.637	239.307
996.084	158.107
1000.53	113.12
1004.97	42.4492
1009.41	92.6826
1013.85	28.8193
1018.28	153.649
1022.71	35.7266
1027.14	41.6172
1031.57	51.791
1035.99	45.9629
1040.41	9.32715
1044.83	57.0703
1049.25	124.526
1053.66	151.797
1058.08	72.0449
1062.48	100.1
1066.89	95.4219
1071.3	164.291
1075.7	119.033
1080.1	154.272
1084.49	90.1836
1088.89	152.182
1093.28	52.2656
1097.67	172.674
1102.05	77.2305
1106.44	76.1211
1110.82	273.408
1115.2	127.965
1119.57	129.791
1123.95	244.914
1128.32	375.728
1132.69	82.0449
1137.05	295.34
1141.42	238.209
1145.78	465.428
1150.14	386.01
1154.49	184.777
1158.85	156.961
1163.2	297.869
1167.55	176.449
1171.89	286.975
1176.24	102.537
1180.58	197.709
1184.92	266.574
1189.25	146.842
1193.59	315.535
1197.92	194.676
1202.25	218.221
1206.57	154.176
1210.9	64.5137
1215.22	189.221
1219.54	238.266
1223.85	244.576
1228.17	248.197
1232.48	151.152
1236.79	250.435
1241.09	197.045
1245.4	120.973
1249.7	280.211
1254	346.762
1258.29	249.43
1262.59	312.32
1266.88	305.387
1271.17	329.111
1275.45	425.731
1279.74	246.477
1284.02	390.971
1288.3	321.873
1292.58	346.58
1296.85	284.791
1301.12	480.908
1305.39	458.666
1309.66	254.062
1313.92	321.244
1318.18	245.633
1322.44	332.728
1326.7	176.102
1330.95	399.828
1335.2	340.967
1339.45	52.0195
1343.7	212.416
1347.95	272.768
1352.19	125.965
1356.43	132.725
1360.66	144.869
1364.9	39.8574
1369.13	232.902
1373.36	281.948
1377.59	51.918
1381.81	26.7578
1386.04	50.5352
1390.26	46.0938
1394.47	248.565
1398.69	118.022
1402.9	4.82812
1407.11	38.2051
1411.32	82.2529
1415.53	112.867
1419.73	24.8711
1423.93	65.6846
1428.13	256.65
1432.32	25.1787
1436.52	34.7803
1440.71	118.972
1444.89	96.3447
1449.08	79.6514
1453.26	177.73
1457.44	198.163
1461.62	122.238
1465.8	40.3828
1469.97	179.636
1474.14	233.084
1478.31	195.216
1482.48	182.56
1486.64	99.6328
1490.81	250.906
1494.96	233.27
1499.12	232.602
1503.28	155.578
1507.43	245.11
1511.58	117.791
1515.72	194.812
1519.87	237.481
1524.01	96.0166
1528.15	4.04785
1532.29	122.925
1536.42	73.4043
1540.55	84.5
1544.68	160.804
1548.81	232.903
1552.94	588.807
1557.06	175.044
1561.18	5.73047
1565.3	60.8281
1569.41	92.7373
1573.53	94.3711
1577.64	0
