Measurement: Raman, 514 nm, ccw, Raman Data Processed
Mineral: Hausmannite
Rruff sample: R040090
Ideal chemistry: Mn^2+^Mn^3+^_2_O_4_
Locality: Ã–hrenstock, Ilmenau, near Thuringia, Germany
Source: University of Arizona Mineral Museum
Description: Mass of black octahedral crystals
Measured chemistry: (Mn^2+^_0.71_Zn_0.28_)Mn^3+^_2.00_O_4_
Pin_id: M01013
Orientation: Laser parallel to a* (1 0 0). Fiducial mark perpendicular to laser is parallel to c [0 0 1]
Raman shift (cm-1)	intensity
127.403	0
132.312	70.2051
137.22	108.291
142.124	51.8792
147.027	126.439
151.927	55.9929
156.826	28.5754
161.721	184.244
166.615	109.756
171.507	139.53
176.396	253.171
181.283	204.677
186.167	167.13
191.05	171.198
195.93	144.454
200.808	148.607
205.683	107.992
210.557	35.2029
215.428	27.5916
220.296	114.167
225.163	2.29394
230.027	18.773
234.889	36.3247
239.749	32.9309
244.606	56.5574
249.461	97.165
254.314	179.403
259.164	61.5029
264.012	98.7798
268.858	111.453
273.702	67.7578
278.543	127.111
283.382	231.688
288.218	424.146
293.053	555.75
297.885	723.16
302.714	966.92
307.542	1709.71
312.366	2531.68
317.189	3441.13
322.009	3544.97
326.827	2556.62
331.643	1684.75
336.456	1362.18
341.267	1222.58
346.076	1235.65
350.882	1343.65
355.686	1604.16
360.488	2169.25
365.287	2687.72
370.084	3271.63
374.878	3361.07
379.67	2920.95
384.46	1943.73
389.247	1187.31
394.032	702.499
398.815	511.304
403.595	246.076
408.373	118.773
413.148	9.63257
417.922	11.0398
422.692	12.8118
427.461	18.8179
432.226	0.282715
436.99	15.2197
441.751	76.1746
446.51	81.718
451.266	120.822
456.02	46.6148
460.772	31.8416
465.521	4.26514
470.267	51.2852
475.012	61.8745
479.754	122.532
484.493	81.5999
489.23	125.153
493.965	129.162
498.697	153.34
503.427	249.713
508.154	233.309
512.879	255.157
517.601	255.39
522.321	385.988
527.039	364.913
531.754	371.211
536.467	342.825
541.177	422.723
545.885	510.914
550.59	566.5
555.293	797.532
559.993	923.606
564.691	951.652
569.387	1040.16
574.08	1185.01
578.77	1309.84
583.459	1305.08
588.144	1261.05
592.827	1287.35
597.508	1322.99
602.186	1542.77
606.862	1778
611.535	2208.86
616.206	2697.34
620.874	3514.43
625.54	4278.09
630.204	5310.28
634.864	7046.02
639.523	9001.29
644.179	12434.2
648.832	18598.3
653.483	28116.5
658.131	38906
662.777	43478
667.42	37076.6
672.061	25065.6
676.699	15747.1
681.335	9721.05
685.968	6276.76
690.599	4060.87
695.227	2992.84
699.853	2160.9
704.476	1734.83
709.097	1291.77
713.715	1164.83
718.331	1029.43
722.944	870.587
727.554	812.103
732.162	795.57
736.768	721.44
741.371	716.61
745.971	666.949
750.569	580.625
755.164	680.269
759.757	486.33
764.347	454.504
768.935	381.83
773.52	347.189
778.103	376.748
782.683	309.411
787.26	249.899
791.835	185.063
796.407	146.758
800.977	136.468
805.544	164.077
810.109	75.7556
814.671	100.39
819.23	94.9673
823.787	12.4475
828.341	53.2048
832.893	4.9165
837.442	45.8108
841.989	38.4946
846.533	22.2036
851.074	46.417
855.613	0.829834
860.149	10.3987
864.683	57.2627
869.214	30.9121
873.742	32.2466
878.268	10.7822
882.791	43.2532
887.312	5.70776
891.83	6.1355
896.345	68.5627
900.858	35.979
905.368	121.529
909.876	40.6201
914.381	2.52563
918.883	46.863
923.383	81.4937
927.88	142.846
932.374	188.1
936.866	118.965
941.355	167.121
945.842	135.895
950.326	190.741
954.807	241.774
959.286	307.404
963.762	248.102
968.235	259.696
972.706	312.099
977.174	291.614
981.64	326.25
986.103	266.415
990.563	250.819
995.021	226.21
999.476	233.315
1003.93	192.542
1008.38	185.668
1012.83	176.155
1017.27	66.1587
1021.71	63.9766
1026.15	30.7915
1030.59	5.93384
1035.02	24.3025
1039.45	19.9854
1043.88	6.99927
1048.31	25.3852
1052.73	39.3376
1057.15	45.5686
1061.57	53.9294
1065.98	6.4978
1070.39	12.0288
1074.8	18.6291
1079.21	40.1311
1083.62	3.39233
1088.02	22.1609
1092.41	75.7415
1096.81	74.3994
1101.2	103.177
1105.6	60.0881
1109.98	152.127
1114.37	220.413
1118.75	335.983
1123.13	394.848
1127.51	479.99
1131.88	492.383
1136.26	615.467
1140.63	629.796
1144.99	607.482
1149.36	609.469
1153.72	713.748
1158.08	610.309
1162.43	550.873
1166.79	541.394
1171.14	554.94
1175.48	513.851
1179.83	492.239
1184.17	509.953
1188.51	525.747
1192.85	411.139
1197.18	490.368
1201.51	391.325
1205.84	421.766
1210.17	466.575
1214.49	471.303
1218.81	468.823
1223.13	413.644
1227.44	476.837
1231.76	506.355
1236.07	540.215
1240.37	548.391
1244.68	478.89
1248.98	486.302
1253.28	542.849
1257.57	574.289
1261.87	605.028
1266.16	700.592
1270.44	623.344
1274.73	752.9
1279.01	695.71
1283.29	736.398
1287.57	709.869
1291.84	791.987
1296.11	848.674
1300.38	875.459
1304.65	853.885
1308.91	841.913
1313.17	734.169
1317.43	730.408
1321.68	651.551
1325.93	624.644
1330.18	591.357
1334.43	513.597
1338.67	463.348
1342.91	372.555
1347.15	326.12
1351.39	286.035
1355.62	199.858
1359.85	210.704
1364.08	172.931
1368.3	204.572
1372.52	181.481
1376.74	148.18
1380.95	125.874
1385.17	138.37
1389.38	114.477
1393.59	85.3928
1397.79	51.4402
1401.99	66.5188
1406.19	19.1907
1410.39	23.9954
1414.58	16.0373
1418.77	54.2915
1422.96	23.8191
1427.14	28.1006
1431.33	7.84814
1435.51	34.0029
1439.68	42.498
1443.86	67.9187
1448.03	57.1238
1452.2	31.5161
1456.36	5.74927
1460.53	7.34839
1464.68	23.9741
1468.84	57.2383
1473	60.454
1477.15	6.62646
1481.3	127.737
1485.44	69.8113
1489.59	103.895
1493.73	94.103
1497.86	91.1242
1502	107.065
1506.13	154.524
1510.26	72.2069
1514.38	130.362
1518.51	74.8661
1522.63	72.3313
1526.75	81.7579
1530.86	133.618
1534.97	131.304
1539.08	73.8427
1543.19	120.748
1547.29	96.5846
1551.39	104.493
1555.49	77.0758
1559.59	13.9109
1563.68	62.1979
1567.77	41.4634
1571.85	21.21
1575.94	29.9539
