Measurement: Raman, 514 nm, ccw, Raman Data Processed
Mineral: Hausmannite
Rruff sample: R040090
Ideal chemistry: Mn^2+^Mn^3+^_2_O_4_
Locality: Ã–hrenstock, Ilmenau, near Thuringia, Germany
Source: University of Arizona Mineral Museum
Description: Mass of black octahedral crystals
Measured chemistry: (Mn^2+^_0.71_Zn_0.28_)Mn^3+^_2.00_O_4_
Pin_id: M01013
Orientation: Laser parallel to a* (1 0 0). Fiducial mark perpendicular to laser is parallel to c [0 0 1]
Raman shift (cm-1)	intensity
127.403	0
132.312	45.2502
137.22	48.957
142.124	100.305
147.027	163.791
151.927	59.7961
156.826	106.334
161.721	180.056
166.615	119.934
171.507	201.378
176.396	274.378
181.283	245.184
186.167	341.135
191.05	249.956
195.93	288.432
200.808	233.633
205.683	299.399
210.557	136.398
215.428	166.777
220.296	99.8311
225.163	26.4439
230.027	12.511
234.889	41.9043
239.749	46.6382
244.606	45.6836
249.461	106.998
254.314	114.265
259.164	24.1963
264.012	29.1982
268.858	157.945
273.702	224.731
278.543	195.55
283.382	388.552
288.218	642.98
293.053	682.512
297.885	652.136
302.714	692.5
307.542	1074.68
312.366	1458.73
317.189	2009.42
322.009	1969.36
326.827	1434.18
331.643	925.595
336.456	617.207
341.267	496.467
346.076	480.421
350.882	446.014
355.686	427.81
360.488	498.783
365.287	557.638
370.084	624.384
374.878	696.349
379.67	562.489
384.46	297.557
389.247	285.687
394.032	192.583
398.815	77.5095
403.595	52.1917
408.373	19.4885
413.148	10.5537
417.922	62.8355
422.692	104.609
427.461	79.7971
432.226	53.5017
436.99	24.241
441.751	5.36987
446.51	6.76978
451.266	137.71
456.02	55.6497
460.772	259.614
465.521	246.625
470.267	334.708
475.012	465.892
479.754	443.205
484.493	479.663
489.23	454.279
493.965	490.067
498.697	523.044
503.427	524.229
508.154	697.648
512.879	719.335
517.601	665.373
522.321	689.794
527.039	591.661
531.754	496.901
536.467	493.927
541.177	598.748
545.885	527.619
550.59	672.33
555.293	783.46
559.993	910.882
564.691	1084.19
569.387	1367.01
574.08	1574.3
578.77	1588.54
583.459	1586.91
588.144	1499.79
592.827	1269.83
597.508	1243.86
602.186	1162.81
606.862	1225.84
611.535	1250.29
616.206	1478.13
620.874	1670.88
625.54	2026.08
630.204	2331.15
634.864	2719.62
639.523	3239.46
644.179	3960.68
648.832	5326.28
653.483	7267.23
658.131	9374.59
662.777	10527.6
667.42	9286.73
672.061	6682.35
676.699	4515.68
681.335	2854.63
685.968	1932.04
690.599	1350.31
695.227	1002.53
699.853	849.217
704.476	666.32
709.097	526.583
713.715	490.283
718.331	471.837
722.944	375.509
727.554	309.099
732.162	305.315
736.768	330.032
741.371	310.798
745.971	341.062
750.569	275.825
755.164	212.607
759.757	228.196
764.347	140.032
768.935	120.002
773.52	129.259
778.103	110.264
782.683	21.8828
787.26	29.4275
791.835	10.8806
796.407	0.228027
800.977	41.4429
805.544	44.4758
810.109	8.34497
814.671	14.939
819.23	24.6609
823.787	93.4441
828.341	66.6887
832.893	2.60278
837.442	55.417
841.989	35.1296
846.533	42.7644
851.074	3.97607
855.613	14.2173
860.149	30.0037
864.683	13.635
869.214	27.1238
873.742	36.4119
878.268	18.1689
882.791	95.3386
887.312	92.9304
891.83	10.082
896.345	115.797
900.858	113.135
905.368	117.882
909.876	149.273
914.381	114.361
918.883	153.107
923.383	158.593
927.88	113.778
932.374	136.611
936.866	131.825
941.355	167.634
945.842	150.121
950.326	112.175
954.807	133.885
959.286	207.817
963.762	210.333
968.235	142.798
972.706	239.289
977.174	238.843
981.64	167.08
986.103	185.307
990.563	110.519
995.021	203.995
999.476	185.569
1003.93	118.064
1008.38	56.1987
1012.83	1.62549
1017.27	15.2163
1021.71	12.4719
1026.15	97.0005
1030.59	5.00171
1035.02	21.4407
1039.45	19.3342
1043.88	15.3901
1048.31	30.1645
1052.73	25.2483
1057.15	62.665
1061.57	60.6626
1065.98	54.551
1070.39	27.0486
1074.8	5.58984
1079.21	19.2398
1083.62	34.0139
1088.02	19.2097
1092.41	29.729
1096.81	61.7964
1101.2	10.166
1105.6	14.7405
1109.98	39.5166
1114.37	52.5466
1118.75	62.9268
1123.13	77.5447
1127.51	179.505
1131.88	141.898
1136.26	115.548
1140.63	154.467
1144.99	107.59
1149.36	113.694
1153.72	154.868
1158.08	144.71
1162.43	135.963
1166.79	137.407
1171.14	112.859
1175.48	58.5847
1179.83	111.57
1184.17	68.8096
1188.51	143.286
1192.85	119.987
1197.18	95.8926
1201.51	83.9939
1205.84	84.9399
1210.17	105.469
1214.49	76.3628
1218.81	85.9458
1223.13	119.074
1227.44	161.401
1231.76	76.9246
1236.07	122.644
1240.37	122.575
1244.68	43.6919
1248.98	98.9912
1253.28	165.463
1257.57	178.737
1261.87	125.539
1266.16	223.348
1270.44	157.411
1274.73	187.28
1279.01	226.656
1283.29	245.755
1287.57	273.397
1291.84	206.256
1296.11	287.322
1300.38	273.871
1304.65	318.641
1308.91	198.864
1313.17	314.653
1317.43	234.942
1321.68	191.934
1325.93	227.434
1330.18	102.975
1334.43	132.988
1338.67	96.4045
1342.91	97.2114
1347.15	130.35
1351.39	126.338
1355.62	62.6824
1359.85	74.8003
1364.08	39.4851
1368.3	36.0242
1372.52	76.3589
1376.74	98.7505
1380.95	21.855
1385.17	46.1069
1389.38	113.372
1393.59	123.123
1397.79	0.547852
1401.99	56.4163
1406.19	63.981
1410.39	8.59668
1414.58	16.9204
1418.77	14.0793
1422.96	3.33838
1427.14	4.5542
1431.33	84.0867
1435.51	0.246338
1439.68	47.1951
1443.86	48.5564
1448.03	34.4773
1452.2	29.4177
1456.36	40.1299
1460.53	2.646
1464.68	36.158
1468.84	87.6564
1473	84.1027
1477.15	67.4767
1481.3	99.9999
1485.44	61.1196
1489.59	24.0936
1493.73	51.171
1497.86	26.4514
1502	84.2703
1506.13	53.7618
1510.26	44.199
1514.38	72.2344
1518.51	73.4019
1522.63	64.2042
1526.75	64.3274
1530.86	95.7395
1534.97	43.2345
1539.08	24.0286
1543.19	84.7138
1547.29	94.8635
1551.39	15.6628
1555.49	42.3023
1559.59	58.0447
1563.68	16.052
1567.77	29.67
1571.85	80.796
1575.94	57.5046
