Measurement: Raman, 514 nm, ccw, Raman Data Processed
Mineral: Hausmannite
Rruff sample: R060512
Ideal chemistry: Mn^2+^Mn^3+^_2_O_4_
Locality: N'Chwaning II mine, Kalahari manganese field, northern Cape Province, Republic of South Africa
Source: Michael Scott
Description: Group of black pseudo-octahedra with striations parallel to the (001) plane
Measured chemistry: Mn^2+^_0.99_Mn^3+^_1.98_O_4_
Pin_id: M00870
Orientation: Laser parallel to c* (0 0 1). Fiducial mark perpendicular to laser is parallel to a [1 0 0]
Raman shift (cm-1)	intensity
147.508	0
152.431	215.978
157.35	136.493
162.267	324.889
167.181	190.252
172.092	269.021
177.001	126.039
181.907	168.556
186.81	289.248
191.711	288.609
196.608	241.608
201.503	458.247
206.395	269.465
211.285	185.997
216.172	177.696
221.056	192.33
225.937	110.11
230.816	183.618
235.692	93.0723
240.565	208.466
245.436	40.4522
250.304	13.2593
255.169	48.8545
260.031	32.8706
264.891	30.8599
269.748	34.4199
274.602	48.3813
279.454	69.9712
284.303	19.7188
289.149	120.929
293.992	212.504
298.833	156.982
303.671	275.76
308.507	567.054
313.339	1131.46
318.169	1750.13
322.996	1148.16
327.821	687.733
332.643	404.293
337.462	346.711
342.279	398.879
347.092	575.168
351.904	547.724
356.712	797.904
361.518	1355.79
366.321	2555.41
371.121	3847.73
375.919	2688.91
380.714	1120.05
385.506	553.259
390.296	136.994
395.083	95.4014
399.867	76.9634
404.649	36.062
409.428	14.2183
414.204	48.4048
418.978	28.1973
423.749	162.111
428.517	177.784
433.282	98.2285
438.045	35.3193
442.806	68.3779
447.563	82.6162
452.318	14.9961
457.07	35.5215
461.82	25.0654
466.567	58.3525
471.311	115.186
476.053	139.807
480.792	138.53
485.528	214.668
490.262	203.358
494.992	183.503
499.721	248.62
504.446	373.328
509.169	239.037
513.89	375.963
518.607	367.118
523.322	443.512
528.035	501.169
532.745	451.169
537.452	482.862
542.156	546.534
546.858	631.553
551.557	932.791
556.254	983.58
560.947	836.854
565.639	900.452
570.327	862.806
575.013	866.483
579.697	574.046
584.377	367.312
589.055	391.88
593.731	105.361
598.403	244.947
603.074	264.845
607.741	562.276
612.406	507.758
617.068	867.253
621.728	1054.05
626.385	1412.78
631.039	2062.74
635.691	2870.19
640.34	4815.06
644.987	8644.38
649.63	18376.2
654.272	37035.4
658.91	44396.1
663.546	26116.4
668.18	12635.9
672.81	6555.82
677.439	3664.15
682.064	2366.04
686.687	1471.07
691.307	1107.6
695.925	773.186
700.54	589.986
705.153	526.138
709.763	464.971
714.37	523.952
718.974	378.225
723.577	404.592
728.176	452.134
732.773	448.53
737.367	547.558
741.959	457.054
746.548	361.797
751.134	338.958
755.718	259.412
760.299	346.116
764.878	441.221
769.454	251.739
774.028	152.184
778.598	198.429
783.167	280.88
787.732	75.7285
792.295	141.204
796.856	178.815
801.414	185.314
805.969	129.802
810.522	149.074
815.072	7.9541
819.62	52.3682
824.165	68.6885
828.707	7.98242
833.247	9.0957
837.784	81.1103
842.319	64.0557
846.851	47.0596
851.381	54.6768
855.908	46.7158
860.432	99.7041
864.954	20.208
869.473	1.21094
873.99	92.7607
878.504	144.996
883.015	8.99512
887.524	67.7598
892.031	31.1855
896.535	36.6074
901.036	121.902
905.535	63.958
910.031	113.778
914.524	64.5195
919.015	28.9551
923.504	91.7725
927.99	15.3428
932.473	152.589
936.954	179.452
941.432	70.208
945.908	207.71
950.381	230.277
954.852	186.145
959.32	77.0107
963.785	213.553
968.248	216.202
972.708	324.288
977.166	163.256
981.622	236.524
986.074	142.614
990.525	175.783
994.972	137.048
999.417	179.14
1003.86	115
1008.3	23.5205
1012.74	174.349
1017.17	21.8682
1021.61	7.25684
1026.04	53.917
1030.46	42.417
1034.89	23.5615
1039.31	94.2041
1043.73	64.7871
1048.15	55.4648
1052.56	118.647
1056.97	3.05469
1061.38	147.37
1065.79	126.84
1070.19	186.36
1074.6	128.71
1079	67.3613
1083.39	90.0537
1087.79	47.831
1092.18	131.658
1096.57	98.6856
1100.96	162.651
1105.34	208.141
1109.72	291.661
1114.1	265.626
1118.48	353.592
1122.85	633.119
1127.22	460.914
1131.6	447.089
1135.96	416.662
1140.33	494.697
1144.69	517.922
1149.05	457.962
1153.4	398.139
1157.76	371.452
1162.11	342.943
1166.46	306.959
1170.81	274.487
1175.15	258.894
1179.49	281.477
1183.83	295.631
1188.17	288.31
1192.5	204.272
1196.84	177.564
1201.16	200.142
1205.49	219.015
1209.82	318.226
1214.14	133.466
1218.46	67.3457
1222.77	178.531
1227.09	309.005
1231.4	234.766
1235.71	430.812
1240.02	185.383
1244.32	303.988
1248.62	359.868
1252.92	310.029
1257.22	228.466
1261.51	405.734
1265.81	372.877
1270.1	503.866
1274.38	540.958
1278.67	302.603
1282.95	531.726
1287.23	412.806
1291.51	676.015
1295.78	598.094
1300.05	568.684
1304.32	619.696
1308.59	479.231
1312.86	523.698
1317.12	432.297
1321.38	251.875
1325.63	148.805
1329.89	121.952
1334.14	209.889
1338.39	193.647
1342.64	141.675
1346.88	237.933
1351.13	141.365
1355.37	83.3603
1359.61	98.4775
1363.84	12.3721
1368.07	109.721
1372.3	151.848
1376.53	203.955
1380.76	119.772
1384.98	62.7373
1389.2	46.3496
1393.42	119.486
1397.64	14.8633
1401.85	63.6045
1406.06	73.0674
1410.27	197.061
1414.47	125.401
1418.68	25.4053
1422.88	8.77734
1427.08	53.9492
1431.27	134.535
1435.47	40.085
1439.66	102.459
1443.85	58.9316
1448.03	66.5156
1452.22	61.8848
1456.4	118.116
1460.58	105.555
1464.76	43.124
1468.93	229.212
1473.1	66.2978
1477.27	96.6934
1481.44	105.082
1485.6	79.7637
1489.77	199.221
1493.92	138.809
1498.08	134.1
1502.24	136.512
1506.39	160.605
1510.54	54.9883
1514.69	183.062
1518.83	241.138
1522.97	104.484
1527.12	113.775
1531.25	109.018
1535.39	78.6894
1539.52	256.198
1543.65	179.594
1547.78	22.7988
1551.91	334.566
1556.03	188.335
1560.15	176.168
1564.27	143.663
1568.39	179.315
1572.5	54.4375
1576.61	37.0664
