Measurement: Raman, 514 nm, ccw, Raman Data Processed
Mineral: Hausmannite
Rruff sample: R040090
Ideal chemistry: Mn^2+^Mn^3+^_2_O_4_
Locality: Ã–hrenstock, Ilmenau, near Thuringia, Germany
Source: University of Arizona Mineral Museum
Description: Mass of black octahedral crystals
Measured chemistry: (Mn^2+^_0.71_Zn_0.28_)Mn^3+^_2.00_O_4_
Pin_id: M00841
Orientation: Laser parallel to c* (0 0 1). Fiducial mark perpendicular to laser is parallel to a [1 0 0]
Raman shift (cm-1)	intensity
88.049	0
92.976	468.526
97.901	272.606
102.823	379.187
107.744	1073.91
112.662	942.898
117.578	3757.11
122.492	4237.98
127.403	143.346
132.312	317.816
137.22	392.002
142.124	49.1309
147.027	78.3769
151.927	58.8184
156.826	289.272
161.721	512.337
166.615	382.389
171.507	268.249
176.396	296.81
181.283	430.879
186.167	472.529
191.05	402.812
195.93	215.336
200.808	256.254
205.683	257.612
210.557	86.1416
215.428	99.1035
220.296	48.6191
225.163	23.7734
230.027	229.019
234.889	133.406
239.749	176.913
244.606	27.1777
249.461	200.915
254.314	156.065
259.164	169.59
264.012	296.359
268.858	257.664
273.702	280.609
278.543	425.535
283.382	574.195
288.218	788.002
293.053	1088.54
297.885	996.138
302.714	1052.1
307.542	1562.28
312.366	2287.49
317.189	3254.85
322.009	3323.83
326.827	2465.55
331.643	1787.73
336.456	1180.85
341.267	912.716
346.076	1086.28
350.882	792.997
355.686	870.676
360.488	973.952
365.287	1118.43
370.084	963.23
374.878	879.049
379.67	742.814
384.46	319.191
389.247	339.678
394.032	284.693
398.815	73.9814
403.595	39.3691
408.373	60.8867
413.148	14.1465
417.922	15.5244
422.692	63.4522
427.461	47.8115
432.226	30.3584
436.99	11.6348
441.751	94.3174
446.51	2.58398
451.266	47.5185
456.02	158.485
460.772	50.5478
465.521	166.836
470.267	408.365
475.012	505.139
479.754	517.154
484.493	453.469
489.23	374.128
493.965	365.184
498.697	224.711
503.427	460.745
508.154	338.344
512.879	425.712
517.601	555.801
522.321	664.086
527.039	566.237
531.754	584.112
536.467	593.047
541.177	678.836
545.885	679.17
550.59	939.218
555.293	957.829
559.993	1138.53
564.691	1230.48
569.387	1406.22
574.08	1218.59
578.77	1155.91
583.459	967.395
588.144	903.254
592.827	911.822
597.508	741.69
602.186	959.333
606.862	1130.96
611.535	1394.85
616.206	1801.48
620.874	2424.83
625.54	2805.85
630.204	3483.5
634.864	4436.77
639.523	5579.68
644.179	7438.16
648.832	10927.2
653.483	16428.7
658.131	22612.6
662.777	25455.9
667.42	21931.8
672.061	15653.7
676.699	10199.6
681.335	6373.36
685.968	4003.18
690.599	2674.96
695.227	1867.97
699.853	1268.55
704.476	1104.15
709.097	719.253
713.715	613.825
718.331	641.051
722.944	546.933
727.554	480.997
732.162	293.334
736.768	421.94
741.371	266.688
745.971	373.593
750.569	291.856
755.164	235.118
759.757	245.538
764.347	229.134
768.935	318.376
773.52	0.661133
778.103	174.909
782.683	144.132
787.26	181.252
791.835	155.84
796.407	26.2754
800.977	59.2959
805.544	78.4805
810.109	62.5469
814.671	109.901
819.23	10.1328
823.787	40.5762
828.341	15.9346
832.893	74.6758
837.442	93.9463
841.989	30.9102
846.533	17.6396
851.074	2.76856
855.613	17.6582
860.149	53.3711
864.683	17.1719
869.214	16.3096
873.742	23.8311
878.268	122.736
882.791	48.126
887.312	9.7666
891.83	4.16602
896.345	104.66
900.858	173.67
905.368	148.439
909.876	208.468
914.381	161.494
918.883	133.477
923.383	193.76
927.88	185.925
932.374	130.537
936.866	91.5029
941.355	189.093
945.842	212.67
950.326	333.935
954.807	269.023
959.286	287.283
963.762	294.187
968.235	81.1631
972.706	310.224
977.174	314.34
981.64	183.606
986.103	204.412
990.563	220.57
995.021	321.12
999.476	302.527
1003.93	290.773
1008.38	240.316
1012.83	114.797
1017.27	100.335
1021.71	25.7354
1026.15	57.2705
1030.59	46.1748
1035.02	185.102
1039.45	9.68359
1043.88	15.2051
1048.31	116.522
1052.73	171.339
1057.15	119
1061.57	137.179
1065.98	179.031
1070.39	189.11
1074.8	75.415
1079.21	85.8799
1083.62	18.7148
1088.02	52.8008
1092.41	57.0879
1096.81	193.664
1101.2	129.63
1105.6	185.866
1109.98	187.872
1114.37	186.228
1118.75	204.586
1123.13	148.12
1127.51	220.081
1131.88	347.608
1136.26	309.321
1140.63	402.731
1144.99	581.905
1149.36	365.432
1153.72	424.527
1158.08	376.163
1162.43	306.076
1166.79	288.37
1171.14	325.359
1175.48	292.199
1179.83	261.891
1184.17	184.799
1188.51	279.394
1192.85	210.179
1197.18	196.13
1201.51	163.598
1205.84	46.4531
1210.17	179.727
1214.49	251.394
1218.81	181.417
1223.13	232.793
1227.44	231.598
1231.76	220.057
1236.07	228.461
1240.37	286.211
1244.68	355.317
1248.98	227.477
1253.28	393.468
1257.57	316.964
1261.87	326.802
1266.16	396.4
1270.44	477.433
1274.73	463.261
1279.01	437.587
1283.29	509.549
1287.57	538.769
1291.84	424.243
1296.11	498.972
1300.38	617.586
1304.65	630.083
1308.91	707.261
1313.17	558.614
1317.43	460.206
1321.68	409.272
1325.93	429.307
1330.18	452.454
1334.43	552.338
1338.67	189.684
1342.91	294.454
1347.15	263.192
1351.39	159.91
1355.62	263.618
1359.85	172.499
1364.08	214.206
1368.3	87.4922
1372.52	121.919
1376.74	145.283
1380.95	104.739
1385.17	9.83105
1389.38	10.9932
1393.59	58.0938
1397.79	5.36523
1401.99	165.436
1406.19	6.64258
1410.39	18.0312
1414.58	79.6289
1418.77	59.1904
1422.96	81.2725
1427.14	234.195
1431.33	66.6553
1435.51	66.2129
1439.68	217.86
1443.86	6.50781
1448.03	149.09
1452.2	31.7373
1456.36	152.461
1460.53	6.32617
1464.68	189
1468.84	94.4717
1473	101.085
1477.15	222.356
1481.3	257.659
1485.44	91.0439
1489.59	12.6152
1493.73	132.347
1497.86	177.664
1502	101.174
1506.13	109.107
1510.26	89.4629
1514.38	201.421
1518.51	41.166
1522.63	29.6377
1526.75	111.818
1530.86	168.158
1534.97	128.789
1539.08	29.1572
1543.19	184.904
1547.29	0
