Measurement: Raman, 514 nm, ccw, Raman Data Processed
Mineral: Hausmannite
Rruff sample: R040091
Ideal chemistry: Mn^2+^Mn^3+^_2_O_4_
Locality: Germany
Source: University of Arizona Mineral Museum
Description: Mass of black octahedral crystals
Measured chemistry: (Mn^2+^_0.96_Zn_0.02_Mg_0.02_)Mn^3+^_2.00_O_4_
Pin_id: S00049
Orientation: Laser parallel to a* (1 0 0). Fiducial mark perpendicular to laser is parallel to -c [0 0 -1]
Raman shift (cm-1)	intensity
141.658	0
146.558	210.662
151.456	157.463
156.352	308.457
161.245	140.025
166.137	376.502
171.026	151.277
175.912	416.19
180.797	398.834
185.679	456.834
190.559	437.141
195.436	597.863
200.312	705.598
205.185	727.951
210.055	477.369
214.924	491.877
219.79	389.371
224.654	47.2246
229.515	367.818
234.374	425.361
239.231	509.961
244.086	178.168
248.938	74.8203
253.788	66.7324
258.635	14.7832
263.481	26.3828
268.324	98.584
273.164	35.0801
278.002	459.658
282.838	736.289
287.672	1819.75
292.503	1825.05
297.332	1500.53
302.159	1575.92
306.983	2047.4
311.805	3503.85
316.624	5236.57
321.441	5700.75
326.256	4235.49
331.069	2850.21
335.879	2168.2
340.686	1624.42
345.492	1662.12
350.295	1658.15
355.095	1450.23
359.894	1911.59
364.689	1974.47
369.483	1866.62
374.274	1810.6
379.063	1466.46
383.849	907.445
388.633	582.078
393.414	382.709
398.193	113.443
402.97	91.5996
407.744	8.75977
412.516	78.3144
417.286	59.1094
422.053	166.127
426.818	16.2676
431.58	124.652
436.34	106.906
441.097	9.43164
445.852	0.683594
450.605	37.8047
455.355	171.295
460.103	129.547
464.848	205.168
469.591	453.213
474.331	839.75
479.069	1069.86
483.805	858.609
488.538	719.051
493.268	593.262
497.997	740.316
502.722	653.324
507.446	557.309
512.167	518.445
516.885	584.691
521.601	385.734
526.314	916.019
531.025	1026.29
535.734	834.896
540.44	1089.18
545.144	1114.63
549.845	1389.73
554.543	1695.9
559.24	1846.07
563.933	2305.98
568.625	2444.83
573.313	2645.75
578	2420.45
582.683	1787.12
587.365	1240.19
592.043	1119.64
596.72	961.643
601.393	1238.15
606.065	1432.65
610.733	2015.69
615.4	2689.15
620.064	3526.31
624.725	4416.97
629.384	5895.16
634.04	7789.79
638.694	11320.8
643.345	17704.2
647.993	29380
652.64	49856.2
657.283	73104.6
661.924	77833.3
666.563	61822.3
671.199	40096.6
675.833	24818.4
680.464	14804.2
685.092	9592.43
689.718	6703.81
694.341	4930.92
698.962	3489.3
703.581	2818.09
708.196	2159.23
712.81	1846.75
717.42	1711.44
722.028	1550.87
726.634	1657.38
731.237	1392.15
735.837	1169.04
740.435	1105.53
745.031	1045.07
749.623	821.418
754.214	992.637
758.801	873.572
763.386	645.016
767.969	675.688
772.549	722.945
777.126	711.066
781.701	580.086
786.273	315.707
790.842	371.705
795.409	120.158
799.974	251.057
804.536	150.857
809.095	229.203
813.652	15.6602
818.206	62.9258
822.757	152.84
827.306	163.615
831.852	189.865
836.396	137.383
840.937	157.666
845.475	186.01
850.011	48.998
854.544	100.215
859.075	310.412
863.603	158.699
868.128	101.26
872.651	342.41
877.171	40.7324
881.689	419.998
886.204	155.75
890.716	9.33398
895.226	244.252
899.733	8.02734
904.237	299.545
908.739	125.58
913.238	172.228
917.735	313.869
922.229	416.66
926.72	284.883
931.208	315.041
935.694	365.475
940.178	249.172
944.658	578.43
949.136	557.867
953.612	298.31
958.085	691.617
962.555	816.787
967.022	967.686
971.487	474.438
975.949	1047.26
980.408	617.807
984.865	561.16
989.319	854.584
993.771	608.242
998.219	714.207
1002.67	378.777
1007.11	257.312
1011.55	278.385
1015.99	113.603
1020.42	73.4844
1024.86	152.096
1029.29	97.7773
1033.71	101.863
1038.14	24.2812
1042.56	180.555
1046.98	6.42383
1051.4	12.2051
1055.81	438.658
1060.22	69.1562
1064.63	154.697
1069.04	360.734
1073.44	361.269
1077.84	211.803
1082.24	246.565
1086.63	522.309
1091.03	34.6621
1095.41	278.279
1099.8	504.633
1104.19	107.844
1108.57	556.408
1112.95	777.775
1117.32	864.486
1121.7	796.894
1126.07	996.021
1130.43	1174.07
1134.8	1189.31
1139.16	1275.39
1143.52	1335.12
1147.88	1180.53
1152.23	1075.93
1156.59	1096.71
1160.93	843.65
1165.28	1275.38
1169.62	705.174
1173.97	867.547
1178.3	1012.49
1182.64	530.846
1186.97	891.047
1191.3	556.596
1195.63	563.463
1199.95	498.65
1204.28	460.344
1208.59	819.566
1212.91	477.426
1217.22	600.721
1221.53	577.055
1225.84	912.144
1230.15	701.322
1234.45	861.273
1238.75	559.314
1243.05	794.727
1247.34	865.602
1251.63	878.885
1255.92	845.936
1260.21	887.385
1264.49	876.643
1268.77	1079.22
1273.05	883.498
1277.32	1019.2
1281.59	977.977
1285.86	1136.59
1290.13	1446.53
1294.39	1600.58
1298.65	1144.16
1302.91	1423.06
1307.17	1677.69
1311.42	1130.56
1315.67	1099.76
1319.92	942.379
1324.16	843.424
1328.4	777.449
1332.64	1168.26
1336.88	593.607
1341.11	749.184
1345.34	887.879
1349.57	402.631
1353.79	765.127
1358.02	697.838
1362.24	202.269
1366.45	405.09
1370.67	113.356
1374.88	203.756
1379.09	175.56
1383.29	159.445
1387.49	96.8945
1391.69	208.752
1395.89	147.023
1400.08	240.133
1404.27	107.447
1408.46	8.36914
1412.65	82.4961
1416.83	19.6094
1421.01	103.568
1425.19	109.324
1429.36	74.8066
1433.53	155.983
1437.7	25.6484
1441.87	134.371
1446.03	195.666
1450.19	64.4688
1454.35	44.0488
1458.5	160.85
1462.66	144.938
1466.81	118.924
1470.95	106.883
1475.09	278.801
1479.23	196.565
1483.37	106.916
1487.51	372.326
1491.64	240.379
1495.77	193.766
1499.89	269.902
1504.02	322.211
1508.14	608.854
1512.26	206.09
1516.37	141.158
1520.48	75.7734
1524.59	97.7637
1528.7	77.7852
1532.8	255.231
1536.9	189.758
1541	277.988
1545.1	140.764
1549.19	635.283
1553.28	121.356
1557.37	333.508
1561.45	532.379
1565.53	168.219
1569.61	161.857
1573.68	139.262
1577.76	286.375
