Measurement: Raman, 514 nm, depolarized, Raman Data Processed
Mineral: Hausmannite
Rruff sample: R040090
Ideal chemistry: Mn^2+^Mn^3+^_2_O_4_
Locality: Ã–hrenstock, Ilmenau, near Thuringia, Germany
Source: University of Arizona Mineral Museum
Description: Mass of black octahedral crystals
Measured chemistry: (Mn^2+^_0.71_Zn_0.28_)Mn^3+^_2.00_O_4_
Pin_id: M00841
Orientation: Laser parallel to c* (0 0 1). Fiducial mark perpendicular to laser is parallel to a [1 0 0]
Raman shift (cm-1)	intensity
88.049	0
92.976	278.559
97.901	267.266
102.823	748.764
107.744	1069.44
112.662	1266.9
117.578	2486.02
122.492	4648.93
127.403	209.205
132.312	95.5205
137.22	159.81
142.124	95.4238
147.027	29.3467
151.927	31.0156
156.826	99.7998
161.721	252.653
166.615	321.15
171.507	378.954
176.396	416.335
181.283	282.786
186.167	344.714
191.05	366.874
195.93	366.886
200.808	290.138
205.683	150.98
210.557	79.3096
215.428	30.8633
220.296	144.416
225.163	34.9678
230.027	114.562
234.889	85.084
239.749	104.134
244.606	29.2607
249.461	134.921
254.314	196.82
259.164	247.449
264.012	185.161
268.858	246.483
273.702	347.226
278.543	357.964
283.382	402.351
288.218	774.974
293.053	899.494
297.885	1111.72
302.714	1298.53
307.542	2028.77
312.366	3282.56
317.189	4446.37
322.009	4603.86
326.827	3385.54
331.643	2177.28
336.456	1352.56
341.267	1176.09
346.076	1073.35
350.882	1084.42
355.686	1036.93
360.488	1265.41
365.287	1376.29
370.084	1336.1
374.878	1280.32
379.67	891.475
384.46	552.562
389.247	229.263
394.032	374.776
398.815	117.617
403.595	102.347
408.373	89.1543
413.148	51.5244
417.922	51.7685
422.692	57.4756
427.461	29.6045
432.226	53.8672
436.99	18.71
441.751	91.7734
446.51	14.5518
451.266	85.4356
456.02	42.6514
460.772	39.0742
465.521	87.3965
470.267	130.124
475.012	339.15
479.754	268.494
484.493	479.181
489.23	243.236
493.965	276.707
498.697	283.028
503.427	294.31
508.154	214.617
512.879	375.566
517.601	535.325
522.321	571.28
527.039	625.128
531.754	721.246
536.467	497.405
541.177	644.271
545.885	766.863
550.59	756.269
555.293	994.476
559.993	1220.01
564.691	1175.48
569.387	1390.42
574.08	1433.13
578.77	1309.49
583.459	1002.48
588.144	833.108
592.827	883.048
597.508	876.812
602.186	1030.52
606.862	1070.14
611.535	1478.55
616.206	1962.64
620.874	2338.39
625.54	3031.82
630.204	3489.95
634.864	4428.71
639.523	5788.12
644.179	7852.18
648.832	11518.9
653.483	17274.2
658.131	23711.2
662.777	26589.6
667.42	22891.5
672.061	15887.6
676.699	10008.8
681.335	6491.59
685.968	4144.1
690.599	2727.03
695.227	1731.2
699.853	1320.4
704.476	991.758
709.097	711.357
713.715	730.344
718.331	546.528
722.944	543.482
727.554	368.666
732.162	330.879
736.768	387.734
741.371	324.086
745.971	394.056
750.569	246.617
755.164	242.509
759.757	233.302
764.347	136.28
768.935	143.94
773.52	202.612
778.103	69.2705
782.683	2.47266
787.26	81.3096
791.835	113.856
796.407	103.327
800.977	74.6719
805.544	27.7803
810.109	124.449
814.671	133.807
819.23	115.819
823.787	40.3809
828.341	46.4033
832.893	73.0381
837.442	17.3701
841.989	11.2783
846.533	44.208
851.074	6.44629
855.613	86.6611
860.149	34.2607
864.683	72.4121
869.214	5.99219
873.742	4.75391
878.268	68.0342
882.791	3.25781
887.312	67.2695
891.83	105.897
896.345	57.8086
900.858	152.216
905.368	145.583
909.876	111.531
914.381	200.303
918.883	230.232
923.383	140.385
927.88	127.859
932.374	159.78
936.866	231.351
941.355	236.949
945.842	305.289
950.326	152.66
954.807	310.597
959.286	339.913
963.762	247.25
968.235	315.192
972.706	252.047
977.174	346.127
981.64	272.545
986.103	112.501
990.563	152.531
995.021	197.91
999.476	211.601
1003.93	237.857
1008.38	229.293
1012.83	5.13672
1017.27	62.1289
1021.71	105.137
1026.15	78.2236
1030.59	167.422
1035.02	50.7012
1039.45	12.3369
1043.88	25.4141
1048.31	51.5107
1052.73	44.2549
1057.15	8.5625
1061.57	195.353
1065.98	138.326
1070.39	114.397
1074.8	90.6562
1079.21	92.1406
1083.62	30.8174
1088.02	213.736
1092.41	68.9473
1096.81	115.503
1101.2	193.26
1105.6	25.7607
1109.98	235.522
1114.37	79.0947
1118.75	329.174
1123.13	202.876
1127.51	233.026
1131.88	256.455
1136.26	466.174
1140.63	448.219
1144.99	331.438
1149.36	380.081
1153.72	438.953
1158.08	404.302
1162.43	405.778
1166.79	500.729
1171.14	337.423
1175.48	373.6
1179.83	343.408
1184.17	267.408
1188.51	362.069
1192.85	243.278
1197.18	192.853
1201.51	122.789
1205.84	134.787
1210.17	146.48
1214.49	222.571
1218.81	243.983
1223.13	191.809
1227.44	225.735
1231.76	393.329
1236.07	271.184
1240.37	265.956
1244.68	340.572
1248.98	377.514
1253.28	367.782
1257.57	376.374
1261.87	329.29
1266.16	329.674
1270.44	591.18
1274.73	388.455
1279.01	456.59
1283.29	453.984
1287.57	443.873
1291.84	534.748
1296.11	587.212
1300.38	786.539
1304.65	582.962
1308.91	481.829
1313.17	620.618
1317.43	599.074
1321.68	625.769
1325.93	480.703
1330.18	306.87
1334.43	182.278
1338.67	176.151
1342.91	225.062
1347.15	243.155
1351.39	155.301
1355.62	135.341
1359.85	194.153
1364.08	80.7158
1368.3	90.5166
1372.52	135.372
1376.74	147.582
1380.95	122.126
1385.17	94.79
1389.38	4.61816
1393.59	33.7637
1397.79	87.5312
1401.99	19.5312
1406.19	115.217
1410.39	144.703
1414.58	31.7393
1418.77	50.2295
1422.96	71.2148
1427.14	20.5381
1431.33	77.5039
1435.51	52.6074
1439.68	55.8984
1443.86	142.316
1448.03	82.7363
1452.2	93.1816
1456.36	137.644
1460.53	83.2412
1464.68	164.989
1468.84	91.8223
1473	54.5664
1477.15	207.03
1481.3	134.325
1485.44	169.695
1489.59	98.7207
1493.73	177.055
1497.86	208.202
1502	96.3643
1506.13	136.717
1510.26	119.143
1514.38	212.376
1518.51	69.4111
1522.63	118.586
1526.75	230.195
1530.86	181.69
1534.97	81.3291
1539.08	9.36914
1543.19	88.9072
1547.29	0
