Measurement: Raman, 514 nm, depolarized, Raman Data Processed
Mineral: Hausmannite
Rruff sample: R060512
Ideal chemistry: Mn^2+^Mn^3+^_2_O_4_
Locality: N'Chwaning II mine, Kalahari manganese field, northern Cape Province, Republic of South Africa
Source: Michael Scott
Description: Group of black pseudo-octahedra with striations parallel to the (001) plane
Measured chemistry: Mn^2+^_0.99_Mn^3+^_1.98_O_4_
Pin_id: M01995
Orientation: Laser parallel to a* (1 0 0). Fiducial mark perpendicular to laser is parallel to -c [0 0 -1]
Raman shift (cm-1)	intensity
142.583	0
147.508	214.483
152.431	215.578
157.35	237.666
162.267	512.145
167.181	544.502
172.092	302.69
177.001	345.305
181.907	412.394
186.81	543.129
191.711	952.3
196.608	912.453
201.503	1174.61
206.395	563.758
211.285	617.982
216.172	445.526
221.056	416.321
225.937	260.511
230.816	254.451
235.692	202.606
240.565	242.52
245.436	59.1807
250.304	117.16
255.169	93.7471
260.031	74.9463
264.891	179.33
269.748	285.188
274.602	52.7969
279.454	51.0185
284.303	108.588
289.149	292.441
293.992	361.522
298.833	364.196
303.671	382.214
308.507	690.499
313.339	1108.46
318.169	1576.35
322.996	1709.7
327.821	1351.91
332.643	895.188
337.462	519.426
342.279	404.278
347.092	508.736
351.904	583.064
356.712	501.576
361.518	611.18
366.321	839.527
371.121	891.446
375.919	629.433
380.714	477.384
385.506	338.225
390.296	12.6357
395.083	68.7568
399.867	91.1885
404.649	124.186
409.428	34.7168
414.204	36.582
418.978	3.54297
423.749	74.8584
428.517	63.4629
433.282	204.407
438.045	105.449
442.806	334.494
447.563	277.118
452.318	565.344
457.07	392.56
461.82	406.821
466.567	528.178
471.311	779.683
476.053	757.39
480.792	927.348
485.528	1225.61
490.262	1417.24
494.992	1635.35
499.721	1791.96
504.446	1910.15
509.169	1879.92
513.89	2277.36
518.607	2258.45
523.322	2612.38
528.035	2968.18
532.745	2928.92
537.452	2726.28
542.156	3280.7
546.858	3399.53
551.557	3935.24
556.254	3976.15
560.947	4366.28
565.639	4752.31
570.327	4791.83
575.013	4304.54
579.697	3153.83
584.377	1900.98
589.055	944.045
593.731	765.947
598.403	534.002
603.074	905.984
607.741	971.76
612.406	1125.48
617.068	1519.18
621.728	2038.55
626.385	2480.2
631.039	3302.05
635.691	4120.71
640.34	5748
644.987	8215.98
649.63	12893.7
654.272	19449.3
658.91	25950.7
663.546	26459.2
668.18	21097.8
672.81	13347.8
677.439	8255.68
682.064	5128.62
686.687	3656.54
691.307	2624.53
695.925	1642.19
700.54	1119.35
705.153	824.924
709.763	558.888
714.37	574.919
718.974	517.19
723.577	312.4
728.176	265.383
732.773	149.842
737.367	120.756
741.959	37.2119
746.548	2.44434
751.134	18.8867
755.718	78.5811
760.299	13.7393
764.878	75.085
769.454	117.253
774.028	179.681
778.598	143.85
783.167	56.082
787.732	3.78223
792.295	18.8828
796.856	77.0586
801.414	96.2539
805.969	25.6377
810.522	39.1162
815.072	32.332
819.62	229.958
824.165	15.1035
828.707	92.2822
833.247	190.369
837.784	10.1797
842.319	95.3154
846.851	3.87598
851.381	21.8818
855.908	82.3516
860.432	17.127
864.954	67.6269
869.473	47.373
873.99	52.3457
878.504	141.318
883.015	112.635
887.524	130.09
892.031	146.327
896.535	44.4228
901.036	197.577
905.535	297.301
910.031	330.119
914.524	203.269
919.015	196.089
923.504	252.16
927.99	138.182
932.473	289.201
936.954	219.164
941.432	121.843
945.908	202.738
950.381	349.188
954.852	239.736
959.32	326.16
963.785	113.956
968.248	13.2041
972.708	344.077
977.166	204.5
981.622	267.834
986.074	261.214
990.525	275.406
994.972	377.751
999.417	383.573
1003.86	396.685
1008.3	97.3662
1012.74	96.0312
1017.17	217.907
1021.61	197.81
1026.04	66.5342
1030.46	124.327
1034.89	206.028
1039.31	189.185
1043.73	6.1709
1048.15	16.0654
1052.56	2.81836
1056.97	131.273
1061.38	66.1885
1065.79	20.0654
1070.19	129.594
1074.6	94.3828
1079	97.2969
1083.39	115.464
1087.79	235.892
1092.18	17.5566
1096.57	100.091
1100.96	40.6514
1105.34	144.006
1109.72	2.30078
1114.1	13.7764
1118.48	7.61133
1122.85	400.432
1127.22	352.857
1131.6	380.684
1135.96	208.988
1140.33	153.932
1144.69	371.256
1149.05	301.789
1153.4	392.076
1157.76	377.705
1162.11	236.816
1166.46	217.477
1170.81	245.522
1175.15	249.961
1179.49	274.734
1183.83	239.539
1188.17	37.9746
1192.5	29.9609
1196.84	214.225
1201.16	221.195
1205.49	8.58984
1209.82	88.375
1214.14	77.5215
1218.46	108.217
1222.77	45.0684
1227.09	104.273
1231.4	228.861
1235.71	51.8691
1240.02	119.248
1244.32	223.481
1248.62	92.5117
1252.92	249.92
1257.22	172.641
1261.51	145.83
1265.81	161.859
1270.1	212.467
1274.38	174.885
1278.67	234.188
1282.95	383.295
1287.23	445.662
1291.51	525.982
1295.78	564.518
1300.05	416.884
1304.32	480.375
1308.59	538.915
1312.86	329.514
1317.12	323.696
1321.38	338.775
1325.63	205.126
1329.89	234.353
1334.14	101.8
1338.39	156.401
1342.64	56.417
1346.88	227.909
1351.13	205.411
1355.37	37.9395
1359.61	159.828
1363.84	132.858
1368.07	33.2744
1372.3	126.852
1376.53	142.677
1380.76	166.627
1384.98	2.99023
1389.2	9.80273
1393.42	24.8809
1397.64	48.334
1401.85	59.1943
1406.06	105.213
1410.27	123.5
1414.47	71.3438
1418.68	141.884
1422.88	3.46582
1427.08	175.903
1431.27	163.222
1435.47	43.5039
1439.66	48.7461
1443.85	109.973
1448.03	110.259
1452.22	125.156
1456.4	27.876
1460.58	10.5947
1464.76	79.7754
1468.93	166.347
1473.1	165.836
1477.27	249.273
1481.44	311.755
1485.6	44.7002
1489.77	99.3701
1493.92	233.538
1498.08	118.784
1502.24	180.258
1506.39	106.077
1510.54	191.907
1514.69	132.961
1518.83	168.704
1522.97	121.645
1527.12	192.716
1531.25	33.2685
1535.39	182.304
1539.52	178.949
1543.65	27.1826
1547.78	357.411
1551.91	672.847
1556.03	163.625
1560.15	43.0918
1564.27	294.062
1568.39	136.395
1572.5	247.819
1576.61	1.2041
