Measurement: Raman, 514 nm, ccw, Raman Data Processed
Mineral: Hausmannite
Rruff sample: R060512
Ideal chemistry: Mn^2+^Mn^3+^_2_O_4_
Locality: N'Chwaning II mine, Kalahari manganese field, northern Cape Province, Republic of South Africa
Source: Michael Scott
Description: Group of black pseudo-octahedra with striations parallel to the (001) plane
Measured chemistry: Mn^2+^_0.99_Mn^3+^_1.98_O_4_
Pin_id: M01995
Orientation: Laser parallel to a* (1 0 0). Fiducial mark perpendicular to laser is parallel to -c [0 0 -1]
Raman shift (cm-1)	intensity
146.277	0
151.2	208.517
156.121	636.106
161.038	498.563
165.953	655.789
170.865	221.889
175.774	488.334
180.681	294.233
185.585	260.062
190.486	654.544
195.384	1052.97
200.28	1071.21
205.173	765.215
210.063	318.366
214.95	305.79
219.835	280.572
224.717	248.242
229.597	119.13
234.473	35.332
239.347	209.461
244.218	1.63184
249.087	1.71582
253.953	56.4453
258.816	30.5713
263.676	170.507
268.534	17.1924
273.389	68.042
278.241	113.323
283.091	233.947
287.938	305.829
292.782	397.027
297.623	475.144
302.462	525.957
307.298	724.573
312.131	1115.75
316.962	1691.62
321.79	1749.35
326.615	1468.15
331.438	1009.56
336.258	727.018
341.075	667.705
345.889	582.702
350.701	531.265
355.51	716.169
360.317	699.852
365.12	738.032
369.921	783.99
374.72	820.916
379.515	775.974
384.309	274.481
389.099	198.318
393.886	146.778
398.671	19.3584
403.454	61.9492
408.233	62.0059
413.01	44.8066
417.785	23.7393
422.556	101.254
427.325	36.0615
432.091	232.028
436.855	127.145
441.616	229.435
446.374	211.775
451.13	303.184
455.883	273.699
460.633	245.365
465.38	336.232
470.125	601.354
474.868	671.767
479.607	734.507
484.344	931.621
489.078	1141.15
493.81	1409.15
498.539	1378.69
503.265	1637.99
507.989	1555.59
512.71	1677.96
517.428	1941.01
522.144	2026.83
526.857	2266.38
531.567	2562.66
536.275	2272.45
540.98	2607.62
545.683	2956.46
550.383	3225.1
555.08	3458.43
559.774	3601.86
564.466	4247.08
569.155	4191.38
573.842	4107.22
578.526	3066.33
583.207	1870.76
587.886	1036.12
592.562	773.357
597.235	827.496
601.906	812.639
606.574	956.463
611.24	1323.92
615.903	1493.86
620.563	1992.66
625.221	2250.26
629.876	3026.69
634.528	3840.29
639.178	5337.54
643.825	7885.31
648.47	11865.4
653.112	18710.2
657.751	26339.5
662.388	29245.2
667.022	23450.6
671.653	15473.9
676.282	9584.63
680.908	6004.38
685.532	4034.82
690.153	2753.42
694.771	2069.85
699.387	1586.72
704	1031.19
708.61	905.113
713.218	705.886
717.824	531.696
722.426	387.135
727.026	300.976
731.624	184.042
736.219	373.199
740.811	71.9453
745.401	3.48535
749.988	221.962
754.572	26.6777
759.154	184.457
763.734	28.3896
768.31	152.568
772.884	42.1065
777.456	74.1006
782.025	54.4443
786.591	121.682
791.155	16.7646
795.716	117.58
800.275	102.246
804.831	36.377
809.384	15.669
813.935	25.7109
818.483	13.5742
823.029	84.6231
827.572	47.8389
832.112	83.9863
836.65	70.0088
841.186	38.6035
845.718	17.1006
850.249	178.841
854.776	10.3115
859.301	56.5059
863.824	116.44
868.344	29.7705
872.861	36.9434
877.376	88.2949
881.888	210.145
886.397	116.639
890.904	166.649
895.409	145.269
899.911	160.401
904.41	286.139
908.907	242.772
913.401	147.009
917.893	300.43
922.382	114.658
926.869	147.677
931.353	160.097
935.834	168.014
940.313	158.593
944.789	358.181
949.263	241.608
953.734	187.871
958.203	342.093
962.669	361.434
967.133	42
971.594	137.106
976.052	286.104
980.508	289.726
984.961	69.167
989.412	143.264
993.861	312.447
998.306	95.9805
1002.75	147.499
1007.19	141.118
1011.63	136.431
1016.06	123.897
1020.5	104.817
1024.93	14.8867
1029.36	192.772
1033.78	70.9853
1038.2	172.737
1042.62	84.0371
1047.04	65.7031
1051.46	142.897
1055.87	177.658
1060.28	132.9
1064.69	107.768
1069.09	54.1338
1073.5	101.877
1077.9	102.299
1082.29	218.81
1086.69	156.501
1091.08	119.517
1095.47	164.102
1099.86	32.1699
1104.24	155.458
1108.63	205.127
1113.01	230.275
1117.38	161.857
1121.76	191.769
1126.13	343.402
1130.5	290.734
1134.87	305.684
1139.23	339.096
1143.6	295.012
1147.96	258.377
1152.32	371.135
1156.67	327.926
1161.02	355.203
1165.37	231.215
1169.72	297.508
1174.07	292.471
1178.41	184.852
1182.75	145.606
1187.08	141.94
1191.42	292.428
1195.75	183.332
1200.08	161.602
1204.41	101.072
1208.73	202.088
1213.06	179.478
1217.38	139.246
1221.69	276.891
1226.01	167.574
1230.32	223.807
1234.63	227.533
1238.94	357.838
1243.24	267.795
1247.55	197.076
1251.85	194.826
1256.14	335.5
1260.44	358.863
1264.73	209.809
1269.02	141.387
1273.31	212.432
1277.6	446.008
1281.88	319.305
1286.16	444.068
1290.44	617.598
1294.71	430.1
1298.98	498.617
1303.26	562.258
1307.52	439.815
1311.79	276.893
1316.05	373.182
1320.31	280.231
1324.57	362.826
1328.83	412.647
1333.08	219.681
1337.33	324.027
1341.58	283.531
1345.82	254.257
1350.07	149.865
1354.31	90.0811
1358.55	159.629
1362.78	195.747
1367.02	119.134
1371.25	266.804
1375.48	61.415
1379.7	151.317
1383.92	17.4736
1388.15	188.439
1392.37	209.861
1396.58	88.6514
1400.8	146.807
1405.01	93.2402
1409.22	78.9844
1413.42	96.0322
1417.63	154.567
1421.83	184.43
1426.03	57.7647
1430.22	23.1201
1434.42	77.3916
1438.61	69.5059
1442.8	240.433
1446.99	54.5293
1451.17	106.118
1455.35	86.5303
1459.53	237.957
1463.71	62.5244
1467.89	341.154
1472.06	24.7783
1476.23	186.445
1480.4	147.182
1484.56	37.9893
1488.72	36.9697
1492.88	86.4795
1497.04	187.56
1501.2	207.647
1505.35	199.29
1509.5	30.708
1513.65	139.807
1517.8	166.274
1521.94	268.165
1526.08	336.622
1530.22	216.065
1534.36	90.6025
1538.49	197.839
1542.62	207.312
1546.75	248.625
1550.88	270.508
1555	522.013
1559.12	198.274
1563.24	7.69727
1567.36	140.594
1571.47	244.171
1575.58	62.0996
