Measurement: Raman, 514 nm, ccw, Raman Data Processed
Mineral: Hausmannite
Rruff sample: R060512
Ideal chemistry: Mn^2+^Mn^3+^_2_O_4_
Locality: N'Chwaning II mine, Kalahari manganese field, northern Cape Province, Republic of South Africa
Source: Michael Scott
Description: Group of black pseudo-octahedra with striations parallel to the (001) plane
Measured chemistry: Mn^2+^_0.99_Mn^3+^_1.98_O_4_
Pin_id: M01995
Orientation: Laser parallel to a* (1 0 0). Fiducial mark perpendicular to laser is parallel to -c [0 0 -1]
Raman shift (cm-1)	intensity
137.656	0
142.583	28.7148
147.508	436.144
152.431	266.898
157.35	626.152
162.267	941.035
167.181	1025.92
172.092	730.186
177.001	890.736
181.907	816.121
186.81	849.926
191.711	1186.85
196.608	1357.36
201.503	1469.63
206.395	1135.38
211.285	589.119
216.172	460.46
221.056	255.554
225.937	313.484
230.816	216.26
235.692	124.471
240.565	121.753
245.436	104.713
250.304	47.7598
255.169	58.7695
260.031	314.474
264.891	50.5147
269.748	239.241
274.602	180.257
279.454	233.432
284.303	300.428
289.149	187.832
293.992	413.353
298.833	397.451
303.671	599.718
308.507	776.046
313.339	1188.3
318.169	1876.42
322.996	1832.11
327.821	1421.94
332.643	692.644
337.462	523.787
342.279	434.544
347.092	757.771
351.904	746.598
356.712	835.443
361.518	1376.61
366.321	1278.02
371.121	1221.39
375.919	996.739
380.714	578.035
385.506	386.152
390.296	202.001
395.083	18.123
399.867	97.5732
404.649	143.898
409.428	139.411
414.204	131.744
418.978	50.3125
423.749	22.1797
428.517	53.6397
433.282	7.32031
438.045	194.778
442.806	268.119
447.563	436.059
452.318	373.367
457.07	388.56
461.82	693.691
466.567	415.838
471.311	739.029
476.053	1104.32
480.792	1073.76
485.528	1480.42
490.262	1663.37
494.992	1791.65
499.721	2243.31
504.446	2520.5
509.169	2214.15
513.89	2678.38
518.607	2932.28
523.322	3185.32
528.035	3557.23
532.745	3523.53
537.452	3341.18
542.156	3668.35
546.858	3969.99
551.557	4337.23
556.254	4897.07
560.947	5114.98
565.639	5299.7
570.327	5100.28
575.013	4640.68
579.697	3786.5
584.377	2250.45
589.055	1050.77
593.731	777.934
598.403	868.045
603.074	709.996
607.741	1093.99
612.406	1302.8
617.068	1736.44
621.728	2132.9
626.385	2642.15
631.039	3307.16
635.691	4566.98
640.34	6274.77
644.987	9247.35
649.63	13836.2
654.272	20804.5
658.91	27097.9
663.546	27519
668.18	21083.5
672.81	13934.6
677.439	8653.56
682.064	5612.03
686.687	3856.14
691.307	2621.89
695.925	2016.78
700.54	1416.54
705.153	1070.48
709.763	831.963
714.37	588.492
718.974	345.617
723.577	460.853
728.176	392.279
732.773	406.44
737.367	178.668
741.959	158.402
746.548	163.637
751.134	78.7266
755.718	199.893
760.299	63.6221
764.878	219.617
769.454	70.2197
774.028	1.9668
778.598	25.4082
783.167	75.7812
787.732	129.412
792.295	129.562
796.856	82.6807
801.414	76.1055
805.969	98.1846
810.522	91.0068
815.072	153.618
819.62	42.3008
824.165	101.145
828.707	181.97
833.247	211.261
837.784	68.6338
842.319	88.3535
846.851	94.7998
851.381	68.4228
855.908	50.206
860.432	17.293
864.954	69.2051
869.473	245.96
873.99	61.7178
878.504	167.384
883.015	139.31
887.524	139.94
892.031	93.6787
896.535	347.376
901.036	193.801
905.535	287.646
910.031	261.424
914.524	314.457
919.015	126.657
923.504	214.12
927.99	371.223
932.473	164.438
936.954	211.163
941.432	99.1592
945.908	327.967
950.381	92.8506
954.852	194.263
959.32	241.702
963.785	114.489
968.248	158.421
972.708	130.201
977.166	309.21
981.622	212.003
986.074	254.705
990.525	308.918
994.972	133.841
999.417	343.31
1003.86	42.0703
1008.3	101.588
1012.74	60.9307
1017.17	154.792
1021.61	172.621
1026.04	31.7695
1030.46	39.4209
1034.89	15.7998
1039.31	141.414
1043.73	211.623
1048.15	37.8701
1052.56	145.478
1056.97	183.791
1061.38	225.629
1065.79	79.1269
1070.19	68.332
1074.6	317.844
1079	56.0645
1083.39	113.111
1087.79	197.213
1092.18	188.826
1096.57	211.783
1100.96	143.143
1105.34	16.1074
1109.72	299.44
1114.1	208.984
1118.48	310.897
1122.85	288.316
1127.22	181.352
1131.6	411.84
1135.96	239.768
1140.33	399.385
1144.69	471.557
1149.05	388.438
1153.4	325.16
1157.76	354.316
1162.11	224.518
1166.46	348.594
1170.81	297.004
1175.15	249.148
1179.49	247.102
1183.83	160.678
1188.17	215.637
1192.5	338.965
1196.84	163.662
1201.16	253.734
1205.49	128.164
1209.82	206.822
1214.14	425.984
1218.46	252.447
1222.77	214.426
1227.09	372.668
1231.4	272.109
1235.71	65.709
1240.02	227.312
1244.32	159.91
1248.62	352.84
1252.92	288.062
1257.22	242.828
1261.51	320.443
1265.81	176.94
1270.1	239.012
1274.38	351.598
1278.67	600.93
1282.95	536.922
1287.23	452.129
1291.51	390.023
1295.78	474.648
1300.05	543.693
1304.32	515.824
1308.59	437.281
1312.86	500.387
1317.12	508.408
1321.38	461.481
1325.63	288.078
1329.89	275.688
1334.14	274.473
1338.39	296.453
1342.64	73.6172
1346.88	155.973
1351.13	190.514
1355.37	184.199
1359.61	147.912
1363.84	176.449
1368.07	51.0273
1372.3	34.5059
1376.53	13.9629
1380.76	83.5859
1384.98	81.8018
1389.2	78.1611
1393.42	189.17
1397.64	100.989
1401.85	134.135
1406.06	20.7588
1410.27	22.7686
1414.47	3.375
1418.68	101.307
1422.88	0.955078
1427.08	54.1621
1431.27	105.358
1435.47	30.8027
1439.66	9.27734
1443.85	86.6103
1448.03	71.1318
1452.22	191.599
1456.4	43.8203
1460.58	175.061
1464.76	122.294
1468.93	47.6826
1473.1	87.1201
1477.27	342.594
1481.44	182.371
1485.6	256.953
1489.77	94.6269
1493.92	140.462
1498.08	184.851
1502.24	285.253
1506.39	188.62
1510.54	191.227
1514.69	111.603
1518.83	190.044
1522.97	273.075
1527.12	165.234
1531.25	83.6006
1535.39	89.2344
1539.52	1.49902
1543.65	110.673
1547.78	296.025
1551.91	572.06
1556.03	242.582
1560.15	136.343
1564.27	60.0801
1568.39	107.379
1572.5	69.7744
1576.61	218.64
