Measurement: Raman, 514 nm, ccw, Raman Data Processed
Mineral: Hausmannite
Rruff sample: R040091
Ideal chemistry: Mn^2+^Mn^3+^_2_O_4_
Locality: Germany
Source: University of Arizona Mineral Museum
Description: Mass of black octahedral crystals
Measured chemistry: (Mn^2+^_0.96_Zn_0.02_Mg_0.02_)Mn^3+^_2.00_O_4_
Pin_id: S00049
Orientation: Laser parallel to a* (1 0 0). Fiducial mark perpendicular to laser is parallel to -c [0 0 -1]
Raman shift (cm-1)	intensity
139.207	0
144.108	259.647
149.007	233.162
153.904	37.916
158.799	8.29102
163.691	670.156
168.581	408.551
173.469	467.943
178.355	484.914
183.238	516.656
188.119	632.287
192.998	945.359
197.874	948.758
202.748	1159.8
207.62	748.693
212.49	357.633
217.357	450.853
222.222	266.963
227.085	199.713
231.945	258.609
236.803	86.2441
241.659	282.857
246.512	169.984
251.363	9.18945
256.212	21.7715
261.058	145.416
265.902	181.769
270.744	52.8809
275.584	395.459
280.421	560.498
285.255	654.703
290.088	1038.36
294.918	1030.66
299.746	1305.59
304.571	2024.42
309.394	3099.99
314.215	5222.1
319.033	6737.05
323.849	5971.01
328.663	4355.03
333.474	3011.97
338.283	2247.45
343.089	2038.85
347.894	2189.08
352.695	1992.38
357.495	2615.96
362.292	3474.16
367.086	3847.16
371.879	3604.76
376.669	2902.95
381.456	1920.56
386.241	1160.73
391.024	648.484
395.804	421.518
400.582	354.4
405.358	178.498
410.131	137.779
414.901	37.7754
419.67	215.342
424.436	174.047
429.199	80.5234
433.96	229.853
438.719	57.6074
443.475	179.816
448.229	175.693
452.98	247.199
457.729	147.543
462.475	63.9824
467.22	175.236
471.961	337.549
476.7	260.092
481.437	387.963
486.171	458.254
490.903	842.08
495.633	450.537
500.36	243.742
505.084	707.781
509.806	511.754
514.526	573.729
519.243	878.854
523.958	782.113
528.67	1041.67
533.38	1042.5
538.087	827.865
542.792	1247.95
547.494	1458.79
552.194	1876.02
556.892	2062.77
561.587	2373.74
566.279	2639.5
570.969	2692.5
575.657	2597.53
580.342	2345
585.024	1874.06
589.704	2049.67
594.382	1354.92
599.057	1713.31
603.729	1870.54
608.399	2788.51
613.067	3734.01
617.732	4827.65
622.395	6129.44
627.055	7530.98
631.712	10218.2
636.367	14218.1
641.019	21400.8
645.669	35553
650.317	62521.8
654.962	100249
659.604	107349
664.244	103560
668.881	76108.8
673.516	46250.3
678.148	28187.3
682.778	17769.7
687.405	11786.7
692.03	8315.22
696.652	6105.84
701.272	4793.85
705.889	4647.85
710.503	3592.82
715.115	3045.87
719.725	2885.46
724.331	2639.31
728.936	2364.85
733.537	2261.03
738.137	1985.88
742.733	2015.22
747.327	1780.04
751.919	1552.79
756.508	1635.26
761.094	1527.3
765.678	1585.31
770.259	1607.38
774.838	1123.07
779.414	968.938
783.987	579.314
788.558	490.781
793.126	636.373
797.692	487.279
802.255	274.228
806.816	401.135
811.374	450.93
815.929	143.06
820.482	170.029
825.032	128.221
829.579	150.119
834.124	33.3438
838.667	88.5117
843.206	55.8027
847.744	6.86719
852.278	195.861
856.81	17.2148
861.339	248.658
865.866	152.975
870.39	58
874.912	47.1113
879.43	62.8574
883.947	146.615
888.46	29.8965
892.971	38.0801
897.48	66.0215
901.985	134.953
906.489	223.326
910.989	274.238
915.487	260.231
919.982	336.078
924.475	337.17
928.964	556.754
933.452	520.955
937.936	469.9
942.418	563.262
946.898	549.344
951.374	659.875
955.848	495.498
960.32	653.117
964.789	770.947
969.255	765.385
973.718	878.377
978.179	719.203
982.637	742.566
987.092	705.606
991.545	554.07
995.995	631.25
1000.44	339.336
1004.89	371.857
1009.33	287.383
1013.77	189.963
1018.21	275.785
1022.64	20.2539
1027.07	133.57
1031.5	26.8984
1035.93	84.5078
1040.35	25.5371
1044.77	93.2363
1049.19	66.1758
1053.6	43.4199
1058.02	172.019
1062.43	114.188
1066.83	130.842
1071.24	236.031
1075.64	236.004
1080.04	229.102
1084.44	247.344
1088.83	285.781
1093.22	526.453
1097.61	451.008
1101.99	476.637
1106.38	761.447
1110.76	979.916
1115.13	1143.08
1119.51	1228.2
1123.88	1535.56
1128.25	1438.1
1132.62	1736.02
1136.98	1833.98
1141.34	1592.19
1145.7	1670.89
1150.06	1662.36
1154.41	1654.03
1158.76	1685.17
1163.11	1372.65
1167.45	1160.67
1171.8	1301.19
1176.13	1151.57
1180.47	1058.62
1184.81	942.932
1189.14	935.158
1193.47	841.434
1197.79	961.082
1202.11	754.236
1206.43	642.277
1210.75	945.469
1215.07	870.076
1219.38	855.484
1223.69	986.691
1227.99	1174.7
1232.3	1046.92
1236.6	1044.06
1240.9	880.709
1245.19	1159.53
1249.49	1263.98
1253.78	1387.94
1258.06	1080.38
1262.35	1493.1
1266.63	1279.12
1270.91	1362.22
1275.18	1616.67
1279.46	1725.45
1283.73	1416.81
1288	1838.26
1292.26	1973.57
1296.52	2057.68
1300.78	2071.27
1305.04	2172.32
1309.3	2004.98
1313.55	1791.15
1317.8	1422.95
1322.04	1489.99
1326.28	1383.3
1330.52	1297.48
1334.76	1018.31
1338.99	935.725
1343.23	731.486
1347.46	642.394
1351.68	737.898
1355.91	309.85
1360.13	369.137
1364.34	419.127
1368.56	426.449
1372.77	308.242
1376.98	15.8438
1381.19	62.5117
1385.39	137.557
1389.59	169.158
1393.79	37.4492
1397.99	270.371
1402.18	51.4316
1406.37	2.70117
1410.56	32.1484
1414.74	14.8398
1418.92	7.88281
1423.1	187.885
1427.28	87.9336
1431.45	91.9375
1435.62	41.9551
1439.79	152.69
1443.95	39.502
1448.11	2.07617
1452.27	9.95312
1456.43	24.5703
1460.58	68.0801
1464.73	238.693
1468.88	74.3301
1473.02	306.934
1477.16	604.354
1481.3	160.394
1485.44	289.699
1489.57	91.3828
1493.7	94.9414
1497.83	98.3008
1501.96	364.342
1506.08	159.91
1510.2	210.272
1514.32	105.471
1518.43	262.477
1522.54	245.59
1526.65	298.059
1530.75	218.26
1534.85	338.103
1538.95	329.193
1543.05	7.46289
1547.14	598.721
1551.23	385.736
1555.32	481.537
1559.41	475.684
1563.49	223.879
1567.57	247.478
1571.65	53.2559
1575.72	112.144
