Measurement: Raman, 514 nm, depolarized, Raman Data Processed
Mineral: Hausmannite
Rruff sample: R040091
Ideal chemistry: Mn^2+^Mn^3+^_2_O_4_
Locality: Germany
Source: University of Arizona Mineral Museum
Description: Mass of black octahedral crystals
Measured chemistry: (Mn^2+^_0.96_Zn_0.02_Mg_0.02_)Mn^3+^_2.00_O_4_
Pin_id: S00049
Orientation: Laser parallel to a* (1 0 0). Fiducial mark perpendicular to laser is parallel to -c [0 0 -1]
Raman shift (cm-1)	intensity
145.333	0
150.232	82.2871
155.128	12.4043
160.022	159.268
164.914	252
169.804	225.279
174.691	495.772
179.576	342.342
184.459	380.815
189.339	680.531
194.217	802.418
199.093	745.83
203.967	1018.34
208.838	489.44
213.707	421.059
218.573	309.053
223.438	405.363
228.3	300.652
233.16	19.5566
238.017	32.7773
242.872	179.065
247.725	190.56
252.575	46.5684
257.424	32.6016
262.269	210.434
267.113	130.094
271.954	182.309
276.793	270.81
281.63	806.512
286.464	1294.67
291.296	1542.42
296.125	1745.11
300.952	1617.52
305.777	2737.45
310.6	4444.04
315.42	7069.07
320.237	8212.96
325.053	6849.36
329.866	4506.73
334.676	2855.99
339.485	1946.64
344.291	1838.03
349.094	1837.71
353.895	1799.98
358.694	2073.03
363.491	2207.69
368.285	2162.07
373.076	2292.61
377.866	1552.41
382.653	1119.34
387.437	823.248
392.219	482.041
396.999	63.5254
401.776	113.676
406.551	113.725
411.324	50.375
416.094	56.959
420.861	39.6992
425.627	139.74
430.389	64.3516
435.15	58.8105
439.908	4.03906
444.664	7.99219
449.417	83.9688
454.167	142.568
458.916	281.305
463.662	298.49
468.405	398.295
473.146	555.211
477.885	626.461
482.621	744.082
487.355	669.527
492.086	565.856
496.815	260.148
501.541	281.51
506.265	405.986
510.987	632.631
515.706	644.518
520.422	614.848
525.136	774.754
529.848	948.41
534.557	999.568
539.264	1117.18
543.968	1267.23
548.67	1490.74
553.369	1584.76
558.066	1975.31
562.76	2374.45
567.452	2493.38
572.141	2605.54
576.828	2371.91
581.513	1788.95
586.194	1449.08
590.874	1158.1
595.551	873.49
600.225	861.736
604.897	1466.15
609.567	1735.63
614.233	2301.92
618.898	3171.68
623.56	4201.88
628.219	5029.51
632.876	6533.3
637.53	8943.24
642.182	13626.3
646.832	22347.7
651.478	38340.5
656.123	59020.6
660.764	69826
665.404	60987
670.04	42255.9
674.675	26637
679.306	16379.3
683.935	10452.6
688.562	7136.58
693.186	4776.69
697.807	3405.87
702.426	2752.85
707.043	2182.12
711.657	1787.29
716.268	1624.55
720.877	1469.93
725.483	1262.35
730.086	1277.47
734.688	1282.55
739.286	1208.46
743.882	1033.94
748.475	1041.6
753.066	761.219
757.654	858.824
762.24	923.863
766.823	663.053
771.404	951.727
775.982	648.457
780.557	444.529
785.13	242.551
789.7	490.022
794.268	394.51
798.833	88.8769
803.395	254.074
807.955	100.07
812.513	116.848
817.067	167.357
821.619	82.4336
826.169	255.938
830.716	64.9141
835.26	65.2852
839.802	56.5781
844.341	18.3438
848.877	99.8711
853.411	71.7871
857.943	155.197
862.471	50.5554
866.997	107.117
871.521	78.6523
876.042	114.035
880.56	111.018
885.075	111.199
889.588	137.393
894.099	325.766
898.606	305.805
903.111	200.381
907.614	399.738
912.114	120.447
916.611	543.738
921.105	226.482
925.597	395.75
930.087	552.795
934.573	385.34
939.057	416.357
943.538	481.062
948.017	637.799
952.493	529.021
956.967	681.752
961.437	315.519
965.905	786.109
970.371	552.104
974.834	558.527
979.294	423.535
983.751	608.988
988.206	473.629
992.658	415.652
997.108	161.596
1001.55	267.256
1006	213.416
1010.44	87.4531
1014.88	156.945
1019.32	169.676
1023.75	31.1934
1028.18	84.9707
1032.61	111.42
1037.03	19.8184
1041.45	25.7891
1045.88	60.248
1050.29	23.4121
1054.71	176.133
1059.12	73.5352
1063.53	93.8418
1067.93	331.438
1072.34	175.272
1076.74	74.6309
1081.14	260.711
1085.53	170.387
1089.93	120.512
1094.32	297.143
1098.7	241.238
1103.09	319.897
1107.47	367.478
1111.85	568.881
1116.23	1003.17
1120.6	742.549
1124.97	785.988
1129.34	1057.77
1133.71	941.707
1138.07	963.535
1142.43	911.494
1146.79	1069.57
1151.15	1069.33
1155.5	768.752
1159.85	1051.93
1164.19	676.854
1168.54	701.045
1172.88	622.518
1177.22	782.252
1181.56	628.252
1185.89	545.029
1190.22	454.643
1194.55	594.988
1198.87	383.85
1203.19	219.557
1207.51	465.644
1211.83	705.887
1216.14	705.129
1220.46	424.131
1224.77	611.894
1229.07	542.15
1233.37	567.59
1237.67	689.762
1241.97	430.647
1246.27	673.238
1250.56	465.502
1254.85	703.434
1259.13	674.691
1263.42	944.621
1267.7	920.697
1271.98	879.615
1276.25	803.26
1280.53	789.709
1284.8	1453.37
1289.06	1156.53
1293.33	1204.48
1297.59	1245.46
1301.85	1216.61
1306.11	1168.07
1310.36	1195.91
1314.61	1087.75
1318.86	934.818
1323.1	641.271
1327.34	728.414
1331.58	750.32
1335.82	507.928
1340.05	661.551
1344.29	291.793
1348.51	426.17
1352.74	280.432
1356.96	270.877
1361.18	346.914
1365.4	341.93
1369.61	245.941
1373.82	214.764
1378.03	227.611
1382.24	538.715
1386.44	46.9238
1390.64	53.9316
1394.84	83.8223
1399.04	2.59961
1403.23	16.4395
1407.42	0.412109
1411.6	190.451
1415.79	15.3848
1419.97	195.408
1424.14	114.883
1428.32	70.6094
1432.49	135.473
1436.66	99.3887
1440.83	158.625
1444.99	236.025
1449.15	118.678
1453.31	122.797
1457.47	134.637
1461.62	273.041
1465.77	126.469
1469.91	277.725
1474.06	377.633
1478.2	585.443
1482.34	352.15
1486.47	240.043
1490.61	313.131
1494.74	254.227
1498.86	475.996
1502.99	138.18
1507.11	306.09
1511.23	251.816
1515.34	155.295
1519.46	175.408
1523.57	265.803
1527.67	278.51
1531.78	287.971
1535.88	272.578
1539.98	519.709
1544.07	146.352
1548.17	247.91
1552.26	347.656
1556.34	34.2227
1560.43	282.828
1564.51	316.272
1568.59	57.416
1572.66	157.826
1576.74	247.801
