Measurement: Raman, 514 nm, depolarized, Raman Data Processed
Mineral: Hausmannite
Rruff sample: R040091
Ideal chemistry: Mn^2+^Mn^3+^_2_O_4_
Locality: Germany
Source: University of Arizona Mineral Museum
Description: Mass of black octahedral crystals
Measured chemistry: (Mn^2+^_0.96_Zn_0.02_Mg_0.02_)Mn^3+^_2.00_O_4_
Pin_id: S00198
Orientation: Laser parallel to c* (0 0 1). Fiducial mark perpendicular to laser is parallel to a [1 0 0]
Raman shift (cm-1)	intensity
200.717	0
204.846	134.241
208.972	78.255
213.097	18.25
217.22	107.262
221.341	64.644
225.46	76.646
229.577	63.047
233.692	36.842
237.805	168.276
241.916	87.608
246.025	82.265
250.132	72.821
254.237	81.068
258.34	59.772
262.442	34.342
266.541	49.891
270.639	82.054
274.734	71.691
278.828	95.811
282.919	140.57
287.009	100.359
291.097	122.475
295.183	198.248
299.266	302.186
303.348	461.021
307.428	619.95
311.507	629.692
315.583	518.188
319.657	353.427
323.729	226.283
327.8	230.719
331.868	155.306
335.935	247.275
339.999	243.354
344.062	195.166
348.123	261.669
352.182	327.848
356.239	454.256
360.294	532.526
364.347	582.751
368.398	551.475
372.448	364.735
376.495	266.5
380.54	129.472
384.584	96.15
388.626	76.588
392.666	7.413
396.704	0.927
400.74	21.154
404.774	23.008
408.806	1.736
412.836	18.788
416.865	32.336
420.891	6.242
424.916	24.551
428.939	38.309
432.959	26.903
436.978	38.699
440.996	5.182
445.011	26.271
449.024	0.307
453.036	14.795
457.045	54.009
461.053	89.386
465.059	182.32
469.063	151.81
473.065	137.789
477.065	77.334
481.063	215.547
485.06	147.071
489.054	209.017
493.047	190.117
497.038	154.39
501.027	229.211
505.014	249.283
508.999	228.685
512.982	211.72
516.964	307.695
520.944	209.614
524.921	259.451
528.897	378.02
532.871	356.323
536.844	302.376
540.814	299.993
544.783	410.713
548.749	339.113
552.714	445.139
556.677	485.286
560.638	619.618
564.597	476.333
568.555	551.947
572.511	423.741
576.464	321.101
580.416	318.033
584.366	273.955
588.315	218.204
592.261	178.773
596.206	171.292
600.148	328.889
604.089	309.331
608.028	416.61
611.965	532.124
615.901	598.169
619.834	670.338
623.766	955.218
627.696	1402.11
631.624	1977.91
635.551	2832.34
639.475	4231.64
643.398	5903.34
647.318	7997.86
651.237	8772.11
655.155	7595.93
659.07	5670.43
662.984	4030.92
666.895	2743.54
670.805	1965.06
674.713	1519.93
678.62	1174.44
682.524	836.077
686.427	732.305
690.328	596.774
694.227	509.242
698.124	440.443
702.02	425.518
705.913	389.784
709.805	338.388
713.695	232.364
717.584	375.307
721.47	243.937
725.355	215.436
729.238	260.629
733.119	203.479
736.998	193.389
740.876	237.32
744.752	206.377
748.626	170.31
752.498	211.902
756.368	167.682
760.237	192.69
764.104	139.44
767.969	63.353
771.832	67.472
775.693	80.166
779.553	77.976
783.411	54.822
787.267	103.669
791.122	21.372
794.974	54.887
798.825	33.548
802.674	109.168
806.522	15.769
810.367	26.364
814.211	51.98
818.053	47.572
821.893	75.002
825.732	34.632
829.568	35.702
833.403	42.084
837.236	107.116
841.068	31.713
844.898	47.244
848.726	9.833
852.552	7.016
856.376	57.28
860.199	55.415
864.02	61.506
867.839	83.154
871.656	23.402
875.472	109.737
879.286	90.761
883.098	98.728
886.909	19.913
890.717	27.839
894.524	121.446
898.33	31.981
902.133	71.15
905.935	43.894
909.735	33.226
913.533	54.437
917.33	21.582
921.124	45.658
924.918	76.649
928.709	148.504
932.499	92.083
936.286	170.867
940.073	98.583
943.857	78.162
947.64	61.728
951.421	166.198
955.2	130.616
958.978	61.881
962.753	51.097
966.527	60.129
970.3	200.32
974.071	148.321
977.84	103.399
981.607	214.909
985.372	32.335
989.136	53.59
992.898	127.662
996.659	95.393
1000.42	66.321
1004.17	21.37
1007.93	8.293
1011.68	71.102
1015.43	18.308
1019.18	57.393
1022.93	134.459
1026.68	27.056
1030.42	81.745
1034.17	4.216
1037.91	24.505
1041.65	112.571
1045.39	20.237
1049.12	87.545
1052.86	64.306
1056.59	78.173
1060.33	97.914
1064.06	113.59
1067.78	10.306
1071.51	20.163
1075.23	77.818
1078.96	8.799
1082.68	66.637
1086.4	76.463
1090.12	53.284
1093.83	41.23
1097.55	75.319
1101.26	113.283
1104.97	55.249
1108.68	71.195
1112.39	112.093
1116.1	117.051
1119.8	150.985
1123.5	132.032
1127.2	214.128
1130.9	114.202
1134.6	91.274
1138.3	119.465
1141.99	87.56
1145.69	88.328
1149.38	128.062
1153.07	141.268
1156.76	128.542
1160.44	75.208
1164.13	53.836
1167.81	48.122
1171.49	22.404
1175.17	46.346
1178.85	105.063
1182.52	21.156
1186.2	24.56
1189.87	108.171
1193.54	111.857
1197.21	108.521
1200.88	58.41
1204.55	107.172
1208.21	124.151
1211.88	177.097
1215.54	103.689
1219.2	91.008
1222.86	114.72
1226.51	93.51
1230.17	126.77
1233.82	63.855
1237.47	79.564
1241.12	189.255
1244.77	154.265
1248.42	114.035
1252.06	89.866
1255.71	128.85
1259.35	118.263
1262.99	129.596
1266.63	107.046
1270.26	216.902
1273.9	124.55
1277.53	168.906
1281.16	146.715
1284.8	128.533
1288.42	29.625
1292.05	74.492
1295.68	141.517
1299.3	115.615
1302.92	166.216
1306.55	150.807
1310.16	154.317
1313.78	88.823
1317.4	82.313
1321.01	9.76
1324.62	24.811
1328.24	48.313
1331.85	58.358
1335.45	78.334
1339.06	97.223
1342.66	46.024
1346.27	9.19
1349.87	73.449
1353.47	11.3
1357.07	60.783
1360.66	63.813
1364.26	115.471
1367.85	96.598
1371.44	48.599
1375.04	21.514
1378.62	61.471
1382.21	140.744
1385.8	70.836
1389.38	28.905
1392.96	65.949
1396.54	19.937
1400.12	44.776
1403.7	9.576
1407.28	21.329
1410.85	60.084
1414.42	98.824
1417.99	36.03
1421.56	27.722
1425.13	90.505
1428.7	42.089
1432.26	51.662
1435.83	29.076
1439.39	21.739
1442.95	105.896
1446.51	82.85
1450.06	80.799
1453.62	203.399
1457.17	111.98
1460.73	56.398
1464.28	38.863
1467.83	68.741
1471.37	70.703
1474.92	82.114
1478.46	181.377
1482.01	117.972
1485.55	103.771
1489.09	123.564
1492.63	91.7
1496.16	202.096
1499.7	166.83
1503.23	124.162
1506.76	93.734
1510.29	136.891
1513.82	77.781
1517.35	1.292
1520.88	0
