Measurement: Raman, 514 nm, ccw, Raman Data Processed
Mineral: Hausmannite
Rruff sample: R060512
Ideal chemistry: Mn^2+^Mn^3+^_2_O_4_
Locality: N'Chwaning II mine, Kalahari manganese field, northern Cape Province, Republic of South Africa
Source: Michael Scott
Description: Group of black pseudo-octahedra with striations parallel to the (001) plane
Measured chemistry: Mn^2+^_0.99_Mn^3+^_1.98_O_4_
Pin_id: M00870
Orientation: Laser parallel to c* (0 0 1). Fiducial mark perpendicular to laser is parallel to a [1 0 0]
Raman shift (cm-1)	intensity
151.2	0
156.121	2.20801
161.038	219.889
165.953	292.167
170.865	414.3
175.774	51.8047
180.681	188.993
185.585	229.48
190.486	449.886
195.384	394.285
200.28	355.705
205.173	433.315
210.063	37.8818
214.95	261.025
219.835	190.53
224.717	266.142
229.597	289.815
234.473	321.578
239.347	163.644
244.218	192.525
249.087	101.424
253.953	98.1367
258.816	135.691
263.676	124.091
268.534	122.225
273.389	90.2871
278.241	59.5566
283.091	85.3945
287.938	126.392
292.782	35.0938
297.623	43.4434
302.462	222.518
307.298	230.444
312.131	754.601
316.962	1383.9
321.79	1143.94
326.615	692.633
331.438	433.408
336.258	320.19
341.075	185.456
345.889	394.229
350.701	328.364
355.51	471.153
360.317	818.81
365.12	1141.24
369.921	1115.56
374.72	810.009
379.515	514.263
384.309	101.812
389.099	175.811
393.886	23.3545
398.671	18.2188
403.454	36.9082
408.233	64.8994
413.01	40.8135
417.785	39.3418
422.556	57.459
427.325	66.2178
432.091	14.7871
436.855	73.5156
441.616	125.721
446.374	102.232
451.13	41.8369
455.883	21.3193
460.633	17.293
465.38	99.4951
470.125	96.9551
474.868	200.123
479.607	125.02
484.344	260.619
489.078	96.4893
493.81	299.685
498.539	399.891
503.265	319.019
507.989	376.099
512.71	432.176
517.428	463.281
522.144	615.428
526.857	617.889
531.567	574.527
536.275	646.796
540.98	726.068
545.683	944.188
550.383	1101.47
555.08	1252.97
559.774	1211.21
564.466	1370.51
569.155	1364.14
573.842	1148.47
578.526	835.667
583.207	593.36
587.886	243.361
592.562	151.575
597.235	26.2109
601.906	257.099
606.574	371.493
611.24	581.284
615.903	762.384
620.563	1145.8
625.221	1461.54
629.876	1723.67
634.528	2498.15
639.178	4042.98
643.825	7990.15
648.47	13348.7
653.112	27290.5
657.751	40561.8
662.388	28854.3
667.022	14414.2
671.653	7278.47
676.282	3928.09
680.908	2401.25
685.532	1505.98
690.153	964.265
694.771	852.001
699.387	484.76
704	357.027
708.61	368.275
713.218	315.119
717.824	413.335
722.426	294.697
727.026	394.097
731.624	342.301
736.219	498.138
740.811	290.275
745.401	338.964
749.988	194.17
754.572	307.458
759.154	360.815
763.734	258.853
768.31	264.205
772.884	291.24
777.456	371.998
782.025	50.5596
786.591	12.5098
791.155	10.2324
795.716	82.7188
800.275	446.214
804.831	190.648
809.384	171.398
813.935	261.724
818.483	13.9346
823.029	111.995
827.572	62.2148
832.112	171.1
836.65	50.043
841.186	53.419
845.718	69.5449
850.249	31.124
854.776	58.4971
859.301	19.5449
863.824	14.9775
868.344	89.2402
872.861	8.05859
877.376	128.194
881.888	189.978
886.397	155.24
890.904	119.922
895.409	104.834
899.911	109.728
904.41	62.4795
908.907	148.53
913.401	114.297
917.893	51.6309
922.382	80.7969
926.869	321.718
931.353	124.582
935.834	242.537
940.313	204.034
944.789	137.789
949.263	166.131
953.734	238.205
958.203	139.894
962.669	192.94
967.133	217.372
971.594	185.935
976.052	247.38
980.508	280.657
984.961	146.678
989.412	141.838
993.861	247.109
998.306	199.238
1002.75	228.13
1007.19	232.643
1011.63	129.568
1016.06	43.3975
1020.5	123.667
1024.93	9.81348
1029.36	156.819
1033.78	3.03809
1038.2	59.5625
1042.62	155.032
1047.04	20.5771
1051.46	57.249
1055.87	324.019
1060.28	19.3604
1064.69	133.796
1069.09	86.1279
1073.5	79.4424
1077.9	28.3604
1082.29	173.685
1086.69	104.015
1091.08	140.474
1095.47	68.1055
1099.86	117.991
1104.24	95.0684
1108.63	295.362
1113.01	255.995
1117.38	386.984
1121.76	601.372
1126.13	558.135
1130.5	558.128
1134.87	263.342
1139.23	602.877
1143.6	330.934
1147.96	417.215
1152.32	410.946
1156.67	387.709
1161.02	298.302
1165.37	234.422
1169.72	129.634
1174.07	294.487
1178.41	165.742
1182.75	288.184
1187.08	252.9
1191.42	241.802
1195.75	138.695
1200.08	319.466
1204.41	158.668
1208.73	98.5742
1213.06	221.046
1217.38	156.438
1221.69	330.357
1226.01	182.565
1230.32	161.544
1234.63	202.449
1238.94	322.94
1243.24	261.938
1247.55	275.194
1251.85	280.656
1256.14	223.72
1260.44	279.647
1264.73	270.154
1269.02	327.366
1273.31	397.147
1277.6	458.539
1281.88	368.883
1286.16	410.176
1290.44	386.272
1294.71	463.312
1298.98	544.544
1303.26	403.214
1307.52	615.92
1311.79	393.377
1316.05	297.216
1320.31	235.177
1324.57	318.315
1328.83	103.653
1333.08	111.206
1337.33	239.968
1341.58	86.9131
1345.82	202.883
1350.07	140.885
1354.31	158.237
1358.55	130.702
1362.78	125.159
1367.02	103.909
1371.25	88.2793
1375.48	17.6738
1379.7	48.374
1383.92	16.4082
1388.15	55.8623
1392.37	187.192
1396.58	16.499
1400.8	0.469727
1405.01	179.434
1409.22	38.3574
1413.42	59.123
1417.63	61.5029
1421.83	86.9717
1426.03	46.3906
1430.22	72.5049
1434.42	21.2754
1438.61	65.7422
1442.8	111.378
1446.99	123.689
1451.17	47.7822
1455.35	98.7861
1459.53	91.8887
1463.71	146.889
1467.89	56.8828
1472.06	39.0664
1476.23	223.018
1480.4	133.887
1484.56	164.752
1488.72	38.002
1492.88	223.152
1497.04	188.248
1501.2	79.1387
1505.35	124.873
1509.5	102.895
1513.65	166.306
1517.8	114.022
1521.94	138.792
1526.08	108.659
1530.22	195.062
1534.36	84.54
1538.49	128.888
1542.62	7.2207
1546.75	55.0264
1550.88	324.217
1555	370.159
1559.12	114.727
1563.24	135.394
1567.36	135.043
1571.47	61.251
