Measurement: Raman, 514 nm, ccw, Raman Data Processed
Mineral: Hausmannite
Rruff sample: R040090
Ideal chemistry: Mn^2+^Mn^3+^_2_O_4_
Locality: Ã–hrenstock, Ilmenau, near Thuringia, Germany
Source: University of Arizona Mineral Museum
Description: Mass of black octahedral crystals
Measured chemistry: (Mn^2+^_0.71_Zn_0.28_)Mn^3+^_2.00_O_4_
Pin_id: M00841
Orientation: Laser parallel to c* (0 0 1). Fiducial mark perpendicular to laser is parallel to a [1 0 0]
Raman shift (cm-1)	intensity
88.049	0
92.976	626.803
97.901	23.2734
102.823	1650.63
107.744	778.327
112.662	3554.39
117.578	2594.03
122.492	4031.95
127.403	15.0625
132.312	306.628
137.22	233.778
142.124	17.748
147.027	79.0781
151.927	230.978
156.826	106.596
161.721	720.457
166.615	266.57
171.507	361.97
176.396	568.119
181.283	494.633
186.167	524.369
191.05	531.111
195.93	360.479
200.808	434.374
205.683	193.059
210.557	20.3467
215.428	186.042
220.296	122.301
225.163	107.545
230.027	89.1094
234.889	35.5547
239.749	40.5986
244.606	337.651
249.461	412.673
254.314	303.325
259.164	6.02148
264.012	88.543
268.858	169.486
273.702	174.268
278.543	161.344
283.382	371.539
288.218	401.595
293.053	679.172
297.885	823.758
302.714	1040.88
307.542	1856.7
312.366	2791.39
317.189	3764.29
322.009	4075.47
326.827	2997.07
331.643	2012.23
336.456	1553.13
341.267	1211.65
346.076	1226.17
350.882	1252.49
355.686	1445.47
360.488	1753.98
365.287	1993.1
370.084	2111.51
374.878	1760.5
379.67	1529.58
384.46	831.802
389.247	572.85
394.032	294.635
398.815	457.795
403.595	17.6299
408.373	159.654
413.148	54.7783
417.922	33.9395
422.692	35.6377
427.461	10.123
432.226	116.478
436.99	23.1377
441.751	55.1797
446.51	36.4336
451.266	79.959
456.02	39.8623
460.772	88.2314
465.521	46.3359
470.267	112.052
475.012	182.89
479.754	122.981
484.493	175.079
489.23	275.027
493.965	269.027
498.697	284.618
503.427	384.065
508.154	280.077
512.879	359.779
517.601	568.227
522.321	691.577
527.039	723.735
531.754	621.766
536.467	562.352
541.177	739.591
545.885	786.195
550.59	1091.57
555.293	1005.15
559.993	1166.15
564.691	1305.62
569.387	1511.56
574.08	1553.02
578.77	1311.3
583.459	1086.9
588.144	942.71
592.827	1057.28
597.508	1053.22
602.186	1170.22
606.862	1349.06
611.535	2046.14
616.206	2832.36
620.874	3432.35
625.54	4269.43
630.204	5374.19
634.864	7003.8
639.523	8974.25
644.179	12757.5
648.832	19340.5
653.483	30052.3
658.131	42482.8
662.777	47765.1
667.42	39602.1
672.061	26351.8
676.699	16191.3
681.335	9707.23
685.968	6046.28
690.599	3914.77
695.227	2744.97
699.853	1980.79
704.476	1582.28
709.097	1093.53
713.715	957.951
718.331	824.02
722.944	662.241
727.554	828.771
732.162	749.759
736.768	675.885
741.371	646.656
745.971	652.552
750.569	468.226
755.164	433.197
759.757	609.581
764.347	465.953
768.935	446.998
773.52	381.893
778.103	283.449
782.683	408.917
787.26	157.484
791.835	234.903
796.407	31.2617
800.977	32.5361
805.544	462.702
810.109	178.745
814.671	38.6455
819.23	16.6621
823.787	174.783
828.341	23.0225
832.893	91.7803
837.442	20.6777
841.989	67.1865
846.533	0.792969
851.074	66.2695
855.613	27.1328
860.149	18.6035
864.683	98.8838
869.214	44.7529
873.742	43.0156
878.268	18.165
882.791	51.4492
887.312	62.207
891.83	153
896.345	113.255
900.858	255.008
905.368	34.9346
909.876	136.633
914.381	139.866
918.883	317.904
923.383	265.126
927.88	241.792
932.374	302.982
936.866	531.671
941.355	260.191
945.842	418.933
950.326	282.898
954.807	323.445
959.286	388.716
963.762	247.19
968.235	545.537
972.706	443.769
977.174	199.94
981.64	428.865
986.103	434.487
990.563	458.225
995.021	304.076
999.476	275.78
1003.93	323.343
1008.38	309.778
1012.83	254.272
1017.27	198.727
1021.71	88.3594
1026.15	101.282
1030.59	160.613
1035.02	161.182
1039.45	84.4522
1043.88	21.4492
1048.31	1.49512
1052.73	0.462891
1057.15	62.5527
1061.57	125.579
1065.98	60.6348
1070.39	5.73731
1074.8	95.8994
1079.21	16.8662
1083.62	168.422
1088.02	148.843
1092.41	103.42
1096.81	29.1816
1101.2	228.157
1105.6	210.334
1109.98	181.977
1114.37	296.088
1118.75	489.704
1123.13	519.804
1127.51	624.451
1131.88	544.698
1136.26	795.316
1140.63	755.445
1144.99	787.234
1149.36	599.449
1153.72	689.912
1158.08	597.727
1162.43	632.006
1166.79	468.642
1171.14	433.951
1175.48	422.235
1179.83	478.107
1184.17	453.513
1188.51	389.717
1192.85	350.406
1197.18	470.553
1201.51	328.152
1205.84	356.887
1210.17	299.134
1214.49	223.782
1218.81	342.515
1223.13	253.719
1227.44	251.538
1231.76	548.743
1236.07	457.417
1240.37	443.56
1244.68	552.165
1248.98	396.21
1253.28	554.69
1257.57	507.133
1261.87	457.319
1266.16	504.979
1270.44	622.046
1274.73	627.487
1279.01	605.489
1283.29	622.684
1287.57	700.781
1291.84	817.129
1296.11	659.174
1300.38	855.059
1304.65	868.371
1308.91	933.517
1313.17	771.362
1317.43	797.521
1321.68	749.052
1325.93	432.144
1330.18	448.397
1334.43	460.908
1338.67	423.922
1342.91	314.649
1347.15	114.03
1351.39	205.11
1355.62	293.834
1359.85	195.168
1364.08	243.101
1368.3	249.093
1372.52	117.89
1376.74	196.727
1380.95	149.595
1385.17	119.045
1389.38	138.427
1393.59	1.75781
1397.79	97.8203
1401.99	49.8193
1406.19	47.7041
1410.39	15.3935
1414.58	14.7021
1418.77	26.2617
1422.96	4.2334
1427.14	120.96
1431.33	158.564
1435.51	29.2598
1439.68	166.156
1443.86	72.2383
1448.03	5.96777
1452.2	233.768
1456.36	54.5654
1460.53	27.5352
1464.68	27.4873
1468.84	101.766
1473	157.424
1477.15	126.599
1481.3	229.545
1485.44	209.56
1489.59	202.305
1493.73	307.773
1497.86	168.602
1502	321.396
1506.13	156.092
1510.26	133.424
1514.38	95.4707
1518.51	128.64
1522.63	252.76
1526.75	51.043
1530.86	98.8418
1534.97	181.857
1539.08	24.6309
1543.19	192.876
1547.29	0
