Measurement: Raman, 514 nm, depolarized, Raman Data Processed
Mineral: Hausmannite
Rruff sample: R060512
Ideal chemistry: Mn^2+^Mn^3+^_2_O_4_
Locality: N'Chwaning II mine, Kalahari manganese field, northern Cape Province, Republic of South Africa
Source: Michael Scott
Description: Group of black pseudo-octahedra with striations parallel to the (001) plane
Measured chemistry: Mn^2+^_0.99_Mn^3+^_1.98_O_4_
Pin_id: M00870
Orientation: Laser parallel to c* (0 0 1). Fiducial mark perpendicular to laser is parallel to a [1 0 0]
Raman shift (cm-1)	intensity
146.277	0
151.2	432.639
156.121	583.84
161.038	1078.32
165.953	1191.89
170.865	682.943
175.774	383.35
180.681	929.158
185.585	990.441
190.486	1221.62
195.384	1262.48
200.28	1524.23
205.173	887.519
210.063	737.905
214.95	624.346
219.835	1012.59
224.717	631.811
229.597	595.088
234.473	793.827
239.347	354.028
244.218	574.715
249.087	264.437
253.953	298.659
258.816	145.865
263.676	146.023
268.534	100.235
273.389	83.3516
278.241	43.6748
283.091	55.0996
287.938	66.8975
292.782	71.501
297.623	35.7383
302.462	13.8428
307.298	302.926
312.131	709.945
316.962	1654.35
321.79	1068.21
326.615	626.795
331.438	238.058
336.258	359.713
341.075	205.157
345.889	549.833
350.701	719.424
355.51	801.733
360.317	971.265
365.12	1591.83
369.921	2356.18
374.72	1939.8
379.515	895.48
384.309	352.688
389.099	285.452
393.886	155.966
398.671	141.331
403.454	145.319
408.233	57.8984
413.01	111.738
417.785	218.696
422.556	176.977
427.325	126.359
432.091	164.873
436.855	4.4541
441.616	107.466
446.374	77.3613
451.13	81.7607
455.883	11.0889
460.633	110.668
465.38	211.621
470.125	248.019
474.868	476.713
479.607	482.731
484.344	388.54
489.078	522.248
493.81	556.487
498.539	499.879
503.265	782.019
507.989	702.357
512.71	802.808
517.428	876.45
522.144	1007.37
526.857	1016.22
531.567	1188.47
536.275	955.438
540.98	983.188
545.683	1252.28
550.383	1537.47
555.08	1736.85
559.774	1822.59
564.466	1670.55
569.155	1747.45
573.842	1707.16
578.526	1188.34
583.207	611.949
587.886	173.93
592.562	37.1279
597.235	113.951
601.906	40.0059
606.574	137.83
611.24	298.197
615.903	566.101
620.563	859.936
625.221	1145.06
629.876	1481.29
634.528	2443.56
639.178	4099.1
643.825	7086.67
648.47	14315.2
653.112	29755.7
657.751	42953.4
662.388	30028.4
667.022	14699
671.653	7212.7
676.282	3824.62
680.908	2287.38
685.532	1571.03
690.153	934.126
694.771	771.135
699.387	573.05
704	262.158
708.61	305.565
713.218	394.462
717.824	394.541
722.426	341.594
727.026	280.169
731.624	352.491
736.219	642.492
740.811	410.485
745.401	337.291
749.988	124.602
754.572	323.495
759.154	298.371
763.734	293.756
768.31	191.399
772.884	270.996
777.456	56.1338
782.025	157.046
786.591	150.582
791.155	79.2715
795.716	92.7207
800.275	141.377
804.831	150.6
809.384	209.842
813.935	214.286
818.483	17.2383
823.029	74.0527
827.572	1.07227
832.112	108.014
836.65	54.1797
841.186	20.1104
845.718	66.4258
850.249	25.3896
854.776	84.7471
859.301	48.4482
863.824	78.6426
868.344	7.84766
872.861	89.1631
877.376	134.803
881.888	242.976
886.397	47.6621
890.904	148.864
895.409	93.6143
899.911	150.883
904.41	96.667
908.907	225.969
913.401	103.868
917.893	249.95
922.382	51.3242
926.869	6.68359
931.353	169.291
935.834	220.248
940.313	102.913
944.789	223.287
949.263	57.4033
953.734	317.11
958.203	187.043
962.669	193.485
967.133	36.4228
971.594	65.0635
976.052	235.992
980.508	258.922
984.961	314.787
989.412	121.248
993.861	162.947
998.306	13.4766
1002.75	170.416
1007.19	148.742
1011.63	88.6953
1016.06	133.653
1020.5	136.016
1024.93	51.042
1029.36	4.86719
1033.78	60.6992
1038.2	76.4922
1042.62	37.8135
1047.04	127.733
1051.46	103.995
1055.87	44.0127
1060.28	60.9434
1064.69	56.6445
1069.09	109.192
1073.5	63.1504
1077.9	0.077148
1082.29	59.6826
1086.69	69.457
1091.08	41.7773
1095.47	117.628
1099.86	151.641
1104.24	180.257
1108.63	162.995
1113.01	294.141
1117.38	283.494
1121.76	362.066
1126.13	492.859
1130.5	519.134
1134.87	575.864
1139.23	502.031
1143.6	436.487
1147.96	467.213
1152.32	350.17
1156.67	301.368
1161.02	280.86
1165.37	312.79
1169.72	312.006
1174.07	251.504
1178.41	195.145
1182.75	345.955
1187.08	223.165
1191.42	186.718
1195.75	199.565
1200.08	94.6738
1204.41	236.326
1208.73	220.105
1213.06	205.997
1217.38	266.185
1221.69	148.632
1226.01	104.643
1230.32	244.603
1234.63	234.884
1238.94	303.365
1243.24	290.111
1247.55	250.912
1251.85	354.303
1256.14	255.735
1260.44	382.382
1264.73	473.193
1269.02	385.175
1273.31	390.518
1277.6	352.781
1281.88	468.411
1286.16	505.576
1290.44	553.045
1294.71	431.484
1298.98	598.232
1303.26	513.985
1307.52	553.093
1311.79	444.347
1316.05	408.721
1320.31	349.731
1324.57	293.001
1328.83	166.389
1333.08	183.249
1337.33	122.598
1341.58	295.551
1345.82	110.631
1350.07	102.901
1354.31	31.2324
1358.55	151.683
1362.78	181.156
1367.02	110.875
1371.25	38.2744
1375.48	111.435
1379.7	84.3789
1383.92	40.3594
1388.15	70.626
1392.37	176.69
1396.58	139.536
1400.8	27.5234
1405.01	8.28125
1409.22	16.6279
1413.42	73.8047
1417.63	89.5273
1421.83	43.0469
1426.03	8.02539
1430.22	40.748
1434.42	37.2256
1438.61	43.6748
1442.8	105.794
1446.99	66.7744
1451.17	58.9424
1455.35	16.4238
1459.53	15.7744
1463.71	126.143
1467.89	180.198
1472.06	40.5449
1476.23	150.953
1480.4	184.513
1484.56	85.7598
1488.72	133.183
1492.88	122.411
1497.04	122.279
1501.2	151.597
1505.35	115.481
1509.5	78.9863
1513.65	25.29
1517.8	179.247
1521.94	111.317
1526.08	154.616
1530.22	23.0488
1534.36	17.1758
1538.49	85.8662
1542.62	56.2236
1546.75	227.98
1550.88	292.415
1555	341.052
1559.12	119.898
1563.24	211.348
1567.36	126.447
1571.47	26.8896
1575.58	0.766602
