Measurement: Raman, 514 nm, depolarized, Raman Data Processed
Mineral: Hausmannite
Rruff sample: R040090
Ideal chemistry: Mn^2+^Mn^3+^_2_O_4_
Locality: Ã–hrenstock, Ilmenau, near Thuringia, Germany
Source: University of Arizona Mineral Museum
Description: Mass of black octahedral crystals
Measured chemistry: (Mn^2+^_0.71_Zn_0.28_)Mn^3+^_2.00_O_4_
Pin_id: M01013
Orientation: Laser parallel to a* (1 0 0). Fiducial mark perpendicular to laser is parallel to c [0 0 1]
Raman shift (cm-1)	intensity
127.403	0
132.312	75.0476
137.22	101.078
142.124	116.1
147.027	205.749
151.927	9.09131
156.826	45.7698
161.721	93.9998
166.615	139.887
171.507	198.888
176.396	337.967
181.283	312.351
186.167	337.644
191.05	225.213
195.93	302.127
200.808	329.82
205.683	268.445
210.557	259.675
215.428	174.907
220.296	123.49
225.163	141.449
230.027	90.7073
234.889	58.1492
239.749	19.6995
244.606	68.3499
249.461	34.9534
254.314	15.8176
259.164	32.894
264.012	22.6538
268.858	48.7378
273.702	144.745
278.543	117.774
283.382	198.229
288.218	363.69
293.053	387.321
297.885	442.135
302.714	543.591
307.542	759.401
312.366	1287.09
317.189	1534.22
322.009	1458.41
326.827	1087.62
331.643	677.541
336.456	463.403
341.267	444.19
346.076	361.019
350.882	405.37
355.686	511.263
360.488	589.409
365.287	808.597
370.084	954.885
374.878	1055.25
379.67	827.086
384.46	704.913
389.247	468.476
394.032	330.92
398.815	238.65
403.595	76.9639
408.373	27.0059
413.148	81.5845
417.922	90.0762
422.692	93.9485
427.461	4.49487
432.226	30.8552
436.99	50.6174
441.751	11.3667
446.51	1.63867
451.266	130.364
456.02	201.399
460.772	191.486
465.521	345.651
470.267	434.92
475.012	576.327
479.754	713.902
484.493	660.674
489.23	657.673
493.965	736.92
498.697	822.434
503.427	1141.23
508.154	1167.61
512.879	1043.24
517.601	796.744
522.321	766.037
527.039	671.869
531.754	712.319
536.467	783.406
541.177	753.114
545.885	857.589
550.59	1082.65
555.293	1306.79
559.993	1700.68
564.691	2153.01
569.387	2421.89
574.08	2381.03
578.77	2337.59
583.459	2180.69
588.144	1904.57
592.827	1756.17
597.508	1480.41
602.186	1539.28
606.862	1558.73
611.535	1836.78
616.206	2026.4
620.874	2471.6
625.54	2640.36
630.204	3061.67
634.864	3677.53
639.523	4388.92
644.179	5424.85
648.832	7019.3
653.483	9687.42
658.131	12908.9
662.777	14290.7
667.42	12853.1
672.061	9560.71
676.699	6671.21
681.335	4542.43
685.968	3403.23
690.599	2602.76
695.227	2073.15
699.853	1546.71
704.476	1292.75
709.097	930.893
713.715	824.475
718.331	825.87
722.944	617.411
727.554	570.278
732.162	495.208
736.768	468.916
741.371	485.456
745.971	419.225
750.569	295.978
755.164	334.148
759.757	246.633
764.347	167.392
768.935	183.542
773.52	101.797
778.103	116.724
782.683	57.7969
787.26	37.7078
791.835	27.4551
796.407	32.0667
800.977	17.4702
805.544	26.2251
810.109	14.4495
814.671	14.721
819.23	64.2024
823.787	25.0737
828.341	110.571
832.893	1.27661
837.442	31.4058
841.989	9.91357
846.533	47.0562
851.074	41.6238
855.613	49.2803
860.149	35.3887
864.683	26.8203
869.214	1.71265
873.742	54.2004
878.268	49.8621
882.791	85.8508
887.312	77.8135
891.83	142.705
896.345	137.845
900.858	110.246
905.368	179.713
909.876	181.501
914.381	183.563
918.883	168.064
923.383	220.972
927.88	225.935
932.374	264.608
936.866	203.491
941.355	232.025
945.842	231.005
950.326	161.875
954.807	275.746
959.286	224.659
963.762	159.078
968.235	178.112
972.706	221.425
977.174	187.055
981.64	192.255
986.103	192.168
990.563	209.068
995.021	86.3596
999.476	131.299
1003.93	210.149
1008.38	126.602
1012.83	80.9321
1017.27	66.6875
1021.71	7.58423
1026.15	23.405
1030.59	28.4936
1035.02	5.89917
1039.45	37.3162
1043.88	21.2554
1048.31	16.739
1052.73	71.2371
1057.15	71.1145
1061.57	107.016
1065.98	101.907
1070.39	56.8013
1074.8	78.7524
1079.21	21.8726
1083.62	20.1216
1088.02	40.5195
1092.41	68.3462
1096.81	44.3706
1101.2	12.3379
1105.6	83.1697
1109.98	60.9273
1114.37	24.9863
1118.75	93.4394
1123.13	221.074
1127.51	135.985
1131.88	107.193
1136.26	209.525
1140.63	181.318
1144.99	276.629
1149.36	209.778
1153.72	125.115
1158.08	224.364
1162.43	192.166
1166.79	258.295
1171.14	160.689
1175.48	129.348
1179.83	164.048
1184.17	248.288
1188.51	195.418
1192.85	223.151
1197.18	219.137
1201.51	263.366
1205.84	221.833
1210.17	245.777
1214.49	233.497
1218.81	162.672
1223.13	276.145
1227.44	217.906
1231.76	252.756
1236.07	238.384
1240.37	206.445
1244.68	269.643
1248.98	192.04
1253.28	198.152
1257.57	259.471
1261.87	261.982
1266.16	309.682
1270.44	248.077
1274.73	287.453
1279.01	243.727
1283.29	341.732
1287.57	218.082
1291.84	313.129
1296.11	377.416
1300.38	360.707
1304.65	312.832
1308.91	326.844
1313.17	264.635
1317.43	285.356
1321.68	297.448
1325.93	196.667
1330.18	187.659
1334.43	200.775
1338.67	154.034
1342.91	128.43
1347.15	128.527
1351.39	99.5474
1355.62	153.021
1359.85	76.0447
1364.08	97.6506
1368.3	85.3662
1372.52	56.502
1376.74	93.48
1380.95	2.81836
1385.17	32.5081
1389.38	27.2346
1393.59	66.8855
1397.79	39.863
1401.99	42.9563
1406.19	23.7498
1410.39	9.16919
1414.58	19.2122
1418.77	47.1863
1422.96	10.0557
1427.14	15.6587
1431.33	20.958
1435.51	7.8208
1439.68	87.4358
1443.86	46.2131
1448.03	6.98364
1452.2	70.3101
1456.36	52.4722
1460.53	21.0207
1464.68	39.8499
1468.84	66.5002
1473	63.1123
1477.15	55.6738
1481.3	44.2139
1485.44	55.7537
1489.59	50.5869
1493.73	69.6331
1497.86	123.391
1502	38.2444
1506.13	65.3545
1510.26	110.645
1514.38	125.05
1518.51	140.297
1522.63	33.0974
1526.75	48.697
1530.86	45.4863
1534.97	53.8418
1539.08	19.023
1543.19	11.0185
1547.29	60.5305
1551.39	70.0698
1555.49	107.951
1559.59	70.1072
1563.68	47.5176
1567.77	19.5066
1571.85	50.574
1575.94	0.204346
