Measurement: Raman, 514 nm, ccw, Raman Data Processed
Mineral: Hausmannite
Rruff sample: R040090
Ideal chemistry: Mn^2+^Mn^3+^_2_O_4_
Locality: Ã–hrenstock, Ilmenau, near Thuringia, Germany
Source: University of Arizona Mineral Museum
Description: Mass of black octahedral crystals
Measured chemistry: (Mn^2+^_0.71_Zn_0.28_)Mn^3+^_2.00_O_4_
Pin_id: M00841
Orientation: Laser parallel to c* (0 0 1). Fiducial mark perpendicular to laser is parallel to a [1 0 0]
Raman shift (cm-1)	intensity
88.049	0
92.976	315.966
97.901	658.08
102.823	2360.55
107.744	1193.88
112.662	954.394
117.578	3737.52
122.492	7497.89
127.403	377.103
132.312	187.414
137.22	37.5381
142.124	44.7129
147.027	212.206
151.927	156.677
156.826	458.187
161.721	636.679
166.615	738.812
171.507	565.027
176.396	655.048
181.283	625.312
186.167	719.335
191.05	700.532
195.93	493.649
200.808	394.039
205.683	207.074
210.557	187.419
215.428	37.2246
220.296	201.281
225.163	60.0596
230.027	55.1582
234.889	118.914
239.749	61.6143
244.606	46.1191
249.461	214.096
254.314	180.434
259.164	140.909
264.012	229.87
268.858	187.81
273.702	319.335
278.543	287.397
283.382	409.815
288.218	473.812
293.053	732.97
297.885	1062.55
302.714	1552.38
307.542	2696.39
312.366	4871.41
317.189	6775.75
322.009	6659.2
326.827	4374.88
331.643	2665.37
336.456	1683.75
341.267	1503.64
346.076	1440.02
350.882	1083.71
355.686	1172.76
360.488	1189.45
365.287	932.39
370.084	1046.13
374.878	1031.51
379.67	995.923
384.46	856.355
389.247	459.068
394.032	405.521
398.815	193.5
403.595	214.825
408.373	212.308
413.148	124.761
417.922	62.4404
422.692	110.064
427.461	29.4609
432.226	8.51367
436.99	5.81445
441.751	54.6162
446.51	89.1816
451.266	132.071
456.02	172.726
460.772	7.47559
465.521	269.266
470.267	215.129
475.012	193.082
479.754	122.143
484.493	321.34
489.23	295.734
493.965	194.41
498.697	297.43
503.427	378.215
508.154	473.267
512.879	395.242
517.601	640.19
522.321	580.321
527.039	619.041
531.754	676.367
536.467	701.651
541.177	816.121
545.885	858.322
550.59	921.541
555.293	1134.35
559.993	1145.28
564.691	1250.54
569.387	1400.72
574.08	1188.87
578.77	1130.77
583.459	958.77
588.144	910.715
592.827	884.452
597.508	789.35
602.186	961.205
606.862	979.687
611.535	1203.68
616.206	1501.17
620.874	1667.21
625.54	2159.81
630.204	2502.86
634.864	3051
639.523	3871.11
644.179	4952.14
648.832	6467.5
653.483	8831.85
658.131	11216
662.777	12740
667.42	12054.4
672.061	9016.99
676.699	6418.04
681.335	4077.78
685.968	2713.8
690.599	1900.09
695.227	1493.78
699.853	817.774
704.476	841.887
709.097	624.855
713.715	389.758
718.331	297.501
722.944	292.519
727.554	263.136
732.162	214.685
736.768	234.704
741.371	104.621
745.971	55.3662
750.569	190.225
755.164	128.685
759.757	4.39941
764.347	22.4629
768.935	42.1973
773.52	2.6416
778.103	3.13184
782.683	124.319
787.26	105.294
791.835	38.9727
796.407	85.4834
800.977	25.0186
805.544	9.9873
810.109	74.6416
814.671	82.9824
819.23	17.0479
823.787	32.834
828.341	70.6309
832.893	21.1748
837.442	5.90332
841.989	57.458
846.533	6.43066
851.074	155.862
855.613	106.551
860.149	119.727
864.683	14.3838
869.214	4.64844
873.742	43.6348
878.268	66.5244
882.791	109.893
887.312	170.894
891.83	162.53
896.345	121.414
900.858	69.5684
905.368	59.8154
909.876	205.03
914.381	127.406
918.883	269.985
923.383	228.176
927.88	179.423
932.374	178.574
936.866	206.495
941.355	254.898
945.842	268.094
950.326	211.643
954.807	233.565
959.286	266.309
963.762	265.86
968.235	247.746
972.706	227.733
977.174	213.368
981.64	265.249
986.103	319.626
990.563	307.68
995.021	220.266
999.476	286.492
1003.93	221.575
1008.38	91.2647
1012.83	117.918
1017.27	34.0684
1021.71	35.084
1026.15	6.93359
1030.59	91.3516
1035.02	82.8369
1039.45	121.216
1043.88	22.6104
1048.31	68.3418
1052.73	246.179
1057.15	67.6269
1061.57	200.852
1065.98	227.249
1070.39	199.678
1074.8	83.4219
1079.21	214.404
1083.62	71.7617
1088.02	92.1777
1092.41	30.9512
1096.81	156.073
1101.2	125.591
1105.6	119.489
1109.98	127.748
1114.37	25.3682
1118.75	108.337
1123.13	199.829
1127.51	365.658
1131.88	134.907
1136.26	180.452
1140.63	216.905
1144.99	342.546
1149.36	192.601
1153.72	196.898
1158.08	284.289
1162.43	241.777
1166.79	161.027
1171.14	177.589
1175.48	223.227
1179.83	80.2256
1184.17	99.6016
1188.51	176.328
1192.85	20.3926
1197.18	18.1221
1201.51	124.71
1205.84	103.917
1210.17	18.4434
1214.49	59.5381
1218.81	194.644
1223.13	109.559
1227.44	165.851
1231.76	162.588
1236.07	183.295
1240.37	160.315
1244.68	249.639
1248.98	171.262
1253.28	291.17
1257.57	83.3564
1261.87	261.81
1266.16	242.059
1270.44	88.418
1274.73	259.802
1279.01	365.253
1283.29	534.923
1287.57	465.121
1291.84	314.301
1296.11	439.913
1300.38	432.006
1304.65	456.454
1308.91	283.381
1313.17	336.493
1317.43	348.685
1321.68	386.655
1325.93	232.379
1330.18	212.625
1334.43	205.651
1338.67	283.5
1342.91	129.053
1347.15	170.276
1351.39	187.992
1355.62	216.247
1359.85	150.893
1364.08	100.47
1368.3	279.898
1372.52	106.343
1376.74	160.065
1380.95	32.7978
1385.17	35.7607
1389.38	20.4863
1393.59	38.7764
1397.79	14.8545
1401.99	83.3574
1406.19	78.4522
1410.39	25.3096
1414.58	66.9053
1418.77	68.4853
1422.96	36.5918
1427.14	13.9453
1431.33	125.356
1435.51	27.7695
1439.68	57.1582
1443.86	147.633
1448.03	91.7832
1452.2	123.739
1456.36	71.874
1460.53	37.0703
1464.68	152.35
1468.84	43.7578
1473	167.908
1477.15	138.938
1481.3	182.042
1485.44	138.556
1489.59	182.363
1493.73	146.919
1497.86	103.248
1502	135.796
1506.13	132.724
1510.26	194.817
1514.38	29.0381
1518.51	168.295
1522.63	73.2559
1526.75	166.247
1530.86	146.991
1534.97	31.8281
1539.08	99.8818
1543.19	28.3545
1547.29	0
