Measurement: Raman, 514 nm, depolarized, Raman Data Processed
Mineral: Hauyne
Rruff sample: R070557
Ideal chemistry: Na_3_Ca(Si_3_Al_3_)O_12_(S^6+^O_4_)
Locality: Badakhshan, Afghanistan
Source: Farooq Hashmi
Description: Sky blue fragment
Measured chemistry: Na_3.00_(Ca_0.84_Na_0.16_)_Σ=1_(Si_3.05_Al_2.95_)O_12_((SO_4_)_0.89_Cl_0.11_)_Σ=1_
Pin_id: M01358
Orientation: Laser parallel to a* (1 0 0). Fiducial mark perpendicular to laser is parallel to c [0 0 1]
Raman shift (cm-1)	intensity
211.271	0
216.159	191.406
221.044	95.9639
225.926	274.642
230.806	231.696
235.683	269.85
240.557	330.391
245.429	530.28
250.298	623.02
255.164	579.246
260.027	628.923
264.888	591.683
269.746	438.962
274.601	499.516
279.454	432.273
284.304	374.669
289.151	375.009
293.996	402.256
298.838	200.117
303.677	35.5801
308.514	62.8154
313.348	58.0254
318.179	127.906
323.008	0.787109
327.834	49.8027
332.657	135.531
337.478	3.88281
342.295	27.5566
347.111	141.31
351.923	43.7168
356.733	290.565
361.54	109.908
366.345	204.266
371.147	339.434
375.946	546.717
380.743	500.201
385.537	356.711
390.328	356.617
395.116	634.812
399.902	520.348
404.686	640.377
409.466	889.791
414.244	1510.46
419.019	1903.25
423.792	2714.64
428.562	3791.42
433.329	5242.1
438.094	5253.91
442.856	5167.95
447.616	5088.55
452.372	4688.17
457.126	4125.7
461.878	3661.15
466.627	2834.29
471.373	2305.51
476.116	1893.31
480.857	1550.92
485.596	1265.89
490.331	916.019
495.064	385.014
499.795	439.566
504.522	373.867
509.247	267.098
513.97	108.828
518.69	233.252
523.407	416.742
528.121	643.592
532.833	1589.07
537.543	3047.85
542.249	4930.56
546.953	4742.12
551.655	2219.19
556.354	918.691
561.05	521.234
565.743	285.506
570.434	193.723
575.123	433.647
579.808	601.856
584.491	408.697
589.172	270.539
593.85	229.293
598.525	291.94
603.197	506.217
607.868	958.586
612.535	1086.81
617.2	904.908
621.862	934.137
626.522	596.965
631.178	375.701
635.833	480.432
640.485	282.193
645.134	223.676
649.78	27.9531
654.424	28.9473
659.066	38.8555
663.704	37.7734
668.341	22.248
672.974	134.076
677.605	39.9863
682.234	29.9258
686.859	15.2363
691.483	108.744
696.103	129.885
700.721	121.891
705.337	116.926
709.949	377.059
714.56	237.512
719.167	331.207
723.772	296.303
728.375	306.652
732.975	410.988
737.572	273.174
742.167	333.209
746.759	491.545
751.349	307.857
755.936	253.772
760.52	408.94
765.102	409.891
769.681	332.93
774.258	449.219
778.832	446.027
783.404	400.252
787.973	611.963
792.539	494.529
797.103	653.404
801.665	779.814
806.223	874.269
810.779	938.807
815.333	677.912
819.884	639.416
824.433	917.701
828.979	608.037
833.522	552.557
838.063	761.055
842.601	409.711
847.137	582.012
851.67	389.42
856.2	382.246
860.729	407.529
865.254	539.654
869.777	594.865
874.297	591.967
878.815	550.9
883.33	477.629
887.843	247.502
892.353	265.447
896.861	82.9453
901.366	245.914
905.869	54.6367
910.369	164.273
914.866	20.082
919.361	171.309
923.854	281.348
928.344	38.9688
932.831	37.0312
937.316	123.09
941.798	193.688
946.278	18.2031
950.755	227.441
955.23	689.094
959.702	699.356
964.171	1996.08
968.638	4683.01
973.103	6973.89
977.565	8770.16
982.025	12029.8
986.482	15897.7
990.936	14205.8
995.388	9832.53
999.837	6133.85
1004.28	3704.19
1008.73	2607.23
1013.17	1980.57
1017.61	1579.18
1022.05	1033.61
1026.48	846.129
1030.91	884.973
1035.34	866.566
1039.77	796.992
1044.19	959.137
1048.62	813.992
1053.03	753.449
1057.45	615.445
1061.87	597.359
1066.28	742.523
1070.69	473.766
1075.09	1162.53
1079.5	1271.23
1083.9	1442.26
1088.3	1929.91
1092.69	1459.12
1097.09	1328.38
1101.48	1192.22
1105.87	917.301
1110.26	625.207
1114.64	691.981
1119.02	645.75
1123.4	496.074
1127.78	942.977
1132.15	695.926
1136.53	596.277
1140.89	508.734
1145.26	401.914
1149.63	632.117
1153.99	537.422
1158.35	627.867
1162.7	479.543
1167.06	861.441
1171.41	346.586
1175.76	375.066
1180.11	414.078
1184.45	333.492
1188.79	239.438
1193.13	140.019
1197.47	24.168
1201.81	125.769
1206.14	119.363
1210.47	163.078
1214.79	235.113
1219.12	151.648
1223.44	121.477
1227.76	139.578
1232.08	141.082
1236.39	141.805
1240.7	525.391
1245.02	158.043
1249.32	31.8945
1253.63	39.7148
1257.93	169.535
1262.23	49.6406
1266.53	255.887
1270.82	41.7734
1275.12	270.621
1279.41	92.2031
1283.69	90.0234
1287.98	372.039
1292.26	309.231
1296.54	362.586
1300.82	218.07
1305.1	672.672
1309.37	565.277
1313.64	830.16
1317.91	751.824
1322.17	1025.46
1326.44	847.652
1330.7	810.949
1334.96	780.371
1339.21	923.902
1343.47	959.559
1347.72	729.379
1351.97	721.766
1356.21	795.504
1360.46	896.539
1364.7	843.234
1368.94	640.394
1373.17	717.488
1377.41	829.324
1381.64	732.184
1385.87	861.344
1390.1	562.66
1394.32	624.273
1398.54	686.309
1402.76	696.812
1406.98	589.414
1411.19	645.945
1415.41	442.773
1419.62	257.422
1423.82	504.051
1428.03	285.32
1432.23	606.902
1436.43	227.43
1440.63	336.914
1444.82	131.637
1449.02	190.496
1453.21	198.453
1457.4	491.598
1461.58	368.113
1465.77	238.969
1469.95	143.688
1474.12	180.34
1478.3	351.934
1482.47	379.941
1486.64	1.26953
1490.81	18.2305
1494.98	211.758
1499.14	477.562
1503.31	122.652
1507.47	27.4727
1511.62	170.148
1515.78	329.633
1519.93	162.656
1524.08	189.789
1528.23	281.856
1532.37	34.4492
1536.51	329.508
1540.65	107.086
1544.79	275.285
1548.93	320.734
1553.06	451.227
1557.19	441.055
1561.32	1.71484
