Measurement: Raman, 514 nm, depolarized, Raman Data Processed
Mineral: Hauyne
Rruff sample: R050606
Ideal chemistry: Na_3_Ca(Si_3_Al_3_)O_12_(S^6+^O_4_)
Locality: Ariccia, near Rome, Italy
Source: University of Arizona Mineral Museum
Description: Blue crystal embedded in calcite
Pin_id: M01913
Orientation: Laser parallel to c* (0 0 1). Fiducial mark perpendicular to laser is parallel to a [1 0 0]
Raman shift (cm-1)	intensity
235.683	0
239.339	279.902
242.993	12.4805
246.646	296.332
250.298	223.273
253.947	245.411
257.596	219.927
261.243	426.69
264.888	260.669
268.532	226.404
272.174	228.401
275.815	331.348
279.454	396.679
283.092	483.837
286.728	527.487
290.363	451.477
293.996	558.499
297.628	570.132
301.258	330.897
304.887	344.005
308.514	227.683
312.14	276.084
315.764	328.297
319.387	457.829
323.008	204.198
326.628	74.9668
330.246	135.977
333.862	45.3477
337.478	23.1826
341.091	29.0742
344.703	13.9521
348.314	58.5127
351.923	32.3691
355.531	245.3
359.137	135.249
362.742	380.828
366.345	507.424
369.947	630.605
373.547	515.108
377.145	569.661
380.743	763.546
384.338	754.496
387.932	752.972
391.525	710.893
395.116	918.885
398.706	964.75
402.294	1227.32
405.881	1722.69
409.466	2196.48
413.05	3119.89
416.632	4122.27
420.213	5885.62
423.792	8097.63
427.37	11343.2
430.946	15079.5
434.521	16612.1
438.094	15463.3
441.666	12289.2
445.236	9127.08
448.805	7016.03
452.372	5592.67
455.938	4804.78
459.502	3966.19
463.065	3277.11
466.627	2789.76
470.187	2451.63
473.745	2160.63
477.302	1717.96
480.857	1486.02
484.411	1200.15
487.964	1096.43
491.515	861.369
495.064	502.935
498.612	362.595
502.159	321.843
505.704	212.047
509.247	184.948
512.789	229.269
516.33	187.778
519.869	247.859
523.407	252.01
526.943	391.227
530.478	561.072
534.011	1076.61
537.543	2055.21
541.073	3397.85
544.602	4891.14
548.129	5470.56
551.655	3561.86
555.179	1766.27
558.702	788.494
562.223	325.254
565.743	230.953
569.262	195.984
572.779	385.195
576.294	481.734
579.808	503.326
583.321	600.508
586.832	747.203
590.341	843.889
593.85	762.51
597.356	1347.52
600.862	1747.92
604.365	2225.24
607.868	2956.82
611.368	3001.78
614.868	2726.92
618.366	2262.73
621.862	1980.9
625.357	1413.6
628.85	936.719
632.342	905.965
635.833	959.041
639.322	719.967
642.81	875.564
646.296	900.113
649.78	755.992
653.264	696.066
656.745	328.227
660.226	337.498
663.704	121.592
667.182	40.7344
670.658	112.92
674.132	164.678
677.605	42.5059
681.077	55.9473
684.547	136.734
688.015	75.3203
691.483	1.64648
694.948	156.66
698.413	113.576
701.875	27.7402
705.337	157.414
708.797	2.0293
712.255	25.6992
715.712	165.211
719.167	389.402
722.621	97.8926
726.074	210.65
729.525	187.379
732.975	137.15
736.423	96.0606
739.87	27.6699
743.315	251.373
746.759	133.602
750.202	316.973
753.643	236.299
757.082	118.699
760.52	165.182
763.957	281.447
767.392	287.623
770.826	103.586
774.258	357.816
777.689	170.33
781.118	281.812
784.546	304.045
787.973	270.647
791.398	164.859
794.822	574.752
798.244	513.242
801.665	419.611
805.084	421.871
808.502	413.098
811.918	525.986
815.333	511.301
818.747	529.92
822.159	421.666
825.569	339.935
828.979	477.19
832.386	425.731
835.793	405.451
839.198	373.359
842.601	328.148
846.003	522.111
849.404	249.978
852.803	136.775
856.2	78.8769
859.597	267.264
862.992	332.863
866.385	325.967
869.777	209.088
873.167	305.926
876.557	305.621
879.944	191.049
883.33	261.148
886.715	90.2363
890.099	169.326
893.481	168.065
896.861	198.352
900.24	122.08
903.618	35.0156
906.994	41.9531
910.369	220.092
913.742	88.5195
917.114	27.0195
920.485	58.0332
923.854	4.58008
927.221	88.6328
930.588	233.943
933.952	30.0371
937.316	30.9648
940.678	23.7754
944.038	46.4355
947.397	124.531
950.755	166.055
954.111	457.119
957.466	1146.43
960.819	1874.52
964.171	3944.52
967.522	7693.51
970.871	13609.7
974.219	20528.7
977.565	24754.5
980.91	23878.2
984.253	22796.4
987.595	24302.7
990.936	23450.5
994.275	20845.6
997.613	19713.1
1000.95	19346.5
1004.28	18412.8
1007.62	15577.3
1010.95	11533.2
1014.28	8628.2
1017.61	5928.82
1020.94	4478.42
1024.26	3886.52
1027.59	3641.37
1030.91	3630.85
1034.23	3328.85
1037.56	3366.71
1040.88	3097.62
1044.19	2456.28
1047.51	2217.06
1050.83	2066.59
1054.14	1603.3
1057.45	1522.37
1060.76	1282.77
1064.07	1328.42
1067.38	1168.95
1070.69	1497.76
1073.99	1684.88
1077.3	1990.37
1080.6	1856.53
1083.9	2155.14
1087.2	2450.05
1090.5	2670.1
1093.79	2531.07
1097.09	2437.5
1100.38	2278.77
1103.68	1789.08
1106.97	1848.05
1110.26	1638.81
1113.55	1564.15
1116.83	1396.75
1120.12	1786.24
1123.4	1869.92
1126.68	1603.41
1129.97	1538.27
1133.25	1614.61
1136.53	1653.56
1139.8	1786.9
1143.08	1870.2
1146.35	1944.59
1149.63	2126.14
1152.9	1905.66
1156.17	1963.38
1159.44	1817.91
1162.7	1852.15
1165.97	1946.72
1169.23	1681.19
1172.5	1530.83
1175.76	1399.44
1179.02	1104.89
1182.28	917.914
1185.54	866.051
1188.79	595.191
1192.05	562.301
1195.3	578.394
1198.55	360.574
1201.81	502.594
1205.05	260.562
1208.3	405.676
1211.55	299.285
1214.79	294.723
1218.04	261.195
1221.28	340.289
1224.52	59.7969
1227.76	115.797
1231	303.148
1234.24	173.148
1237.47	161.84
1240.7	248.18
1243.94	86.3203
1247.17	199.938
1250.4	306.141
1253.63	105.293
1256.86	111.207
1260.08	11.0547
1263.31	401.152
1266.53	262.531
1269.75	17.1133
1272.97	70.0195
1276.19	197.723
1279.41	197.453
1282.62	37.6562
1285.84	135.945
1289.05	91.1641
1292.26	99.0742
1295.47	78.9258
1298.68	163.797
1301.89	395
1305.1	5.95312
1308.3	473.102
1311.51	599.969
1314.71	665.953
1317.91	705.887
1321.11	621.258
1324.31	439.223
1327.5	511.828
1330.7	567.652
1333.89	422.066
1337.09	467.66
1340.28	575.711
1343.47	617.254
1346.65	683.488
1349.84	731.519
1353.03	1011.43
1356.21	1069.55
1359.4	842.109
1362.58	891.609
1365.76	341.219
1368.94	503.137
1372.12	459.062
1375.29	496.266
1378.47	529.879
1381.64	793.328
1384.81	518.07
1387.98	461.383
1391.15	410.773
1394.32	265.332
1397.49	319.156
1400.65	92.5391
1403.82	152.738
1406.98	157.152
1410.14	160.027
1413.3	33.5742
1416.46	111.484
1419.62	14.5742
1422.77	442.531
1425.93	244.559
1429.08	161.309
1432.23	110.981
1435.38	281
1438.53	204.461
1441.68	290.359
1444.82	55.5078
1447.97	245.742
1451.11	539.875
1454.26	368.699
1457.4	316.391
1460.54	512.484
1463.67	365.91
1466.81	493.418
1469.95	282.508
1473.08	80.6367
1476.21	83.1719
1479.34	250.992
1482.47	387.844
1485.6	1.71875
1488.73	97.2617
1491.86	240.641
1494.98	115.867
1498.1	216.449
1501.23	508.559
1504.35	284.219
1507.47	539.641
1510.58	144.141
1513.7	528.332
1516.82	436.18
1519.93	570.691
1523.04	527.113
1526.15	649.84
1529.26	340.055
1532.37	185.812
1535.48	357.356
1538.58	525.848
1541.69	190.07
1544.79	280.035
1547.89	439.488
1550.99	456.461
1554.09	491.656
1557.19	413.906
1560.29	125.176
