Measurement: Raman, 514 nm, depolarized, Raman Data Processed
Mineral: Hauyne
Rruff sample: R070121
Ideal chemistry: Na_3_Ca(Si_3_Al_3_)O_12_(S^6+^O_4_)
Locality: Hesse, Germany
Source: Michael Scott
Description: Blue cut gemstones
Pin_id: M01514
Orientation: Laser parallel to a* (1 0 0). Fiducial mark perpendicular to laser is parallel to c [0 0 1]
Raman shift (cm-1)	intensity
224.706	0
228.367	12.791
232.026	121.974
235.683	519.015
239.339	703.196
242.993	1254.15
246.646	1874.89
250.298	2753.05
253.947	3325.19
257.596	3557.94
261.243	3311.06
264.888	2514.06
268.532	2006.57
272.174	1748.49
275.815	1455.8
279.454	1607.45
283.092	1693.32
286.728	1629.32
290.363	1473.84
293.996	1157.16
297.628	889.188
301.258	777.14
304.887	512.199
308.514	357.301
312.14	282.653
315.764	270.551
319.387	37.4048
323.008	33.7422
326.628	71.9268
330.246	177.104
333.862	156.953
337.478	226.678
341.091	111.561
344.703	75.8013
348.314	112.314
351.923	183.47
355.531	409.728
359.137	510.588
362.742	497.116
366.345	592.843
369.947	607.756
373.547	744.957
377.145	936.256
380.743	881.659
384.338	1022.82
387.932	1090.51
391.525	1209.61
395.116	1336.09
398.706	1527.79
402.294	1659.46
405.881	2194.37
409.466	2780.74
413.05	3681.49
416.632	4538.65
420.213	6113.33
423.792	7898.01
427.37	10544
430.946	13562.2
434.521	16582.8
438.094	18909.3
441.666	19610.7
445.236	19363.6
448.805	17413.1
452.372	15614.2
455.938	13731.8
459.502	11442.2
463.065	9271.03
466.627	7808.35
470.187	6096.53
473.745	5074.55
477.302	4202.64
480.857	3428.21
484.411	2906.69
487.964	2474.76
491.515	2070.95
495.064	1794.28
498.612	1582.2
502.159	1513.2
505.704	1604.11
509.247	1684.22
512.789	1955.66
516.33	2380.2
519.869	3200.97
523.407	4760.75
526.943	7499.72
530.478	12576.8
534.011	21786.5
537.543	35202
541.073	50189.6
544.602	55653.2
548.129	45092.5
551.655	24637.7
555.179	11798.2
558.702	6577.36
562.223	4761.69
565.743	4191
569.262	4344.63
572.779	4882.03
576.294	5821.36
579.808	6305.09
583.321	5983.22
586.832	5438.11
590.341	4450.35
593.85	3633.52
597.356	3495.94
600.862	3722.32
604.365	4430.62
607.868	5272.04
611.368	5214.53
614.868	5013.18
618.366	4554.44
621.862	3993.48
625.357	3401.31
628.85	2823.82
632.342	2160.17
635.833	1734.35
639.322	1858.8
642.81	1742.95
646.296	1587.44
649.78	1299.71
653.264	866.825
656.745	554.799
660.226	390.421
663.704	173.723
667.182	85.5889
670.658	101.967
674.132	70.8662
677.605	121.768
681.077	12.1113
684.547	45.0303
688.015	87.6582
691.483	131.1
694.948	69.3799
698.413	113.698
701.875	125.272
705.337	148.067
708.797	15.8457
712.255	53.8984
715.712	109.186
719.167	116.697
722.621	229.525
726.074	239.73
729.525	110.488
732.975	25.2178
736.423	165.551
739.87	4.01367
743.315	121.6
746.759	197.679
750.202	108.281
753.643	225.969
757.082	21.7529
760.52	153.673
763.957	135.159
767.392	188.179
770.826	287.11
774.258	382.045
777.689	483.668
781.118	648.563
784.546	802.876
787.973	973.387
791.398	1218.95
794.822	1528.79
798.244	1679.05
801.665	1702.09
805.084	1782.89
808.502	1692.57
811.918	1446.52
815.333	1204.65
818.747	1201.6
822.159	1128.08
825.569	1038.76
828.979	1000.74
832.386	940.045
835.793	774.119
839.198	833.219
842.601	640.801
846.003	528.212
849.404	472.057
852.803	527.324
856.2	529.338
859.597	525.653
862.992	526.186
866.385	423.176
869.777	305.442
873.167	164.734
876.557	189.97
879.944	222.767
883.33	88.9258
886.715	105.872
890.099	2.63574
893.481	65.124
896.861	116.495
900.24	29.5361
903.618	72.6211
906.994	123.057
910.369	177.14
913.742	108.636
917.114	69.0742
920.485	65.7754
923.854	214.806
927.221	45.169
930.588	83.9463
933.952	97.7324
937.316	44.1738
940.678	241.403
944.038	349.455
947.397	368.332
950.755	614.115
954.111	993.845
957.466	1452.5
960.819	2897.18
964.171	5698
967.522	11042.9
970.871	17848.2
974.219	22384.8
977.565	24615.9
980.91	29001.5
984.253	36299.4
987.595	42010.5
990.936	41618.9
994.275	36696.6
997.613	30598.6
1000.95	25130.8
1004.28	19951.4
1007.62	16535.8
1010.95	13870.5
1014.28	11109.3
1017.61	8650.41
1020.94	6290.03
1024.26	5158.1
1027.59	4916.61
1030.91	4709.95
1034.23	4795.37
1037.56	5078.45
1040.88	5528.6
1044.19	5865.99
1047.51	5747.3
1050.83	5601.23
1054.14	5632.03
1057.45	4893.16
1060.76	5041.09
1064.07	5397.79
1067.38	6154.35
1070.69	7386.9
1073.99	9076.95
1077.3	10928.4
1080.6	12770.1
1083.9	14648.2
1087.2	15656.6
1090.5	15447.5
1093.79	14070.1
1097.09	12012.8
1100.38	10026.5
1103.68	8333.92
1106.97	7362.57
1110.26	6851.36
1113.55	6650.78
1116.83	6545.8
1120.12	6558.82
1123.4	6179.39
1126.68	5419.23
1129.97	4605.95
1133.25	4357.8
1136.53	3697.95
1139.8	3713.49
1143.08	3594.12
1146.35	3448.2
1149.63	3438.9
1152.9	3347.35
1156.17	3477.39
1159.44	3251.41
1162.7	3180.05
1165.97	2974.59
1169.23	2913.13
1172.5	2468.26
1175.76	2383.37
1179.02	2259.92
1182.28	1856.75
1185.54	1539.35
1188.79	1237.03
1192.05	836.807
1195.3	600.637
1198.55	680.494
1201.81	362.34
1205.05	304.141
1208.3	324.885
1211.55	390.565
1214.79	184.168
1218.04	200.394
1221.28	59.0996
1224.52	64.6231
1227.76	128.357
1231	44.8438
1234.24	78.3203
1237.47	56.1855
1240.7	249.383
1243.94	3.11133
1247.17	118.176
1250.4	29.7871
1253.63	107.853
1256.86	90.5664
1260.08	84.0527
1263.31	49.2891
1266.53	69.2676
1269.75	64.0019
1272.97	104.635
1276.19	560.979
1279.41	462.131
1282.62	46.6836
1285.84	29.959
1289.05	21.1309
1292.26	127.728
1295.47	184.934
1298.68	191.352
1301.89	57.8574
1305.1	66.6777
1308.3	243.756
1311.51	301.393
1314.71	350.764
1317.91	480.625
1321.11	580.414
1324.31	591.242
1327.5	731.973
1330.7	837.301
1333.89	843.219
1337.09	756.717
1340.28	996.143
1343.47	1097.79
1346.65	1072.14
1349.84	1169.8
1353.03	1310.22
1356.21	1169.94
1359.4	1025.38
1362.58	1050.12
1365.76	964.481
1368.94	910.59
1372.12	1136.66
1375.29	1208.02
1378.47	1837.99
1381.64	1834.19
1384.81	969.039
1387.98	753.26
1391.15	624.873
1394.32	738.131
1397.49	550.828
1400.65	408.586
1403.82	304.037
1406.98	171.102
1410.14	137.553
1413.3	151.344
1416.46	254.828
1419.62	330.002
1422.77	3.47266
1425.93	180.523
1429.08	252.748
1432.23	371.455
1435.38	273.859
1438.53	247.387
1441.68	555.625
1444.82	296.266
1447.97	381.172
1451.11	535.336
1454.26	513.734
1457.4	393.356
1460.54	545.363
1463.67	542.844
1466.81	271.975
1469.95	254.713
1473.08	329.285
1476.21	257.356
1479.34	297.238
1482.47	428.816
1485.6	312.703
1488.73	22.6191
1491.86	98.2012
1494.98	106.981
1498.1	2.01758
1501.23	33.6523
1504.35	90.5117
1507.47	112.186
1510.58	127.639
1513.7	157.201
1516.82	74.0215
1519.93	344.117
1523.04	217.625
1526.15	206.19
1529.26	197.348
1532.37	244.016
1535.48	121.062
1538.58	107.482
1541.69	97.9727
1544.79	79.1309
1547.89	63.373
1550.99	251.49
1554.09	160.945
1557.19	121.633
1560.29	243.906
