Measurement: Raman, 514 nm, depolarized, Raman Data Processed
Mineral: Hedenbergite
Rruff sample: R050030
Ideal chemistry: CaFe^2+^Si_2_O_6_
Locality: Heroult, Ontario, Canada
Source: University of Arizona Mineral Museum
Description: Green fragments
Measured chemistry: (Ca_.993_Na_.007_)(Fe_.860_Mn_.111_Mg_.029_)(Si_.993_Al_.007_)_2_O_6_
Pin_id: M00111
Orientation: Laser parallel to a* (1 0 0). Fiducial mark perpendicular to laser is parallel to b [0 1 0]
Raman shift (cm-1)	intensity
99.764	0
103.943	119.268
108.121	31.925
112.297	196.798
116.47	1038.37
120.642	2174.68
124.811	1753.75
128.979	649.308
133.144	116.006
137.307	136.048
141.469	324.337
145.628	366.706
149.786	100.43
153.941	35.506
158.094	16.597
162.245	200.424
166.395	353.568
170.542	786.665
174.687	1596.9
178.83	1552.89
182.972	1306.86
187.111	1537.98
191.248	1277.4
195.383	468.149
199.516	94.227
203.647	1.994
207.777	33.923
211.904	2.775
216.029	24.626
220.152	7.506
224.273	150.601
228.392	374.648
232.509	315.651
236.625	190.552
240.738	75.068
244.849	17.389
248.958	40.345
253.065	18.076
257.171	25.652
261.274	30.699
265.375	44.486
269.475	74.064
273.572	129.447
277.667	377.183
281.76	549.728
285.852	730.457
289.941	990.123
294.029	1646.99
298.114	2487.37
302.198	3110.53
306.279	2479.93
310.359	1691.96
314.436	1122.11
318.512	926.124
322.586	733.462
326.657	1007.54
330.727	1384.57
334.795	1932.56
338.861	1770.4
342.924	1207.91
346.986	1025.34
351.046	1092.76
355.104	1260.18
359.16	1987.59
363.214	3524.98
367.267	6211.83
371.317	7773.28
375.365	6075.12
379.411	3408.07
383.456	1783.33
387.498	968.431
391.539	585.611
395.577	377.763
399.614	321.214
403.649	179.583
407.681	203.002
411.712	194.703
415.741	168.978
419.768	69.233
423.793	19.311
427.816	99.067
431.837	142.697
435.857	72.474
439.874	67.445
443.889	61.597
447.903	25.844
451.914	65.02
455.924	151.807
459.932	8.213
463.938	154.31
467.941	29.783
471.943	115.989
475.944	51.804
479.942	187.551
483.938	163.311
487.932	249.071
491.925	364.8
495.915	240.596
499.904	136.36
503.891	182.118
507.876	278.347
511.859	553.587
515.84	809.249
519.819	864.849
523.796	460.392
527.771	165.884
531.745	91.391
535.716	106.931
539.686	262.439
543.654	97.916
547.62	203.363
551.584	188.962
555.546	34.582
559.506	39.812
563.465	55.241
567.421	100.641
571.376	57.903
575.329	95.216
579.279	9.517
583.228	45.168
587.175	30.363
591.121	174.189
595.064	61.372
599.006	12.868
602.945	137.087
606.883	200.812
610.819	223.205
614.753	257.272
618.685	103.095
622.615	343.904
626.544	415.594
630.471	358.039
634.395	531.901
638.318	975.461
642.239	1328.1
646.158	2564.87
650.076	5448.31
653.991	9331.96
657.905	9310.81
661.817	5493.92
665.726	2992.82
669.635	1665.63
673.541	1188.32
677.445	850.978
681.348	774.43
685.248	699.431
689.147	401.721
693.044	423.014
696.94	354.97
700.833	216.956
704.724	248.9
708.614	40.748
712.502	182.276
716.388	153.621
720.272	34.966
724.155	316.169
728.035	31.647
731.914	82.615
735.791	104.349
739.666	253.778
743.539	168.203
747.41	262.696
751.28	193.728
755.148	123.95
759.014	254.272
762.878	264.812
766.74	95.105
770.601	34.802
774.46	85.476
778.316	175.863
782.172	136.193
786.025	56.395
789.876	66.392
793.726	133.691
797.574	24.067
801.42	25.426
805.264	144.751
809.107	143.859
812.947	62.815
816.786	78.329
820.623	100.33
824.459	138.931
828.292	187.489
832.124	86.01
835.954	44.476
839.782	92.87
843.608	461.219
847.433	909.574
851.255	407.912
855.076	266.231
858.895	264.524
862.713	52.267
866.528	210.565
870.342	48.882
874.154	156.603
877.965	84.929
881.773	110.421
885.58	53.296
889.385	35.065
893.188	123.508
896.989	252.035
900.789	240.763
904.587	259.425
908.383	378.095
912.177	146.534
915.97	275.165
919.76	363.896
923.55	359.262
927.337	238.032
931.122	76.741
934.906	174.804
938.688	4.657
942.468	183.127
946.247	272.859
950.023	239.509
953.798	77.071
957.572	396.152
961.343	116.062
965.113	299.379
968.881	393.123
972.647	421.668
976.411	450.914
980.174	590.594
983.935	650.191
987.694	1008.6
991.452	1385.64
995.207	1749.06
998.961	3239.91
1002.71	7050.26
1006.46	18730.1
1010.21	26740.1
1013.96	14100.6
1017.71	6665.65
1021.45	3917.26
1025.19	3229.71
1028.93	2456.14
1032.67	1721.38
1036.41	1453.18
1040.14	1184.43
1043.87	1055.75
1047.61	903.955
1051.34	645.117
1055.06	570.781
1058.79	812.117
1062.52	543.293
1066.24	475.27
1069.96	546.832
1073.68	368.834
1077.4	312.324
1081.11	344.002
1084.83	285.395
1088.54	637.41
1092.25	288.982
1095.96	370.641
1099.67	382.588
1103.37	214.566
1107.08	43.078
1110.78	168.832
1114.48	340.82
1118.18	332.951
1121.88	322.328
1125.57	146.24
1129.27	219.543
1132.96	220.949
1136.65	163.344
1140.34	82.119
1144.02	27.178
1147.71	335.973
1151.39	188.668
1155.07	261.797
1158.76	231.971
1162.43	57.465
1166.11	206.084
1169.79	275.486
1173.46	318.424
1177.13	379.799
1180.8	349.791
1184.47	220.555
1188.14	310.977
1191.8	28.178
1195.46	170.104
1199.13	337.869
1202.79	309.709
1206.45	379.508
1210.1	297.498
1213.76	224.145
1217.41	81.041
1221.06	15.828
1224.71	205.721
1228.36	339.58
1232.01	521.787
1235.65	508.129
1239.3	413.918
1242.94	378.385
1246.58	233.4
1250.22	158.369
1253.85	301.236
1257.49	514.799
1261.12	357.93
1264.75	372.039
1268.38	454.781
1272.01	596.996
1275.64	397.922
1279.27	140.359
1282.89	61.15
1286.51	197.447
1290.13	86.115
1293.75	295.832
1297.37	285.195
1300.98	273.123
1304.6	239.527
1308.21	52.832
1311.82	51.188
1315.43	32.934
1319.03	255.832
1322.64	449.879
1326.24	309.018
1329.85	218.789
1333.44	152.104
1337.04	319.779
1340.64	236.936
1344.24	11.98
1347.83	18.596
1351.42	111.543
1355.01	358.012
1358.6	316.252
1362.19	604.082
1365.78	261.693
1369.36	199.107
1372.94	346.668
1376.53	63.564
1380.1	90.322
1383.68	285.207
1387.26	130.771
1390.83	195.182
1394.41	239.879
1397.98	290.842
1401.55	629.533
1405.12	345.391
1408.68	229.537
1412.25	326.342
1415.81	176.578
1419.37	11.523
1422.93	114.701
1426.49	166.211
1430.05	305.395
1433.6	219.248
1437.15	404.281
1440.71	631.486
1444.26	683.021
1447.81	352.199
1451.35	380.109
1454.9	175.07
1458.44	320.244
1461.98	60.648
1465.53	152.861
1469.07	240.439
1472.6	32.979
1476.14	431.455
1479.67	577.498
1483.21	659.148
1486.74	407.393
1490.27	219.305
1493.8	351.725
1497.32	76.406
1500.85	103.795
1504.37	15.195
1507.89	11.895
1511.41	50.365
