Measurement: Raman, 514 nm, depolarized, Raman Data Processed
Mineral: Hedenbergite
Rruff sample: R050030
Ideal chemistry: CaFe^2+^Si_2_O_6_
Locality: Heroult, Ontario, Canada
Source: University of Arizona Mineral Museum
Description: Green fragments
Measured chemistry: (Ca_.993_Na_.007_)(Fe_.860_Mn_.111_Mg_.029_)(Si_.993_Al_.007_)_2_O_6_
Pin_id: M00481
Orientation: Laser parallel to (-1 0 -1). Fiducial mark perpendicular to laser is parallel to b [0 1 0]
Raman shift (cm-1)	intensity
91.262	0
95.458	19.019
99.652	167.267
103.843	355.945
108.033	465.056
112.22	691.551
116.406	761.545
120.589	1001.62
124.77	1123.18
128.949	959.113
133.126	752.637
137.301	790.192
141.473	755.221
145.644	689.353
149.812	716.309
153.979	775.859
158.143	579.819
162.305	773.04
166.465	650.401
170.623	737.796
174.778	1154.31
178.932	1258.75
183.083	1312.67
187.233	1543.86
191.38	1140.66
195.525	544.191
199.669	372.194
203.81	238.645
207.949	122.542
212.085	172.312
216.22	125.565
220.353	105.669
224.483	186.151
228.612	567.996
232.738	687.192
236.863	231.725
240.985	164.58
245.105	130.744
249.223	93.202
253.339	75.235
257.453	18.14
261.565	90.845
265.675	221.308
269.783	321.322
273.888	447.707
277.992	430.064
282.093	557.566
286.193	752.296
290.29	1134.81
294.386	1701.9
298.479	2500.91
302.57	3253.68
306.659	2989.8
310.746	2016.25
314.831	1258.87
318.914	1052.34
322.995	994.623
327.074	1187.13
331.151	1385.85
335.226	1657.78
339.299	1571.9
343.37	1109.2
347.438	781.66
351.505	865.288
355.57	1068.07
359.632	1619.01
363.693	2722.09
367.751	4609.3
371.808	6415.64
375.862	5802.11
379.914	3404.7
383.965	1793.4
388.013	974.197
392.06	438.095
396.104	345.086
400.146	267.165
404.186	134.329
408.225	13.59
412.261	10.05
416.295	32.609
420.327	103.551
424.357	37.178
428.386	45.386
432.412	89.646
436.436	113.547
440.458	103.665
444.478	0.793
448.496	60.87
452.513	31.635
456.527	2.808
460.539	60.228
464.549	268.688
468.557	88.19
472.563	11.271
476.567	45.259
480.57	26.842
484.57	130.476
488.568	365.204
492.564	657.976
496.558	500.758
500.551	251.607
504.541	166.501
508.529	187.433
512.515	286.424
516.5	601.437
520.482	702.569
524.462	445.766
528.441	274.969
532.417	141.151
536.391	194.299
540.364	174.413
544.334	302.486
548.303	837.518
552.269	821.503
556.234	400.442
560.197	193.331
564.157	160.024
568.116	124.262
572.073	72.705
576.027	92.63
579.98	15.262
583.931	20.979
587.88	41.722
591.827	18.093
595.772	103.664
599.715	53.21
603.656	55.856
607.595	125.662
611.532	90.705
615.468	145.28
619.401	201.087
623.332	273.04
627.262	356.526
631.189	525
635.115	716.295
639.039	911.75
642.96	1485.64
646.88	2426.2
650.798	4630.12
654.714	9029.83
658.628	11468.3
662.54	8186.83
666.45	4388.25
670.358	2511.26
674.264	1556.65
678.169	971.688
682.071	754.312
685.972	509.424
689.87	369.823
693.767	219.108
697.662	243.268
701.555	300.327
705.446	195.272
709.335	176.107
713.222	163.83
717.107	66.442
720.99	124.931
724.872	152.257
728.751	146.419
732.629	81.5
736.504	77.689
740.378	181.015
744.25	176.194
748.12	296.262
751.988	309.99
755.854	324.142
759.719	296.375
763.581	255.588
767.442	230.304
771.3	166.994
775.157	108.627
779.012	16.183
782.865	74.649
786.716	18.043
790.565	33.636
794.413	14.519
798.258	62.465
802.102	21.293
805.943	32.959
809.783	55.512
813.621	50.87
817.457	18.933
821.292	30.081
825.124	117.932
828.954	60.398
832.783	4.081
836.61	18.911
840.435	130.167
844.258	151.193
848.079	314.177
851.898	442.162
855.715	334.128
859.531	194.057
863.345	182.994
867.157	183.977
870.967	216.683
874.775	218.994
878.581	124.462
882.386	216.381
886.188	170.24
889.989	263.062
893.788	271.043
897.585	314.105
901.38	404.229
905.174	321.42
908.965	330.718
912.755	292.205
916.543	268.404
920.329	170.218
924.113	141.619
927.895	248.412
931.676	152.293
935.454	221.46
939.231	168.395
943.006	224.509
946.78	260.623
950.551	275.277
954.32	372.008
958.088	442.958
961.854	546.02
965.618	544.137
969.38	433.314
973.141	578.971
976.9	626.43
980.656	799.101
984.411	1199.15
988.165	1333.98
991.916	1844.44
995.665	2529.48
999.413	3934.17
1003.16	7840.35
1006.9	17621.3
1010.65	31903.8
1014.39	21022.8
1018.12	9593.9
1021.86	5525.16
1025.6	4256.52
1029.33	3421.64
1033.06	2592.16
1036.79	1726.46
1040.52	1342.06
1044.25	1083.36
1047.97	902.593
1051.69	810.355
1055.41	622.93
1059.13	630.028
1062.85	577.653
1066.57	368.184
1070.28	390.036
1073.99	284.885
1077.7	349.613
1081.41	322.106
1085.12	388.944
1088.82	360.625
1092.52	376.372
1096.22	223.007
1099.92	141.837
1103.62	285.438
1107.32	266.492
1111.01	260.115
1114.7	177.918
1118.39	221.509
1122.08	223.583
1125.77	86.85
1129.45	51.399
1133.14	167.098
1136.82	160.393
1140.5	90.316
1144.18	62.59
1147.85	96.858
1151.53	6.48
1155.2	22.867
1158.87	50.938
1162.54	50.031
1166.21	26.283
1169.88	42.402
1173.54	45.968
1177.2	39.393
1180.86	65.682
1184.52	90.117
1188.18	67.216
1191.83	78.841
1195.49	97.558
1199.14	89.182
1202.79	114.714
1206.44	28.219
1210.08	52.146
1213.73	30.132
1217.37	112.992
1221.01	7.933
1224.65	68.725
1228.29	41.355
1231.93	179.819
1235.56	58.872
1239.19	57.115
1242.83	47.24
1246.46	100.803
1250.08	27.727
1253.71	170.632
1257.33	125.609
1260.96	105.535
1264.58	52.949
1268.19	61.097
1271.81	28.594
1275.43	169.449
1279.04	146.96
1282.65	22.34
1286.27	77.245
1289.87	75.967
1293.48	5.199
1297.09	49.622
1300.69	81.174
1304.29	58.319
1307.89	22.434
1311.49	53.422
1315.09	98.271
1318.68	110.994
1322.28	187.443
1325.87	89.645
1329.46	125.895
1333.05	88.643
1336.63	72.592
1340.22	28.477
1343.8	100.721
1347.38	85.039
1350.96	92.524
1354.54	145.689
1358.12	218.855
1361.69	174.797
1365.26	138.453
1368.83	82.344
1372.4	61.418
1375.97	13.204
1379.54	79.778
1383.1	180.727
1386.66	183.297
1390.23	193.033
1393.79	280.75
1397.34	74.667
1400.9	99.588
1404.45	98.938
1408.01	95.175
1411.56	32.303
1415.11	117.665
1418.66	66.353
1422.2	109.22
1425.75	136.734
1429.29	188.99
1432.83	132.811
1436.37	62.653
1439.91	182.598
1443.44	125.771
1446.98	60.374
1450.51	65.215
1454.04	161.603
1457.57	99.031
1461.1	209.705
1464.63	198.403
1468.15	254.354
1471.67	248.172
1475.19	241.323
1478.71	224.285
1482.23	122.561
1485.75	135.795
1489.26	63.483
1492.78	79.924
1496.29	30.171
1499.8	181.72
1503.31	220.467
1506.81	213.577
1510.32	250.009
1513.82	0
