Measurement: Raman, 514 nm, depolarized, Raman Data Processed
Mineral: Hedenbergite
Rruff sample: R050030
Ideal chemistry: CaFe^2+^Si_2_O_6_
Locality: Heroult, Ontario, Canada
Source: University of Arizona Mineral Museum
Description: Green fragments
Measured chemistry: (Ca_.993_Na_.007_)(Fe_.860_Mn_.111_Mg_.029_)(Si_.993_Al_.007_)_2_O_6_
Pin_id: M00284
Orientation: Laser parallel to -b* (0 -1 0). Fiducial mark perpendicular to laser is parallel to -c [0 0 -1]
Raman shift (cm-1)	intensity
92.661	0
96.856	40.86
101.049	152.64
105.24	490.852
109.429	731.442
113.616	1204.47
117.8	1841.27
121.983	3015.15
126.163	2984.08
130.342	1640.27
134.518	934.287
138.692	936.005
142.864	754.175
147.034	752.465
151.201	757.712
155.367	666.702
159.53	781.017
163.692	935.59
167.851	895.286
172.008	1041.99
176.163	1331.36
180.316	1029.79
184.467	566.911
188.616	363.635
192.762	251.74
196.907	121.877
201.049	28.054
205.189	61.066
209.328	68.576
213.464	28.717
217.598	6.174
221.73	43.307
225.86	208.731
229.988	485.342
234.113	390.179
238.237	174.205
242.359	119.285
246.478	31.588
250.595	1.419
254.711	56.759
258.824	27.873
262.935	77.542
267.044	271.803
271.151	488.752
275.256	574.141
279.359	601.239
283.46	492.801
287.559	548.952
291.656	699.405
295.75	1361.22
299.843	2375.77
303.933	3068.61
308.022	2871.84
312.108	2061.51
316.193	1549.08
320.275	1474.42
324.355	1964.77
328.434	2331.19
332.51	2121.68
336.584	1538.18
340.656	1117.67
344.726	714.756
348.794	471.823
352.86	458.278
356.924	556.251
360.986	654.526
365.046	1161.11
369.104	1951.38
373.159	2755.51
377.213	2212.07
381.265	1332.97
385.315	758.983
389.362	420.119
393.408	375.317
397.451	190.693
401.493	95.942
405.533	133.702
409.57	31.4
413.606	6.922
417.639	38.626
421.671	100.29
425.7	117.967
429.728	2.718
433.753	32.918
437.777	21.253
441.798	35.298
445.818	75.167
449.835	36.922
453.851	31.525
457.864	40.368
461.876	63.411
465.885	52.115
469.893	54.059
473.898	45.991
477.902	76.525
481.903	124.944
485.903	254.242
489.9	377.48
493.896	416.596
497.889	222.646
501.881	94.565
505.87	47.399
509.858	54.167
513.844	71.981
517.827	111.996
521.809	83.838
525.789	64.02
529.766	128.783
533.742	167.85
537.716	119.619
541.688	177.163
545.657	203.674
549.625	298.76
553.591	231.11
557.555	120.912
561.517	219.58
565.477	150.986
569.435	206.452
573.391	163.044
577.345	154.593
581.297	147.332
585.248	139.232
589.196	179.305
593.142	204.564
597.086	165.841
601.029	224.712
604.969	303.07
608.908	358.682
612.844	308.34
616.779	395.864
620.712	381.769
624.642	563.885
628.571	727.336
632.498	826.391
636.423	1120.65
640.346	1710.8
644.267	2517.53
648.186	4420.49
652.103	8746.64
656.019	14810.3
659.932	14679
663.843	8465.12
667.753	4400.19
671.66	2475.49
675.566	1395.17
679.47	1033.38
683.372	686.704
687.271	400.875
691.169	361.88
695.065	335.528
698.96	139.771
702.852	383.858
706.742	97.532
710.631	351.188
714.517	204.362
718.402	227.249
722.284	70.305
726.165	91.922
730.044	34.18
733.921	79.911
737.796	107.92
741.669	59.398
745.54	51.079
749.41	232.953
753.277	194.412
757.143	176.059
761.006	117.526
764.868	38.815
768.728	30.003
772.586	61.119
776.442	32.139
780.297	77.033
784.149	113.475
787.999	83.87
791.848	14.06
795.695	26.067
799.54	56.526
803.382	27.355
807.224	42.332
811.063	10.012
814.9	11.754
818.736	16.332
822.569	34.288
826.401	57.889
830.231	40.288
834.059	47.117
837.885	224.425
841.709	391.64
845.532	988.852
849.352	1336.1
853.171	1273.23
856.988	680.475
860.803	527.298
864.616	354.269
868.427	311.186
872.236	48.017
876.044	254.399
879.849	280.989
883.653	167.307
887.455	153.452
891.255	68.425
895.054	74.752
898.85	190.809
902.645	177.628
906.438	194.097
910.229	180.801
914.018	186.801
917.805	142.891
921.59	298.471
925.374	224.192
929.156	245.812
932.936	260.541
936.714	185.57
940.49	248.006
944.264	284.717
948.037	336.385
951.808	321.464
955.577	293.897
959.344	369.994
963.109	341.23
966.872	335.217
970.634	559.713
974.394	414.28
978.152	626.235
981.908	769.448
985.663	625.578
989.415	1111.47
993.166	1558.12
996.915	2518.22
1000.66	4477.93
1004.41	8475.54
1008.15	20224.6
1011.89	27271.7
1015.63	14618.4
1019.37	6523.7
1023.11	3756.77
1026.84	2648.72
1030.57	2026.61
1034.31	1530.66
1038.03	1162.66
1041.76	1039.23
1045.49	846.807
1049.21	747.38
1052.93	744.352
1056.65	712.569
1060.37	629.48
1064.09	506.171
1067.8	532.397
1071.52	558.553
1075.23	374.687
1078.94	530.323
1082.64	1196.32
1086.35	1961.68
1090.05	607.921
1093.76	313.251
1097.46	528.48
1101.16	433.104
1104.85	278.349
1108.55	323.325
1112.24	107.781
1115.93	142.8
1119.62	319.391
1123.31	323.867
1127	378.182
1130.68	115.355
1134.37	193.355
1138.05	11.59
1141.72	126.631
1145.4	193.781
1149.08	272.322
1152.75	225.953
1156.42	159.613
1160.1	218.295
1163.76	117.135
1167.43	103.736
1171.1	69.369
1174.76	146.248
1178.42	147.516
1182.08	72.213
1185.74	163.246
1189.4	198.168
1193.05	13.125
1196.7	188.697
1200.36	17.291
1204.01	154.869
1207.65	372.184
1211.3	439.736
1214.94	225.867
1218.59	142.801
1222.23	208.221
1225.87	265.943
1229.5	221.676
1233.14	177.879
1236.77	561.982
1240.41	544.803
1244.04	437.008
1247.66	428.914
1251.29	269.863
1254.92	330.947
1258.54	161.873
1262.16	51.15
1265.78	378.67
1269.4	547.816
1273.02	527.543
1276.63	174.432
1280.25	220.762
1283.86	154.979
1287.47	53.537
1291.08	133.656
1294.68	192.668
1298.29	171.637
1301.89	277.213
1305.49	453.785
1309.09	386.893
1312.69	286.217
1316.29	73.92
1319.88	41.045
1323.47	34.094
1327.06	40.904
1330.65	217
1334.24	422.354
1337.83	368.1
1341.41	323.43
1344.99	447.766
1348.57	193.307
1352.15	137.75
1355.73	311.641
1359.31	142.609
1362.88	389.367
1366.45	372.5
1370.02	347.873
1373.59	426.428
1377.16	266.867
1380.73	562.318
1384.29	538.602
1387.85	218.645
1391.41	315.332
1394.97	193.785
1398.53	288.17
1402.09	433.104
1405.64	345.977
1409.19	548.402
1412.74	559.938
1416.29	487.268
1419.84	97.518
1423.38	317.977
1426.93	30.094
1430.47	130.809
1434.01	55.732
1437.55	293.355
1441.09	308.176
1444.62	426.623
1448.16	276.754
