Measurement: Raman, 514 nm, depolarized, Raman Data Processed
Mineral: Hedenbergite
Rruff sample: R060040
Ideal chemistry: CaFe^2+^Si_2_O_6_
Locality: Rio Marina, Elba, Italy
Source: University of Arizona Mineral Museum
Description: Radial aggregate of green thin bladed crystals
Measured chemistry: Ca_1.00_(Fe^2+^_0.89_Mg_0.09_Mn_0.02_)_Î£=1_Si_2.00_O_6_
Pin_id: M00921
Orientation: Laser parallel to -b* (0 -1 0). Fiducial mark perpendicular to laser is parallel to c [0 0 1]
Raman shift (cm-1)	intensity
262.49	0
266.136	169.223
269.782	21.7109
273.425	350.609
277.068	271.707
280.709	237.908
284.348	307.857
287.986	501.238
291.622	620.709
295.257	906.285
298.891	1281.51
302.523	1787.36
306.154	2090.56
309.783	2116.45
313.41	1563.14
317.037	1447.14
320.661	1346.9
324.285	1497.2
327.906	1689.13
331.527	1794.78
335.145	1651.16
338.763	1779.5
342.379	1527.63
345.993	979.484
349.606	800.803
353.218	508.475
356.828	664.354
360.436	809.299
364.043	1276.28
367.649	1574.84
371.253	2212.65
374.856	2485.66
378.457	2342.69
382.057	1449.79
385.655	661.961
389.252	650.178
392.847	199.418
396.441	207.887
400.034	156.178
403.625	101.619
407.214	43.6738
410.802	107.346
414.389	114.228
417.974	144.963
421.557	55.8848
425.139	142.494
428.72	28.123
432.299	38.9629
435.877	59.002
439.453	28.5469
443.028	101.777
446.601	166.412
450.173	75.3379
453.743	0.095703
457.312	177.5
460.88	26.6738
464.446	99.7539
468.01	8.17578
471.573	196.398
475.135	81.4961
478.695	70.4805
482.253	147.356
485.81	390.914
489.366	383.285
492.92	361.615
496.473	386.791
500.024	158.93
503.574	262.057
507.122	228.131
510.669	136.957
514.214	202.685
517.758	205.414
521.301	235.129
524.842	41.8223
528.381	201.522
531.919	282.236
535.456	182.982
538.991	64.6934
542.524	208.375
546.056	470.283
549.587	619.106
553.116	408.904
556.644	404.918
560.17	495.264
563.695	162.07
567.218	224.863
570.74	240.566
574.26	229.381
577.779	84.5137
581.296	120.697
584.812	23.9414
588.327	304.949
591.84	191.57
595.351	160.342
598.861	166.297
602.37	266.426
605.877	292.81
609.383	243.627
612.887	301.897
616.39	201.102
619.891	440.978
623.391	554.707
626.889	642.396
630.386	711.799
633.881	828.828
637.375	1000.28
640.867	1537.85
644.358	1864.61
647.848	3137.98
651.335	5415.71
654.822	7976.69
658.307	10266.9
661.791	9843.75
665.273	6405.25
668.753	3652.77
672.232	1878.66
675.71	1053.99
679.186	843.639
682.661	754.141
686.134	376.713
689.606	413.695
693.076	209.785
696.545	153.566
700.013	382.83
703.478	434.754
706.943	221.361
710.406	22.1738
713.867	138.065
717.327	196.897
720.786	101.269
724.243	42.5391
727.698	142.701
731.153	187.065
734.605	138.422
738.056	219.15
741.506	58.9707
744.954	239.935
748.401	354.721
751.846	265.609
755.29	192.768
758.733	221.393
762.173	244.961
765.613	115.32
769.051	211.512
772.487	225.887
775.922	206.805
779.356	245.906
782.788	141.869
786.218	71.9043
789.648	88.1992
793.075	184.992
796.501	284.94
799.926	148.752
803.349	22.4297
806.771	137.068
810.191	249.828
813.61	341.422
817.027	98.5254
820.443	105.268
823.858	323.873
827.271	261.152
830.682	255.398
834.092	292.99
837.501	109.094
840.908	218.102
844.313	540.721
847.717	1075.19
851.12	1238.46
854.521	1306.75
857.921	912.992
861.319	383.764
864.716	417.467
868.111	436.133
871.505	63.6484
874.897	477.481
878.288	304.086
881.677	523.215
885.065	298.254
888.452	512.07
891.837	269.572
895.22	386.211
898.602	370.758
901.983	328.004
905.362	152.894
908.74	406.818
912.116	304.131
915.49	57.1719
918.864	102.172
922.235	266.59
925.606	25.0234
928.974	215.309
932.342	422.816
935.708	84.4648
939.072	80.2734
942.435	38.7383
945.796	366.035
949.156	186.562
952.515	384.133
955.872	233.141
959.228	115.156
962.582	421.754
965.934	55.1914
969.285	85.3164
972.635	20.4844
975.983	150.695
979.33	260.938
982.675	428.09
986.019	414.055
989.362	736.379
992.702	877.422
996.042	1636.42
999.38	2636.2
1002.72	4717.19
1006.05	9363.03
1009.38	14554.3
1012.72	15314.6
1016.05	9818.69
1019.38	5109.96
1022.7	2853.16
1026.03	2135.02
1029.36	1829.14
1032.68	1499.32
1036	1195.38
1039.32	832.516
1042.64	827.168
1045.96	514.09
1049.27	556.227
1052.59	188.508
1055.9	439.449
1059.21	378.356
1062.52	262.801
1065.83	225.5
1069.14	415.113
1072.44	305.578
1075.75	511.098
1079.05	328.242
1082.35	375.562
1085.65	423.875
1088.95	214.359
1092.25	170.797
1095.54	172.641
1098.84	169.086
1102.13	215.793
1105.42	385.633
1108.71	530.469
1112	13.1758
1115.28	310.727
1118.57	25.7188
1121.85	125.738
1125.13	176.113
1128.41	36.4414
1131.69	84.6953
1134.97	141.891
1138.25	214.434
1141.52	418.793
1144.8	101.805
1148.07	104.731
1151.34	264.547
1154.61	86.3164
1157.87	279.027
1161.14	50.6758
1164.4	313.25
1167.67	184.301
1170.93	162.82
1174.19	155.973
1177.45	122.09
1180.71	260.027
1183.96	57.8516
1187.22	7.44922
1190.47	64.1758
1193.72	98.8281
1196.97	447.434
1200.22	116.992
1203.46	279.539
1206.71	27.0195
1209.95	20.2422
1213.2	211.457
1216.44	110.656
1219.68	150.809
1222.92	186.91
1226.15	0.988281
1229.39	532.023
1232.62	225.941
1235.86	243.891
1239.09	419.578
1242.32	363.82
1245.54	151.695
1248.77	31.0391
1251.99	259.871
1255.22	381.551
1258.44	405.062
1261.66	175.176
1264.88	275.07
1268.1	514.227
1271.31	362.367
1274.53	325.481
1277.74	649.809
1280.95	316.188
1284.16	252.254
1287.37	133.309
1290.58	245.219
1293.79	50.6836
1296.99	184.234
1300.19	82.5352
1303.39	203.031
1306.6	161.242
1309.79	528.195
1312.99	397.336
1316.19	771.461
1319.38	758.293
1322.57	498.672
1325.77	519.082
1328.96	199.516
1332.14	252.973
1335.33	336.301
1338.52	390.648
1341.7	473.203
1344.88	332.801
1348.06	470.438
1351.24	371.121
1354.42	224.082
1357.6	138.047
1360.77	430.098
1363.95	650.234
1367.12	267.43
1370.29	191.731
1373.46	415.938
1376.63	277.164
1379.8	203.617
1382.96	387.012
1386.12	407.305
1389.29	350.394
1392.45	32.6406
1395.61	218.379
1398.76	85.9258
1401.92	351.859
1405.08	197.926
1408.23	108.098
1411.38	96.3789
1414.53	184.785
1417.68	149.332
1420.83	105.109
1423.97	57.0586
1427.12	85.2852
1430.26	298.504
1433.4	270.109
1436.54	256.082
1439.68	319.547
1442.82	27.3359
1445.95	318.711
1449.09	486.762
1452.22	118.941
1455.35	429.734
1458.48	462.828
1461.61	607.152
1464.74	167.621
1467.87	125.258
1470.99	73.0586
1474.11	42
1477.23	167.102
1480.35	284.367
1483.47	571.801
1486.59	525.824
1489.7	372.477
1492.82	253.027
1495.93	462.074
1499.04	483.43
1502.15	504.711
1505.26	341.742
1508.37	503.305
1511.47	344.34
1514.58	430.594
1517.68	259.137
1520.78	209
1523.88	424.203
1526.98	383.762
1530.07	609.676
1533.17	270.961
1536.26	611.766
1539.35	473.094
1542.44	373.297
1545.53	147.644
1548.62	552.156
1551.71	413.074
1554.79	106.805
1557.88	346.949
1560.96	292.133
1564.04	281.231
1567.12	140.418
1570.2	38.3203
1573.27	184.242
