Measurement: Raman, 514 nm, depolarized, Raman Data Processed
Mineral: Hedenbergite
Rruff sample: R050030
Ideal chemistry: CaFe^2+^Si_2_O_6_
Locality: Heroult, Ontario, Canada
Source: University of Arizona Mineral Museum
Description: Green fragments
Measured chemistry: (Ca_.993_Na_.007_)(Fe_.860_Mn_.111_Mg_.029_)(Si_.993_Al_.007_)_2_O_6_
Pin_id: M00478
Orientation: Laser parallel to c* (0 0 1). Fiducial mark perpendicular to laser is parallel to a [1 0 0]
Raman shift (cm-1)	intensity
109.387	0
113.559	20.277
117.729	250.123
121.897	392.936
126.063	437.228
130.228	203.518
134.39	144.422
138.55	142.511
142.709	144.347
146.865	363.009
151.019	389.959
155.171	388.771
159.322	281.144
163.47	233.251
167.617	283.123
171.761	368.074
175.904	607.922
180.044	717.521
184.183	526.751
188.319	333.566
192.454	310.139
196.586	182.706
200.717	144.513
204.846	96.245
208.972	189.758
213.097	43.901
217.22	66.304
221.341	101.563
225.46	225.47
229.577	471.428
233.692	438.431
237.805	150.478
241.916	94.563
246.025	54.675
250.132	22.786
254.237	177.915
258.34	240.056
262.442	305.21
266.541	557.769
270.639	870.201
274.734	927.459
278.828	1023.49
282.919	1245.68
287.009	1447.97
291.097	2079.14
295.183	2867.41
299.266	3271.04
303.348	3333.07
307.428	2818.55
311.507	1762.63
315.583	1127.36
319.657	1185.26
323.729	1592.96
327.8	2269.99
331.868	3496.08
335.935	4586.24
339.999	4925.55
344.062	3073.88
348.123	1735.17
352.182	1378.48
356.239	1364.8
360.294	1930.12
364.347	3216.45
368.398	5534.77
372.448	7715.06
376.495	6881.32
380.54	3995.45
384.584	2054.62
388.626	1046.74
392.666	591.811
396.704	381.822
400.74	239.778
404.774	151.689
408.806	129.618
412.836	52.856
416.865	3.304
420.891	49.073
424.916	54.024
428.939	30.66
432.959	166.008
436.978	222.601
440.996	194.211
445.011	18.195
449.024	1.789
453.036	48.592
457.045	121.66
461.053	3.072
465.059	77.285
469.063	91.533
473.065	13.43
477.065	8.77
481.063	63.595
485.06	127.887
489.054	211.153
493.047	283.362
497.038	219.459
501.027	136.442
505.014	155.337
508.999	139.137
512.982	306.86
516.964	675.468
520.944	886.968
524.921	699.34
528.897	365.581
532.871	348.686
536.844	413.656
540.814	516.945
544.783	997.653
548.749	1666.35
552.714	2300.94
556.677	1299.31
560.638	581.205
564.597	323.541
568.555	209.388
572.511	205.57
576.464	267.602
580.416	160.438
584.366	113.007
588.315	144.247
592.261	224.109
596.206	171.167
600.148	200.071
604.089	157.162
608.028	347.85
611.965	304.246
615.901	235.405
619.834	417.584
623.766	368.031
627.696	575.46
631.624	641.315
635.551	868.788
639.475	1457.48
643.398	2076.38
647.318	3418.67
651.237	6653.33
655.155	12022.7
659.07	13668.4
662.984	8725.16
666.895	4357.84
670.805	2136.62
674.713	1375.61
678.62	884.103
682.524	572.722
686.427	487.906
690.328	269.946
694.227	238.844
698.124	258.593
702.02	141.2
705.913	176.34
709.805	173.004
713.695	28.205
717.584	101.257
721.47	264.087
725.355	59.689
729.238	211.746
733.119	150.825
736.998	59.318
740.876	79.786
744.752	129.854
748.626	33.296
752.498	73.494
756.368	74.563
760.237	48.496
764.104	10.485
767.969	45.534
771.832	101.33
775.693	91.181
779.553	31.103
783.411	52.462
787.267	27.997
791.122	43.553
794.974	92.934
798.825	83.683
802.674	115.313
806.522	157.191
810.367	109.998
814.211	45.275
818.053	73.287
821.893	132.73
825.732	208.056
829.568	80.279
833.403	35.434
837.236	130.551
841.068	330.668
844.898	500.882
848.726	878.168
852.552	1017.98
856.376	492.309
860.199	359.583
864.02	321.801
867.839	212.484
871.656	186.549
875.472	150.099
879.286	264.731
883.098	299.944
886.909	389.74
890.717	363.13
894.524	519.6
898.33	617.772
902.133	836.868
905.935	963.166
909.735	974.344
913.533	778.031
917.33	762.629
921.124	560.124
924.918	344.369
928.709	310.843
932.499	290.501
936.286	159.233
940.073	412.246
943.857	300.745
947.64	257.707
951.421	236.238
955.2	386.748
958.978	442.233
962.753	587.174
966.527	557.506
970.3	581.281
974.071	574.685
977.84	818.468
981.607	1032.05
985.372	1232
989.136	1307.27
992.898	1779.13
996.659	2783.49
1000.42	4377.52
1004.17	7963.79
1007.93	19844.5
1011.68	41630.9
1015.43	31215.9
1019.18	13751
1022.93	7588.81
1026.68	6305.55
1030.42	5339.9
1034.17	3826.59
1037.91	2485.15
1041.65	1828.84
1045.39	1399.5
1049.12	1085.3
1052.86	840.778
1056.59	770.433
1060.33	707.287
1064.06	581.199
1067.78	595.882
1071.51	383.365
1075.23	495.66
1078.96	348.175
1082.68	357.186
1086.4	391.2
1090.12	324.135
1093.83	198.387
1097.55	328.35
1101.26	357.803
1104.97	313.389
1108.68	92.514
1112.39	162.161
1116.1	191.065
1119.8	164.589
1123.5	168.132
1127.2	111.396
1130.9	9.159
1134.6	124.354
1138.3	177.531
1141.99	152.684
1145.69	51.687
1149.38	4.841
1153.07	8.923
1156.76	57.436
1160.44	44.444
1164.13	36.11
1167.81	45.733
1171.49	152.977
1175.17	15.034
1178.85	138.78
1182.52	62.274
1186.2	185.403
1189.87	181.656
1193.54	123.952
1197.21	129.395
1200.88	8.275
1204.55	329.486
1208.21	108.496
1211.88	23.86
1215.54	230.648
1219.2	89.3
1222.86	93.556
1226.51	109.759
1230.17	233.015
1233.82	137.165
1237.47	212.482
1241.12	34.706
1244.77	104.616
1248.42	225.389
1252.06	276.683
1255.71	165.407
1259.35	82.851
1262.99	24.145
1266.63	224.368
1270.26	138.594
1273.9	175.36
1277.53	163.966
1281.16	164.628
1284.8	112.344
1288.42	157.388
1292.05	157.488
1295.68	79.932
1299.3	9.592
1302.92	115.268
1306.55	92.681
1310.16	258.145
1313.78	127.191
1317.4	124.598
1321.01	72.668
1324.62	89.982
1328.24	280.699
1331.85	73.93
1335.45	30.594
1339.06	122.238
1342.66	236.971
1346.27	219.512
1349.87	239.182
1353.47	275.256
1357.07	202.842
1360.66	204.242
1364.26	194.822
1367.85	64.799
1371.44	85.455
1375.04	70.023
1378.62	140.539
1382.21	180.805
1385.8	264.5
1389.38	145.572
1392.96	304.209
1396.54	306.115
1400.12	331.709
1403.7	255.797
1407.28	230.154
1410.85	295.795
1414.42	208.088
1417.99	206.162
1421.56	267.461
1425.13	48.852
1428.7	117.98
1432.26	196.75
1435.83	226.191
1439.39	281.846
1442.95	251.68
1446.51	350.045
1450.06	217.707
1453.62	481.807
1457.17	314.668
1460.73	360.033
1464.28	165.146
1467.83	107.225
1471.37	303.174
1474.92	296.301
1478.46	173.52
1482.01	151.57
1485.55	190.236
1489.09	74.301
1492.63	87.658
1496.16	154.514
1499.7	87.5
1503.23	151.861
1506.76	147.043
1510.29	128.891
1513.82	217.791
1517.35	122.137
1520.88	7.82
