Measurement: Raman, 514 nm, depolarized, Raman Data Processed
Mineral: Hedenbergite
Rruff sample: R060040
Ideal chemistry: CaFe^2+^Si_2_O_6_
Locality: Rio Marina, Elba, Italy
Source: University of Arizona Mineral Museum
Description: Radial aggregate of green thin bladed crystals
Measured chemistry: Ca_1.00_(Fe^2+^_0.89_Mg_0.09_Mn_0.02_)_Î£=1_Si_2.00_O_6_
Pin_id: M01289
Orientation: Laser parallel to a* (1 0 0). Fiducial mark perpendicular to laser is parallel to b [0 1 0]
Raman shift (cm-1)	intensity
262.49	0
266.136	87.6191
269.782	302.682
273.425	182.203
277.068	93.4688
280.709	488.865
284.348	484.947
287.986	670.064
291.622	862.379
295.257	1091.41
298.891	1805.07
302.523	2436.19
306.154	3031.03
309.783	3129.35
313.41	2408.6
317.037	1656.18
320.661	1210.52
324.285	1000.96
327.906	1153.64
331.527	1321.66
335.145	1770.12
338.763	2298.98
342.379	2111.28
345.993	1631.24
349.606	1427.12
353.218	1023.02
356.828	1187.34
360.436	1849.01
364.043	2290.74
367.649	3779.42
371.253	5827.62
374.856	7360.1
378.457	6836.84
382.057	4329.52
385.655	2462.13
389.252	1315.66
392.847	898.104
396.441	475.447
400.034	242.693
403.625	147.844
407.214	135.334
410.802	3.78125
414.389	24.0039
417.974	116.148
421.557	39.1484
425.139	108.236
428.72	224.498
432.299	135.617
435.877	122.578
439.453	105.988
443.028	6.71484
446.601	13.5508
450.173	95.0059
453.743	42.3789
457.312	4.96875
460.88	53.1211
464.446	96.7227
468.01	51.291
471.573	99.8398
475.135	118.019
478.695	9.49414
482.253	183.375
485.81	166.828
489.366	299.051
492.92	535.807
496.473	785.453
500.024	570.982
503.574	535.275
507.122	528.523
510.669	440.609
514.214	528.389
517.758	1103.04
521.301	1148.61
524.842	903.102
528.381	705.502
531.919	436.871
535.456	657.162
538.991	595.369
542.524	365.502
546.056	603.606
549.587	656.729
553.116	677.617
556.644	425.072
560.17	656.731
563.695	323.602
567.218	368.135
570.74	292.978
574.26	501.637
577.779	318.535
581.296	6.78125
584.812	196.815
588.327	38.1152
591.84	109.746
595.351	89.3398
598.861	236.769
602.37	117.658
605.877	159.309
609.383	100.596
612.887	63.0703
616.39	75.8242
619.891	331.586
623.391	140.963
626.889	87.082
630.386	409.748
633.881	442.682
637.375	605.496
640.867	951.336
644.358	1504.13
647.848	2047.69
651.335	3417.65
654.822	5804.72
658.307	9174.43
661.791	10743.6
665.273	7385.26
668.753	4214.43
672.232	2499.22
675.71	1489.69
679.186	1104.57
682.661	915.004
686.134	660.672
689.606	449.34
693.076	612.428
696.545	282.326
700.013	209.783
703.478	520.621
706.943	246.522
710.406	397.787
713.867	343.935
717.327	542.65
720.786	246.977
724.243	271.195
727.698	291.518
731.153	204.787
734.605	13.5371
738.056	252.33
741.506	234.428
744.954	251.857
748.401	373.734
751.846	281.711
755.29	298.43
758.733	345.022
762.173	281.506
765.613	190.67
769.051	168.9
772.487	77.6172
775.922	43.7578
779.356	46.1211
782.788	8.07227
786.218	368.977
789.648	92.832
793.075	158.568
796.501	147.805
799.926	92.3086
803.349	118.697
806.771	71.0293
810.191	181.471
813.61	75.3262
817.027	284.435
820.443	290.049
823.858	77.9902
827.271	135.029
830.682	124.846
834.092	241.393
837.501	91.25
840.908	18.8691
844.313	179.695
847.717	368.42
851.12	479.051
854.521	704.059
857.921	622.18
861.319	393.565
864.716	549.373
868.111	294.293
871.505	142.391
874.897	71.5859
878.288	251.818
881.677	388.037
885.065	270.955
888.452	281.594
891.837	361.816
895.22	262.008
898.602	381.131
901.983	332.869
905.362	407.99
908.74	44.6465
912.116	338.484
915.49	113.848
918.864	339.856
922.235	153.523
925.606	367.467
928.974	14.375
932.342	420.707
935.708	225.986
939.072	133.91
942.435	7.13281
945.796	12.4375
949.156	102.641
952.515	124.799
955.872	18.0645
959.228	197.279
962.582	267.217
965.934	213.283
969.285	272.647
972.635	123.174
975.983	128.82
979.33	680.42
982.675	376.033
986.019	663.664
989.362	724.375
992.702	1365.21
996.042	1903.07
999.38	2527.97
1002.72	4658.88
1006.05	8740.82
1009.38	16595.7
1012.72	23289.4
1016.05	15688
1019.38	8027.08
1022.7	4596.16
1026.03	3247.2
1029.36	3100.31
1032.68	2303.52
1036	1669.68
1039.32	1488.97
1042.64	1110.13
1045.96	704.051
1049.27	733.656
1052.59	819.906
1055.9	788.016
1059.21	686.891
1062.52	648.164
1065.83	455.055
1069.14	473.957
1072.44	498.859
1075.75	262.406
1079.05	443.477
1082.35	388.086
1085.65	399.781
1088.95	497.277
1092.25	125.473
1095.54	66.7539
1098.84	293.137
1102.13	36.5703
1105.42	279.102
1108.71	132.625
1112	208.297
1115.28	330.977
1118.57	220.66
1121.85	467.836
1125.13	122.535
1128.41	471.238
1131.69	77.9453
1134.97	80.6562
1138.25	375.367
1141.52	69.9219
1144.8	80.6211
1148.07	367.012
1151.34	277.367
1154.61	26.2773
1157.87	491.023
1161.14	185.324
1164.4	179.641
1167.67	119.734
1170.93	6.64062
1174.19	148.148
1177.45	27.332
1180.71	73.8086
1183.96	67.5469
1187.22	201.797
1190.47	205.984
1193.72	142.164
1196.97	248.328
1200.22	438.484
1203.46	191.625
1206.71	313.746
1209.95	25.8555
1213.2	289.09
1216.44	302.328
1219.68	451.547
1222.92	209.766
1226.15	216.965
1229.39	205.144
1232.62	102.211
1235.86	151.359
1239.09	122.488
1242.32	478.606
1245.54	235.699
1248.77	85.2188
1251.99	278.676
1255.22	419.551
1258.44	263.414
1261.66	139.254
1264.88	475.094
1268.1	216.914
1271.31	447.18
1274.53	211.758
1277.74	287.981
1280.95	429.769
1284.16	373.621
1287.37	461.414
1290.58	101.211
1293.79	52.582
1296.99	175.109
1300.19	139.16
1303.39	208.719
1306.6	197.75
1309.79	253.199
1312.99	243.664
1316.19	372.812
1319.38	88.2422
1322.57	294.719
1325.77	468.25
1328.96	449.809
1332.14	354.391
1335.33	287.008
1338.52	460.934
1341.7	330.258
1344.88	299.965
1348.06	152.703
1351.24	304.473
1354.42	111.277
1357.6	393.133
1360.77	76.2266
1363.95	459.559
1367.12	246.688
1370.29	312.027
1373.46	396.113
1376.63	291.699
1379.8	338.773
1382.96	406.914
1386.12	283.121
1389.29	189.402
1392.45	416.254
1395.61	19.6992
1398.76	168.203
1401.92	547.867
1405.08	449.699
1408.23	212.617
1411.38	325.644
1414.53	60.8008
1417.68	69.2188
1420.83	95.0078
1423.97	149.012
1427.12	278.129
1430.26	356.184
1433.4	152.734
1436.54	292.383
1439.68	44.9531
1442.82	250.356
1445.95	573.379
1449.09	366.262
1452.22	532.344
1455.35	175.344
1458.48	181.219
1461.61	160.188
1464.74	53.7422
1467.87	136.445
1470.99	159.762
1474.11	305.195
1477.23	366.762
1480.35	1.6875
1483.47	669.773
1486.59	315.019
1489.7	80.4258
1492.82	87.0039
1495.93	520.754
1499.04	245.484
1502.15	207.875
1505.26	447.531
1508.37	316.098
1511.47	412.012
1514.58	73.0117
1517.68	104.203
1520.78	199.715
1523.88	568.734
1526.98	208.699
1530.07	338.012
1533.17	415.68
1536.26	311.727
1539.35	269.606
1542.44	683.57
1545.53	100.223
1548.62	267.551
1551.71	447.137
1554.79	589.062
1557.88	384.621
1560.96	337.562
1564.04	200.109
1567.12	291.965
1570.2	333.398
1573.27	2.70703
1576.35	0
