Measurement: Raman, 514 nm, depolarized, Raman Data Processed
Mineral: Hedenbergite
Rruff sample: R060040
Ideal chemistry: CaFe^2+^Si_2_O_6_
Locality: Rio Marina, Elba, Italy
Source: University of Arizona Mineral Museum
Description: Radial aggregate of green thin bladed crystals
Measured chemistry: Ca_1.00_(Fe^2+^_0.89_Mg_0.09_Mn_0.02_)_Î£=1_Si_2.00_O_6_
Pin_id: M00548
Orientation: Laser parallel to c* (0 0 1). Fiducial mark perpendicular to laser is parallel to a [1 0 0]
Raman shift (cm-1)	intensity
262.49	0
266.136	55.1719
269.782	177.253
273.425	300.599
277.068	159.394
280.709	322.212
284.348	236.033
287.986	505.06
291.622	716.713
295.257	852.376
298.891	1302.36
302.523	1668.95
306.154	1910.65
309.783	1798.61
313.41	1233.21
317.037	991.442
320.661	675.75
324.285	863.091
327.906	926.633
331.527	1505.83
335.145	1902.52
338.763	2152.81
342.379	2062.81
345.993	1486.21
349.606	959.902
353.218	790.459
356.828	837.35
360.436	1100.43
364.043	1677.81
367.649	2842.07
371.253	4072.51
374.856	4827.94
378.457	3882.49
382.057	2667.33
385.655	1406.65
389.252	815.367
392.847	275.599
396.441	369.598
400.034	350.144
403.625	6.79394
407.214	19.4053
410.802	37.919
414.389	170.877
417.974	64.0098
421.557	55.2119
425.139	210.3
428.72	47.8096
432.299	188.547
435.877	184.202
439.453	201.786
443.028	271.545
446.601	256.492
450.173	1.53223
453.743	144.195
457.312	85.6924
460.88	16.4775
464.446	45.5361
468.01	55.0312
471.573	41.4541
475.135	102.508
478.695	19.6885
482.253	131.29
485.81	1.66602
489.366	272.8
492.92	541.013
496.473	449.041
500.024	390.961
503.574	211.691
507.122	348.182
510.669	323.171
514.214	376.528
517.758	478.537
521.301	387.332
524.842	571.047
528.381	406.687
531.919	265.19
535.456	157.588
538.991	281.857
542.524	382.565
546.056	549.651
549.587	903.602
553.116	1249.82
556.644	830.112
560.17	617.744
563.695	335.359
567.218	164.568
570.74	164.431
574.26	372.477
577.779	36.7666
581.296	253.664
584.812	2.44531
588.327	162.592
591.84	171.361
595.351	193.127
598.861	279.365
602.37	141.766
605.877	276.199
609.383	414.529
612.887	342.902
616.39	243.414
619.891	280.047
623.391	393.731
626.889	288.891
630.386	413.408
633.881	647.297
637.375	752.598
640.867	1007.3
644.358	1477.67
647.848	2272.58
651.335	4014.1
654.822	6128.68
658.307	9011.44
661.791	9019.75
665.273	6374.02
668.753	3497.32
672.232	1976.49
675.71	1142
679.186	927.439
682.661	490.943
686.134	461.664
689.606	369.693
693.076	317.725
696.545	297.184
700.013	324.537
703.478	261.762
706.943	138.785
710.406	263.006
713.867	143.607
717.327	149.824
720.786	183.522
724.243	18.8418
727.698	177.949
731.153	105.846
734.605	164.713
738.056	15.5781
741.506	85.2793
744.954	220.156
748.401	234.801
751.846	171.393
755.29	285.967
758.733	106.508
762.173	162.904
765.613	333.123
769.051	217.129
772.487	208.848
775.922	66.7285
779.356	66.7383
782.788	63.7168
786.218	222.709
789.648	28.5098
793.075	241.098
796.501	86.0723
799.926	136.289
803.349	90.7656
806.771	42.0508
810.191	59.4395
813.61	8.96875
817.027	171.662
820.443	132.084
823.858	181.234
827.271	130.195
830.682	297.978
834.092	228.203
837.501	45.3984
840.908	107.41
844.313	219.889
847.717	480.445
851.12	737.725
854.521	784.246
857.921	659.857
861.319	187.935
864.716	309.824
868.111	573.141
871.505	155.836
874.897	496.527
878.288	281.076
881.677	349.707
885.065	393.422
888.452	330.461
891.837	427.268
895.22	409.565
898.602	390.475
901.983	383.502
905.362	399.783
908.74	555.6
912.116	265.584
915.49	61.6602
918.864	346.799
922.235	284.582
925.606	107.359
928.974	252.455
932.342	76.1387
935.708	119.07
939.072	50.668
942.435	127.336
945.796	27.1543
949.156	45.3379
952.515	23.0332
955.872	28.7051
959.228	278.32
962.582	226.076
965.934	286.068
969.285	28.3809
972.635	281.617
975.983	29.2578
979.33	633.703
982.675	444.059
986.019	686.781
989.362	920.426
992.702	1325.77
996.042	2062.44
999.38	3320.12
1002.72	5796.81
1006.05	11319.4
1009.38	19530.7
1012.72	23107.7
1016.05	14512.4
1019.38	7229.94
1022.7	4625.38
1026.03	3441.92
1029.36	2934.74
1032.68	2391.14
1036	1774.06
1039.32	1439.87
1042.64	1149.15
1045.96	570.297
1049.27	563.602
1052.59	433.574
1055.9	653.307
1059.21	385.525
1062.52	390.336
1065.83	301.357
1069.14	534.678
1072.44	441.318
1075.75	429.195
1079.05	362.662
1082.35	669.975
1085.65	996.133
1088.95	597.18
1092.25	468.955
1095.54	324.225
1098.84	402.898
1102.13	265.34
1105.42	156.977
1108.71	181.522
1112	162.975
1115.28	149.238
1118.57	8.33008
1121.85	171.506
1125.13	185.356
1128.41	163.107
1131.69	296.859
1134.97	141.586
1138.25	263.477
1141.52	296.781
1144.8	307.977
1148.07	83.1016
1151.34	142.123
1154.61	5.04492
1157.87	212.797
1161.14	143.603
1164.4	222.109
1167.67	140.869
1170.93	298.059
1174.19	153.31
1177.45	120.986
1180.71	146.387
1183.96	284.588
1187.22	147.549
1190.47	31.8984
1193.72	11.875
1196.97	248.902
1200.22	225.512
1203.46	260.957
1206.71	172.195
1209.95	110.295
1213.2	199.121
1216.44	295.74
1219.68	129.113
1222.92	182.299
1226.15	186.522
1229.39	166.346
1232.62	337.1
1235.86	369.389
1239.09	189.947
1242.32	140.228
1245.54	380.467
1248.77	170.699
1251.99	318.227
1255.22	501.062
1258.44	241.441
1261.66	97.7031
1264.88	152.822
1268.1	349.066
1271.31	322.373
1274.53	309.481
1277.74	200.26
1280.95	355.672
1284.16	250.328
1287.37	181.977
1290.58	163.07
1293.79	185.537
1296.99	211.246
1300.19	384.113
1303.39	343.332
1306.6	324.572
1309.79	334.793
1312.99	164.553
1316.19	365.139
1319.38	369.018
1322.57	175.504
1325.77	316.096
1328.96	311.66
1332.14	364.039
1335.33	178.623
1338.52	84.9629
1341.7	236.955
1344.88	354.961
1348.06	377.807
1351.24	0.158203
1354.42	329.758
1357.6	262.875
1360.77	150.131
1363.95	106.897
1367.12	326.959
1370.29	240.691
1373.46	266.67
1376.63	298.65
1379.8	253.443
1382.96	438.449
1386.12	197.467
1389.29	161.188
1392.45	247.531
1395.61	133.139
1398.76	198.242
1401.92	53.6328
1405.08	120.492
1408.23	154.637
1411.38	48.8477
1414.53	16.1367
1417.68	48.3398
1420.83	47.8164
1423.97	88.8125
1427.12	267.246
1430.26	190.578
1433.4	247.414
1436.54	307.465
1439.68	105.578
1442.82	450.168
1445.95	300.172
1449.09	447.273
1452.22	184.191
1455.35	187.414
1458.48	103.812
1461.61	412.496
1464.74	20.7578
1467.87	296.289
1470.99	91.3203
1474.11	202.387
1477.23	108.586
1480.35	146.883
1483.47	236.269
1486.59	51.4883
1489.7	211.391
1492.82	165.242
1495.93	125.633
1499.04	231.18
1502.15	1.02734
1505.26	131.961
1508.37	451.121
1511.47	247.406
1514.58	457.691
1517.68	202.094
1520.78	357.547
1523.88	194.945
1526.98	242.793
1530.07	388.121
1533.17	392.316
1536.26	62.5508
1539.35	419.457
1542.44	211.059
1545.53	37.4531
1548.62	120.106
1551.71	263.949
1554.79	208.566
1557.88	348.879
1560.96	228.598
1564.04	430.547
1567.12	860.422
1570.2	361.102
1573.27	202.637
