Measurement: Raman, 514 nm, depolarized, Raman Data Processed
Mineral: Hedenbergite
Rruff sample: R060040
Ideal chemistry: CaFe^2+^Si_2_O_6_
Locality: Rio Marina, Elba, Italy
Source: University of Arizona Mineral Museum
Description: Radial aggregate of green thin bladed crystals
Measured chemistry: Ca_1.00_(Fe^2+^_0.89_Mg_0.09_Mn_0.02_)_Î£=1_Si_2.00_O_6_
Pin_id: M01578
Orientation: Laser parallel to (-1 0 -1). Fiducial mark perpendicular to laser is parallel to -b [0 -1 0]
Raman shift (cm-1)	intensity
262.49	0
266.136	250.602
269.782	178.458
273.425	67.1602
277.068	215.623
280.709	431.834
284.348	445.231
287.986	692.736
291.622	654.756
295.257	782.856
298.891	905.697
302.523	1068.94
306.154	1419.6
309.783	1244.64
313.41	1081.44
317.037	734.711
320.661	743.752
324.285	767.479
327.906	1089.08
331.527	1379.69
335.145	1724.5
338.763	1966.29
342.379	1938.53
345.993	1218.73
349.606	835.936
353.218	728.018
356.828	807.084
360.436	888.012
364.043	1216.62
367.649	2157.39
371.253	3144.62
374.856	4121.55
378.457	3557.29
382.057	2305.76
385.655	1224.52
389.252	823.803
392.847	402.949
396.441	209.957
400.034	389.488
403.625	256.219
407.214	90.7969
410.802	74.0371
414.389	117.066
417.974	150.566
421.557	10.7168
425.139	63.9434
428.72	66.6856
432.299	67.7363
435.877	168.522
439.453	73.166
443.028	58.9883
446.601	113.994
450.173	24.3105
453.743	165.973
457.312	238.236
460.88	108.115
464.446	51.6191
468.01	35.0234
471.573	80.75
475.135	9.82422
478.695	171.309
482.253	297.402
485.81	208.484
489.366	245.172
492.92	150.697
496.473	455.981
500.024	318.227
503.574	425.34
507.122	289.893
510.669	363.076
514.214	395.754
517.758	505.287
521.301	564.719
524.842	570.076
528.381	475.394
531.919	194.633
535.456	433.82
538.991	378.916
542.524	485.971
546.056	473.912
549.587	730.842
553.116	981.65
556.644	707.4
560.17	391.205
563.695	306.85
567.218	234.615
570.74	266.42
574.26	239.006
577.779	177.455
581.296	21.6523
584.812	182.852
588.327	11.0801
591.84	305.961
595.351	89.2383
598.861	210.129
602.37	110.793
605.877	148.818
609.383	174.168
612.887	37.2734
616.39	278.543
619.891	50.9609
623.391	135.156
626.889	372.008
630.386	431.559
633.881	653.227
637.375	677.621
640.867	718.363
644.358	912.553
647.848	1443.09
651.335	2406.45
654.822	4173.47
658.307	6156.7
661.791	6571.5
665.273	4382.15
668.753	2420.2
672.232	1296.44
675.71	816.4
679.186	562.342
682.661	588.457
686.134	535.928
689.606	308.574
693.076	228.516
696.545	496.365
700.013	232.607
703.478	258.217
706.943	220.732
710.406	222.603
713.867	216.975
717.327	158.381
720.786	137.893
724.243	32.6895
727.698	164.633
731.153	56.791
734.605	18.7188
738.056	125.18
741.506	158.912
744.954	141.297
748.401	227.598
751.846	184.002
755.29	289.502
758.733	92.8457
762.173	271.654
765.613	157.19
769.051	23.3809
772.487	220.736
775.922	256.514
779.356	37.9297
782.788	94.2188
786.218	69.6406
789.648	111.57
793.075	46.5547
796.501	95.0898
799.926	3.71289
803.349	105.447
806.771	153.402
810.191	95.9981
813.61	193.619
817.027	3.30664
820.443	191.252
823.858	89.6445
827.271	16.7461
830.682	56.7793
834.092	117.635
837.501	179.334
840.908	27.1562
844.313	354.236
847.717	395.135
851.12	520.121
854.521	708.473
857.921	452.068
861.319	374.467
864.716	308.207
868.111	129.65
871.505	167.707
874.897	339.381
878.288	82.3965
881.677	82.4727
885.065	150.26
888.452	305.873
891.837	601.84
895.22	448.041
898.602	314.385
901.983	470.576
905.362	381.199
908.74	321.543
912.116	283.389
915.49	426.125
918.864	223.971
922.235	82.75
925.606	24.9238
928.974	163.728
932.342	168.553
935.708	183.359
939.072	132.758
942.435	71.3633
945.796	93.7754
949.156	206.732
952.515	18.0664
955.872	101.656
959.228	402.398
962.582	153.619
965.934	154.367
969.285	231.375
972.635	367.361
975.983	12.8125
979.33	286.637
982.675	313.076
986.019	602.475
989.362	854.594
992.702	908.963
996.042	1310.36
999.38	1988.45
1002.72	3263.43
1006.05	6336.95
1009.38	11855.6
1012.72	15411.1
1016.05	10080.4
1019.38	4851.45
1022.7	2898.11
1026.03	2368.33
1029.36	2089.56
1032.68	1608.67
1036	1393.78
1039.32	799.641
1042.64	554.84
1045.96	598.215
1049.27	611.41
1052.59	490.859
1055.9	155.727
1059.21	300.051
1062.52	152.684
1065.83	257.078
1069.14	267.598
1072.44	352.785
1075.75	350.871
1079.05	332.699
1082.35	562.273
1085.65	778.719
1088.95	567.109
1092.25	199.996
1095.54	44.0586
1098.84	273.586
1102.13	91.0742
1105.42	73.5156
1108.71	101.363
1112	371.797
1115.28	144.191
1118.57	214.555
1121.85	555.836
1125.13	295.062
1128.41	146.539
1131.69	239.527
1134.97	188.406
1138.25	185.477
1141.52	11.2461
1144.8	42.0312
1148.07	92.5664
1151.34	222.133
1154.61	209.398
1157.87	53.6328
1161.14	87.375
1164.4	208.668
1167.67	58.8672
1170.93	79.3906
1174.19	160.562
1177.45	154.301
1180.71	178.394
1183.96	119.621
1187.22	227.918
1190.47	40.4648
1193.72	201.953
1196.97	77.5977
1200.22	342.644
1203.46	205.824
1206.71	244.059
1209.95	261.387
1213.2	112.711
1216.44	130.043
1219.68	21.1406
1222.92	316.371
1226.15	96.4375
1229.39	579.527
1232.62	370.023
1235.86	181.023
1239.09	310.984
1242.32	99.9062
1245.54	330.781
1248.77	112.621
1251.99	477.656
1255.22	17.9336
1258.44	323.691
1261.66	106.656
1264.88	8.07422
1268.1	278.059
1271.31	309.488
1274.53	346.996
1277.74	326.164
1280.95	355.887
1284.16	335.492
1287.37	148.359
1290.58	146.102
1293.79	99.6406
1296.99	532.93
1300.19	464.606
1303.39	279.688
1306.6	125.316
1309.79	418.266
1312.99	321.981
1316.19	221.731
1319.38	293.051
1322.57	353.785
1325.77	211.356
1328.96	238.152
1332.14	385.887
1335.33	224.695
1338.52	430.473
1341.7	299.152
1344.88	396.914
1348.06	260.324
1351.24	231.051
1354.42	168.273
1357.6	371.035
1360.77	311.836
1363.95	402.664
1367.12	258.519
1370.29	261.406
1373.46	261.324
1376.63	202.223
1379.8	143.07
1382.96	367.746
1386.12	165.711
1389.29	308.652
1392.45	252.539
1395.61	298.754
1398.76	349.973
1401.92	102.242
1405.08	315.609
1408.23	125.039
1411.38	231.606
1414.53	67.25
1417.68	316.992
1420.83	287.852
1423.97	154.168
1427.12	13.625
1430.26	23.0312
1433.4	310.492
1436.54	264.34
1439.68	323.414
1442.82	80.8281
1445.95	259.223
1449.09	508.43
1452.22	374.609
1455.35	327.906
1458.48	325.316
1461.61	686.754
1464.74	116.922
1467.87	262.43
1470.99	144.031
1474.11	154.738
1477.23	546.555
1480.35	156.508
1483.47	425.648
1486.59	417.945
1489.7	271.402
1492.82	151
1495.93	122.738
1499.04	265.606
1502.15	222.934
1505.26	193.957
1508.37	439.242
1511.47	534.836
1514.58	269.488
1517.68	281.312
1520.78	111.519
1523.88	367.051
1526.98	488.566
1530.07	98.3672
1533.17	553.449
1536.26	438.832
1539.35	344.934
1542.44	489.418
1545.53	273.586
1548.62	280.555
1551.71	42.5781
1554.79	315.797
1557.88	192.188
1560.96	255.074
1564.04	298.461
1567.12	410.359
1570.2	160.766
1573.27	0.53125
