Measurement: Raman, , ccw, Raman Data Processed
Mineral: Heklaite
Rruff sample: P001140
Ideal chemistry: KNaSiF_6_
Locality: Virtual
Source: ScottLab
Description: PURPLE OpenSource 20190319
Raman shift (cm-1)	intensity
24.7324	0
30.0357	0
35.3389	0
40.6422	0
45.9455	0
51.2488	0
56.5521	0
61.8554	0
67.1586	0
72.4619	0
77.7652	0
83.0685	0
88.3718	0
93.6751	0
98.9783	0
104.282	0
109.585	0
114.888	0
120.192	0
125.495	0
130.798	0
136.101	0
141.405	0
146.708	0
152.011	0
157.315	0
162.618	0
167.921	0
173.224	0
178.528	0
183.831	0.521987
189.134	0.550472
194.437	0.582948
199.741	0.620507
205.044	0.664682
210.347	0.717713
215.651	0.782982
220.954	0.865819
226.257	0.975047
231.56	1.12628
236.864	1.3494
242.167	1.70853
247.47	2.36518
252.774	3.82283
258.077	7.8567
263.38	17.8814
268.683	26.5991
273.987	19.0543
279.29	8.62216
284.593	4.28857
289.897	2.80275
295.2	2.20417
300.503	1.93348
305.806	1.81601
311.11	1.78529
316.413	1.81259
321.716	1.88548
327.019	1.99993
332.323	2.15752
337.626	2.36463
342.929	2.63307
348.233	2.98216
353.536	3.44282
358.839	4.06565
364.142	4.9371
369.446	6.21459
374.749	8.21104
380.052	11.6293
385.356	18.3773
390.659	35.7579
395.962	113.365
401.265	406.519
406.569	357.222
411.872	277.175
417.175	101.441
422.479	36.0055
427.782	19.9016
433.085	14.0642
438.389	11.6354
443.692	10.896
448.995	11.3803
454.298	13.2057
459.602	17.1664
464.905	25.7611
470.208	48.21
475.511	120.912
480.815	270.534
486.118	340.641
491.421	279.357
496.725	147.117
502.028	78.2516
507.331	29.6392
512.634	17.1393
517.938	12.1157
523.241	9.47194
528.544	7.91821
533.847	6.95998
539.151	6.36678
544.454	6.01909
549.757	5.85094
555.061	5.82554
560.364	5.92347
565.667	6.13711
570.971	6.46789
576.274	6.92538
581.577	7.5279
586.88	8.30423
592.184	9.29711
597.487	10.5689
602.79	12.2118
608.093	14.3642
613.397	17.2401
618.7	21.1837
624.003	26.7756
629.307	35.0565
634.61	48.0446
639.913	70.0802
645.216	111.95
650.52	206.98
655.823	502.78
661.126	1875.11
666.43	3100.58
671.733	924.033
677.036	305.836
682.34	148.078
687.643	87.1531
692.946	57.5297
698.249	41.0876
703.553	31.3698
708.856	26.369
714.159	31.8204
719.462	51.5855
724.766	24.0815
730.069	13.4812
735.372	10.3594
740.676	8.6043
745.979	7.37043
751.282	6.42526
756.585	5.66951
761.889	5.04929
767.192	4.53106
772.495	4.14607
777.799	4.03148
783.102	3.91689
788.405	3.8023
793.708	3.68771
799.012	3.57312
804.315	3.45853
809.618	3.34394
814.922	3.22935
820.225	3.11476
825.528	3.00017
830.831	2.88558
836.135	2.77099
841.438	2.6564
846.741	2.54181
852.045	2.42722
857.348	2.31263
862.651	2.19804
867.954	2.08345
873.258	1.96886
878.561	1.85427
883.864	1.73968
889.168	1.62509
894.471	1.5105
899.774	1.39591
905.077	1.28132
910.381	1.16673
915.684	1.05214
920.987	0.937554
926.29	0.822964
931.594	0.708374
936.897	0.593784
942.2	0.479194
947.504	0.364604
952.807	0.250014
958.11	0.135424
963.413	0.0208345
968.717	0
974.02	0
979.323	0
984.627	0
989.93	0
995.233	0
1000.54	0
1005.84	0
1011.14	0
1016.45	0
1021.75	0
1027.05	0
1032.36	0
1037.66	0
1042.96	0
1048.27	0
1053.57	0
1058.87	0
1064.18	0
1069.48	0
1074.78	0
1080.09	0
1085.39	0
1090.69	0
1096	0
1101.3	0
1106.6	0
1111.9	0
1117.21	0
1122.51	0
1127.82	0
1133.12	0
1138.42	0
1143.72	0
1149.03	0
1154.33	0
1159.63	0
1164.94	0
1170.24	0
1175.55	0
1180.85	0
1186.15	0
1191.45	0
1196.76	0
1202.06	0
1207.37	0
1212.67	0
1217.97	0
1223.27	0
1228.58	0
1233.88	0
1239.18	0
1244.49	0
1249.79	0
1255.09	0
1260.4	0
1265.7	0
1271	0
1276.31	0
1281.61	0
1286.91	0
1292.22	0
1297.52	0
1302.82	0
1308.13	0
1313.43	0
1318.73	0
1324.04	0
1329.34	0
1334.64	0
1339.95	0
1345.25	0
1350.55	0
1355.86	0
1361.16	0
1366.46	0
1371.77	0
1377.07	0
1382.37	0
1387.68	0
1392.98	0
1398.28	0
1403.59	0
1408.89	0
1414.19	0
1419.5	0
1424.8	0
1430.1	0
1435.41	0
1440.71	0
1446.01	0
1451.32	0
1456.62	0
1461.92	0
1467.22	0
1472.53	0
1477.83	0
1483.13	0
1488.44	0
1493.74	0
1499.05	0
1504.35	0
1509.65	0
1514.95	0
1520.26	0
1525.56	0
1530.87	0
1536.17	0
1541.47	0
1546.78	0
1552.08	0
1557.38	0
1562.68	0
1567.99	0
1573.29	0
1578.59	0
1583.9	0
1589.2	0
1594.5	0
1599.81	0
1605.11	0
1610.41	0
1615.72	0
1621.02	0
1626.32	0
1631.63	0
1636.93	0
1642.23	0
1647.54	0
1652.84	0
1658.14	0
1663.45	0
1668.75	0
1674.05	0
1679.36	0
1684.66	0
1689.96	0
1695.27	0
1700.57	0
1705.87	0
1711.18	0
1716.48	0
1721.78	0
1727.09	0
1732.39	0
1737.69	0
1743	0
1748.3	0
1753.6	0
1758.91	0
1764.21	0
1769.51	0
1774.82	0
1780.12	0
1785.42	0
1790.73	0
1796.03	0
1801.33	0
1806.63	0
1811.94	0
1817.24	0
1822.55	0
1827.85	0
1833.15	0
1838.45	0
1843.76	0
1849.06	0
1854.37	0
1859.67	0
1864.97	0
1870.28	0
1875.58	0
1880.88	0
1886.18	0
1891.49	0
1896.79	0
1902.1	0
1907.4	0
1912.7	0
1918	0
1923.31	0
1928.61	0
1933.91	0
1939.22	0
1944.52	0
1949.82	0
1955.13	0
1960.43	0
1965.73	0
1971.04	0
1976.34	0
1981.64	0
1986.95	0
1992.25	0
1997.55	0
2002.86	0
2008.16	0
