Measurement: Raman, 514 nm, depolarized, Raman Data Processed
Mineral: Helvine
Rruff sample: R060059
Ideal chemistry: Mn^2+^_4_(BeSiO_4_)_3_S^2-^
Locality: Schwarzenberg, Saxony, Germany
Source: University of Arizona Mineral Museum
Description: Yellow-tan colored tetrahedra
Measured chemistry: (Mn^2+^_2.93_Fe^2+^_0.48_Zn_0.35_Ca_0.15_Fe^3+^_0.09_)_Σ=4_Be_3.00_((Si_0.97_Al_0.03_)_Σ=1_O_4_)_3_S_1.00_; BeO assumed by stoichiometry
Pin_id: M00669
Orientation: Laser parallel to -a* (-1 0 0). Fiducial mark perpendicular to laser is parallel to -c [0 0 -1]
Raman shift (cm-1)	intensity
95.759	0
100.703	443.977
105.644	3662.89
110.583	4754.99
115.52	9463.02
120.453	16445
125.385	24011
130.313	29915.8
135.239	21944.5
140.163	14657.4
145.084	10044.2
150.002	9013.19
154.918	14600.2
159.832	22990.2
164.742	35921.9
169.651	57735.2
174.556	67203.8
179.459	43013.2
184.36	16101.5
189.258	8973.93
194.153	8065.5
199.046	5869.22
203.936	1517.88
208.824	661.269
213.709	1413.48
218.592	1113.59
223.472	215.004
228.349	1795.52
233.224	4612.71
238.096	6756.26
242.966	5742.42
247.833	2897.56
252.698	1205.84
257.56	1040.07
262.419	1687.73
267.276	2888.49
272.13	4824.56
276.982	7048.38
281.831	9716.78
286.677	12166.9
291.521	13676.8
296.363	15080.3
301.202	15132.2
306.038	12763.2
310.872	8154.03
315.703	4780.9
320.531	2918.93
325.357	2045.99
330.181	2123.34
335.001	1543.68
339.82	1339.42
344.635	1472.81
349.448	1493.79
354.259	1935.7
359.067	2447.7
363.872	2390.73
368.675	1007.76
373.475	496.027
378.272	188.633
383.067	123.539
387.86	144.197
392.649	86.7734
397.437	247.352
402.221	324.037
407.003	312.902
411.783	636.553
416.56	422.332
421.334	339.303
426.106	409.58
430.875	1192.38
435.641	2641.06
440.405	5492.72
445.167	5847.52
449.925	2469.03
454.681	768.57
459.435	32.9297
464.186	149.109
468.934	70.7441
473.68	137.225
478.423	209.184
483.164	47.4629
487.902	134.988
492.637	152.996
497.37	498.174
502.1	791.984
506.828	995.307
511.553	1520.59
516.276	2416.22
520.995	3473.13
525.713	5165.36
530.427	6675.93
535.139	6981.14
539.849	6535.37
544.556	6118.85
549.26	7246.87
553.962	9777.91
558.661	12645.2
563.357	14899.7
568.051	13592
572.742	11562.7
577.431	10104.3
582.117	8282.52
586.801	6504.39
591.481	4759.92
596.16	4167.69
600.835	3728.07
605.508	3627.22
610.179	3306.64
614.847	2381.68
619.512	2441.54
624.175	2222.75
628.835	1438.26
633.492	631.35
638.147	66.1738
642.799	289.898
647.449	348.305
652.096	90.7871
656.74	554.678
661.382	1201.28
666.021	1769.79
670.658	2989.18
675.292	4607
679.923	4558.38
684.552	2807.25
689.178	1458.25
693.802	1003.4
698.423	552.699
703.041	631.211
707.657	847.994
712.27	953.019
716.881	1167.22
721.489	1207.62
726.094	817.268
730.697	932.184
735.297	1018.4
739.894	1171.07
744.489	1093.39
749.081	1304.45
753.671	798.441
758.258	721.725
762.842	842.225
767.424	425.598
772.003	297.191
776.58	170.299
781.154	175.055
785.725	55.002
790.294	32.8164
794.86	90.7578
799.424	10.125
803.985	111.188
808.543	145.998
813.099	21.4785
817.652	11.6953
822.202	248.949
826.75	517.467
831.295	436.82
835.838	614.889
840.378	1292.81
844.915	1722.45
849.45	2666.48
853.982	3590.88
858.512	4968.66
863.039	6919.81
867.563	10232.4
872.085	16718.4
876.604	30023.9
881.12	58143.9
885.634	111646
890.145	166424
894.654	166026
899.16	122100
903.663	78745.3
908.164	50701.8
912.662	33469
917.158	23105.6
921.651	16507.5
926.141	12276.3
930.628	9892.39
935.113	8887.04
939.596	8265.7
944.076	7328.44
948.553	5404.31
953.027	3976.8
957.499	3099.01
961.969	2743.17
966.435	2469.08
970.899	3129.66
975.361	2999.64
979.82	2412.28
984.276	2346.89
988.73	2449.04
993.181	2613.53
997.629	2918.07
1002.08	3424.47
1006.52	4288.59
1010.96	5760.03
1015.4	7432.69
1019.83	8490.24
1024.26	7043.54
1028.69	5125.66
1033.12	3418.56
1037.55	2745.3
1041.97	2549.53
1046.39	1987.9
1050.81	1483.35
1055.22	1020.53
1059.63	949.838
1064.04	764.441
1068.45	732.178
1072.85	587.244
1077.25	126.389
1081.65	380.818
1086.05	25.6074
1090.44	0.824219
1094.83	145.619
1099.22	154.865
1103.6	24.832
1107.99	48.7871
1112.37	50.5332
1116.74	6.88867
1121.12	127.131
1125.49	229.273
1129.86	39.0293
1134.23	174.746
1138.59	153.228
1142.95	107.383
1147.31	38.5332
1151.67	158.938
1156.02	128.502
1160.38	117.008
1164.72	259.463
1169.07	214.435
1173.41	99.4023
1177.75	336.164
1182.09	479.676
1186.43	203.062
1190.76	325.981
1195.09	492.926
1199.42	444.478
1203.74	545.146
1208.07	515.769
1212.39	566.625
1216.7	416.688
1221.02	522.156
1225.33	511.231
1229.64	459.527
1233.95	427.631
1238.25	382.773
1242.55	308.988
1246.85	310.312
1251.15	48.6035
1255.44	297.213
1259.73	17.123
1264.02	34.9434
1268.31	7.34961
1272.59	15.0781
1276.87	9.52148
1281.15	104.732
1285.42	55.0859
1289.69	38.3066
1293.96	50.9805
1298.23	36.2559
1302.5	15.2031
1306.76	239.334
1311.02	276.772
1315.27	359.494
1319.53	151.074
1323.78	367.516
1328.03	121.893
1332.28	216.662
1336.52	237.504
1340.76	203.629
1345	342.615
1349.23	353.725
1353.47	284.715
1357.7	229.432
1361.93	143.022
1366.15	118.17
1370.37	249.791
1374.59	364.644
1378.81	261.502
1383.03	497.711
1387.24	380.209
1391.45	216.635
1395.65	219.342
1399.86	153.113
1404.06	167.779
1408.26	356.754
1412.46	488.957
1416.65	423.455
1420.84	427.637
1425.03	560.104
1429.22	591.266
1433.4	625.863
1437.58	352.943
1441.76	649.35
1445.93	499.455
1450.11	480.6
1454.28	180.115
1458.44	221.453
1462.61	378.592
1466.77	251.898
1470.93	180.695
1475.09	61.2324
1479.24	153.555
1483.39	100.82
1487.54	42.4727
1491.69	153.9
1495.84	136.994
1499.98	46.082
1504.12	73.543
1508.25	381.115
1512.38	311.078
1516.52	118.844
1520.64	178.508
1524.77	157.555
1528.89	330.289
1533.01	208.246
1537.13	286.6
1541.25	116.891
1545.36	250.457
1549.47	125.266
1553.58	273.135
1557.68	24.5059
1561.78	23.9551
1565.88	81.8144
1569.98	239.279
1574.07	99.9824
1578.16	0
