Measurement: Raman, 514 nm, ccw, Raman Data Processed
Mineral: Helvine
Rruff sample: R060059
Ideal chemistry: Mn^2+^_4_(BeSiO_4_)_3_S^2-^
Locality: Schwarzenberg, Saxony, Germany
Source: University of Arizona Mineral Museum
Description: Yellow-tan colored tetrahedra
Measured chemistry: (Mn^2+^_2.93_Fe^2+^_0.48_Zn_0.35_Ca_0.15_Fe^3+^_0.09_)_Σ=4_Be_3.00_((Si_0.97_Al_0.03_)_Σ=1_O_4_)_3_S_1.00_; BeO assumed by stoichiometry
Pin_id: M00669
Orientation: Laser parallel to -a* (-1 0 0). Fiducial mark perpendicular to laser is parallel to -c [0 0 -1]
Raman shift (cm-1)	intensity
83.388	0
88.338	93.2656
93.286	499.631
98.231	896.455
103.174	4219.87
108.114	5472.08
113.052	7127.99
117.987	11263.5
122.919	14320.9
127.849	18944.3
132.777	16989.1
137.702	11716.6
142.624	9367.16
147.544	9319.68
152.461	13280.8
157.375	19232.1
162.287	29777.9
167.197	52497.1
172.104	80087.1
177.008	70954.3
181.91	31023.4
186.809	13243
191.706	9692.78
196.6	7957.51
201.491	3653.81
206.38	664.33
211.267	428.475
216.151	857.488
221.032	399.996
225.911	404.752
230.787	2172.1
235.66	3966.59
240.531	4815.84
245.4	3799.45
250.266	1804.78
255.129	1014.15
259.99	776.869
264.848	1674.7
269.703	2724.66
274.556	4279.93
279.407	5516.9
284.255	7139.46
289.1	7887.5
293.942	8535.29
298.783	9615.73
303.62	11126.2
308.455	9481.5
313.288	5554.72
318.117	3154.12
322.945	1955.54
327.769	1080
332.591	808.053
337.411	907.231
342.228	775.834
347.042	675.963
351.854	575.832
356.663	1020.47
361.47	901.887
366.274	492.143
371.075	98.4668
375.874	23.5664
380.67	58.377
385.464	212.441
390.255	157.197
395.043	109.418
399.829	376.065
404.613	463.375
409.393	428.5
414.172	525.303
418.947	410.934
423.72	593.459
428.49	787.004
433.258	2152.67
438.024	5397.38
442.786	7562.79
447.546	5258.73
452.304	1744.37
457.059	736.734
461.811	220.783
466.56	22.3496
471.308	156.379
476.052	94.584
480.794	81.2402
485.533	65.6055
490.27	129.353
495.004	393.258
499.736	422.156
504.465	808.877
509.191	1178.17
513.915	1955.35
518.636	2999.79
523.354	4207.11
528.07	6168.41
532.784	7704.59
537.494	7186.47
542.203	5966.97
546.908	5096.55
551.611	6051.86
556.311	7496.64
561.009	9292.99
565.704	10178.4
570.397	9664.78
575.087	8872.72
579.774	7875.65
584.459	6450.59
589.141	4860.54
593.821	3917.72
598.498	3685.77
603.172	3530.61
607.844	3246.95
612.513	2721.77
617.18	2543.86
621.844	2093.03
626.505	1715.63
631.164	845.793
635.82	169.773
640.473	344.762
645.124	352.254
649.773	50.2988
654.418	255.775
659.062	754.137
663.702	1839.68
668.34	2832.61
672.975	5002.25
677.608	5894.8
682.238	3955.63
686.866	2011.56
691.49	1192.67
696.113	808
700.732	668.58
705.349	712.412
709.964	875.506
714.576	927.301
719.185	879.471
723.792	848.387
728.396	730.615
732.997	570.182
737.596	618.1
742.192	654.42
746.785	834.281
751.376	441.846
755.965	393.522
760.551	335.09
765.134	543.418
769.714	315.451
774.292	30.3008
778.867	193.861
783.44	165.074
788.01	58.9727
792.578	33.4453
797.142	47.6875
801.705	248.891
806.264	186.373
810.821	61.4141
815.376	32.1484
819.927	324.523
824.476	515.547
829.023	676
833.567	744.729
838.108	1256.15
842.647	1759.96
847.183	2071.53
851.716	2829.37
856.247	3873.38
860.776	5310.5
865.301	8012.76
869.824	12186.2
874.345	21043.6
878.862	39728.4
883.377	77890.2
887.89	135590
892.4	161726
896.907	131567
901.412	87441.9
905.914	55682.6
910.413	36059.4
914.91	24652.6
919.404	17571.5
923.896	12854.6
928.385	9977.13
932.871	8516.6
937.355	7617.66
941.836	6818.16
946.315	5647.22
950.79	3957.8
955.264	3136.09
959.734	2482.11
964.202	2227.22
968.668	2851.05
973.131	2918.92
977.591	2875.36
982.048	2122.79
986.503	2128.26
990.955	2299.12
995.405	2157.2
999.852	2530
1004.3	2568.33
1008.74	3115.54
1013.18	3734.31
1017.61	4616.49
1022.05	4323.75
1026.48	3243.69
1030.91	2244.89
1035.33	1919.09
1039.76	1475.83
1044.18	1307.01
1048.6	1115.77
1053.01	793.65
1057.42	831.992
1061.84	726.873
1066.24	636.551
1070.65	193.586
1075.05	212.938
1079.45	243.566
1083.85	92.3926
1088.24	89.9492
1092.63	87.5137
1097.02	82.8867
1101.41	352.762
1105.8	92.8516
1110.18	119.352
1114.56	6.09375
1118.93	161.935
1123.31	234.066
1127.68	168.041
1132.04	202.125
1136.41	147.209
1140.77	158.135
1145.13	209.791
1149.49	260.133
1153.85	258.006
1158.2	122.459
1162.55	354.119
1166.9	318.982
1171.24	206
1175.58	111.07
1179.92	285.406
1184.26	351.272
1188.6	524.457
1192.93	484.072
1197.26	455.935
1201.58	566.871
1205.9	545.613
1210.23	551.896
1214.55	735.012
1218.86	705.977
1223.17	710.773
1227.48	444.807
1231.79	557.299
1236.1	245.885
1240.4	252.027
1244.7	215.106
1249	123.984
1253.29	213.967
1257.59	91.0137
1261.88	157.326
1266.16	14.541
1270.45	33.4082
1274.73	190.672
1279.01	263.945
1283.28	88.4785
1287.56	140.238
1291.83	234.65
1296.1	139.941
1300.36	213.807
1304.63	107.166
1308.89	92.9707
1313.15	55.1504
1317.4	67.3359
1321.65	187.033
1325.9	139.656
1330.15	110.789
1334.4	97.3848
1338.64	271.522
1342.88	143.232
1347.12	318.711
1351.35	417.391
1355.58	157.019
1359.81	395.924
1364.04	353.809
1368.26	213.356
1372.48	285.113
1376.7	313.478
1380.92	503.85
1385.13	553.404
1389.34	381.777
1393.55	399.668
1397.76	736.691
1401.96	163.273
1406.16	402.488
1410.36	544.664
1414.55	443.736
1418.75	393.066
1422.94	705.348
1427.12	576.557
1431.31	697.193
1435.49	652.115
1439.67	929.002
1443.85	539.981
1448.02	406.793
1452.19	439.295
1456.36	559.654
1460.53	514.652
1464.69	390.262
1468.85	208.344
1473.01	518.346
1477.17	452.121
1481.32	255.705
1485.47	298.795
1489.62	296.805
1493.76	287.34
1497.91	280.18
1502.05	42.1133
1506.18	87.125
1510.32	34.3945
1514.45	168.91
1518.58	45.8223
1522.71	285.606
1526.83	378.006
1530.95	327.053
1535.07	225.315
1539.19	138.279
1543.3	199.049
1547.41	349.902
1551.52	384.981
1555.63	463.682
1559.73	244.359
1563.83	252.246
1567.93	170.883
1572.03	224.709
1576.12	263.41
