Measurement: Raman, 514 nm, ccw, Raman Data Processed
Mineral: Helvine
Rruff sample: R060059
Ideal chemistry: Mn^2+^_4_(BeSiO_4_)_3_S^2-^
Locality: Schwarzenberg, Saxony, Germany
Source: University of Arizona Mineral Museum
Description: Yellow-tan colored tetrahedra
Measured chemistry: (Mn^2+^_2.93_Fe^2+^_0.48_Zn_0.35_Ca_0.15_Fe^3+^_0.09_)_Σ=4_Be_3.00_((Si_0.97_Al_0.03_)_Σ=1_O_4_)_3_S_1.00_; BeO assumed by stoichiometry
Pin_id: M00669
Orientation: Laser parallel to -a* (-1 0 0). Fiducial mark perpendicular to laser is parallel to -c [0 0 -1]
Raman shift (cm-1)	intensity
93.286	0
98.231	113.508
103.174	4392.96
108.114	6622.07
113.052	10314.3
117.987	20873.4
122.919	32624.2
127.849	47950.4
132.777	43646.6
137.702	26614.7
142.624	17128.3
147.544	10587.6
152.461	13649.8
157.375	19637.8
162.287	24510.3
167.197	34629.1
172.104	42430.9
177.008	33975.2
181.91	14760
186.809	6592.11
191.706	5888.75
196.6	5519.63
201.491	2511.31
206.38	617.988
211.267	1328.41
216.151	873.287
221.032	346.709
225.911	1911.12
230.787	5368.37
235.66	9138.33
240.531	8705.58
245.4	4451.23
250.266	1963.33
255.129	1501.42
259.99	1754.87
264.848	3516.11
269.703	5744.83
274.556	8686.38
279.407	12539.4
284.255	15536.2
289.1	17860.9
293.942	18824.1
298.783	17550.5
303.62	14092.8
308.455	9218.47
313.288	5278.91
318.117	3195.77
322.945	2241.71
327.769	1924.56
332.591	1445.94
337.411	1732.42
342.228	1761.22
347.042	1848.46
351.854	2889.07
356.663	3396.15
361.47	4010.14
366.274	2615.18
371.075	1002.78
375.874	249.115
380.67	248.002
385.464	254.809
390.255	50.3242
395.043	196.043
399.829	244.982
404.613	315.555
409.393	367.457
414.172	422.394
418.947	370.402
423.72	180.588
428.49	259.041
433.258	1002.53
438.024	2396.78
442.786	3508.68
447.546	2174.18
452.304	619.656
457.059	139.949
461.811	86.1777
466.56	151.736
471.308	1.42969
476.052	121.879
480.794	38.8086
485.533	1.36719
490.27	317.115
495.004	132.793
499.736	737.664
504.465	811.828
509.191	1218.52
513.915	2069.35
518.636	3179.1
523.354	4271.97
528.07	5188.56
532.784	5910.81
537.494	5852.27
542.203	6259.96
546.908	7665.98
551.611	10477.4
556.311	14742.4
561.009	18207.4
565.704	17917.8
570.397	14143.3
575.087	11511.7
579.774	9721.64
584.459	7727.06
589.141	5720.99
593.821	4210.27
598.498	3989.68
603.172	3461.7
607.844	3217.71
612.513	2625.82
617.18	2250.68
621.844	2332.21
626.505	1905.84
631.164	975.262
635.82	50.9844
640.473	139.545
645.124	229.748
649.773	109.459
654.418	207.049
659.062	360.383
663.702	853.047
668.34	1453.29
672.975	2616.73
677.608	2929.25
682.238	2128.44
686.866	1244.99
691.49	654.119
696.113	680.334
700.732	425.656
705.349	775.143
709.964	982.865
714.576	1157.8
719.185	1421.84
723.792	1127.01
728.396	1362.35
732.997	968.902
737.596	1182.83
742.192	1564.27
746.785	1634.48
751.376	1258.68
755.965	758.846
760.551	859.068
765.134	851.305
769.714	734.377
774.292	554.463
778.867	268.912
783.44	157.478
788.01	12.9023
792.578	27.3242
797.142	31.3496
801.705	1.15625
806.264	160.353
810.821	188.404
815.376	65.9277
819.927	50.0352
824.476	154.906
829.023	468.051
833.567	850.195
838.108	1149.72
842.647	1278.58
847.183	2074.26
851.716	3114.74
856.247	3935.74
860.776	5808.12
865.301	8384.94
869.824	13404.2
874.345	22677.3
878.862	42157.1
883.377	83147.6
887.89	144270
892.4	175003
896.907	148170
901.412	100269
905.914	64420.7
910.413	42091.7
914.91	28940.9
919.404	20370.4
923.896	14913.1
928.385	11814.1
932.871	10397.9
937.355	10263.1
941.836	9875.11
946.315	7509.24
950.79	5280.56
955.264	3835.39
959.734	3145.29
964.202	2677.11
968.668	2608.86
973.131	2760.27
977.591	2527.76
982.048	2492.41
986.503	2460.16
990.955	2764.78
995.405	2940.32
999.852	3601.09
1004.3	4471.09
1008.74	5928.56
1013.18	8149.83
1017.61	9703.18
1022.05	9224.23
1026.48	7282.29
1030.91	5079.95
1035.33	3806.61
1039.76	3120.91
1044.18	2570.77
1048.6	2153.39
1053.01	1684.71
1057.42	1209.53
1061.84	963.914
1066.24	711.643
1070.65	497.522
1075.05	420.588
1079.45	375.525
1083.85	225.707
1088.24	68.9941
1092.63	3.95312
1097.02	99.959
1101.41	151.971
1105.8	73.541
1110.18	66.5859
1114.56	192.992
1118.93	16.9688
1123.31	183.022
1127.68	30.9609
1132.04	92.2188
1136.41	31.6094
1140.77	81.1582
1145.13	179.75
1149.49	106.545
1153.85	140.324
1158.2	80.5469
1162.55	143.111
1166.9	165.094
1171.24	118.049
1175.58	174.248
1179.92	390.223
1184.26	375.555
1188.6	419.373
1192.93	521.432
1197.26	375.281
1201.58	451.295
1205.9	695.338
1210.23	464.656
1214.55	431.025
1218.86	632.326
1223.17	748.791
1227.48	636.93
1231.79	465.574
1236.1	586.641
1240.4	374.004
1244.7	263.371
1249	439.006
1253.29	258.559
1257.59	301.559
1261.88	147.973
1266.16	95.459
1270.45	180.033
1274.73	286.867
1279.01	26.0957
1283.28	97.5918
1287.56	251.113
1291.83	148.59
1296.1	239.293
1300.36	197.629
1304.63	515.533
1308.89	322.445
1313.15	247.197
1317.4	9.21289
1321.65	82.7676
1325.9	139.951
1330.15	163.576
1334.4	130.727
1338.64	284.055
1342.88	165.289
1347.12	95.0059
1351.35	344.219
1355.58	587.977
1359.81	381.635
1364.04	489.666
1368.26	589.713
1372.48	421.475
1376.7	617.176
1380.92	626.732
1385.13	451.727
1389.34	390.977
1393.55	379.883
1397.76	500.174
1401.96	689.164
1406.16	453.871
1410.36	407.4
1414.55	569.42
1418.75	600.459
1422.94	585.414
1427.12	468.078
1431.31	504.359
1435.49	571.391
1439.67	680.342
1443.85	409.719
1448.02	477.32
1452.19	435.09
1456.36	626.332
1460.53	451.004
1464.69	541.965
1468.85	301.287
1473.01	478.801
1477.17	107.924
1481.32	476.953
1485.47	127.564
1489.62	134.457
1493.76	148.467
1497.91	55.2891
1502.05	97.8223
1506.18	95.0957
1510.32	302.394
1514.45	255.785
1518.58	245.631
1522.71	146.789
1526.83	65.4336
1530.95	189.826
1535.07	238.836
1539.19	263.232
1543.3	120.301
1547.41	114.25
1551.52	424.478
1555.63	211.435
1559.73	29.6191
1563.83	135.973
1567.93	181.598
