Measurement: Raman, 514 nm, ccw, Raman Data Processed
Mineral: Helvine
Rruff sample: R060059
Ideal chemistry: Mn^2+^_4_(BeSiO_4_)_3_S^2-^
Locality: Schwarzenberg, Saxony, Germany
Source: University of Arizona Mineral Museum
Description: Yellow-tan colored tetrahedra
Measured chemistry: (Mn^2+^_2.93_Fe^2+^_0.48_Zn_0.35_Ca_0.15_Fe^3+^_0.09_)_Σ=4_Be_3.00_((Si_0.97_Al_0.03_)_Σ=1_O_4_)_3_S_1.00_; BeO assumed by stoichiometry
Pin_id: M00669
Orientation: Laser parallel to -a* (-1 0 0). Fiducial mark perpendicular to laser is parallel to -c [0 0 -1]
Raman shift (cm-1)	intensity
93.286	0
98.231	25.6172
103.174	3065.96
108.114	4634.9
113.052	6110.35
117.987	10979.2
122.919	13117.2
127.849	17953.1
132.777	16466
137.702	11511
142.624	9205.36
147.544	8428
152.461	11515.3
157.375	18122.2
162.287	29254.9
167.197	50456.6
172.104	75743.2
177.008	71145.9
181.91	33333
186.809	13873
191.706	9711.3
196.6	7922.89
201.491	3871.32
206.38	826.516
211.267	1001.29
216.151	665.904
221.032	706.121
225.911	229.523
230.787	1829.93
235.66	3930.97
240.531	4503.3
245.4	3609.98
250.266	2174.35
255.129	1171.17
259.99	843.326
264.848	2036.1
269.703	2764.95
274.556	4126.69
279.407	5799.39
284.255	7062.36
289.1	8376.64
293.942	9033.79
298.783	10122.3
303.62	11194.4
308.455	9229.12
313.288	5841.33
318.117	3368.59
322.945	2019.51
327.769	1433.75
332.591	1066.84
337.411	960.598
342.228	953.723
347.042	985.783
351.854	1070.44
356.663	1165.31
361.47	1119.21
366.274	707.82
371.075	297.254
375.874	15.2734
380.67	179.772
385.464	108.057
390.255	215.478
395.043	123.732
399.829	285.207
404.613	548.156
409.393	613.982
414.172	367.24
418.947	524.164
423.72	448.586
428.49	1077.97
433.258	2549.8
438.024	5032.14
442.786	7687.06
447.546	5512.87
452.304	1739.92
457.059	641.301
461.811	98.9102
466.56	63.5293
471.308	374.051
476.052	117.846
480.794	40.9141
485.533	10.7363
490.27	132.668
495.004	86.8906
499.736	365.658
504.465	832.693
509.191	1276.41
513.915	1793.17
518.636	3018.19
523.354	4470.31
528.07	6071.44
532.784	7410.17
537.494	6962.08
542.203	6013.08
546.908	5704.9
551.611	7001.3
556.311	8323.64
561.009	10751.5
565.704	11530.9
570.397	10636
575.087	9595.88
579.774	8569.71
584.459	6654.48
589.141	5134.22
593.821	4257.55
598.498	3687.46
603.172	3980.19
607.844	3436.91
612.513	2880.23
617.18	2526.38
621.844	2047.54
626.505	1714.88
631.164	818.668
635.82	155.334
640.473	243.049
645.124	323.543
649.773	19.3398
654.418	596.211
659.062	1346.77
663.702	2414.78
668.34	3080.8
672.975	4815.78
677.608	5552.59
682.238	3866.28
686.866	2161.52
691.49	1274
696.113	846.795
700.732	672.926
705.349	682.406
709.964	635.229
714.576	631.348
719.185	756.789
723.792	581.574
728.396	581.731
732.997	689.269
737.596	479.213
742.192	654.668
746.785	652.762
751.376	547.76
755.965	303.164
760.551	400.535
765.134	490.799
769.714	238.869
774.292	168.408
778.867	130.135
783.44	86.8789
788.01	166.152
792.578	27.2383
797.142	98.8496
801.705	32.8066
806.264	80.291
810.821	57.3691
815.376	17.8555
819.927	205.441
824.476	320.769
829.023	581.486
833.567	858.738
838.108	1110.44
842.647	1429.66
847.183	2003.05
851.716	2735.63
856.247	3827.35
860.776	5389.24
865.301	7886.33
869.824	12162
874.345	20396.6
878.862	37855.4
883.377	74717.6
887.89	130931
892.4	162599
896.907	137011
901.412	92295.9
905.914	57722.6
910.413	37457.5
914.91	25347.3
919.404	17760.9
923.896	13304.9
928.385	9923.37
932.871	8271.28
937.355	7461.34
941.836	6916.01
946.315	5554.4
950.79	3945.47
955.264	3406.25
959.734	2807.52
964.202	2614.34
968.668	2850.05
973.131	3362.14
977.591	2942.03
982.048	2279.03
986.503	2290.94
990.955	2370.87
995.405	2513.2
999.852	2652.19
1004.3	2879.18
1008.74	3562.11
1013.18	4601.87
1017.61	5254.93
1022.05	4997.96
1026.48	3931.1
1030.91	2819.09
1035.33	2225.43
1039.76	1871.67
1044.18	1530.11
1048.6	1192.84
1053.01	1081.89
1057.42	803.131
1061.84	679.037
1066.24	573.447
1070.65	420.363
1075.05	188.291
1079.45	341.334
1083.85	183.107
1088.24	30.4473
1092.63	2.14648
1097.02	149.838
1101.41	160.795
1105.8	134.848
1110.18	81.3223
1114.56	107.422
1118.93	94.1914
1123.31	72.6211
1127.68	5.42188
1132.04	104.93
1136.41	131.57
1140.77	89.7695
1145.13	51.3926
1149.49	65.0703
1153.85	93.416
1158.2	15.873
1162.55	5.98242
1166.9	122.463
1171.24	337.695
1175.58	266.322
1179.92	235.408
1184.26	228.676
1188.6	385.297
1192.93	195.625
1197.26	428.1
1201.58	566.203
1205.9	401.75
1210.23	602.773
1214.55	302.018
1218.86	262.584
1223.17	422.719
1227.48	389.18
1231.79	369.764
1236.1	427.106
1240.4	305.197
1244.7	279.772
1249	228.217
1253.29	229.695
1257.59	167.299
1261.88	131.959
1266.16	88.1074
1270.45	15.6953
1274.73	127.092
1279.01	51.0508
1283.28	153.596
1287.56	61.8223
1291.83	16.918
1296.1	366.023
1300.36	72.2129
1304.63	197.83
1308.89	312.664
1313.15	70.9805
1317.4	310.348
1321.65	305.801
1325.9	73.9551
1330.15	45.4062
1334.4	75.6875
1338.64	398.184
1342.88	213.006
1347.12	294.315
1351.35	289.58
1355.58	489.818
1359.81	377.254
1364.04	475.941
1368.26	310.166
1372.48	477.643
1376.7	208.49
1380.92	126.891
1385.13	354.053
1389.34	269.316
1393.55	302.637
1397.76	235.141
1401.96	350.252
1406.16	346.301
1410.36	584.957
1414.55	438.42
1418.75	371.672
1422.94	545.262
1427.12	550.262
1431.31	430.986
1435.49	285.215
1439.67	311.062
1443.85	397.219
1448.02	252.094
1452.19	254.416
1456.36	257.365
1460.53	365.443
1464.69	353.945
1468.85	205.941
1473.01	155.611
1477.17	327.152
1481.32	48.3691
1485.47	239.289
1489.62	86.6191
1493.76	54.332
1497.91	58.7168
1502.05	65.043
1506.18	140.713
1510.32	131.697
1514.45	238.652
1518.58	13.6426
1522.71	9.80664
1526.83	111.266
1530.95	319.703
1535.07	217.381
1539.19	24.2871
1543.3	52.6777
1547.41	265.779
1551.52	277.871
1555.63	342.363
1559.73	98.2344
1563.83	304.758
1567.93	25.3027
1572.03	71.9961
1576.12	5.43164
