Measurement: Raman, 514 nm, ccw, Raman Data Processed
Mineral: Hematite
Rruff sample: R040024
Ideal chemistry: Fe^3+^_2_O_3_
Locality: near Covered Wells, Papago Indian Reservation, Arizona, USA
Source: University of Arizona Mineral Museum
Description: Reddish-black foliatated mass
Measured chemistry: (Fe_1.99_Al_0.01_)_Î£=2_O_3_
Pin_id: M01935
Orientation: Laser parallel to -a* (-1 0 0). Fiducial mark perpendicular to laser is parallel to c [0 0 1]
Raman shift (cm-1)	intensity
127.792	0
132.725	242.934
137.656	439.779
142.583	257.99
147.508	583.848
152.431	411.781
157.35	667.49
162.267	567.055
167.181	546.162
172.092	526.834
177.001	275.836
181.907	145.441
186.81	90.1309
191.711	22.5469
196.608	156.242
201.503	216.451
206.395	212.482
211.285	312.596
216.172	755.016
221.056	1876.73
225.937	3440.69
230.816	3454.57
235.692	1734.61
240.565	3038.81
245.436	1665.44
250.304	1617.92
255.169	1007.6
260.031	521.271
264.891	493.654
269.748	639.627
274.602	865.434
279.454	1715.93
284.303	3504.63
289.149	6021.31
293.992	7437.39
298.833	5649.27
303.671	4244.97
308.507	2895.54
313.339	1966.9
318.169	943.717
322.996	662.531
327.821	502.266
332.643	256.438
337.462	155.236
342.279	145.893
347.092	79.2812
351.904	101.068
356.712	160.652
361.518	203.518
366.321	184.449
371.121	10.2637
375.919	309.633
380.714	411.639
385.506	512.25
390.296	864.625
395.083	777.377
399.867	1470.1
404.649	2427.89
409.428	3587.02
414.204	4268.04
418.978	3626.11
423.749	2640.94
428.517	1571.11
433.282	1010.77
438.045	703.109
442.806	565.268
447.563	472.795
452.318	426.641
457.07	549.633
461.82	718.906
466.567	400.027
471.311	442.221
476.053	612.506
480.792	596.037
485.528	744.727
490.262	889.926
494.992	852.1
499.721	1078.01
504.446	1152.69
509.169	1151.61
513.89	876.418
518.607	936.004
523.322	983.062
528.035	696.066
532.745	649.488
537.452	772.66
542.156	1131.1
546.858	905.508
551.557	852.82
556.254	1138.07
560.947	874.088
565.639	987.777
570.327	1271
575.013	1057.33
579.697	794.764
584.377	354.41
589.055	358.551
593.731	134.312
598.403	279.678
603.074	646.799
607.741	1017.25
612.406	1341.18
617.068	1568.75
621.728	1514.1
626.385	1616.28
631.039	1408.34
635.691	1666.59
640.34	1549.49
644.987	1647.03
649.63	1500.76
654.272	1820.94
658.91	2039.88
663.546	2397.09
668.18	2666.57
672.81	2751.05
677.439	2534.17
682.064	2637.6
686.687	2101.74
691.307	1609.39
695.925	1531.94
700.54	935.156
705.153	1113.86
709.763	539.178
714.37	406.926
718.974	375.185
723.577	312.762
728.176	54.8906
732.773	352.279
737.367	194.158
741.959	171.857
746.548	147
751.134	217.252
755.718	9.29883
760.299	47.4258
764.878	81.5352
769.454	102.127
774.028	135.246
778.598	91.8652
783.167	30.1973
787.732	82.4023
792.295	36.9277
796.856	172.701
801.414	119.561
805.969	201.305
810.522	72.2871
815.072	16.8359
819.62	195.033
824.165	129.74
828.707	207.199
833.247	100.088
837.784	3.97852
842.319	228.129
846.851	203.891
851.381	57.334
855.908	4.91602
860.432	303.562
864.954	118.076
869.473	127.963
873.99	338.252
878.504	387.867
883.015	65.9824
887.524	334.674
892.031	309.369
896.535	270.164
901.036	573.008
905.535	320.883
910.031	592.146
914.524	305.435
919.015	503.703
923.504	409.562
927.99	521.852
932.473	688.008
936.954	572.928
941.432	714.791
945.908	747.064
950.381	778.988
954.852	618.318
959.32	674.893
963.785	1050.71
968.248	803.777
972.708	626.723
977.166	868.037
981.622	832.771
986.074	810.922
990.525	807.154
994.972	821.643
999.417	662.594
1003.86	523.041
1008.3	976.779
1012.74	438.525
1017.17	625.787
1021.61	736.133
1026.04	778.742
1030.46	699.16
1034.89	932.586
1039.31	1198.26
1043.73	1304.61
1048.15	1505.38
1052.56	1622.33
1056.97	1625.07
1061.38	1689.03
1065.79	1577.85
1070.19	1423.02
1074.6	1574.69
1079	1483.37
1083.39	1501.19
1087.79	1423.51
1092.18	1278.77
1096.57	1231.88
1100.96	1220.47
1105.34	1160.22
1109.72	834.492
1114.1	1021.46
1118.48	948.945
1122.85	831.027
1127.22	586.477
1131.6	691.41
1135.96	547.379
1140.33	235.344
1144.69	412.832
1149.05	286.856
1153.4	45.4219
1157.76	39.4688
1162.11	213.113
1166.46	234.066
1170.81	247.633
1175.15	162.344
1179.49	18.293
1183.83	128.914
1188.17	181.637
1192.5	14.4141
1196.84	40.832
1201.16	49.4453
1205.49	86.5977
1209.82	14.2305
1214.14	153.438
1218.46	244.43
1222.77	153.238
1227.09	289.59
1231.4	634.629
1235.71	355.445
1240.02	477.371
1244.32	768.676
1248.62	877.059
1252.92	743.242
1257.22	1006.62
1261.51	1240.54
1265.81	1493.01
1270.1	1822.78
1274.38	2036.6
1278.67	2362.7
1282.95	2681.31
1287.23	2972.76
1291.51	3502.88
1295.78	3730.31
1300.05	4230.96
1304.32	4634.1
1308.59	5263.31
1312.86	5764
1317.12	6175.49
1321.38	6609.74
1325.63	7165.9
1329.89	7092.25
1334.14	6844.62
1338.39	6856.05
1342.64	6773.37
1346.88	6378.04
1351.13	5838.4
1355.37	5469.9
1359.61	4911.51
1363.84	4393.5
1368.07	3689.79
1372.3	3142.57
1376.53	2777.64
1380.76	2581.79
1384.98	2203.37
1389.2	1871.34
1393.42	1441.19
1397.64	1128.82
1401.85	1091.8
1406.06	779.484
1410.27	420.367
1414.47	652.195
1418.68	393.879
1422.88	396.086
1427.08	293.695
1431.27	221.699
1435.47	102.269
1439.66	281.965
1443.85	197.148
1448.03	21.5781
1452.22	60.6953
1456.4	101.422
1460.58	178.102
1464.76	99.0234
1468.93	1.05859
1473.1	0.832031
1477.27	127.43
1481.44	118.391
1485.6	12.8398
1489.77	103.871
1493.92	319.555
1498.08	207.016
1502.24	223.059
1506.39	197.754
1510.54	45.4922
1514.69	222.356
1518.83	257.801
1522.97	159.523
1527.12	78.8984
1531.25	613.527
1535.39	450.934
1539.52	398.488
1543.65	168.496
1547.78	481.574
1551.91	1015.49
1556.03	1272.69
1560.15	32.8125
1564.27	273.223
1568.39	199.121
1572.5	409.293
1576.61	98.1367
