Measurement: Raman, 514 nm, ccw, Raman Data Processed
Mineral: Hematite
Rruff sample: R040024
Ideal chemistry: Fe^3+^_2_O_3_
Locality: near Covered Wells, Papago Indian Reservation, Arizona, USA
Source: University of Arizona Mineral Museum
Description: Reddish-black foliatated mass
Measured chemistry: (Fe_1.99_Al_0.01_)_Î£=2_O_3_
Pin_id: M00584
Orientation: Laser parallel to c* (0 0 1). Fiducial mark perpendicular to laser is parallel to b [0 1 0]
Raman shift (cm-1)	intensity
104.293	0
109.239	491.545
114.182	7095.34
119.123	13926
124.061	2827.06
128.997	474.832
133.93	393.391
138.86	415.641
143.788	342.676
148.713	235.557
153.636	86.6016
158.556	10.4648
163.473	24.3164
168.388	67.5312
173.3	28.5742
178.21	56.6738
183.117	53.6172
188.021	85.5078
192.923	212.912
197.822	335.285
202.718	177.547
207.612	576.229
212.504	590.652
217.392	1527.25
222.279	5526.33
227.162	7461.76
232.043	2350.19
236.921	1523.77
241.797	2565.95
246.67	3816.53
251.54	1554.98
256.408	643.805
261.274	316.801
266.136	98.0908
270.996	125.677
275.854	102.433
280.709	306.911
285.561	710.553
290.41	1564.44
295.257	3299.38
300.102	3733.17
304.944	1833.15
309.783	599.087
314.619	275.9
319.453	66.4209
324.285	141.878
329.113	88.6367
333.939	215.277
338.763	152.346
343.584	22.6475
348.402	155.947
353.218	128.524
358.031	128.641
362.841	75.8193
367.649	258.356
372.454	322.027
377.257	400.185
382.057	754.088
386.854	1107.56
391.649	1706.04
396.441	3557.31
401.231	6181.04
406.018	12058
410.802	16709.5
415.584	11892.1
420.363	5847.88
425.139	3372.91
429.913	2578.76
434.684	2101.91
439.453	1989.31
444.219	2048.04
448.982	1872.18
453.743	1649.88
458.501	1659.31
463.257	2030.53
468.01	1857.22
472.76	2334.33
477.508	2480.08
482.253	2691.45
486.996	3692.27
491.736	5131.76
496.473	6318.31
501.207	6956.05
505.94	6235.4
510.669	5012.97
515.396	5613.17
520.12	5854.58
524.842	5630.5
529.561	5836.64
534.277	5255.03
538.991	4822.66
543.702	5434.55
548.41	5700.7
553.116	5881.2
557.819	6520.05
562.52	7177.83
567.218	7233.38
571.913	7054.47
576.606	5792.73
581.296	3436.37
585.984	1496.24
590.669	682.286
595.351	1021.77
600.031	1760.41
604.708	3038.97
609.383	4142.66
614.055	4201.65
618.724	2780.36
623.391	1836.02
628.055	1312.65
632.716	901.284
637.375	860.931
642.031	907.922
646.685	1248.15
651.335	1475.82
655.984	1706.22
660.63	1712.45
665.273	1589.04
669.913	1245.21
674.551	867.686
679.186	857.891
683.819	548.236
688.449	435.904
693.076	328.191
697.701	243.165
702.323	180.315
706.943	105.613
711.56	134.277
716.174	79.0088
720.786	74.0762
725.395	12.2334
730.001	78.0625
734.605	62.8154
739.206	75.1553
743.805	55.1602
748.401	2.99219
752.995	110.209
757.585	63.002
762.173	39.1016
766.759	1.38184
771.342	42.7685
775.922	18.8008
780.5	274.225
785.075	37.1025
789.648	209.88
794.217	437.31
798.785	388.636
803.349	400.521
807.911	690.608
812.471	875.758
817.027	792.275
821.582	756.345
826.133	478.456
830.682	681.735
835.228	586.701
839.772	530.979
844.313	545.32
848.852	215.469
853.387	216.135
857.921	416.081
862.451	161.231
866.979	244.383
871.505	154.516
876.028	268.516
880.548	160.697
885.065	294.57
889.58	219.742
894.093	104.529
898.602	13.2383
903.109	197.098
907.614	164.889
912.116	167.326
916.615	48.5566
921.112	257.502
925.606	92.5742
930.097	143.752
934.586	223.81
939.072	39.2207
943.556	3.95898
948.037	260.225
952.515	56.8906
956.991	24.9531
961.464	161.543
965.934	60.4316
970.402	55.7168
974.867	64.0723
979.33	62.8477
983.79	158.004
988.248	147.141
992.702	162.326
997.155	12.6719
1001.6	99.0371
1006.05	87.125
1010.5	195.978
1014.94	168.525
1019.38	83.4492
1023.81	333.994
1028.25	668.717
1032.68	806.451
1037.11	849.373
1041.53	973.277
1045.96	1055.36
1050.38	951.535
1054.8	1088.34
1059.21	1043.71
1063.62	894.488
1068.04	1017.37
1072.44	1090.75
1076.85	915.236
1081.25	806.707
1085.65	790.992
1090.05	843.025
1094.44	792.711
1098.84	751.699
1103.22	681.572
1107.61	823.949
1112	554.977
1116.38	556.932
1120.76	255.092
1125.13	70.6348
1129.51	306.434
1133.88	53.9707
1138.25	95.7637
1142.61	111.799
1146.98	147.969
1151.34	101.268
1155.7	77.5469
1160.05	58.5195
1164.4	64.0918
1168.76	147.871
1173.1	264.5
1177.45	414.812
1181.79	410.94
1186.13	624.916
1190.47	645.641
1194.8	962.236
1199.14	897.699
1203.46	927.064
1207.79	1204.22
1212.12	1105.62
1216.44	1227.7
1220.76	1587.69
1225.08	1603.66
1229.39	1819.66
1233.7	2042.48
1238.01	2224.84
1242.32	2659.16
1246.62	2941.51
1250.92	3824.65
1255.22	4426
1259.51	5062.64
1263.81	5713.22
1268.1	6368.94
1272.38	7001.5
1276.67	7897.93
1280.95	8646.84
1285.23	9484.07
1289.51	10354.1
1293.79	11772.5
1298.06	13443.8
1302.33	14937.3
1306.6	16602.7
1310.86	18219.5
1315.12	19405.1
1319.38	19580.5
1323.64	19122.5
1327.89	17532.7
1332.14	15510.4
1336.39	13821.5
1340.64	11926.5
1344.88	9864.22
1349.12	8516.08
1353.36	7279.62
1357.6	6131.51
1361.83	5077.41
1366.06	4437.26
1370.29	3860.37
1374.52	3193.8
1378.74	2654.48
1382.96	1892.42
1387.18	1678.44
1391.39	1551.57
1395.61	1334.37
1399.82	1138.1
1404.02	801.086
1408.23	708.768
1412.43	331.281
1416.63	318.324
1420.83	240.547
1425.02	109.789
1429.21	117.875
1433.4	41.9902
1437.59	48.957
1441.77	90.2168
1445.95	78.5644
1450.13	98.8848
1454.31	28.1426
1458.48	72.0762
1462.65	181.857
1466.82	51.3262
1470.99	52.2422
1475.15	24.6641
1479.31	37.002
1483.47	154.272
1487.63	120.459
1491.78	166.807
1495.93	142.332
1500.08	1.34375
1504.22	182.877
1508.37	221.471
1512.51	301.779
1516.64	0.029297
1520.78	303.41
1524.91	188.185
1529.04	197.227
1533.17	211.342
1537.29	103.926
1541.41	322.363
1545.53	286.315
1549.65	172.723
1553.77	233.111
1557.88	239.76
1561.99	254.744
1566.09	98.6367
1570.2	138.527
1574.3	318.568
