Measurement: Raman, 514 nm, depolarized, Raman Data Processed
Mineral: Hematite
Rruff sample: R040024
Ideal chemistry: Fe^3+^_2_O_3_
Locality: near Covered Wells, Papago Indian Reservation, Arizona, USA
Source: University of Arizona Mineral Museum
Description: Reddish-black foliatated mass
Measured chemistry: (Fe_1.99_Al_0.01_)_Î£=2_O_3_
Pin_id: M01935
Orientation: Laser parallel to -a* (-1 0 0). Fiducial mark perpendicular to laser is parallel to c [0 0 1]
Raman shift (cm-1)	intensity
127.792	0
132.725	192.754
137.656	525.125
142.583	730.723
147.508	518.764
152.431	240.463
157.35	580.266
162.267	670.148
167.181	403.877
172.092	476.381
177.001	149.588
181.907	19.3711
186.81	155.844
191.711	198.51
196.608	347.315
201.503	315.324
206.395	315.502
211.285	559.539
216.172	1324.53
221.056	3230.15
225.937	5068.78
230.816	5200.67
235.692	2807.52
240.565	1485.35
245.436	1698.33
250.304	1206.72
255.169	783.098
260.031	460.629
264.891	361.945
269.748	243.022
274.602	804.193
279.454	1290.87
284.303	2140.29
289.149	3581.75
293.992	4332.69
298.833	3758.53
303.671	3036.19
308.507	2385.92
313.339	2061.03
318.169	1523.9
322.996	1033.11
327.821	529.252
332.643	290.889
337.462	153.137
342.279	119.711
347.092	19.0664
351.904	122.561
356.712	137.1
361.518	214.984
366.321	410.264
371.121	62.9004
375.919	394.715
380.714	86.0195
385.506	60.7871
390.296	838.648
395.083	571.486
399.867	1157.27
404.649	1804
409.428	2555.79
414.204	3007.07
418.978	2942.4
423.749	2623.84
428.517	1995.89
433.282	1186.67
438.045	839.303
442.806	623.943
447.563	348.717
452.318	248.727
457.07	404.312
461.82	422.074
466.567	257.287
471.311	254.232
476.053	540.697
480.792	417.949
485.528	771.578
490.262	942.916
494.992	1071.6
499.721	1328.29
504.446	1297.11
509.169	1082.73
513.89	1352.06
518.607	906.064
523.322	923.107
528.035	846.5
532.745	843.777
537.452	626.932
542.156	662.059
546.858	590.051
551.557	957.01
556.254	841.994
560.947	855.703
565.639	1017.1
570.327	1142.45
575.013	849.078
579.697	513.883
584.377	500.435
589.055	223.631
593.731	390.435
598.403	286.805
603.074	450.731
607.741	816.209
612.406	740.217
617.068	997.227
621.728	1352.27
626.385	1341.88
631.039	1361.09
635.691	1235.73
640.34	1174.5
644.987	1413.46
649.63	1290.83
654.272	1603.59
658.91	1934.72
663.546	2257.62
668.18	2408.19
672.81	2549.27
677.439	2689.19
682.064	2291.71
686.687	2139.64
691.307	1643.88
695.925	1436.74
700.54	1144.2
705.153	885.67
709.763	754.865
714.37	421.359
718.974	371.731
723.577	249.816
728.176	78.3008
732.773	299.361
737.367	142.928
741.959	177.772
746.548	109.848
751.134	106.611
755.718	279.49
760.299	115.248
764.878	63.8516
769.454	27.9336
774.028	69.5469
778.598	75.9688
783.167	71.7344
787.732	21.998
792.295	35.6562
796.856	9.16602
801.414	155.932
805.969	58.3281
810.522	110.723
815.072	58.6172
819.62	149.367
824.165	32.1367
828.707	31.6953
833.247	15.0859
837.784	187.082
842.319	69.25
846.851	21.8066
851.381	16.7109
855.908	129.35
860.432	62.3906
864.954	110.994
869.473	249.418
873.99	236.91
878.504	181.822
883.015	312.176
887.524	80.9902
892.031	102.758
896.535	139.586
901.036	233.025
905.535	311.805
910.031	293.111
914.524	155.359
919.015	521.984
923.504	405.078
927.99	436.353
932.473	431.123
936.954	522.307
941.432	607.295
945.908	600.797
950.381	651.789
954.852	744.223
959.32	359.691
963.785	379.043
968.248	490.387
972.708	628.035
977.166	557.479
981.622	540.287
986.074	478.787
990.525	731.516
994.972	443.889
999.417	740.973
1003.86	613.598
1008.3	663.121
1012.74	517.104
1017.17	488.059
1021.61	648.113
1026.04	600.098
1030.46	911.141
1034.89	650.508
1039.31	836.402
1043.73	954.662
1048.15	1196.18
1052.56	1099.52
1056.97	1344.62
1061.38	1348.93
1065.79	1431.33
1070.19	1233.23
1074.6	1304.92
1079	1292.71
1083.39	1414.56
1087.79	1108.22
1092.18	973.371
1096.57	1030.81
1100.96	990.74
1105.34	1062.03
1109.72	971.852
1114.1	863.082
1118.48	917.912
1122.85	930.436
1127.22	534.404
1131.6	350.799
1135.96	446.6
1140.33	75.2246
1144.69	74.9141
1149.05	243.902
1153.4	384.908
1157.76	98.2148
1162.11	82.9883
1166.46	73.6328
1170.81	104.877
1175.15	120.055
1179.49	110.002
1183.83	111.871
1188.17	3.42578
1192.5	64.8262
1196.84	20.0625
1201.16	143.783
1205.49	98.1992
1209.82	134.682
1214.14	316.967
1218.46	292.777
1222.77	240.744
1227.09	312.787
1231.4	363.068
1235.71	265.945
1240.02	405.463
1244.32	680.562
1248.62	590.148
1252.92	651.211
1257.22	1081.74
1261.51	1176.72
1265.81	1423.17
1270.1	1409.08
1274.38	1884.46
1278.67	2070.29
1282.95	2319.06
1287.23	2582.04
1291.51	2813.47
1295.78	3260.56
1300.05	3610.86
1304.32	3851.93
1308.59	4562.94
1312.86	5222.58
1317.12	5215.5
1321.38	5682.09
1325.63	5970.25
1329.89	6068.76
1334.14	6275.94
1338.39	6429.23
1342.64	6312.76
1346.88	5647.15
1351.13	5355.77
1355.37	5133.38
1359.61	4654.15
1363.84	4191.42
1368.07	3783.45
1372.3	3241.78
1376.53	2876.69
1380.76	2442.02
1384.98	2299.88
1389.2	1767.22
1393.42	1416.87
1397.64	1168.85
1401.85	1071.24
1406.06	890.109
1410.27	768.088
1414.47	694.203
1418.68	321.022
1422.88	285.131
1427.08	260.709
1431.27	228.685
1435.47	292.022
1439.66	191.762
1443.85	162.022
1448.03	109.871
1452.22	67.4004
1456.4	102.041
1460.58	77.6055
1464.76	347.863
1468.93	88.6133
1473.1	99.541
1477.27	147.67
1481.44	87.1797
1485.6	191.393
1489.77	126.627
1493.92	192.981
1498.08	149.348
1502.24	83.4883
1506.39	166.475
1510.54	134.398
1514.69	69.2168
1518.83	269.18
1522.97	150.291
1527.12	351.467
1531.25	204.648
1535.39	61.1406
1539.52	291.096
1543.65	160.348
1547.78	161.475
1551.91	867.769
1556.03	1824.93
1560.15	318.59
1564.27	171.119
1568.39	360.123
1572.5	164.965
1576.61	0.951172
