Measurement: Raman, 514 nm, ccw, Raman Data Processed
Mineral: Hematite
Rruff sample: R040024
Ideal chemistry: Fe^3+^_2_O_3_
Locality: near Covered Wells, Papago Indian Reservation, Arizona, USA
Source: University of Arizona Mineral Museum
Description: Reddish-black foliatated mass
Measured chemistry: (Fe_1.99_Al_0.01_)_Î£=2_O_3_
Pin_id: M01935
Orientation: Laser parallel to -a* (-1 0 0). Fiducial mark perpendicular to laser is parallel to c [0 0 1]
Raman shift (cm-1)	intensity
127.767	0
132.7	199.543
137.631	937.449
142.56	456.707
147.485	800.131
152.408	341.074
157.328	644.26
162.246	693.697
167.16	307.908
172.073	811.818
176.982	142.447
181.888	127.883
186.792	102.022
191.694	207.965
196.592	373.148
201.488	593.174
206.381	602.617
211.271	1536.22
216.159	4015.57
221.044	8451.56
225.926	12860.8
230.806	10232.6
235.683	4325.8
240.557	1537.6
245.429	835.373
250.298	501.935
255.164	395.467
260.027	106.471
264.888	237.477
269.746	121.572
274.601	309.639
279.454	930.293
284.304	1880.32
289.151	2816.2
293.996	2929.49
298.838	2637.04
303.677	2764.03
308.514	3135.29
313.348	3142.28
318.179	2758.02
323.008	1879.25
327.834	1183.33
332.657	604.688
337.478	351.066
342.295	95.7481
347.111	25.8652
351.923	16.75
356.733	109.113
361.54	258.141
366.345	159.994
371.147	105.252
375.946	55.2109
380.743	142.519
385.537	313.252
390.328	365.123
395.116	633.609
399.902	794.891
404.686	1911.96
409.466	1645.54
414.244	2125.68
419.019	2371.32
423.792	2423.05
428.562	1858.33
433.329	1263.3
438.094	926.104
442.856	837.971
447.616	565.031
452.372	761.34
457.126	573.992
461.878	387.051
466.627	597.369
471.373	689.383
476.116	654.588
480.857	969.078
485.596	1179.23
490.331	2007.49
495.064	2108.61
499.795	2284.6
504.522	2504.34
509.247	2159.38
513.97	1711.34
518.69	1834
523.407	1609.31
528.121	1428.8
532.833	1118.52
537.543	1111.27
542.249	1368.87
546.953	1174.08
551.655	1223.17
556.354	1548.82
561.05	1376.21
565.743	1257.38
570.434	1304.24
575.123	1189.99
579.808	926.795
584.491	449.131
589.172	175.246
593.85	108.441
598.525	44.2754
603.197	46.8984
607.868	132.164
612.535	193.602
617.2	419.602
621.862	544.107
626.522	899.246
631.178	615.106
635.833	677.723
640.485	874.076
645.134	692.68
649.78	1116.48
654.424	986.336
659.066	1284.96
663.704	1692.69
668.341	1729.94
672.974	1814.81
677.605	1736.38
682.234	1595.46
686.859	1279.49
691.483	1101.16
696.103	907.426
700.721	648.514
705.337	461.668
709.949	504.264
714.56	329.373
719.167	237.096
723.772	144.174
728.375	57.7852
732.975	251.332
737.572	181.393
742.167	245.627
746.759	240.066
751.349	106.205
755.936	322.018
760.52	322.49
765.102	129.606
769.681	283.342
774.258	132.68
778.832	5.35547
783.404	98.3926
787.973	187.752
792.539	169.33
797.103	97.7969
801.665	54.084
806.223	202.562
810.779	8.48438
815.333	61.7305
819.884	180.447
824.433	147.076
828.979	254.852
833.522	174.955
838.063	177.424
842.601	35.1191
847.137	4.67969
851.67	0.242188
856.2	157.018
860.729	218.141
865.254	153.684
869.777	257.633
874.297	326.596
878.815	224.887
883.33	117.236
887.843	229.113
892.353	564.527
896.861	291.522
901.366	402.147
905.869	241.506
910.369	473.336
914.866	775.197
919.361	665.559
923.854	570.545
928.344	854.232
932.831	584.731
937.316	576.857
941.798	646.492
946.278	559.857
950.755	973.07
955.23	754.889
959.702	641.117
964.171	715.684
968.638	782.637
973.103	658.711
977.565	609.844
982.025	1020.25
986.482	982.459
990.936	874.453
995.388	1023.34
999.837	979.625
1004.28	1012.91
1008.73	884.604
1013.17	796.006
1017.61	510.123
1022.05	557.475
1026.48	616.078
1030.91	909.943
1035.34	961.445
1039.77	1125.88
1044.19	1211.61
1048.62	1125.44
1053.03	1234.09
1057.45	1514.78
1061.87	1666.35
1066.28	1545.48
1070.69	1671.54
1075.09	1566.88
1079.5	1218.75
1083.9	1620.18
1088.3	1390.02
1092.69	1155.86
1097.09	1101.9
1101.48	1130.41
1105.87	814.438
1110.26	1335.23
1114.64	1213.41
1119.02	1170.43
1123.4	970.375
1127.78	901.055
1132.15	437.25
1136.53	262.922
1140.89	404.074
1145.26	228.719
1149.63	240.848
1153.99	170.465
1158.35	59.4336
1162.7	50.9258
1167.06	138.75
1171.41	110.148
1175.76	174.336
1180.11	125.379
1184.45	162.894
1188.79	4.77734
1193.13	81.9727
1197.47	29.2617
1201.81	22.4492
1206.14	4.13672
1210.47	165.762
1214.79	251.672
1219.12	329.758
1223.44	185.734
1227.76	129.328
1232.08	307.305
1236.39	326.035
1240.7	222.164
1245.02	591.707
1249.32	347.688
1253.63	782.606
1257.93	691.894
1262.23	822.109
1266.53	758.727
1270.82	1264.73
1275.12	1359.12
1279.41	1538.89
1283.69	1741.02
1287.98	1887.24
1292.26	2177.16
1296.54	2417.19
1300.82	2945.25
1305.1	2925.63
1309.37	3536.21
1313.64	4018.21
1317.91	4155.86
1322.17	4615.16
1326.44	4680.48
1330.7	4809.16
1334.96	4868.45
1339.21	4952.67
1343.47	4649.85
1347.72	4204.19
1351.97	4148.7
1356.21	3984.59
1360.46	3564.38
1364.7	3118.33
1368.94	3165.41
1373.17	2764.11
1377.41	2118.73
1381.64	1768.2
1385.87	1658.97
1390.1	1206.25
1394.32	1200.34
1398.54	960.457
1402.76	787.574
1406.98	508.769
1411.19	525.754
1415.41	536.965
1419.62	425.508
1423.82	557.262
1428.03	323.82
1432.23	216.254
1436.43	171.594
1440.63	197.254
1444.82	396.426
1449.02	257.465
1453.21	88.2344
1457.4	49.1641
1461.58	53.5977
1465.77	263.387
1469.95	21.7148
1474.12	91.1406
1478.3	110.852
1482.47	4.55469
1486.64	119.273
1490.81	161.953
1494.98	182.477
1499.14	66.0117
1503.31	144.25
1507.47	75.1992
1511.62	154.797
1515.78	123.648
1519.93	117.914
1524.08	86.7695
1528.23	252.938
1532.37	26.4609
1536.51	304.508
1540.65	98.7734
1544.79	412.805
1548.93	249.008
1553.06	1314.34
1557.19	635.894
1561.32	200.242
1565.44	224.258
1569.57	400.414
1573.69	237.676
1577.81	0
