Measurement: Raman, 514 nm, ccw, Raman Data Processed
Mineral: Hematite
Rruff sample: R040024
Ideal chemistry: Fe^3+^_2_O_3_
Locality: near Covered Wells, Papago Indian Reservation, Arizona, USA
Source: University of Arizona Mineral Museum
Description: Reddish-black foliatated mass
Measured chemistry: (Fe_1.99_Al_0.01_)_Î£=2_O_3_
Pin_id: M00584
Orientation: Laser parallel to c* (0 0 1). Fiducial mark perpendicular to laser is parallel to b [0 1 0]
Raman shift (cm-1)	intensity
99.344	0
104.293	116.05
109.239	1390.79
114.182	6064.4
119.123	9117.08
124.061	2294.55
128.997	966.619
133.93	450.214
138.86	663.399
143.788	471.016
148.713	238.828
153.636	217.595
158.556	340.481
163.473	345.381
168.388	227.684
173.3	457.973
178.21	543.677
183.117	641.4
188.021	392.103
192.923	707.315
197.822	796.811
202.718	862.367
207.612	569.037
212.504	937.839
217.392	2382.11
222.279	7031.96
227.162	6644.69
232.043	2198.76
236.921	1725.7
241.797	2457.93
246.67	2983.16
251.54	1703.7
256.408	1072.49
261.274	674.691
266.136	333.498
270.996	226.757
275.854	171.882
280.709	456.425
285.561	1012.08
290.41	2257.67
295.257	4170.06
300.102	3948.21
304.944	2167.52
309.783	752.227
314.619	374.594
319.453	55.1592
324.285	162.036
329.113	191.333
333.939	195.023
338.763	180.087
343.584	394.595
348.402	192.873
353.218	17.6963
358.031	9.6543
362.841	127.609
367.649	122.689
372.454	351.126
377.257	482.45
382.057	728.383
386.854	1079.83
391.649	1986.57
396.441	3791.14
401.231	8217.51
406.018	14306.9
410.802	16154.5
415.584	10284
420.363	4928.3
425.139	2730.41
429.913	1636.34
434.684	1132.09
439.453	1042.9
444.219	850.254
448.982	851.496
453.743	621.759
458.501	707.599
463.257	778.794
468.01	818.86
472.76	843.838
477.508	905.448
482.253	1558.14
486.996	2182.67
491.736	3770.77
496.473	4486.36
501.207	4765.59
505.94	4087.06
510.669	3018.34
515.396	2440.62
520.12	2203.4
524.842	2280.67
529.561	3262.45
534.277	3088.73
538.991	2892.52
543.702	2889.81
548.41	2373.61
553.116	2511.9
557.819	2535.71
562.52	2915.03
567.218	3021.86
571.913	3047.21
576.606	2422.08
581.296	1776.49
585.984	888.429
590.669	884.104
595.351	1493.12
600.031	2611.85
604.708	4097.58
609.383	4846.47
614.055	4123.77
618.724	2890.51
623.391	1880.52
628.055	1672.43
632.716	1339.39
637.375	1452.77
642.031	1612.58
646.685	1973.91
651.335	2262.34
655.984	2673.74
660.63	2738.38
665.273	2437.18
669.913	2044.07
674.551	1560.98
679.186	1140.9
683.819	851.807
688.449	796.683
693.076	678.494
697.701	659.332
702.323	508.224
706.943	445.111
711.56	275.026
716.174	280.482
720.786	77.5762
725.395	149.94
730.001	2.9834
734.605	93.333
739.206	166.383
743.805	1.85352
748.401	18.5742
752.995	2.74512
757.585	91.3144
762.173	29.7373
766.759	21.7646
771.342	87.7422
775.922	36.1191
780.5	159.138
785.075	149.358
789.648	394.867
794.217	398.113
798.785	432.002
803.349	430.911
807.911	786.621
812.471	772.35
817.027	692.934
821.582	678.253
826.133	832.605
830.682	807.768
835.228	725.6
839.772	594.718
844.313	449.01
848.852	384.835
853.387	271.002
857.921	255.837
862.451	374.884
866.979	343.67
871.505	140.707
876.028	305.713
880.548	107.511
885.065	264.981
889.58	274.489
894.093	262.78
898.602	204.495
903.109	232.952
907.614	90.7871
912.116	152.324
916.615	54.4072
921.112	82.126
925.606	183.982
930.097	142.686
934.586	317.971
939.072	206.435
943.556	172.23
948.037	226.41
952.515	200.994
956.991	27.0029
961.464	240.388
965.934	157.18
970.402	214.209
974.867	16.3184
979.33	151.676
983.79	41.1768
988.248	70.9805
992.702	18.7158
997.155	100.295
1001.6	101.208
1006.05	191.809
1010.5	167.006
1014.94	325.217
1019.38	383.862
1023.81	584.221
1028.25	678.999
1032.68	848.346
1037.11	1097.86
1041.53	868.331
1045.96	1024.9
1050.38	1171.02
1054.8	1262.89
1059.21	1113.01
1063.62	1117.87
1068.04	1066.34
1072.44	1067.04
1076.85	803.23
1081.25	793.7
1085.65	679.303
1090.05	867.915
1094.44	848.427
1098.84	624.662
1103.22	783.607
1107.61	641.357
1112	564.457
1116.38	265.406
1120.76	299.488
1125.13	362.4
1129.51	127.193
1133.88	44.4258
1138.25	39.541
1142.61	232.264
1146.98	127.773
1151.34	160.344
1155.7	70.2422
1160.05	216.316
1164.4	276.002
1168.76	180.389
1173.1	238.533
1177.45	500.473
1181.79	717.254
1186.13	771.881
1190.47	989.289
1194.8	908.893
1199.14	1315.41
1203.46	1205.1
1207.79	1269.88
1212.12	1634.66
1216.44	1625.48
1220.76	1940.34
1225.08	2163.3
1229.39	2157.29
1233.7	2730.42
1238.01	3129.86
1242.32	3454.45
1246.62	3976.28
1250.92	4734.28
1255.22	5466.43
1259.51	6173.76
1263.81	7060.44
1268.1	7519.78
1272.38	8504.98
1276.67	9249.09
1280.95	10197.1
1285.23	11136.9
1289.51	12559.2
1293.79	14207.7
1298.06	15759.3
1302.33	17038
1306.6	18950.9
1310.86	20225
1315.12	20815.3
1319.38	20593.8
1323.64	19717.8
1327.89	17796.6
1332.14	16154.9
1336.39	14163.9
1340.64	12286.3
1344.88	10412.9
1349.12	8870.45
1353.36	7588
1357.6	6518.91
1361.83	5376.57
1366.06	4540.38
1370.29	4038.35
1374.52	3167.01
1378.74	2675.78
1382.96	2178.02
1387.18	1644.13
1391.39	1296.21
1395.61	1200.12
1399.82	913.543
1404.02	756.668
1408.23	607.947
1412.43	407.818
1416.63	289.168
1420.83	246.719
1425.02	27.4102
1429.21	163.93
1433.4	101.436
1437.59	0.820313
1441.77	163
1445.95	8.08008
1450.13	168.279
1454.31	17.0762
1458.48	70.1426
1462.65	67.332
1466.82	35.3203
1470.99	111.926
1475.15	111.148
1479.31	91.6172
1483.47	5.23438
1487.63	31.7305
1491.78	248.195
1495.93	91.6875
1500.08	131.207
1504.22	108.51
1508.37	43.0371
1512.51	354.217
1516.64	234.191
1520.78	114.428
1524.91	135.211
1529.04	337.963
1533.17	356.688
1537.29	430.158
1541.41	196.6
1545.53	365.916
1549.65	99.0625
1553.77	175.803
1557.88	179.012
1561.99	130.922
1566.09	258.422
1570.2	106.443
1574.3	273.897
