Measurement: Raman, 514 nm, ccw, Raman Data Processed
Mineral: Hematite
Rruff sample: R040024
Ideal chemistry: Fe^3+^_2_O_3_
Locality: near Covered Wells, Papago Indian Reservation, Arizona, USA
Source: University of Arizona Mineral Museum
Description: Reddish-black foliatated mass
Measured chemistry: (Fe_1.99_Al_0.01_)_Î£=2_O_3_
Pin_id: M01935
Orientation: Laser parallel to -a* (-1 0 0). Fiducial mark perpendicular to laser is parallel to c [0 0 1]
Raman shift (cm-1)	intensity
127.792	0
132.725	358.719
137.656	542.906
142.583	207.438
147.508	436.367
152.431	472.863
157.35	308.277
162.267	571.156
167.181	463.795
172.092	411.711
177.001	76.6016
181.907	32.793
186.81	95.2109
191.711	19.6621
196.608	262.83
201.503	537.646
206.395	317.428
211.285	54.793
216.172	559.322
221.056	644.231
225.937	688.543
230.816	841.074
235.692	719.873
240.565	810.451
245.436	1253.27
250.304	905.537
255.169	278.435
260.031	21.9121
264.891	38.4922
269.748	140.996
274.602	14.5098
279.454	63.6543
284.303	625.277
289.149	817.045
293.992	1087.25
298.833	1229.35
303.671	989.414
308.507	1104.84
313.339	959.498
318.169	942.293
322.996	463.461
327.821	677.879
332.643	218.129
337.462	83.2519
342.279	33.8828
347.092	30.7793
351.904	148.027
356.712	178.582
361.518	32.4766
366.321	61.2598
371.121	65.5137
375.919	171.147
380.714	247.195
385.506	305.268
390.296	387.15
395.083	636.426
399.867	759.857
404.649	1462.68
409.428	2380.43
414.204	3111.93
418.978	3771.32
423.749	3659.99
428.517	2850.31
433.282	2014.53
438.045	1125.99
442.806	810.461
447.563	728.231
452.318	781.441
457.07	565.219
461.82	547.648
466.567	459.816
471.311	691.322
476.053	465.144
480.792	621.434
485.528	934.807
490.262	1263.15
494.992	1472.78
499.721	1720.25
504.446	1893.46
509.169	1610.57
513.89	1540.52
518.607	1289.97
523.322	1211.69
528.035	1271.12
532.745	1259.93
537.452	1351.79
542.156	1352.41
546.858	1227.03
551.557	1452.16
556.254	1457.66
560.947	1598.8
565.639	1432.47
570.327	1713.76
575.013	1667.93
579.697	1086.11
584.377	566.408
589.055	298.01
593.731	118.533
598.403	383.699
603.074	544.07
607.741	879.51
612.406	1259.53
617.068	1387.57
621.728	1757.46
626.385	1571.4
631.039	1493.95
635.691	1456.03
640.34	1483.48
644.987	1273.11
649.63	1422.66
654.272	1796.09
658.91	2244.11
663.546	2589.83
668.18	2911.29
672.81	3112.57
677.439	2857.37
682.064	2613.32
686.687	2487.54
691.307	2111.3
695.925	1666.08
700.54	1570.11
705.153	1139.78
709.763	707.01
714.37	700.547
718.974	545.688
723.577	552.293
728.176	325.394
732.773	105.236
737.367	229.35
741.959	179.809
746.548	470.035
751.134	339.916
755.718	225.062
760.299	26.707
764.878	245.935
769.454	173.06
774.028	151.25
778.598	105.689
783.167	124.385
787.732	155.367
792.295	113.375
796.856	223.861
801.414	112.08
805.969	90.0215
810.522	11.2852
815.072	131.56
819.62	113.32
824.165	6.18164
828.707	69.9707
833.247	236.316
837.784	113.027
842.319	162.072
846.851	204.477
851.381	309.168
855.908	40.877
860.432	234.807
864.954	114.379
869.473	555.297
873.99	454.566
878.504	302.74
883.015	253.141
887.524	187.404
892.031	310.098
896.535	287.127
901.036	392.473
905.535	422.103
910.031	313.221
914.524	584.793
919.015	458.715
923.504	377.336
927.99	440.316
932.473	353.836
936.954	472.795
941.432	545.941
945.908	586.731
950.381	582.188
954.852	804.598
959.32	517.869
963.785	737.396
968.248	851.992
972.708	425.269
977.166	654.018
981.622	614.334
986.074	589.75
990.525	783.402
994.972	815.057
999.417	825.385
1003.86	867.469
1008.3	613.377
1012.74	670.164
1017.17	585.723
1021.61	1000.47
1026.04	548.289
1030.46	778.512
1034.89	1010.62
1039.31	1181.93
1043.73	1157.34
1048.15	1349.8
1052.56	1590.23
1056.97	1410.49
1061.38	1605.34
1065.79	1327.61
1070.19	1319.48
1074.6	1355.39
1079	1333.06
1083.39	1431.82
1087.79	1248
1092.18	1208.62
1096.57	1056.76
1100.96	1097.3
1105.34	945.215
1109.72	1016.54
1114.1	597.258
1118.48	1067.45
1122.85	761.133
1127.22	752.633
1131.6	572.711
1135.96	416.254
1140.33	411.277
1144.69	509.777
1149.05	327.512
1153.4	1.39844
1157.76	60.875
1162.11	147.461
1166.46	29.1719
1170.81	24.043
1175.15	162.883
1179.49	146.41
1183.83	65.8359
1188.17	15.8516
1192.5	195.633
1196.84	94.5703
1201.16	70.8711
1205.49	2.72266
1209.82	26.9648
1214.14	138.777
1218.46	1.98828
1222.77	86.7266
1227.09	462.941
1231.4	441.668
1235.71	418.031
1240.02	427.043
1244.32	498.547
1248.62	631.574
1252.92	837.359
1257.22	799.652
1261.51	1169.18
1265.81	1158.86
1270.1	1629.71
1274.38	1965.07
1278.67	1897.91
1282.95	2234.2
1287.23	2666.58
1291.51	3052.4
1295.78	3191.45
1300.05	3750.59
1304.32	4002.47
1308.59	4785.88
1312.86	4934.73
1317.12	5334.47
1321.38	5657.65
1325.63	6142.62
1329.89	6583.63
1334.14	6475.98
1338.39	6642.38
1342.64	6712.81
1346.88	6103.6
1351.13	6230.07
1355.37	6006.45
1359.61	5199.97
1363.84	4860.94
1368.07	4344.5
1372.3	3747.59
1376.53	3175.51
1380.76	3046.66
1384.98	2651.54
1389.2	2004.67
1393.42	1743.7
1397.64	1594.4
1401.85	1439.99
1406.06	1006.1
1410.27	960.297
1414.47	715.68
1418.68	578.863
1422.88	371.309
1427.08	961.391
1431.27	290.789
1435.47	194.492
1439.66	24.5898
1443.85	291.477
1448.03	8.4375
1452.22	62.5391
1456.4	166.699
1460.58	274.168
1464.76	531.477
1468.93	322.562
1473.1	114.984
1477.27	29.6797
1481.44	103.957
1485.6	88.5469
1489.77	139.594
1493.92	230.398
1498.08	236.914
1502.24	216.231
1506.39	264.391
1510.54	76.4531
1514.69	323.238
1518.83	282.508
1522.97	414.098
1527.12	163.93
1531.25	138.133
1535.39	176.969
1539.52	150.199
1543.65	284.457
1547.78	39.668
1551.91	1275.96
1556.03	1269.35
1560.15	192.832
1564.27	46.8516
1568.39	274.383
1572.5	280.117
1576.61	362.316
