Measurement: Raman, 514 nm, ccw, Raman Data Processed
Mineral: Hematite
Rruff sample: R040024
Ideal chemistry: Fe^3+^_2_O_3_
Locality: near Covered Wells, Papago Indian Reservation, Arizona, USA
Source: University of Arizona Mineral Museum
Description: Reddish-black foliatated mass
Measured chemistry: (Fe_1.99_Al_0.01_)_Î£=2_O_3_
Pin_id: M00584
Orientation: Laser parallel to c* (0 0 1). Fiducial mark perpendicular to laser is parallel to b [0 1 0]
Raman shift (cm-1)	intensity
103.056	0
108.002	2214.37
112.946	5576.07
117.888	13308.5
122.827	7382.24
127.763	1658.86
132.697	1034.73
137.628	808.936
142.556	490.394
147.482	492.728
152.405	127.562
157.326	140.519
162.244	139.973
167.159	285.542
172.072	34.7295
176.982	18.9033
181.89	120.887
186.795	290.994
191.697	460.381
196.597	543.778
201.494	737.349
206.389	117.534
211.281	618.266
216.17	1317.03
221.057	4434.77
225.941	6753.49
230.823	2698.92
235.702	1471.88
240.578	1970.56
245.452	3155.04
250.323	2170.95
255.192	603.265
260.058	490.785
264.921	555.394
269.782	264.708
274.64	265.699
279.495	524.019
284.348	958.092
289.198	2173.78
294.046	3750.25
298.891	4768.58
303.733	2698.47
308.573	1082.59
313.41	611.497
318.245	77.5928
323.077	24.8887
327.906	266.728
332.733	240.113
337.557	10.7832
342.379	135.488
347.198	164.317
352.014	129.428
356.828	98.7861
361.639	56.166
366.447	103.84
371.253	314.753
376.056	300.68
380.857	675.614
385.655	1029.47
390.451	1496.37
395.243	2865.33
400.034	5699.35
404.821	11036.2
409.606	15624.8
414.389	12221.2
419.168	6061.31
423.945	3199.18
428.72	1963.88
433.492	1401.44
438.261	1070.88
443.028	956.212
447.792	806.614
452.553	903.234
457.312	599.011
462.068	770.217
466.822	1211.13
471.573	893.037
476.321	961.608
481.067	1344.73
485.81	1896.39
490.551	2514.29
495.289	3603.3
500.024	4280.02
504.757	3801.74
509.487	3152.89
514.214	2639.53
518.939	2467.62
523.661	2411.22
528.381	2140.3
533.098	2285.72
537.812	2042.67
542.524	2274.58
547.233	2794.6
551.94	2476.02
556.644	2671.92
561.345	2875.05
566.044	3165.22
570.74	3341.91
575.433	2668.13
580.124	1938.88
584.812	1655.75
589.498	766.412
594.181	1272.64
598.861	1958.36
603.539	3394.58
608.214	4237.27
612.887	4240.95
617.557	3308.72
622.224	2187.7
626.889	1716.24
631.551	1353.97
636.21	1340.25
640.867	1312.72
645.521	1591.38
650.173	1912.42
654.822	2064.87
659.468	2234.52
664.112	2105.44
668.753	1927.95
673.392	1403.83
678.028	940.814
682.661	860.664
687.292	641.535
691.92	627.43
696.545	416.344
701.168	447.307
705.788	390.328
710.406	286.283
715.021	137.205
719.633	29.2305
724.243	81.5469
728.85	24.8164
733.455	17.332
738.056	54.2109
742.656	38.6797
747.252	32.625
751.846	0.785156
756.438	28.7383
761.027	95.3457
765.613	155.209
770.196	76.3574
774.777	50.582
779.356	153.287
783.932	203.482
788.505	257.381
793.075	345.537
797.643	329.67
802.208	497.1
806.771	532.912
811.331	769.377
815.888	818.74
820.443	822.324
824.995	736.191
829.545	665.998
834.092	517.291
838.636	618.289
843.178	295.918
847.717	353.123
852.254	306.394
856.788	262.83
861.319	222.025
865.848	21.8809
870.374	184.6
874.897	130.4
879.418	12.4785
883.936	243.977
888.452	255.088
892.965	5.5332
897.475	267.107
901.983	281.299
906.488	24.3965
910.99	143.537
915.49	218.422
919.988	115.553
924.482	123.957
928.974	192.555
933.464	127.84
937.951	161.547
942.435	25.6953
946.917	230.248
951.396	230.295
955.872	137.853
960.346	107.939
964.817	260.531
969.285	6.30469
973.751	66.2617
978.215	273.242
982.675	30.5938
987.134	127.512
991.589	68.2559
996.042	13.9707
1000.49	189.236
1004.94	275.205
1009.38	450.697
1013.83	416.848
1018.27	216.197
1022.7	537.137
1027.14	420.168
1031.57	592.287
1036	870.791
1040.43	939.152
1044.85	1088.41
1049.27	941.75
1053.69	1065.86
1058.11	1218.64
1062.52	990.438
1066.93	1061.66
1071.34	936.998
1075.75	1105.01
1080.15	871.588
1084.55	784.363
1088.95	996.361
1093.35	887.59
1097.74	965.396
1102.13	844.838
1106.52	708.859
1110.9	738.857
1115.28	501.682
1119.66	484.422
1124.04	171.133
1128.41	35.6523
1132.79	53.291
1137.16	37.8594
1141.52	144.231
1145.89	74.5078
1150.25	52.0762
1154.61	31.3906
1158.96	85.3144
1163.32	57.3945
1167.67	77.4141
1172.02	302.94
1176.36	340.211
1180.71	586.227
1185.05	647.057
1189.38	718.703
1193.72	959.238
1198.05	756.658
1202.38	886.943
1206.71	1371.15
1211.04	1052.3
1215.36	1411.38
1219.68	1568.44
1224	1721
1228.31	1864.45
1232.62	2290.45
1236.93	2437.69
1241.24	2862.08
1245.54	3378.59
1249.84	4167.99
1254.14	4223.03
1258.44	5147.61
1262.73	5994.85
1267.03	6774.78
1271.31	7223.94
1275.6	8328.52
1279.88	9010.31
1284.16	9965.64
1288.44	10914.2
1292.72	12148.7
1296.99	13617.4
1301.26	15403.5
1305.53	16619.7
1309.79	18189.3
1314.06	19224.8
1318.32	19454.7
1322.57	18909.8
1326.83	17707.1
1331.08	16102.1
1335.33	14383.6
1339.58	12335.4
1343.82	10677.2
1348.06	9099.42
1352.3	7676.06
1356.54	6525.71
1360.77	5523.38
1365.01	4573.98
1369.23	3971.45
1373.46	3182.16
1377.68	2779.75
1381.9	2310.48
1386.12	2010.1
1390.34	1603.49
1394.55	1167.18
1398.76	1170.18
1402.97	1018.23
1407.18	539.137
1411.38	622.039
1415.58	389.707
1419.78	300.023
1423.97	173.447
1428.17	64.5527
1432.36	64.1445
1436.54	12.4004
1440.73	128.391
1444.91	2.20898
1449.09	58.7988
1453.27	85.6816
1457.44	199.166
1461.61	5.19141
1465.78	152.852
1469.95	105.85
1474.11	65.0723
1478.27	78.0508
1482.43	82.0195
1486.59	181.76
1490.74	89.3555
1494.89	212.701
1499.04	87.0723
1503.19	222.621
1507.33	278.062
1511.47	340.883
1515.61	178.736
1519.75	17.3906
1523.88	205.029
1528.01	96.5312
1532.14	301.348
1536.26	332.277
1540.38	476.234
1544.51	93.8066
1548.62	282.188
1552.74	454.008
1556.85	120.356
1560.96	462.666
1565.07	474.451
1569.17	146.334
1573.27	413.934
1577.37	0
