Measurement: Raman, 514 nm, depolarized, Raman Data Processed
Mineral: Hematite
Rruff sample: R040024
Ideal chemistry: Fe^3+^_2_O_3_
Locality: near Covered Wells, Papago Indian Reservation, Arizona, USA
Source: University of Arizona Mineral Museum
Description: Reddish-black foliatated mass
Measured chemistry: (Fe_1.99_Al_0.01_)_Î£=2_O_3_
Pin_id: M00584
Orientation: Laser parallel to c* (0 0 1). Fiducial mark perpendicular to laser is parallel to b [0 1 0]
Raman shift (cm-1)	intensity
99.344	0
104.293	206.981
109.239	1434.91
114.182	6011.4
119.123	10273.2
124.061	2813.39
128.997	743.381
133.93	587.5
138.86	722.591
143.788	672.362
148.713	737.981
153.636	479.304
158.556	829.854
163.473	678.292
168.388	246.155
173.3	280.247
178.21	202.5
183.117	244.499
188.021	515.355
192.923	634.555
197.822	947.227
202.718	865.775
207.612	433.938
212.504	931.211
217.392	1926.69
222.279	6341.49
227.162	6900.13
232.043	2831.1
236.921	1817.95
241.797	2555.57
246.67	3702.95
251.54	1881.1
256.408	882.661
261.274	364.318
266.136	241.625
270.996	216.727
275.854	385.077
280.709	755.287
285.561	1548.02
290.41	2899.07
295.257	4925.28
300.102	4742.57
304.944	2480.86
309.783	1003.92
314.619	456.5
319.453	66.5889
324.285	80.5664
329.113	87.8418
333.939	160.58
338.763	173.144
343.584	311.762
348.402	242.617
353.218	231.619
358.031	142.753
362.841	191.365
367.649	93.9277
372.454	322.917
377.257	380.522
382.057	711.653
386.854	816.858
391.649	1824.22
396.441	3113.11
401.231	6574.61
406.018	12526.5
410.802	15819.4
415.584	10522.3
420.363	5101.13
425.139	2687.96
429.913	1620.84
434.684	968.508
439.453	1006.23
444.219	751.933
448.982	811.653
453.743	615.384
458.501	793.276
463.257	648.583
468.01	697.663
472.76	697.769
477.508	961.141
482.253	1212.48
486.996	1930.77
491.736	2801.11
496.473	3510.84
501.207	3863.98
505.94	3458.68
510.669	2848.57
515.396	2307.12
520.12	1957.26
524.842	2082.87
529.561	1889.95
534.277	1804.5
538.991	1688.52
543.702	1837.01
548.41	2025.95
553.116	2185.35
557.819	2490.21
562.52	2620.53
567.218	2568.3
571.913	2785.53
576.606	2111.22
581.296	1398.38
585.984	782.82
590.669	843.292
595.351	1306.55
600.031	2072.04
604.708	3371.18
609.383	4442.91
614.055	4233.33
618.724	2926.84
623.391	1964.49
628.055	1568.52
632.716	1289.3
637.375	1468.68
642.031	1540.17
646.685	1779.88
651.335	2014.7
655.984	2591.64
660.63	2526.07
665.273	2256.45
669.913	1812.85
674.551	1496.24
679.186	1167.6
683.819	1143.29
688.449	730.661
693.076	629.531
697.701	513.704
702.323	651.768
706.943	402.681
711.56	253.874
716.174	183.019
720.786	142.154
725.395	8.91797
730.001	219.557
734.605	85.4873
739.206	74.2852
743.805	130.593
748.401	198.295
752.995	86.6816
757.585	39.4922
762.173	95.8916
766.759	45.8789
771.342	94.9102
775.922	62.5781
780.5	40.6103
785.075	30.7266
789.648	122.006
794.217	207.662
798.785	451.011
803.349	494.769
807.911	541.402
812.471	744.548
817.027	740.131
821.582	717.463
826.133	660.734
830.682	613.505
835.228	420.751
839.772	587.222
844.313	555.456
848.852	471.157
853.387	253.637
857.921	307.16
862.451	242.48
866.979	269.547
871.505	140.291
876.028	243.849
880.548	151.857
885.065	139.748
889.58	146.877
894.093	183.28
898.602	124.255
903.109	208.825
907.614	187.887
912.116	105.697
916.615	196.133
921.112	77.8633
925.606	76.3838
930.097	100.349
934.586	172.092
939.072	155.049
943.556	241.37
948.037	306.075
952.515	137.19
956.991	101.568
961.464	47.9219
965.934	173.802
970.402	211.22
974.867	180.473
979.33	185.174
983.79	167.053
988.248	150.758
992.702	63.3672
997.155	332.363
1001.6	88.7266
1006.05	188.594
1010.5	81.7373
1014.94	285.918
1019.38	266.421
1023.81	422.176
1028.25	492.245
1032.68	714.254
1037.11	783.892
1041.53	1036.65
1045.96	959.06
1050.38	1027.49
1054.8	1211.4
1059.21	995.977
1063.62	1059.75
1068.04	993.998
1072.44	1166.74
1076.85	969.881
1081.25	883.805
1085.65	831.606
1090.05	893.586
1094.44	886.859
1098.84	811.471
1103.22	812.062
1107.61	579.84
1112	499.283
1116.38	358.713
1120.76	394.838
1125.13	159.353
1129.51	28.5098
1133.88	225.793
1138.25	99.0723
1142.61	112.572
1146.98	123.408
1151.34	201.332
1155.7	53.5059
1160.05	92.5273
1164.4	7.03711
1168.76	102.141
1173.1	237.898
1177.45	444.303
1181.79	594.512
1186.13	694.182
1190.47	848.199
1194.8	736.062
1199.14	1010.08
1203.46	1108.12
1207.79	1134.62
1212.12	1458.28
1216.44	1328.01
1220.76	1664.75
1225.08	1975.52
1229.39	2049.32
1233.7	2597.18
1238.01	2647.01
1242.32	3245.82
1246.62	3861.78
1250.92	4388.79
1255.22	4786.88
1259.51	5567.32
1263.81	6245.27
1268.1	6993.23
1272.38	7864.42
1276.67	8371.81
1280.95	9640.79
1285.23	10540.6
1289.51	11567.9
1293.79	12880.7
1298.06	14284.7
1302.33	16018.8
1306.6	17908.2
1310.86	19350.9
1315.12	20215.4
1319.38	20415.3
1323.64	19800.3
1327.89	18399.7
1332.14	16400.5
1336.39	14688.8
1340.64	12234.3
1344.88	10850.4
1349.12	8903.43
1353.36	7809.86
1357.6	6707.05
1361.83	5449.46
1366.06	4790.86
1370.29	4015.25
1374.52	3426.64
1378.74	2811.02
1382.96	2308.59
1387.18	1880.31
1391.39	1502.39
1395.61	1222.5
1399.82	1093.56
1404.02	983.408
1408.23	458.172
1412.43	449.115
1416.63	435.705
1420.83	284.154
1425.02	80.5918
1429.21	284.588
1433.4	12.0273
1437.59	116.576
1441.77	175.047
1445.95	53.0547
1450.13	38.4434
1454.31	30.1895
1458.48	102.57
1462.65	121.24
1466.82	126.127
1470.99	86.084
1475.15	27.4375
1479.31	26.8965
1483.47	172.373
1487.63	145.775
1491.78	126.494
1495.93	145.037
1500.08	169.627
1504.22	225.238
1508.37	146.578
1512.51	145.205
1516.64	388.815
1520.78	146.16
1524.91	137.586
1529.04	272.334
1533.17	307.43
1537.29	203.31
1541.41	1.51562
1545.53	330.473
1549.65	123.828
1553.77	174.846
1557.88	134.111
1561.99	275.065
1566.09	194.258
1570.2	65.2266
1574.3	2.67773
