Measurement: Raman, 514 nm, depolarized, Raman Data Processed
Mineral: Hemimorphite
Rruff sample: R040117
Ideal chemistry: Zn^2+^_4_Si_2_O_7_(OH)_2_H_2_O
Locality: Durango, Mexico
Source: University of Arizona Mineral Museum
Description: Colorless thin tabular crystals in a sheaflike aggregate
Measured chemistry: Zn_4.05_Si_1.97_O_7_((OH)_0.99_F_0.01_)_2_Â·H_2_O
Pin_id: L00228
Orientation: Laser parallel to c* (0 0 1). Fiducial mark perpendicular to laser is parallel to -a [-1 0 0]
Raman shift (cm-1)	intensity
71.747	0
75.937	56.116
80.125	292.993
84.311	1599.61
88.496	2428.44
92.678	3743.88
96.858	5615.26
101.036	8072.4
105.212	12871.7
109.387	20921.3
113.559	20253.8
117.729	13086.5
121.897	9877.56
126.063	11413.6
130.228	15546.8
134.39	20269.2
138.55	18135.5
142.709	11280
146.865	7443.14
151.019	6515.29
155.171	7576.71
159.322	9415.84
163.47	13258
167.617	19538.2
171.761	21532.9
175.904	13895.6
180.044	6637.36
184.183	2917.83
188.319	1310.06
192.454	451.798
196.586	29.135
200.717	48.227
204.846	315.982
208.972	1261.71
213.097	2641.1
217.22	2990.77
221.341	2190.45
225.46	1530.54
229.577	1181.76
233.692	776.297
237.805	354.435
241.916	224.229
246.025	148.111
250.132	19.337
254.237	173.683
258.34	310.666
262.442	425.899
266.541	419.424
270.639	410.828
274.734	63.384
278.828	5.081
282.919	32.62
287.009	264.131
291.097	560.305
295.183	956.088
299.266	1429.55
303.348	2279.52
307.428	3239.19
311.507	3308.56
315.583	2977.64
319.657	2766.43
323.729	3217.22
327.8	4211.52
331.868	6475.06
335.935	8336.2
339.999	6333.59
344.062	4131.38
348.123	2866.01
352.182	2439.3
356.239	2418.36
360.294	2286.18
364.347	2301.02
368.398	2719.68
372.448	3141.53
376.495	3669.91
380.54	4280.67
384.584	5269.6
388.626	6821.61
392.666	8132.07
396.704	9369.85
400.74	10769.5
404.774	11266.8
408.806	10052.7
412.836	7884.48
416.865	6184.63
420.891	5079.19
424.916	3732.82
428.939	2727.69
432.959	2195.48
436.978	2171.92
440.996	2240.25
445.011	2417.58
449.024	3558.94
453.036	5553.83
457.045	6420.16
461.053	3953.47
465.059	2465.01
469.063	1060.42
473.065	654.968
477.065	432.637
481.063	154.231
485.06	125.854
489.054	168.665
493.047	7.793
497.038	75.241
501.027	25.17
505.014	74.543
508.999	300.425
512.982	373.898
516.964	511.049
520.944	670.841
524.921	454.425
528.897	163.702
532.871	43.505
536.844	14.559
540.814	9.42
544.783	35.623
548.749	58.839
552.714	40.12
556.677	116.711
560.638	242.968
564.597	516.726
568.555	711.028
572.511	1152.95
576.464	2335.57
580.416	3298.25
584.366	3011.48
588.315	1855.26
592.261	1189.81
596.206	746.97
600.148	545.167
604.089	360.545
608.028	27.563
611.965	217.128
615.901	197.006
619.834	216.363
623.766	124.201
627.696	142.592
631.624	211.587
635.551	312.4
639.475	282.059
643.398	335.561
647.318	414.705
651.237	666.245
655.155	969.217
659.07	1116.82
662.984	1444.72
666.895	2138.29
670.805	3433.91
674.713	5485.46
678.62	8577.79
682.524	12761.4
686.427	15271.3
690.328	14958.1
694.227	7855.61
698.124	4889.16
702.02	3089.73
705.913	2218
709.805	1769.88
713.695	1297.94
717.584	989.255
721.47	571.919
725.355	465.224
729.238	378.322
733.119	221.218
736.998	253.912
740.876	226.395
744.752	228.66
748.626	110.701
752.498	92.5
756.368	54.055
760.237	135.164
764.104	113.474
767.969	182.055
771.832	346.454
775.693	253.326
779.553	220.622
783.411	159.074
787.267	57.932
791.122	126.017
794.974	74.975
798.825	34.485
802.674	3.922
806.522	56.727
810.367	32.379
814.211	11.287
818.053	29.98
821.893	71.633
825.732	73.59
829.568	95.89
833.403	1.474
837.236	71.54
841.068	135.158
844.898	8.171
848.726	38.654
852.552	235.695
856.376	392.982
860.199	300.596
864.02	348.481
867.839	366.49
871.656	304.537
875.472	342.59
879.286	590.667
883.098	708.739
886.909	696.811
890.717	694.808
894.524	962.551
898.33	1100.36
902.133	1467.72
905.935	1845.07
909.735	2282.34
913.533	2979.81
917.33	4647.88
921.124	8126.25
924.918	17104.7
928.709	35023.3
932.499	41872
936.286	22540.8
940.073	10580.4
943.857	5901.18
947.64	3989.7
951.421	2878.14
955.2	2807.98
958.978	2029.56
962.753	2032.13
966.527	2483.44
970.3	3176.34
974.071	3712.89
977.84	3980.28
981.607	3714.34
985.372	3014.26
989.136	2573.47
992.898	2023.1
996.659	1912.46
1000.42	1803.41
1004.17	1524.56
1007.93	1115.98
1011.68	898.526
1015.43	790.361
1019.18	793.276
1022.93	706.252
1026.68	541.577
1030.42	474.301
1034.17	347.323
1037.91	360.578
1041.65	363.984
1045.39	497.583
1049.12	441.473
1052.86	425.368
1056.59	309.38
1060.33	153.511
1064.06	137.752
1067.78	342.087
1071.51	216.51
1075.23	261.016
1078.96	265.612
1082.68	80.293
1086.4	54.955
1090.12	70.235
1093.83	85.32
1097.55	0.279
1101.26	125.308
1104.97	90.265
1108.68	155.812
1112.39	21.788
1116.1	97.409
1119.8	133.632
1123.5	679.473
1127.2	279.33
1130.9	20.549
1134.6	128.181
1138.3	86.914
1141.99	32.922
1145.69	75.41
1149.38	41.637
1153.07	96.044
1156.76	87.749
1160.44	133.846
1164.13	8.127
1167.81	19.381
1171.49	137.237
1175.17	151.607
1178.85	275.919
1182.52	329.996
1186.2	318.175
1189.87	410.986
1193.54	260.901
1197.21	298.127
1200.88	293.842
1204.55	369.828
1208.21	234.685
1211.88	439.455
1215.54	534.01
1219.2	397.745
1222.86	411.954
1226.51	407.543
1230.17	191.032
1233.82	252.872
1237.47	275.915
1241.12	336.745
1244.77	209.213
1248.42	211.753
1252.06	172.637
1255.71	154.968
1259.35	237.4
1262.99	449.662
1266.63	231.194
1270.26	142.437
1273.9	103.751
1277.53	73.318
1281.16	132.293
1284.8	108.337
1288.42	48.604
1292.05	44.241
1295.68	152.762
1299.3	10.882
1302.92	104.979
1306.55	99.694
1310.16	64.333
1313.78	47.62
1317.4	101.621
1321.01	2.289
1324.62	154.773
1328.24	147.479
1331.85	59.261
1335.45	230.598
1339.06	211.508
1342.66	221.888
1346.27	302.009
1349.87	271.764
1353.47	131.169
1357.07	170.249
1360.66	590.049
1364.26	128.62
1367.85	46.869
1371.44	404.733
1375.04	282.939
1378.62	379.447
1382.21	455.133
1385.8	300.925
1389.38	335.772
1392.96	330.183
1396.54	233.501
1400.12	246.492
1403.7	454.195
1407.28	412.018
1410.85	383.105
1414.42	267.764
1417.99	286.281
1421.56	194.778
1425.13	185.833
1428.7	575.812
1432.26	178.65
1435.83	148.372
1439.39	198.462
1442.95	239.156
1446.51	256.333
1450.06	416.163
1453.62	494.727
1457.17	471.666
1460.73	485.991
1464.28	467.219
1467.83	248.443
1471.37	329.627
1474.92	153.322
1478.46	141.055
1482.01	217.744
1485.55	253.799
1489.09	240.312
1492.63	227.051
1496.16	185.311
1499.7	264.979
1503.23	125.559
1506.76	77.902
1510.29	122.709
1513.82	2.838
1517.35	0.199
