Measurement: Raman, 514 nm, depolarized, Raman Data Processed
Mineral: Hemimorphite
Rruff sample: R040117
Ideal chemistry: Zn^2+^_4_Si_2_O_7_(OH)_2_H_2_O
Locality: Durango, Mexico
Source: University of Arizona Mineral Museum
Description: Colorless thin tabular crystals in a sheaflike aggregate
Measured chemistry: Zn_4.05_Si_1.97_O_7_((OH)_0.99_F_0.01_)_2_Â·H_2_O
Pin_id: L00527
Orientation: Laser parallel to b* (0 1 0). Fiducial mark perpendicular to laser is parallel to -c [0 0 -1]
Raman shift (cm-1)	intensity
91.284	0
95.465	310.56
99.644	1828.67
103.82	4519.39
107.995	9711
112.168	11909.7
116.339	9127.91
120.508	7498.73
124.675	9625.69
128.84	15305.5
133.003	23302.1
137.164	21284
141.323	12264.6
145.48	6340.56
149.635	4117.35
153.788	3544.15
157.939	3975.04
162.088	6121.03
166.235	10157.8
170.38	14062.9
174.523	10949.4
178.664	5232.94
182.803	1675.53
186.94	10.894
191.076	205.882
195.209	46.312
199.34	92.349
203.47	107.548
207.597	559.369
211.722	1582.4
215.846	2196.33
219.967	1780.77
224.087	1085.32
228.204	739.192
232.32	402.368
236.434	115.302
240.545	107.715
244.655	30.624
248.763	129.788
252.869	180.19
256.973	190.78
261.075	150.45
265.175	123.857
269.273	19.795
273.369	528.484
277.463	749.317
281.556	751.544
285.646	504.2
289.734	316.722
293.821	18.812
297.905	49.974
301.988	70.24
306.069	62.567
310.147	108.053
314.224	3.91
318.299	334.313
322.372	1084.35
326.443	3554.13
330.512	7535.36
334.579	7006.52
338.645	3706.57
342.708	2082.61
346.769	1575
350.829	1347.91
354.887	1304.25
358.942	1203.07
362.996	1205.85
367.048	1398.38
371.098	1625.06
375.146	1900.47
379.192	2192.42
383.236	2630.49
387.279	3136.79
391.319	3581.2
395.358	4224.94
399.394	4608
403.429	4708.13
407.462	4521.79
411.493	3833.31
415.522	3237.82
419.549	2475.94
423.575	1832.18
427.598	1595.79
431.619	1364.44
435.639	1574.78
439.657	1803.97
443.673	2692.35
447.687	4630.21
451.699	7495.86
455.709	7647.52
459.717	4659.35
463.724	2681.64
467.728	1420.26
471.731	1080.85
475.732	539.899
479.731	337.684
483.728	365.114
487.723	281.104
491.716	115.522
495.708	148.927
499.697	144.049
503.685	193.267
507.671	184.251
511.655	34.482
515.637	163.919
519.617	152.705
523.596	20.972
527.572	88.658
531.547	75.621
535.52	161.835
539.491	207.347
543.46	222.217
547.427	566.51
551.393	1120.27
555.356	1993.52
559.318	1596.24
563.278	889.416
567.236	571.611
571.192	583.326
575.147	465.183
579.099	246.936
583.05	228.613
586.999	80.808
590.946	125.145
594.891	76.194
598.834	66.723
602.776	107.098
606.715	56.832
610.653	58.043
614.589	136.738
618.523	84.684
622.456	85.997
626.386	122.929
630.315	112.226
634.242	81.922
638.167	46.05
642.09	115.096
646.012	214.955
649.931	359.181
653.849	256.601
657.765	355.025
661.679	572.101
665.592	1205.23
669.502	2119.82
673.411	3557.01
677.318	3890.55
681.223	2726.76
685.126	1717.76
689.028	939.458
692.927	449.486
696.825	350.437
700.721	214.085
704.616	319.225
708.508	224.774
712.399	160.18
716.288	15.448
720.175	130.569
724.06	95.554
727.944	140.411
731.825	15.145
735.705	168.941
739.584	22.944
743.46	44.9
747.334	236.919
751.207	237.451
755.078	88.334
758.947	19.276
762.815	259.105
766.68	210.276
770.544	509.942
774.406	116.534
778.267	843.637
782.125	44.966
785.982	166.109
789.837	297.428
793.69	59.111
797.542	50.856
801.391	16.674
805.239	43.909
809.085	68.897
812.93	88.362
816.772	84.249
820.613	113.116
824.452	19.416
828.29	57.964
832.125	74.641
835.959	22.832
839.791	50.309
843.621	42.211
847.45	224.802
851.277	57.465
855.102	220.207
858.925	232.976
862.746	295.767
866.566	198.589
870.384	441.007
874.2	533.401
878.015	665.897
881.828	588.777
885.639	491.005
889.448	714.02
893.256	1046.63
897.061	1427.12
900.865	1519.8
904.668	1833.18
908.468	2306.66
912.267	3459.69
916.064	5583.4
919.86	9165.04
923.653	16599
927.445	27473
931.236	38907.3
935.024	33971.6
938.811	17516.1
942.596	9150.64
946.379	5494.4
950.161	3179.41
953.94	2204.08
957.719	1776.28
961.495	1402.28
965.27	1217.81
969.043	863.08
972.814	732.627
976.583	808.053
980.351	728.725
984.117	673.051
987.882	531.648
991.644	495.15
995.405	359.154
999.165	334.662
1002.92	524.816
1006.68	311.961
1010.43	458.783
1014.18	507.176
1017.93	454.881
1021.68	182.885
1025.43	230.953
1029.18	169.082
1032.92	217.342
1036.66	275.828
1040.4	334.572
1044.14	413.4
1047.88	242.324
1051.62	171.363
1055.35	90.477
1059.08	289.65
1062.81	338.871
1066.54	378.137
1070.27	127.457
1073.99	146.814
1077.72	216.195
1081.44	75.691
1085.16	245.188
1088.88	215.113
1092.59	74.631
1096.31	64.523
1100.02	94.051
1103.73	43.752
1107.44	63.139
1111.15	44.656
1114.86	163.457
1118.57	112.82
1122.27	223.268
1125.97	273.17
1129.67	172.918
1133.37	74.629
1137.07	219.99
1140.76	181.48
1144.45	35.633
1148.15	371.027
1151.84	250.102
1155.53	151.42
1159.21	0.387
1162.9	31.15
1166.58	53.387
1170.26	318.115
1173.94	323.314
1177.62	225.689
1181.3	320.26
1184.97	348.299
1188.65	387.369
1192.32	415.855
1195.99	474.898
1199.66	584.639
1203.33	412.191
1206.99	569.057
1210.65	445.951
1214.32	302.191
1217.98	367.828
1221.64	402.752
1225.29	628.094
1228.95	709.646
1232.6	613.859
1236.26	448.652
1239.91	423.197
1243.56	293.508
1247.2	245.906
1250.85	325.293
1254.49	247.57
1258.13	575.578
1261.78	367.488
1265.41	349.432
1269.05	391.082
1272.69	291.824
1276.32	153.01
1279.95	10.35
1283.59	208.973
1287.21	27.389
1290.84	35.406
1294.47	322.35
1298.09	415.08
1301.72	70.57
1305.34	285.264
1308.96	138.912
1312.58	147.23
1316.19	263.797
1319.81	148.83
1323.42	161.104
1327.03	12.836
1330.64	213.703
1334.25	271.707
1337.86	173.811
1341.46	93.154
1345.07	202.053
1348.67	190.537
1352.27	188.623
1355.87	356.334
1359.46	433.738
1363.06	600.928
1366.65	627.85
1370.25	465.09
1373.84	312.254
1377.43	170.59
1381.02	231.156
1384.6	166.314
1388.18	411.324
1391.77	344.582
1395.35	417.918
1398.93	370.533
1402.51	349.006
1406.08	518.771
1409.66	300.354
1413.23	372.855
1416.8	100.084
1420.37	92.564
1423.94	57.199
1427.51	178.529
1431.08	76.277
1434.64	311.816
1438.2	560.518
1441.76	339.836
1445.32	459.326
1448.88	364.973
1452.43	449.35
1455.99	323.354
1459.54	307.23
1463.09	348.803
1466.64	419.246
1470.19	378.727
1473.74	459.506
1477.28	420.814
1480.83	705.365
1484.37	469.336
1487.91	433.584
1491.45	317.791
1494.98	432.686
1498.52	241.732
1502.05	62.801
1505.59	147.762
1509.12	318.379
1512.65	16.365
1516.17	265.609
1519.7	0
