Measurement: Raman, 514 nm, depolarized, Raman Data Processed
Mineral: Hemimorphite
Rruff sample: R040117
Ideal chemistry: Zn^2+^_4_Si_2_O_7_(OH)_2_H_2_O
Locality: Durango, Mexico
Source: University of Arizona Mineral Museum
Description: Colorless thin tabular crystals in a sheaflike aggregate
Measured chemistry: Zn_4.05_Si_1.97_O_7_((OH)_0.99_F_0.01_)_2_Â·H_2_O
Pin_id: L00159
Orientation: Laser parallel to -a* (-1 0 0). Fiducial mark perpendicular to laser is parallel to b [0 1 0]
Raman shift (cm-1)	intensity
98.251	0
101.036	126.359
103.82	417.996
106.604	1546.26
109.387	2115.2
112.168	2629.93
114.949	3036.11
117.729	3267.52
120.508	3925.69
123.286	5979.57
126.063	8540.22
128.84	12753.1
131.615	16884.4
134.39	17681.4
137.164	15332.5
139.937	11532.3
142.709	7719.3
145.48	5454.98
148.25	4047.89
151.019	3371.07
153.788	3298.99
156.555	3504.69
159.322	3927.25
162.088	4737.17
164.853	5604.81
167.617	6580.43
170.38	6394.27
173.142	4926.56
175.904	2758.62
178.664	1358.53
181.424	500.615
184.183	180.975
186.94	9.957
189.698	100.363
192.454	139.9
195.209	250.869
197.963	255.504
200.717	297.875
203.47	650.281
206.221	809.143
208.972	977.049
211.722	1205.04
214.472	1163.51
217.22	1012.46
219.967	781.848
222.714	701.594
225.46	481.609
228.204	381.613
230.948	411.514
233.692	271.426
236.434	291.387
239.175	269.441
241.916	281.857
244.655	162.088
247.394	82.121
250.132	241.916
252.869	31.473
255.605	40.791
258.34	80.139
261.075	221.385
263.808	599.906
266.541	548.131
269.273	489.564
272.004	147.445
274.734	87.17
277.463	443.641
280.192	731.432
282.919	1200.16
285.646	859.566
288.372	649.889
291.097	419.467
293.821	169.645
296.544	109.873
299.266	30.119
301.988	90.217
304.709	60.018
307.428	140.877
310.147	62.576
312.865	35.01
315.583	161.947
318.299	438.342
321.015	974.26
323.729	1669.74
326.443	3415.26
329.156	5000.62
331.868	5506.66
334.579	4402.93
337.29	2939.48
339.999	1803.31
342.708	1217.19
345.416	853.637
348.123	736.33
350.829	824.854
353.534	781.08
356.239	729.182
358.942	792.855
361.645	740.824
364.347	798.736
367.048	857.75
369.748	1145.9
372.448	1183.86
375.146	1080.74
377.844	1348.06
380.54	1517.19
383.236	1933.91
385.932	2228.87
388.626	2412.48
391.319	2814.86
394.012	3136.72
396.704	3498.37
399.394	3899.8
402.084	3891.03
404.774	4142.04
407.462	3933.06
410.15	3753.72
412.836	3434.16
415.522	3065.39
418.207	2704.79
420.891	2255.79
423.575	2135.32
426.257	1930.09
428.939	2078.53
431.619	1851.25
434.299	1975.63
436.978	2451.43
439.657	3271.34
442.334	4450.03
445.011	6038.74
447.687	8488.09
450.361	10837
453.036	11764.7
455.709	10633.2
458.381	7774.4
461.053	5303.32
463.724	3689.27
466.394	2520.12
469.063	1540.28
471.731	1074.56
474.398	755.477
477.065	916.029
479.731	415.418
482.396	509.551
485.06	332.646
487.723	515.717
490.385	188.271
493.047	370.547
495.708	252.529
498.368	314.209
501.027	185.59
503.685	76.719
506.342	47.518
508.999	197.98
511.655	128.18
514.31	306.928
516.964	297.904
519.617	257.529
522.27	186.91
524.921	326.137
527.572	65.176
530.222	33.932
532.871	62.42
535.52	290.555
538.167	48.271
540.814	95.584
543.46	122.613
546.105	229.393
548.749	275.945
551.393	562.287
554.035	838.43
556.677	871.766
559.318	750.131
561.958	547.197
564.597	742.562
567.236	307.73
569.874	312.705
572.511	387.49
575.147	422.088
577.782	407.42
580.416	242.412
583.05	166.971
585.683	332.045
588.315	187.736
590.946	124.213
593.576	159.689
596.206	135.172
598.834	221.066
601.462	184.416
604.089	161.602
606.715	136.168
609.341	120.527
611.965	75.107
614.589	90.885
617.212	32.713
619.834	106.508
622.456	40.268
625.076	62.939
627.696	126.262
630.315	179.65
632.933	203.078
635.551	1.402
638.167	101.787
640.783	374.955
643.398	211.1
646.012	336.473
648.625	491.088
651.237	946.812
653.849	739.838
656.46	1199.44
659.07	1686.04
661.679	2245.51
664.288	3132.41
666.895	4912.06
669.502	6961.31
672.108	10018.9
674.713	11805.7
677.318	11286.5
679.921	8898.32
682.524	6167.23
685.126	4771.41
687.727	3502.25
690.328	2529.34
692.927	1699.43
695.526	1082.94
698.124	1208.21
700.721	1004.98
703.318	833.705
705.913	572.707
708.508	532.742
711.102	452.686
713.695	672.541
716.288	2.305
718.879	371.953
721.47	471.518
724.06	220.666
726.649	360.006
729.238	339.281
731.825	18.473
734.412	36.082
736.998	123.941
739.584	231.756
742.168	118.086
744.752	233.428
747.334	220.252
749.916	236.881
752.498	13.27
755.078	180.465
757.658	147.967
760.237	205.131
762.815	361.254
765.392	47.42
767.969	134.143
770.544	143.445
773.119	10.637
775.693	545.562
778.267	328.693
780.839	204.924
783.411	302.023
785.982	338.801
788.552	34.584
791.122	159.258
793.69	227.297
796.258	55.416
798.825	18.471
801.391	91.324
803.957	64.293
806.522	42.652
809.085	139.566
811.649	43.564
814.211	6.818
816.772	209.885
819.333	346.555
821.893	163.129
824.452	189.52
827.011	85.758
829.568	251.904
832.125	157.982
834.681	183.984
837.236	109.871
839.791	94.27
842.345	71.553
844.898	287.379
847.45	303.277
850.001	259.283
852.552	235.309
855.102	151.342
857.651	327.367
860.199	683.383
862.746	499.381
865.293	385.359
867.839	351.322
870.384	455.756
872.928	431.688
875.472	207.604
878.015	229.939
880.557	409.408
883.098	675.301
885.639	470.264
888.178	595.434
890.717	1091.09
893.256	907
895.793	852.211
898.33	1347.76
900.865	1232.7
903.401	1708.79
905.935	2024.07
908.468	2050.27
911.001	2516.48
913.533	3622
916.064	4968.38
918.595	6874.42
921.124	9890.92
923.653	14907.6
926.182	21214
928.709	25381
931.236	28618.3
933.761	25025.6
936.286	16663.2
938.811	10670.9
941.334	6808.34
943.857	4746.57
946.379	3434.9
948.9	2972.11
951.421	2389.98
953.94	1763.57
956.459	1328.86
958.978	1317.97
961.495	1354.35
964.012	985.145
966.527	992.418
969.043	909.715
971.557	1003.24
974.071	1526.69
976.583	1428.2
979.095	584.895
981.607	1001
984.117	1497.75
986.627	1224.52
989.136	731.336
991.644	948.199
994.152	1042.79
996.659	832.109
999.165	639.145
1001.67	676.262
1004.17	413.453
1006.68	480.742
1009.18	248.113
1011.68	355.559
1014.18	383.094
1016.68	680.684
1019.18	538.332
1021.68	136.012
1024.18	533.703
1026.68	481.391
1029.18	309.277
1031.67	287.223
1034.17	475.301
1036.66	373.477
1039.16	641.918
1041.65	460.668
1044.14	570.516
1046.63	571.113
1049.12	542.035
1051.62	283.285
1054.11	454.898
1056.59	296.914
1059.08	179.375
1061.57	152.324
1064.06	65.816
1066.54	379.93
1069.03	464.766
1071.51	160.441
1073.99	247.09
1076.47	244.859
1078.96	283.832
1081.44	344.055
1083.92	145.73
1086.4	459.117
1088.88	534.527
1091.36	542.363
1093.83	53.113
1096.31	32.594
1098.79	146.184
1101.26	184.414
1103.73	116.211
1106.21	180.262
1108.68	198.391
