Measurement: Raman, 514 nm, depolarized, Raman Data Processed
Mineral: Heulandite-Ca
Rruff sample: R040021
Ideal chemistry: (Ca,Na,K)_5_(Si_27_Al_9_)O_72_26H_2_O
Locality: Prospect Park, Patterson, Passaic County, New Jersey, USA
Source: University of Arizona Mineral Museum
Description: Group of colorless lamellar crystals
Measured chemistry: Na_0.25_(Na_0.55_K_0.45_)_Σ=1_(Ca_2.42_Na_0.85_Sr_0.73_)_Σ=4.00_(Si_27.60_Al_8.40_)_Σ=36_O_72_·24H_2_O ; H_2_O estimated by difference
Pin_id: m00223
Orientation: Laser parallel to -c [0 0 -1]. Fiducial mark perpendicular to laser is parallel to b* (0 1 0)
Raman shift (cm-1)	intensity
100.34	0
104.516	1029.05
108.691	2735.57
112.864	4118.95
117.034	5941.18
121.203	5881.2
125.369	5287.47
129.534	4721.86
133.696	5475.3
137.857	6196.77
142.016	7072.48
146.172	7378.22
150.327	6454.83
154.48	6079.67
158.63	5446.4
162.779	4780.48
166.926	3752.37
171.07	2306.93
175.213	1612.3
179.354	947.213
183.493	754.885
187.63	749.939
191.765	585.449
195.898	471.494
200.029	640.477
204.158	142.086
208.285	356.467
212.41	622.867
216.533	694.891
220.654	528.006
224.773	514.463
228.891	211.975
233.006	129.729
237.119	688.133
241.231	1218.81
245.34	2071.04
249.448	2756.17
253.553	2580.42
257.657	2623.03
261.758	2442.94
265.858	2347.02
269.956	1830.01
274.052	2121.53
278.146	2398.89
282.237	2372.99
286.327	2294.02
290.416	2391.02
294.502	2733.65
298.586	2740.65
302.668	2747.81
306.749	2842.9
310.827	2891.42
314.903	3202.9
318.978	3527.85
323.051	3971.99
327.121	4566.94
331.19	4860.78
335.257	5529.08
339.322	5768.64
343.385	6361.72
347.446	6993.49
351.505	8430.94
355.563	9503.12
359.618	11182.4
363.672	12583.7
367.723	14438
371.773	16275.7
375.821	18031.5
379.866	19727.1
383.91	22390.9
387.952	26286.2
391.992	29743.7
396.031	35215.7
400.067	39597.1
404.101	40715.2
408.134	37379.4
412.165	32874.4
416.193	26945.1
420.22	21679.4
424.245	16769.9
428.268	13139.5
432.289	9832.43
436.309	7706.16
440.326	6314.94
444.342	5917.91
448.355	5815.5
452.367	6424.88
456.377	7854.14
460.385	10378.8
464.391	13473
468.395	16126.6
472.398	18074.2
476.398	22174.2
480.397	25526.4
484.394	24923.4
488.389	19797.6
492.382	13397.1
496.373	8630.92
500.362	5630.59
504.349	3471.4
508.335	2297.72
512.319	1837.33
516.3	1093.1
520.28	610.986
524.259	579.189
528.235	589.723
532.209	25.092
536.182	18.801
540.152	29.713
544.121	342.877
548.088	330.688
552.053	139.984
556.017	117.02
559.978	52.24
563.938	117.469
567.895	263.805
571.851	47.391
575.805	228.328
579.758	555.959
583.708	966.133
587.657	1333.75
591.603	1770.71
595.548	2406.31
599.491	3214.47
603.432	4443.19
607.372	5211.5
611.309	5202.46
615.245	5024.12
619.179	4221.42
623.111	3461.31
627.041	2178.83
630.97	1979.99
634.896	2816.75
638.821	937.131
642.744	1195.13
646.665	1111.74
650.584	887.98
654.502	701.115
658.418	576.592
662.331	367.67
666.244	308.307
670.154	293.49
674.062	353.484
677.969	308.502
681.874	30.139
685.777	188.34
689.678	390.99
693.577	157.938
697.475	418.023
701.371	230.734
705.265	241.727
709.157	142.615
713.047	407.836
716.936	4.811
720.823	284.82
724.708	249.246
728.591	8.738
732.472	77.49
736.352	425.301
740.23	492.379
744.106	470.447
747.98	235.391
751.853	740.598
755.723	619.268
759.592	742.018
763.459	1223.26
767.325	1560
771.188	1512.97
775.05	1370.66
778.91	1645.63
782.768	1209.27
786.625	1290.27
790.479	941.064
794.332	805.723
798.183	870.033
802.033	851.928
805.88	334.291
809.726	862.1
813.57	819.045
817.413	629.264
821.253	534.951
825.092	474.945
828.929	232.557
832.764	20.951
836.598	248.15
840.429	128.164
844.259	72.197
848.088	240.602
851.914	180.924
855.739	100.328
859.562	179.938
863.383	151.416
867.203	133.857
871.02	319.309
874.836	173.211
878.65	72.342
882.463	114.889
886.274	7.531
890.083	151.928
893.89	46.447
897.695	98.486
901.499	68.684
905.301	63.662
909.102	275.068
912.9	130.461
916.697	30.504
920.492	23.037
924.285	281.156
928.077	190.961
931.867	375.529
935.655	496.828
939.442	78.869
943.226	238.697
947.009	472.314
950.791	402.738
954.57	156.992
958.348	547.803
962.124	438.748
965.899	618.617
969.671	589.525
973.442	1025.34
977.211	1028.12
980.979	1177.07
984.745	930.271
988.509	1283.97
992.271	1628.07
996.032	1931.07
999.791	1826.76
1003.55	2332.46
1007.3	2273.02
1011.06	2417.14
1014.81	2256.34
1018.56	2328.66
1022.31	2487.91
1026.06	2315.11
1029.8	2665.72
1033.55	2432.18
1037.29	2414.84
1041.03	2778.56
1044.77	2618.39
1048.5	2232.25
1052.24	2769.59
1055.97	2346.69
1059.7	2466.38
1063.43	2744.87
1067.16	2510.6
1070.89	2822.93
1074.61	3257.38
1078.34	3192.73
1082.06	3944.02
1085.78	4092.83
1089.5	4218.28
1093.21	4574.34
1096.93	4442.44
1100.64	4987.69
1104.35	4686.52
1108.06	5109.36
1111.77	4981.22
1115.48	4755.07
1119.18	5187.78
1122.89	5464.27
1126.59	4866.58
1130.29	4880.98
1133.99	4691
1137.68	4356.44
1141.38	4444.25
1145.07	4527.74
1148.76	4483.74
1152.45	3877.27
1156.14	3972.93
1159.83	3536
1163.51	3347.07
1167.19	2557.9
1170.88	2714.36
1174.56	2240.48
1178.23	1789.26
1181.91	1668.68
1185.59	1491.79
1189.26	1199.8
1192.93	1240.17
1196.6	720.723
1200.27	801.465
1203.94	269.262
1207.6	629.59
1211.27	422.316
1214.93	102.672
1218.59	455.031
1222.25	288.641
1225.9	460.473
1229.56	180.047
1233.21	168.414
1236.86	67.191
1240.51	315.754
1244.16	229.895
1247.81	170.984
1251.45	132.871
1255.1	141.961
1258.74	332.152
1262.38	2.391
1266.02	9.637
1269.66	283.414
1273.29	177.688
1276.93	203.035
1280.56	62.898
1284.19	43.09
1287.82	84.688
1291.45	110.477
1295.07	20.691
1298.7	41.613
1302.32	94.973
1305.94	79.129
1309.56	46.246
1313.18	78.66
1316.8	159.039
1320.41	363.93
1324.02	369.391
1327.63	192.844
1331.24	270.426
1334.85	158.988
1338.46	405.582
1342.06	598.109
1345.67	463.664
1349.27	417.285
1352.87	445.523
1356.47	114.34
1360.07	473.734
1363.66	438.414
1367.25	832.133
1370.85	304.441
1374.44	483.633
1378.03	283.859
1381.61	441.676
1385.2	618.121
1388.78	670.418
1392.37	379.242
1395.95	375.996
1399.53	556.336
1403.1	187.016
1406.68	291.172
1410.26	487.957
1413.83	114.176
1417.4	216.965
1420.97	14.121
1424.54	284.504
1428.1	116.273
1431.67	20.488
