Measurement: Raman, 514 nm, depolarized, Raman Data Processed
Mineral: Heulandite-Ca
Rruff sample: R040021
Ideal chemistry: (Ca,Na,K)_5_(Si_27_Al_9_)O_72_26H_2_O
Locality: Prospect Park, Patterson, Passaic County, New Jersey, USA
Source: University of Arizona Mineral Museum
Description: Group of colorless lamellar crystals
Measured chemistry: Na_0.25_(Na_0.55_K_0.45_)_Σ=1_(Ca_2.42_Na_0.85_Sr_0.73_)_Σ=4.00_(Si_27.60_Al_8.40_)_Σ=36_O_72_·24H_2_O ; H_2_O estimated by difference
Pin_id: m00378
Orientation: Laser parallel to a [1 0 0]. Fiducial mark perpendicular to laser is parallel to b* (0 1 0)
Raman shift (cm-1)	intensity
89.193	0
93.375	565.01
97.554	1963.63
101.732	3149.69
105.908	4845.62
110.082	6151.63
114.254	7341.08
118.424	9159.57
122.592	9664.86
126.758	10446.5
130.922	11938.1
135.083	12308.3
139.243	14087.2
143.401	14291
147.557	14291.2
151.711	13290
155.863	12280.9
160.013	11134.3
164.161	9182.66
168.308	6908.24
172.452	5329.34
176.594	3985.14
180.734	2815.78
184.872	1918.88
189.008	1239.06
193.143	896.012
197.275	669.82
201.405	546.74
205.534	225.205
209.66	224.146
213.784	509.463
217.907	611.711
222.027	708.832
226.146	606.809
230.263	392.787
234.377	164.424
238.49	299.166
242.601	1023.1
246.709	2010.08
250.816	1901.97
254.921	1947.05
259.024	2039.55
263.125	1792.51
267.224	1568.44
271.321	1232.7
275.416	833.766
279.51	732.092
283.601	740.127
287.69	745.025
291.778	828.912
295.863	664.746
299.947	823.383
304.029	822.484
308.108	969.473
312.186	1368.34
316.262	1816.45
320.336	2275.97
324.408	2957.51
328.478	3151.02
332.546	3810.79
336.612	3980.4
340.677	4503.81
344.739	5076.97
348.799	5528.77
352.858	6186.24
356.915	7280.97
360.969	8323.07
365.022	10150
369.073	11665.7
373.122	13093.6
377.169	14714.6
381.215	16845.8
385.258	18986.3
389.299	21985
393.339	26156.8
397.376	31771.5
401.412	35353.8
405.446	36619.9
409.478	33834.5
413.508	28294.3
417.536	22632.2
421.562	17862.4
425.586	13244
429.609	9597.31
433.629	7523.27
437.648	5313.02
441.665	4342.26
445.68	3977.2
449.693	3507.45
453.704	4596.79
457.713	5564.94
461.721	7588.28
465.726	9690.59
469.73	12005.8
473.731	16015.7
477.731	20323.1
481.729	23766.2
485.725	22802.5
489.72	17661.3
493.712	12019.8
497.703	7224.59
501.691	4409.6
505.678	2721.36
509.663	1724.79
513.646	1132.06
517.627	1103.9
521.607	685.227
525.584	351.34
529.56	231.873
533.534	55.277
537.506	93.879
541.476	73.16
545.444	43.934
549.41	147.477
553.375	41.436
557.337	186.248
561.298	195.521
565.257	109.936
569.214	132.262
573.17	41.217
577.123	353.191
581.075	810.518
585.024	940.436
588.972	1416.83
592.918	1453.7
596.863	2704.11
600.805	3520.02
604.746	4321.48
608.685	4554.52
612.621	4850.32
616.557	4227.75
620.49	3720.05
624.421	3036.37
628.351	2365.53
632.279	1760.23
636.205	822.514
640.129	872.303
644.051	744.061
647.972	616.41
651.89	281.795
655.807	514.65
659.722	442.967
663.636	9.287
667.547	232.607
671.457	102.482
675.365	93.445
679.271	168.234
683.175	14.824
687.077	181.016
690.978	104.625
694.877	462.619
698.774	34.551
702.669	100.457
706.562	425.514
710.454	433.57
714.344	263.359
718.232	302.086
722.118	295.836
726.002	526.219
729.885	523.607
733.766	298.865
737.645	497.656
741.522	606.865
745.397	721.277
749.271	747.193
753.143	622.74
757.013	797.918
760.881	1256.33
764.748	1441.64
768.613	1701.58
772.476	2101.64
776.337	2617.89
780.196	2683.74
784.054	2479.89
787.91	2141.83
791.764	2099.49
795.616	1907.99
799.467	1450
803.316	1247.26
807.163	1559.93
811.008	1456.45
814.851	1712.41
818.693	1435.2
822.533	1288.88
826.371	846.35
830.208	519.436
834.042	318.062
837.875	371.15
841.706	427.359
845.536	331.297
849.363	27.094
853.189	55.203
857.013	532.516
860.836	123.199
864.656	346.652
868.475	134.475
872.292	2.211
876.108	93.264
879.922	44.967
883.733	70.016
887.544	148.564
891.352	37.748
895.159	79.883
898.964	224.533
902.767	66.396
906.568	111.193
910.368	98.496
914.166	183.412
917.962	101.99
921.757	137.041
925.55	11.863
929.341	101.512
933.13	20.025
936.918	24.344
940.703	7.613
944.488	259.713
948.27	354.07
952.051	276.555
955.83	205.283
959.607	173.877
963.383	226.512
967.156	553.193
970.928	612.836
974.699	538.674
978.468	527.67
982.234	745.844
986	1084.95
989.763	1493.18
993.525	1138.76
997.285	1450.34
1001.04	2199.46
1004.8	1799.42
1008.55	1681.58
1012.31	1861.86
1016.06	1852
1019.81	2005.31
1023.56	2142.31
1027.31	2475.66
1031.05	2449.98
1034.79	2612.68
1038.53	2325.85
1042.27	2276.05
1046.01	2377.43
1049.75	2433.79
1053.48	2384.71
1057.22	2143.28
1060.95	2221.48
1064.68	2240.55
1068.4	2519.29
1072.13	2725.53
1075.86	2771.94
1079.58	3492.59
1083.3	3524.2
1087.02	3691.04
1090.74	4234.79
1094.45	4406.58
1098.17	4750.02
1101.88	4644.58
1105.59	4931.47
1109.3	4655.01
1113.01	4757.72
1116.71	4973.19
1120.42	4750.1
1124.12	4909.24
1127.82	4856.91
1131.52	4952.94
1135.22	4435
1138.91	4620.66
1142.61	4095.53
1146.3	4610.78
1149.99	3826.89
1153.68	3720.1
1157.37	3235.89
1161.06	3190.66
1164.74	2874.1
1168.42	2749.6
1172.1	2142.34
1175.78	2359.04
1179.46	1937.99
1183.14	1832.61
1186.81	1361.72
1190.48	1158.15
1194.15	857.467
1197.83	826.781
1201.49	272.684
1205.16	600.441
1208.82	98.723
1212.49	369.008
1216.15	253.797
1219.81	173.945
1223.46	119.527
1227.12	91.203
1230.78	211.176
1234.43	273.27
1238.08	227.457
1241.73	251.945
1245.38	182.059
1249.03	45.363
1252.67	94.254
1256.31	110.789
1259.95	109.418
1263.6	138.301
1267.23	58.066
1270.87	168.801
1274.51	131.152
1278.14	22.547
1281.77	66.504
1285.4	11.273
1289.03	84.953
1292.66	42.656
1296.28	111.445
1299.91	211.363
1303.53	213.184
1307.15	389.551
1310.77	391.57
1314.38	28.109
1318	348.645
1321.61	357.602
1325.23	352.531
1328.84	378.488
1332.45	237.609
1336.06	177.148
1339.66	186.918
1343.27	42.883
1346.87	313.926
1350.47	104.414
1354.07	235.305
1357.67	338.184
1361.26	397.469
1364.86	433.117
1368.45	463.895
1372.04	428.832
1375.63	467.555
1379.22	331.039
1382.81	391.75
1386.39	455.762
1389.98	75.855
1393.56	166.902
1397.14	383.984
1400.72	203.57
1404.3	264.715
1407.87	95.355
1411.45	17.762
1415.02	165.855
