Measurement: Raman, 514 nm, depolarized, Raman Data Processed
Mineral: Heulandite-Ca
Rruff sample: R050017
Ideal chemistry: (Ca,Na,K)_5_(Si_27_Al_9_)O_72_26H_2_O
Locality: Poona, Maharashtra State, India
Source: Eugene Schlepp
Description: Single crystals
Measured chemistry: (Ca_.70_Na_.22_K_.02_[box]_0.06_)_5_(Si_0.77_Al_0.23_)_36_O_72_Â·24H_2_O
Pin_id: L00175
Orientation: Laser parallel to -b* (0 -1 0). Fiducial mark perpendicular to laser is parallel to c [0 0 1]
Raman shift (cm-1)	intensity
88.728	0
92.926	1.532
97.121	411.89
101.314	1240.72
105.505	2281.88
109.694	3294.84
113.881	4322.16
118.066	5427.62
122.249	6268.93
126.43	7124.32
130.608	7652.7
134.785	8178.54
138.959	8326.93
143.131	8730.11
147.301	8105.11
151.469	7325.47
155.635	6727.26
159.799	5886.56
163.961	4884.81
168.121	3816.46
172.278	3435.02
176.434	2582.07
180.587	1732.36
184.739	1405.75
188.888	1029.39
193.035	756.43
197.18	564.576
201.324	467.562
205.465	227.83
209.603	59.688
213.74	38.7
217.875	3.582
222.008	79.627
226.139	216.493
230.267	5.68
234.394	76.561
238.518	215.57
242.641	481.914
246.761	816.463
250.879	1170.2
254.996	1043.99
259.11	1063.87
263.222	986.065
267.332	819.99
271.44	463.869
275.546	307.147
279.65	299.453
283.752	100.594
287.852	40.332
291.95	11.758
296.046	115.886
300.14	112.089
304.231	70.324
308.321	110.463
312.409	27.262
316.495	72.636
320.578	55.141
324.66	384.154
328.739	390.859
332.817	446.303
336.892	640.814
340.966	864.461
345.037	837.261
349.107	1089.11
353.174	1379.77
357.24	1668.91
361.303	1947.08
365.365	2272.62
369.424	2844.62
373.481	3342.28
377.537	3916.23
381.59	4460.64
385.642	5206.8
389.691	6149.03
393.738	7452.52
397.784	8812.47
401.827	10708.3
405.868	12157.5
409.908	12359.9
413.945	11109.5
417.98	9238.61
422.014	7355.36
426.045	5850.39
430.075	4354.43
434.102	3195
438.127	2372.77
442.151	2037.44
446.172	1717.43
450.192	1462.95
454.209	1607.69
458.225	1859.02
462.238	2469.16
466.25	3029.72
470.259	3864.84
474.267	4767.61
478.273	6049.95
482.276	7588.08
486.278	8539.82
490.278	7574.3
494.276	5509.55
498.271	3436.94
502.265	2086.54
506.257	1286.97
510.247	960.103
514.235	502.531
518.221	300.629
522.205	201.296
526.187	162.656
530.167	182.466
534.145	193.289
538.122	0.398
542.096	74.904
546.068	96.873
550.039	87.05
554.007	3.131
557.973	44.626
561.938	111.186
565.901	114.699
569.861	45.828
573.82	31.825
577.777	201.23
581.732	309.825
585.685	277.839
589.636	412.309
593.585	428.188
597.532	706.033
601.477	945.11
605.42	1254.93
609.361	1634.54
613.301	1884.07
617.238	1857.47
621.174	1733.51
625.108	1433.61
629.039	973.781
632.969	844.104
636.897	443.417
640.823	448.617
644.747	175.701
648.669	197.575
652.589	195.226
656.508	216.623
660.424	176.759
664.339	39.39
668.251	9.08
672.162	18.809
676.071	39.865
679.978	107.049
683.883	65.114
687.786	65.378
691.687	29.639
695.586	172.173
699.484	56.544
703.379	146.995
707.273	51.841
711.165	29.372
715.055	134.808
718.943	147.277
722.829	40.68
726.713	80.491
730.595	105.521
734.476	226.043
738.354	202.8
742.231	152.862
746.106	218.441
749.978	214.002
753.849	312.262
757.719	375.882
761.586	408.972
765.451	436.927
769.315	572.896
773.177	809.607
777.036	968.812
780.894	1008.2
784.75	856.903
788.605	1065.65
792.457	1004.11
796.307	1075.8
800.156	1153.4
804.003	1010.72
807.848	707.829
811.691	674.171
815.532	851.965
819.371	1047.6
823.209	851.271
827.045	552.962
830.878	482.129
834.71	304.275
838.54	175.033
842.369	181.815
846.195	140.042
850.02	66.318
853.842	40.381
857.663	170.866
861.482	213.864
865.299	122.05
869.115	100.169
872.928	43.296
876.74	21.651
880.55	61.291
884.358	37.601
888.164	141.207
891.969	87.695
895.771	21.84
899.572	48.348
903.371	25.247
907.168	85.145
910.963	20.994
914.757	33.126
918.548	80.446
922.338	85.673
926.126	149.371
929.912	39.353
933.697	95.351
937.479	18.118
941.26	38.16
945.039	33.123
948.816	26.281
952.591	215.551
956.365	164.726
960.136	73.81
963.906	47.193
967.674	58.342
971.441	160.37
975.205	199.064
978.968	247.721
982.729	206.378
986.488	85.043
990.245	93.324
994	161.933
997.754	400.315
1001.51	378.247
1005.26	582.306
1009	350.629
1012.75	314.751
1016.5	443.003
1020.24	591.23
1023.98	753.267
1027.72	829.749
1031.46	777.962
1035.19	704.213
1038.93	739.893
1042.66	685.361
1046.39	751.297
1050.12	1050.88
1053.85	955.342
1057.57	753.223
1061.29	631.995
1065.02	540.394
1068.74	718.857
1072.45	817.916
1076.17	851.493
1079.88	1010.59
1083.6	949.926
1087.31	1069.07
1091.02	1251.35
1094.72	1218.46
1098.43	1456.46
1102.13	1506.02
1105.84	1506.49
1109.54	1595.87
1113.24	1432.73
1116.93	1349.28
1120.63	1490.03
1124.32	1570.1
1128.01	1739.39
1131.7	1459.7
1135.39	1410.23
1139.08	1240.79
1142.76	1331.41
1146.45	1362.09
1150.13	1314.87
1153.81	1346.98
1157.48	1290.95
1161.16	1332.12
1164.84	1003.44
1168.51	1017.45
1172.18	779.046
1175.85	860.604
1179.52	881.967
1183.18	683.546
1186.85	764.623
1190.51	675.272
1194.17	455.731
1197.83	197.273
1201.48	229.099
1205.14	231.101
1208.79	203.235
1212.44	295.444
1216.09	307.771
1219.74	420.288
1223.39	123.031
1227.03	85.972
1230.68	9.259
1234.32	67.215
1237.96	146.539
1241.6	130.504
1245.23	284.65
1248.87	388.91
1252.5	193.288
1256.13	147.782
1259.76	212.475
1263.39	117.415
1267.02	242.709
1270.64	228.384
1274.26	424.42
1277.88	270.845
1281.5	226.605
1285.12	172.824
1288.74	61.089
1292.35	22.389
1295.96	8.872
1299.57	117.845
1303.18	181.951
1306.79	128.302
1310.4	275.199
1314	303.418
1317.6	251.046
1321.2	83.333
1324.8	13.079
1328.4	2.269
1331.99	92
1335.59	93.384
