Measurement: Raman, 514 nm, depolarized, Raman Data Processed
Mineral: Heulandite-Ca
Rruff sample: R060465
Ideal chemistry: (Ca,Na,K)_5_(Si_27_Al_9_)O_72_26H_2_O
Locality: Garrawilla, near Gunnadah, New South Wales, Australia
Source: Michael Scott
Description: Orange fan of platy crystals
Measured chemistry: (Ca_0.66_Na_0.24_K_0.10_)_5_(Si_0.77_Al_0.23_)_36_O_72_Â·24H_2_O
Pin_id: M01415
Orientation: Laser parallel to a* (1 0 0). Fiducial mark perpendicular to laser is parallel to b [0 1 0]
Raman shift (cm-1)	intensity
221.413	0
225.092	3.30078
228.77	79.2949
232.446	273.422
236.121	489.086
239.793	972.988
243.464	1329.27
247.133	1739.19
250.8	1984.42
254.466	1985.01
258.13	1778.18
261.792	1695.73
265.453	847.463
269.112	543.231
272.769	222.213
276.424	255.25
280.078	115.816
283.73	48.9551
287.381	37.1992
291.029	3.60938
294.676	81.4922
298.321	80.5391
301.965	60.5703
305.607	18.0156
309.247	198.197
312.885	831.902
316.522	1231.16
320.157	1920.53
323.791	2541.65
327.422	3108.99
331.052	3383.84
334.681	3545.26
338.307	3660.53
341.932	4049.65
345.556	4170.62
349.177	4847.42
352.797	5520.03
356.416	6660.42
360.032	8041.6
363.647	9611.53
367.261	11286.7
370.872	13252.9
374.482	15571.8
378.091	18055.4
381.697	21281.7
385.302	24781
388.906	29572.3
392.507	34106.9
396.107	38890.2
399.706	42617.8
403.303	44334.5
406.898	42789.9
410.491	38401
414.083	33592.1
417.673	28544.7
421.262	23384.5
424.848	18531.8
428.434	14254.8
432.017	10784.5
435.599	8224.73
439.18	6596.76
442.758	5639.66
446.335	5190.46
449.911	5509.14
453.485	6196.69
457.057	8161.08
460.627	10627.2
464.196	13386.2
467.763	15256.8
471.329	17878.4
474.893	21701
478.456	26691.7
482.016	30669
485.576	30991
489.133	26453.6
492.689	19307.9
496.244	12665.8
499.796	7836.41
503.347	4765.64
506.897	3203.51
510.445	2009.47
513.991	1358.61
517.536	961.88
521.079	777.558
524.621	448.653
528.161	289.831
531.699	137.735
535.236	115.257
538.771	47.334
542.304	34.4346
545.836	25.0146
549.367	180.436
552.896	80.3291
556.423	116.398
559.948	20.6777
563.472	2.56348
566.995	27.2139
570.516	131.181
574.035	320.173
577.553	487.517
581.069	716.409
584.583	1094.81
588.096	1350.76
591.608	1764.76
595.118	2721.45
598.626	3680.58
602.133	4746.15
605.638	6066.88
609.142	6489.26
612.644	6807.29
616.144	6054.82
619.643	4826.96
623.14	3868.66
626.636	3031.74
630.13	2327.02
633.623	1740.55
637.114	1334.63
640.604	1023.37
644.092	673.628
647.578	530.32
651.063	376.558
654.547	231.205
658.029	365.138
661.509	150.32
664.988	85.7158
668.465	6.97852
671.941	210.964
675.415	157.235
678.887	74.0283
682.359	200.719
685.828	251.239
689.296	305.69
692.763	105.138
696.228	362.675
699.691	397.574
703.153	380.964
706.613	325.846
710.072	549.906
713.53	561.536
716.985	462.688
720.44	405.103
723.893	406.738
727.344	332.887
730.794	463.422
734.242	292.164
737.689	396.721
741.134	538.563
744.578	526.039
748.02	628.967
751.461	627.327
754.9	690.421
758.338	931.592
761.774	1183.21
765.208	1601.91
768.642	1852.55
772.073	1950.1
775.504	2513.86
778.932	2802.44
782.36	2933.82
785.785	2912.49
789.21	2892.48
792.632	2676.86
796.054	2635.64
799.473	2490.14
802.892	2224.79
806.309	1810.69
809.724	1740.38
813.138	1651.4
816.55	1717.81
819.961	1835.95
823.37	1436.21
826.778	1001.91
830.185	742.509
833.59	435.603
836.993	264.794
840.395	141.501
843.796	303.841
847.195	68.0518
850.593	130.746
853.989	237.753
857.384	44.0752
860.777	33.6514
864.169	78.0508
867.559	152.657
870.948	57.585
874.336	16.2617
877.722	134.793
881.106	5.29688
884.489	52.29
887.871	18.2012
891.251	65.1035
894.63	54.3272
898.007	72.541
901.383	35.7725
904.757	92.9434
908.13	95.9648
911.502	86.9688
914.872	86.0488
918.24	119.405
921.608	83.0166
924.973	53.1543
928.338	309.024
931.701	206.768
935.062	158.091
938.422	261.975
941.781	179.447
945.138	88.6387
948.494	235.484
951.848	262.049
955.201	439.284
958.552	508.184
961.902	509.749
965.251	596.987
968.598	631.791
971.944	757.105
975.288	864.624
978.631	939.949
981.973	955.277
985.313	1059.76
988.652	1115.05
991.989	1222.04
995.325	1399.94
998.659	1523.99
1001.99	1745.87
1005.32	1912.3
1008.65	1905.12
1011.98	1873.93
1015.31	1837.37
1018.64	2049.4
1021.96	1938.04
1025.29	2010.19
1028.61	2256.2
1031.93	2164.18
1035.25	2229.79
1038.56	2223.81
1041.88	2274.29
1045.19	2283.56
1048.51	2328.92
1051.82	2310.43
1055.13	2102.92
1058.44	2110.33
1061.75	2367.74
1065.06	2334.26
1068.36	2385.36
1071.66	2546.86
1074.97	2707.59
1078.27	2831.61
1081.57	3243.93
1084.87	3759.01
1088.16	4156.16
1091.46	4002.04
1094.75	4233.98
1098.05	4205.97
1101.34	4718.01
1104.63	4813.37
1107.92	4957.56
1111.2	5078.24
1114.49	5060.84
1117.78	5567.84
1121.06	5834.65
1124.34	5745.03
1127.62	5561.05
1130.9	5608.71
1134.18	5661.64
1137.45	5456.37
1140.73	5635.79
1144	5635.26
1147.28	5520.99
1150.55	5076.76
1153.82	5039.72
1157.09	5049.34
1160.35	4706.62
1163.62	4488.86
1166.88	4263.29
1170.14	4155.57
1173.41	3751.38
1176.67	3585.81
1179.93	3103.46
1183.18	2895.16
1186.44	2536.05
1189.69	2090.39
1192.95	1846.38
1196.2	1562.47
1199.45	1381.65
1202.7	1059.91
1205.95	774.205
1209.2	807.512
1212.44	569.959
1215.69	384.043
1218.93	243.553
1222.17	177.312
1225.41	219.576
1228.65	154.144
1231.89	49.0078
1235.13	95.2402
1238.36	41.4805
1241.6	45.9102
1244.83	61.6855
1248.06	78.5
1251.29	11.2402
1254.52	102.762
1257.74	78.5
1260.97	42.4316
1264.19	56.8887
1267.42	18.4453
1270.64	14.8789
1273.86	74.9629
1277.08	107.535
1280.3	43.6523
1283.52	9.0918
1286.73	139.982
1289.94	167.846
1293.16	189.324
1296.37	204.609
1299.58	162.848
1302.79	276.75
1306	227.481
1309.2	269.885
1312.41	474.029
1315.61	183.912
1318.82	146.584
1322.02	250.525
1325.22	279.762
1328.41	223.93
1331.61	473.715
1334.81	335.266
1338	233.57
1341.2	352.607
1344.39	273.369
1347.58	211.852
1350.77	381.885
1353.96	321.863
1357.15	366.264
1360.33	143.602
1363.52	148.119
1366.7	295.926
1369.88	206.029
1373.06	348.842
1376.24	361.471
1379.42	141.82
1382.6	275.492
1385.77	134.916
1388.95	175.365
1392.12	82.4746
1395.29	166.842
1398.46	214.606
1401.63	200.111
1404.8	97.0137
1407.97	159.627
1411.14	55.5508
1414.3	61.1387
1417.46	62.8184
1420.62	64.7969
1423.79	8.79297
1426.95	464.166
1430.1	218.83
1433.26	326.383
1436.42	473.125
1439.57	427.162
1442.72	356.279
1445.88	83.1406
1449.03	709.873
1452.18	163.871
1455.33	322.633
1458.47	386.893
1461.62	320.916
1464.76	309.059
1467.91	410.318
1471.05	302.279
1474.19	197.475
1477.33	133.109
1480.47	121.772
1483.61	4.6543
1486.74	64.666
1489.88	174.928
1493.01	155.418
1496.14	82.9648
1499.27	60.293
1502.4	108.535
1505.53	138.185
1508.66	57.0332
1511.79	106.791
1514.91	120.18
1518.03	50.4258
1521.16	315.469
1524.28	223.315
1527.4	314.59
1530.52	200.279
1533.63	185.65
1536.75	80.9121
1539.87	26.6035
1542.98	748.695
1546.09	442.449
1549.2	219.469
1552.32	171.719
1555.42	643.373
1558.53	7.14844
1561.64	32.6543
