Measurement: Raman, 514 nm, depolarized, Raman Data Processed
Mineral: Heulandite-Ca
Rruff sample: R040021
Ideal chemistry: (Ca,Na,K)_5_(Si_27_Al_9_)O_72_26H_2_O
Locality: Prospect Park, Patterson, Passaic County, New Jersey, USA
Source: University of Arizona Mineral Museum
Description: Group of colorless lamellar crystals
Measured chemistry: Na_0.25_(Na_0.55_K_0.45_)_Σ=1_(Ca_2.42_Na_0.85_Sr_0.73_)_Σ=4.00_(Si_27.60_Al_8.40_)_Σ=36_O_72_·24H_2_O ; H_2_O estimated by difference
Pin_id: l00406
Orientation: Laser parallel to -b* (0 -1 0). Fiducial mark perpendicular to laser is parallel to c [0 0 1]
Raman shift (cm-1)	intensity
107.3	0
111.473	48.758
115.644	1202.92
119.813	2255.38
123.981	4079.86
128.146	5144.47
132.309	7620.93
136.47	10054.2
140.63	12357.8
144.787	13433.1
148.942	12734.8
153.096	11431.4
157.247	9915.04
161.396	8804.5
165.544	7175.76
169.689	5268.27
173.833	4076.29
177.974	2794.17
182.114	1532.6
186.251	1058.41
190.387	339
194.52	6.934
198.652	1.051
202.782	291.773
206.909	394.16
211.035	554.441
215.159	190.949
219.281	74.926
223.4	241.229
227.518	696.865
231.634	1316.7
235.748	1947.53
239.86	2745.1
243.97	3638.67
248.079	4117.26
252.185	4038.1
256.289	3964
260.391	3452.25
264.492	2806.57
268.59	2025.46
272.687	1456.93
276.781	1097.26
280.874	721.811
284.964	548.644
289.053	277.29
293.14	1012.07
297.225	664.502
301.308	640.443
305.389	869.392
309.468	959.674
313.545	1315.48
317.62	1566.78
321.693	1806.27
325.765	2305.4
329.834	2490.58
333.902	3006.27
337.967	3158.9
342.031	3408.17
346.093	3828.76
350.153	4642.17
354.21	5423.39
358.267	6360.31
362.321	7686.94
366.373	8993.61
370.423	10687.1
374.471	12358.4
378.518	13866.4
382.563	16500.8
386.605	19950.2
390.646	22950
394.685	27277.8
398.722	30959.8
402.757	32265.7
406.79	29568.7
410.821	26307.9
414.851	21700.3
418.878	17373.1
422.904	13410.5
426.927	10299.7
430.949	7430.57
434.969	5704.53
438.987	4447.78
443.003	3830.85
447.018	3579.19
451.03	3571.79
455.041	4602.67
459.049	5882.97
463.056	7713.28
467.061	9115.47
471.064	10611.2
475.065	14356.6
479.064	19635.1
483.062	23121.5
487.057	21905.8
491.051	15801.7
495.043	10191.8
499.032	6257.56
503.02	3585.24
507.007	2272.75
510.991	1446.26
514.973	994.656
518.954	830.822
522.933	572.672
526.91	459.658
530.885	386.164
534.858	318.764
538.829	274.622
542.799	26.315
546.766	26.078
550.732	88.944
554.696	97.195
558.658	215.173
562.618	349.733
566.576	241.088
570.533	32
574.488	117.448
578.44	227.345
582.391	745.303
586.341	1255.82
590.288	1755.3
594.233	2444.3
598.177	3371.91
602.119	4399.21
606.059	5035.32
609.997	4967.33
613.933	4467.36
617.868	3972.49
621.801	3551.71
625.731	2738.94
629.66	2018.14
633.588	1293.27
637.513	898.352
641.437	998.372
645.358	1015.14
649.278	900.575
653.196	651.63
657.113	333.306
661.027	93.538
664.94	6.758
668.851	74.757
672.76	42.83
676.667	65.881
680.572	81.93
684.476	40.495
688.378	101.174
692.278	53.174
696.176	402.375
700.072	231.12
703.967	357.871
707.86	358.766
711.751	337.799
715.64	424.1
719.527	365.965
723.413	197.921
727.297	280.356
731.179	291.965
735.059	296.272
738.937	430.92
742.814	396.23
746.689	417.812
750.562	678.942
754.433	680.879
758.303	704.638
762.17	1220.43
766.036	1549.7
769.901	1853.56
773.763	2162.28
777.624	2500.48
781.482	2516.15
785.339	2529.66
789.195	2166.06
793.048	1854.66
796.9	1842.72
800.75	1554.14
804.598	1384.13
808.445	1680.01
812.289	1766.84
816.132	1932.65
819.973	1634.96
823.813	1152.65
827.65	766.361
831.486	481.32
835.32	396.104
839.152	404.716
842.983	382.342
846.812	464.334
850.639	434.19
854.464	539.541
858.288	755.295
862.11	716.545
865.93	468.126
869.748	290.376
873.564	157.258
877.379	119.989
881.192	44.863
885.004	66.054
888.813	46.776
892.621	31.28
896.427	84.805
900.232	58.07
904.034	112.017
907.835	184.679
911.634	98.06
915.432	33.146
919.227	113.09
923.021	96.98
926.813	77.7
930.604	26.938
934.393	93.161
938.18	73.938
941.965	32.258
945.749	31.966
949.53	85.16
953.311	4.917
957.089	185.769
960.866	22.273
964.641	272.603
968.414	263.863
972.185	275.063
975.955	305.327
979.723	357.787
983.49	413.387
987.254	567.147
991.017	820.077
994.779	986.273
998.538	1177.88
1002.3	1339.96
1006.05	1507.17
1009.81	1679.86
1013.56	1825.64
1017.31	2053.34
1021.06	2290.95
1024.81	2273.67
1028.55	2330.98
1032.3	2139.28
1036.04	2309.4
1039.78	2291.69
1043.52	2195.59
1047.26	2132.59
1050.99	2354.71
1054.73	1985.32
1058.46	2173.76
1062.19	2128.71
1065.92	2128.87
1069.65	2265.04
1073.37	2619.49
1077.1	2886.03
1080.82	3497.73
1084.54	3898.52
1088.26	3943.19
1091.97	4058.92
1095.69	4212.05
1099.4	4456.63
1103.12	4392.09
1106.83	4578.45
1110.54	4442.78
1114.24	4371.02
1117.95	4246.14
1121.65	4467.27
1125.35	4213.45
1129.06	4124.12
1132.75	4092.47
1136.45	3983.85
1140.15	4032.13
1143.84	4054.62
1147.53	4006.43
1151.22	3736.6
1154.91	3575.83
1158.6	3161.91
1162.28	3051.11
1165.97	2767.21
1169.65	2520.99
1173.33	2226.51
1177.01	1916.29
1180.69	1559.74
1184.36	1268.75
1188.04	1019.33
1191.71	869.174
1195.38	651.172
1199.05	597.84
1202.71	223.562
1206.38	238.135
1210.04	90.609
1213.71	120.744
1217.37	143.318
1221.03	356.281
1224.68	268.465
1228.34	93.322
1231.99	83.598
1235.65	57.422
1239.3	192.701
1242.95	95.168
1246.59	119.15
1250.24	69.807
1253.88	83.23
1257.53	58.588
1261.17	76.447
1264.81	162.174
1268.45	296.553
1272.08	317.986
1275.72	342.432
1279.35	139.738
1282.98	35.961
1286.61	17.926
1290.24	85.943
1293.87	171.127
1297.49	176.451
1301.11	95.957
1304.73	31.654
1308.36	758.523
1311.97	425.854
1315.59	449.59
1319.2	460.605
1322.82	526.281
1326.43	266.51
1330.04	122.176
1333.65	39.326
1337.26	41.266
1340.86	130.775
1344.47	52.766
1348.07	175.834
1351.67	211.572
1355.27	269.389
1358.87	71.359
1362.46	182.439
1366.06	236.445
1369.65	324.428
1373.24	263.33
1376.83	444.105
1380.42	427.812
1384	521.223
1387.59	316.178
1391.17	330.277
1394.75	150.43
1398.33	144.711
1401.91	40.865
1405.49	242.457
1409.06	228.844
1412.64	10.627
1416.21	109.498
1419.78	41.457
1423.35	44.871
