Measurement: Raman, 514 nm, depolarized, Raman Data Processed
Mineral: Heulandite-Ca
Rruff sample: R050097
Ideal chemistry: (Ca,Na,K)_5_(Si_27_Al_9_)O_72_26H_2_O
Locality: Rat's Nest Claim, Custer County, Idaho, USA
Source: John Cornish
Description: Pale pink coffin-shaped tabular single crystals
Measured chemistry: (Ca_0.66_Na_0.30_K_0.04_)_5_(Si_0.77_Al_0.23_)_36_O_72_Â·24H_2_O
Pin_id: M00432
Orientation: Laser parallel to -c* (0 0 -1). Fiducial mark perpendicular to laser is parallel to a [1 0 0]
Raman shift (cm-1)	intensity
75.937	0
80.125	885.629
84.311	2571.03
88.496	3948.12
92.678	6064.56
96.858	7077.9
101.036	8427.81
105.212	9676.75
109.387	10653.6
113.559	10878.4
117.729	12105.1
121.897	11349.8
126.063	11123
130.228	10971.6
134.39	10882.5
138.55	12014.8
142.709	12284.7
146.865	12236.3
151.019	11851.2
155.171	10525.7
159.322	8684.24
163.47	6854.17
167.617	5212.22
171.761	3860.65
175.904	2716.49
180.044	1707.59
184.183	1312.52
188.319	1122.18
192.454	1029.17
196.586	790.152
200.717	728.545
204.846	632.342
208.972	241.49
213.097	263.135
217.22	630.748
221.341	730.186
225.46	679.227
229.577	624.775
233.692	381.502
237.805	67.312
241.916	369.287
246.025	893.789
250.132	1131.68
254.237	1188.1
258.34	1311.51
262.442	882.881
266.541	681.119
270.639	666.992
274.734	419.758
278.828	163.131
282.919	114.305
287.009	34.691
291.097	5.326
295.183	10.43
299.266	220.551
303.348	290.127
307.428	360.287
311.507	725.617
315.583	1046.44
319.657	1451.71
323.729	1950.75
327.8	2271.64
331.868	2855.42
335.935	3209.05
339.999	3878.43
344.062	4419.27
348.123	5097.93
352.182	6110.57
356.239	7245.14
360.294	8479.2
364.347	10525.9
368.398	11865.4
372.448	13524
376.495	15539.8
380.54	18225.9
384.584	20941.1
388.626	24099
392.666	28486.8
396.704	32821.9
400.74	36097.3
404.774	36628.8
408.806	33519.9
412.836	29297.7
416.865	24104.2
420.891	18818
424.916	14686.3
428.939	11063.2
432.959	8140.79
436.978	6249.36
440.996	5240.12
445.011	4187.44
449.024	4152.25
453.036	4461.77
457.045	5034.56
461.053	7015.22
465.059	9290.69
469.063	11044.6
473.065	13083.7
477.065	15973.9
481.063	20551.4
485.06	23226.3
489.054	20902.5
493.047	15648
497.038	10300.9
501.027	6245.55
505.014	4030.11
508.999	2472.78
512.982	1617.45
516.964	1285.82
520.944	993.984
524.921	593.002
528.897	429.621
532.871	476.998
536.844	181.57
540.814	79.124
544.783	39.821
548.749	67.819
552.714	82.484
556.677	191.146
560.638	66.188
564.597	44.814
568.555	10.214
572.511	71.378
576.464	213.394
580.416	233.084
584.366	537.73
588.315	801.013
592.261	1473.5
596.206	2061.43
600.148	2786.87
604.089	3374.02
608.028	4299.9
611.965	4200.67
615.901	3722.54
619.834	3249.31
623.766	2556.94
627.696	2271.34
631.624	1419.32
635.551	1085.79
639.475	952.696
643.398	939.09
647.318	688.951
651.237	591.229
655.155	572.914
659.07	262.012
662.984	4.46
666.895	245.145
670.805	128.911
674.713	192.021
678.62	194.215
682.524	15.99
686.427	291.312
690.328	292.999
694.227	312.597
698.124	283.895
702.02	408.616
705.913	123.397
709.805	440.136
713.695	83.439
717.584	411.076
721.47	547.221
725.355	332.735
729.238	411.791
733.119	479.283
736.998	321.374
740.876	290.28
744.752	318.923
748.626	402.516
752.498	445.4
756.368	693.269
760.237	946.021
764.104	1057.57
767.969	1085.81
771.832	1528.13
775.693	1587.41
779.553	1741.86
783.411	1724.36
787.267	1518.52
791.122	1313.17
794.974	1096.38
798.825	910.2
802.674	793.053
806.522	855.055
810.367	958.966
814.211	991.581
818.053	1164.85
821.893	1282.04
825.732	923.018
829.568	589.62
833.403	338.702
837.236	206.045
841.068	193.254
844.898	152.152
848.726	87.907
852.552	36.209
856.376	63.748
860.199	325.141
864.02	292.436
867.839	186.248
871.656	122.615
875.472	5.563
879.286	96.155
883.098	69.717
886.909	62.078
890.717	167.488
894.524	40.65
898.33	115.877
902.133	77.943
905.935	1.092
909.735	61.455
913.533	64.172
917.33	170.363
921.124	127
924.918	103.021
928.709	25.309
932.499	99.227
936.286	18.625
940.073	195.521
943.857	128.988
947.64	85.932
951.421	121.6
955.2	262.785
958.978	224.688
962.753	235.293
966.527	378.912
970.3	424.535
974.071	424.004
977.84	769.324
981.607	833.557
985.372	1214.43
989.136	1170.45
992.898	1235.47
996.659	1448.97
1000.42	1785.69
1004.17	1849.6
1007.93	1800.24
1011.68	2032.98
1015.43	2180.22
1019.18	2182.68
1022.93	2277.41
1026.68	2395.27
1030.42	2225.76
1034.17	2167.24
1037.91	2336.17
1041.65	2255.93
1045.39	2284.85
1049.12	2135.52
1052.86	2104.03
1056.59	2190.58
1060.33	2047.52
1064.06	2101.79
1067.78	2088.02
1071.51	1927.09
1075.23	2092.95
1078.96	2624.95
1082.68	2832.6
1086.4	3212.46
1090.12	3331.89
1093.83	3547.99
1097.55	3995.66
1101.26	4076.73
1104.97	4100.2
1108.68	4131.06
1112.39	4397.57
1116.1	4223.94
1119.8	4362.96
1123.5	4755.35
1127.2	4432.16
1130.9	4217.21
1134.6	4202.1
1138.3	4357.04
1141.99	3921.2
1145.69	3890.04
1149.38	3934.82
1153.07	3556.07
1156.76	3280.31
1160.44	3301.05
1164.13	3167.03
1167.81	2939.59
1171.49	2825.48
1175.17	2282.88
1178.85	2188.64
1182.52	1813.33
1186.2	1786
1189.87	1324.51
1193.54	1132.29
1197.21	708.242
1200.88	660.645
1204.55	745.354
1208.21	454.482
1211.88	224.328
1215.54	316.609
1219.2	281.656
1222.86	28.578
1226.51	163.318
1230.17	209.91
1233.82	59.975
1237.47	115.336
1241.12	179.309
1244.77	115.678
1248.42	241.807
1252.06	198.342
1255.71	47.172
1259.35	148.271
1262.99	123.523
1266.63	173.236
1270.26	85.393
1273.9	140.824
1277.53	149.471
1281.16	127.789
1284.8	139.719
1288.42	68.039
1292.05	147.227
1295.68	63.256
1299.3	90.055
1302.92	180.625
1306.55	12.721
1310.16	336.33
1313.78	161.459
1317.4	315.133
1321.01	91.373
1324.62	89.172
1328.24	328.514
1331.85	19.625
1335.45	128.025
1339.06	44.457
1342.66	156.793
1346.27	148.686
1349.87	303.137
1353.47	357.186
1357.07	293.326
1360.66	152.012
1364.26	23.02
1367.85	202.748
1371.44	283.455
1375.04	283.188
1378.62	222.986
1382.21	298.922
1385.8	446.254
1389.38	119.189
1392.96	362.477
1396.54	292.334
1400.12	312.609
1403.7	300.541
1407.28	154.688
1410.85	351.785
1414.42	423.658
1417.99	332.463
1421.56	570.941
1425.13	918.816
1428.7	471.373
1432.26	483.727
1435.83	646.393
1439.39	781.727
1442.95	969.148
1446.51	1057.52
1450.06	1048.07
1453.62	1233.25
1457.17	1370.69
1460.73	1171.8
1464.28	831.447
1467.83	872.65
1471.37	683.582
1474.92	482.025
1478.46	631.191
1482.01	295.432
1485.55	548.707
1489.09	375.33
1492.63	288.6
1496.16	386.562
1499.7	183.805
1503.23	20.99
1506.76	266.545
1510.29	234.633
1513.82	273.85
1517.35	1.188
1520.88	340.248
1524.4	0
