Measurement: Raman, 514 nm, depolarized, Raman Data Processed
Mineral: Heulandite-Ca
Rruff sample: R050017
Ideal chemistry: (Ca,Na,K)_5_(Si_27_Al_9_)O_72_26H_2_O
Locality: Poona, Maharashtra State, India
Source: Eugene Schlepp
Description: Single crystals
Measured chemistry: (Ca_.70_Na_.22_K_.02_[box]_0.06_)_5_(Si_0.77_Al_0.23_)_36_O_72_Â·24H_2_O
Pin_id: L00080
Orientation: Laser parallel to -a* (-1 0 0). Fiducial mark perpendicular to laser is parallel to b [0 1 0]
Raman shift (cm-1)	intensity
222.027	0
226.146	7.109
230.263	48.904
234.377	398.502
238.49	728.408
242.601	1776.79
246.709	2492.22
250.816	2862.01
254.921	3216.86
259.024	3061.47
263.125	2758.88
267.224	2207.28
271.321	1671
275.416	1045.08
279.51	695.129
283.601	615.133
287.69	497.35
291.778	528.207
295.863	321.254
299.947	493.197
304.029	562.139
308.108	537.137
312.186	782.26
316.262	1373.03
320.336	1941.97
324.408	2715.51
328.478	2990.66
332.546	3899.55
336.612	4088.22
340.677	4666.72
344.739	5303.06
348.799	5878.24
352.858	6855.24
356.915	8252.03
360.969	9817.6
365.022	11643
369.073	13787.4
373.122	15507.6
377.169	17945.6
381.215	20669.1
385.258	24120.4
389.299	27813.1
393.339	33527.2
397.376	40778.6
401.412	45779.5
405.446	47995.7
409.478	46535.3
413.508	39970.1
417.536	32872.2
421.562	26001.2
425.586	19454
429.609	13767.2
433.629	10565.8
437.648	7837.62
441.665	6341.58
445.68	5759.61
449.693	5693.66
453.704	6910.67
457.713	8665.6
461.721	12006.4
465.726	15753
469.73	19160.4
473.731	24796.4
477.731	31191
481.729	36117.2
485.725	34071
489.72	26146.3
493.712	17363.5
497.703	10907.4
501.691	6553.43
505.678	3942.8
509.663	2452.98
513.646	1638.15
517.627	1208.44
521.607	706.346
525.584	224.678
529.56	112.202
533.534	7.531
537.506	174.5
541.476	202.885
545.444	170.441
549.41	210.753
553.375	136.688
557.337	209.166
561.298	136.453
565.257	63.967
569.214	260.613
573.17	220.643
577.123	452.217
581.075	911.346
585.024	1267.06
588.972	1697.4
592.918	2267.25
596.863	3285.6
600.805	4394.36
604.746	5678.48
608.685	6726.94
612.621	7274.72
616.557	6699.82
620.49	5552.22
624.421	4201.88
628.351	3249.8
632.279	2320.97
636.205	1579.37
640.129	1298.99
644.051	1115.12
647.972	891.868
651.89	636.092
655.807	666.482
659.722	412.149
663.636	366.62
667.547	442.301
671.457	372.04
675.365	337.817
679.271	362.995
683.175	511.534
687.077	459.868
690.978	555.409
694.877	699.933
698.774	515.439
702.669	569.496
706.562	796.014
710.454	783.012
714.344	583.712
718.232	682.555
722.118	707.813
726.002	653.85
729.885	738.317
733.766	660.394
737.645	739.022
741.522	829.709
745.397	1023.04
749.271	1089.54
753.143	1136.46
757.013	1335.46
760.881	1660.64
764.748	1982.49
768.613	2274.83
772.476	2735.6
776.337	3180.27
780.196	3551.68
784.054	3770.1
787.91	3643.8
791.764	3526.25
795.616	3021.53
799.467	2660.23
803.316	2295.04
807.163	2041.29
811.008	1905.81
814.851	2001.54
818.693	1745.25
822.533	1464.48
826.371	828.903
830.208	602.131
834.042	370.856
837.875	277.407
841.706	276.691
845.536	249.747
849.363	0.019
853.189	4.7
857.013	78.272
860.836	101.276
864.656	2.773
868.475	63.475
872.292	55.465
876.108	5.809
879.922	46.2
883.733	18.684
887.544	25.812
891.352	44.268
895.159	84.765
898.964	33.64
902.767	73.776
906.568	15.92
910.368	7.074
914.166	10.296
917.962	13.932
921.757	80.217
925.55	72.782
929.341	144.798
933.13	47.3
936.918	139.3
940.703	166.822
944.488	158.889
948.27	271.519
952.051	295.746
955.83	357.005
959.607	437.086
963.383	646.232
967.156	748.079
970.928	846.659
974.699	1077.99
978.468	1096.1
982.234	1170.04
986	1402.84
989.763	1567.64
993.525	1620.86
997.285	1786.44
1001.04	1811.91
1004.8	2013.64
1008.55	2144.15
1012.31	2268.94
1016.06	2353.84
1019.81	2501.31
1023.56	2662.61
1027.31	2894.39
1031.05	2853.4
1034.79	3091.15
1038.53	3045.41
1042.27	3181.8
1046.01	3149.27
1049.75	3283.46
1053.48	3111.84
1057.22	3004.83
1060.95	3032.02
1064.68	3113.9
1068.4	3147.88
1072.13	3275.06
1075.86	3647.03
1079.58	3967.61
1083.3	4232.93
1087.02	4799.22
1090.74	5148.16
1094.45	5565.6
1098.17	5921.95
1101.88	6139.8
1105.59	6542.52
1109.3	6493.81
1113.01	6676.52
1116.71	6883.44
1120.42	7154.63
1124.12	7446.94
1127.82	7092.37
1131.52	7017.18
1135.22	6907.47
1138.91	6920.84
1142.61	6628.26
1146.3	6646.16
1149.99	6240.41
1153.68	6046.1
1157.37	5576.92
1161.06	5386.48
1164.74	4861.09
1168.42	4535.23
1172.1	4081.48
1175.78	3667.85
1179.46	3430.31
1183.14	3079.39
1186.81	2635.27
1190.48	2346.69
1194.15	1950.38
1197.83	1683.39
1201.49	1270.36
1205.16	1120.93
1208.82	684.37
1212.49	718.06
1216.15	418.218
1219.81	375.101
1223.46	378.775
1227.12	291.396
1230.78	209.485
1234.43	191.754
1238.08	160.056
1241.73	230.111
1245.38	102.11
1249.03	1.884
1252.67	48.878
1256.31	68.715
1259.95	1.745
1263.6	76.3
1267.23	26.17
1270.87	51.869
1274.51	35.467
1278.14	81.599
1281.77	47.001
1285.4	69.964
1289.03	28.411
1292.66	11.549
1296.28	39.12
1299.91	2.526
1303.53	100.507
1307.15	14.96
1310.77	15.887
1314.38	25.729
1318	43.9
1321.61	16.571
1325.23	33.765
1328.84	7.527
1332.45	20.171
1336.06	48.694
1339.66	38.196
1343.27	0.659
1346.87	15.103
1350.47	1.488
1354.07	50.575
1357.67	28.243
1361.26	152.812
1364.86	185.438
1368.45	164.428
1372.04	167.59
1375.63	179.578
1379.22	90.066
1382.81	130.898
1386.39	108.91
1389.98	223.511
1393.56	179.4
1397.14	134.804
1400.72	85.109
1404.3	186.455
1407.87	158.48
1411.45	165.815
1415.02	223.513
1418.59	149.024
1422.16	86.188
1425.73	103.741
1429.29	163.372
1432.86	158.531
1436.42	138.853
1439.98	168.762
1443.54	247.507
1447.1	284.759
1450.66	317.945
1454.21	371.928
1457.77	283.671
1461.32	345.458
1464.87	299.531
1468.42	339.767
1471.96	209.709
1475.51	259.232
1479.06	178.687
1482.6	156.777
1486.14	220.895
1489.68	83.971
1493.22	247.19
1496.75	286.243
1500.29	44.308
1503.82	22.124
1507.35	1.854
1510.88	58.415
1514.41	0
