Measurement: Raman, 514 nm, depolarized, Raman Data Processed
Mineral: Heulandite-Ca
Rruff sample: R060465
Ideal chemistry: (Ca,Na,K)_5_(Si_27_Al_9_)O_72_26H_2_O
Locality: Garrawilla, near Gunnadah, New South Wales, Australia
Source: Michael Scott
Description: Orange fan of platy crystals
Measured chemistry: (Ca_0.66_Na_0.24_K_0.10_)_5_(Si_0.77_Al_0.23_)_36_O_72_Â·24H_2_O
Pin_id: M01120
Orientation: Laser parallel to (1 0 1). Fiducial mark perpendicular to laser is parallel to b [0 1 0]
Raman shift (cm-1)	intensity
230.431	0
234.093	370.84
237.753	146.008
241.411	511.621
245.068	810.535
248.723	972.981
252.376	1056.24
256.028	1164.9
259.679	1099.3
263.328	831.533
266.975	581.006
270.621	507.185
274.265	542.391
277.908	685.418
281.549	779.09
285.189	819.463
288.827	877.527
292.464	1083.49
296.099	1031.7
299.732	879.643
303.364	666.822
306.995	564.082
310.624	445.533
314.251	510.383
317.877	889.859
321.501	1066.36
325.124	1545.83
328.745	1876.04
332.365	2162.09
335.983	2406.46
339.599	2532.77
343.214	3063.03
346.828	3662.22
350.44	4448.34
354.05	5296.36
357.659	6317.25
361.266	7686.96
364.872	9289.46
368.476	11214.7
372.079	12883.7
375.68	15107.8
379.28	17805.2
382.878	20951.5
386.475	24235.2
390.07	28774.3
393.663	33652.7
397.255	38258
400.846	42156.4
404.435	43119.2
408.022	41733.7
411.608	37742.8
415.192	32761.8
418.775	27650.6
422.357	22461.9
425.936	17729
429.515	13635
433.091	10443.5
436.667	7949.36
440.24	6692.39
443.813	5820.9
447.383	5606.36
450.952	6437.62
454.52	7694.1
458.086	10059.3
461.651	12563.4
465.214	14893.2
468.775	16968.7
472.335	18868.8
475.894	22399.4
479.451	26185.6
483.006	28843.3
486.56	27884.5
490.113	22593.2
493.663	16173.4
497.213	10661.1
500.761	6526.24
504.307	4188.87
507.852	2558.95
511.395	1803.5
514.937	1245.48
518.478	964.933
522.016	482.462
525.554	362.444
529.089	1.38867
532.624	43.7227
536.156	164.124
539.688	323.036
543.218	236.906
546.746	262.572
550.273	217.596
553.798	157.542
557.321	239.046
560.844	69.5205
564.364	32.3477
567.884	141.419
571.401	106.628
574.918	243.272
578.432	538.257
581.945	681.854
585.457	1105.7
588.967	1569.69
592.476	2156.49
595.983	3081.09
599.489	4065.22
602.993	5450.82
606.496	6784.17
609.997	7153.9
613.497	7170.91
616.995	6687.38
620.492	5520.77
623.987	4260.59
627.481	3346.78
630.973	2698.25
634.464	2041
637.953	1742.03
641.441	1492.41
644.927	1177.16
648.412	1111.14
651.895	981.381
655.377	931.815
658.857	866.424
662.336	866.168
665.813	735.31
669.289	767.316
672.763	670.491
676.236	748.016
679.708	676.364
683.177	590.789
686.646	480.158
690.113	472.238
693.578	301.488
697.042	366.336
700.504	206.225
703.965	292.296
707.425	321.888
710.883	359.178
714.339	195.422
717.794	278.663
721.248	276.887
724.7	288.674
728.151	264.348
731.6	260.758
735.047	208.465
738.494	228.911
741.938	304.086
745.381	376.268
748.823	273.505
752.263	597.542
755.702	505.353
759.139	928.766
762.575	920.433
766.01	1060.49
769.442	1272.87
772.874	1310.64
776.304	1423.17
779.732	1492.22
783.159	1416.06
786.585	1368.22
790.009	1248.49
793.431	1054.85
796.852	983.623
800.272	927.545
803.69	714.532
807.107	662.633
810.522	663.237
813.936	509.977
817.348	561.276
820.759	556.02
824.168	394.438
827.576	371.519
830.983	116.759
834.388	215.516
837.791	271.139
841.193	148.083
844.594	185.779
847.993	119.067
851.39	75.5859
854.787	77.2568
858.181	150.619
861.575	51.8584
864.966	113.084
868.357	68.3203
871.746	47.1914
875.133	102.055
878.519	127.884
881.904	78.959
885.287	16.1797
888.668	10.8457
892.048	79.5215
895.427	106.603
898.804	41.8945
902.18	10.874
905.554	21.1982
908.927	6.82519
912.299	86.0342
915.669	47.9883
919.037	56.8516
922.404	43.5176
925.77	42.9492
929.134	87.9209
932.497	56.1943
935.858	46.8955
939.218	43.0352
942.576	35.6397
945.933	99.7266
949.289	211.349
952.643	216.023
955.995	298.896
959.346	337.31
962.696	406.055
966.044	418.72
969.391	446.004
972.736	546.489
976.08	595.436
979.423	640.43
982.764	679.337
986.103	813.694
989.442	935.21
992.778	980.678
996.114	1103.66
999.447	1283.8
1002.78	1213.35
1006.11	1386.58
1009.44	1386.69
1012.77	1478.54
1016.1	1304.48
1019.42	1544.12
1022.74	1449.94
1026.07	1586.65
1029.39	1532.75
1032.71	1549.46
1036.03	1387.09
1039.34	1475.29
1042.66	1426.97
1045.97	1478.45
1049.28	1433.8
1052.59	1461.61
1055.9	1577.68
1059.21	1579.06
1062.52	1502.87
1065.82	1634.91
1069.13	1583.78
1072.43	1834.93
1075.73	1952.05
1079.03	2208.94
1082.33	2826.97
1085.62	3089.56
1088.92	3529.98
1092.21	3488.14
1095.51	3692.07
1098.8	3592.9
1102.09	3755.89
1105.37	3794.05
1108.66	3994.38
1111.94	4139.91
1115.23	4251.68
1118.51	4439.65
1121.79	4666.87
1125.07	4474.47
1128.35	4431.35
1131.63	4324.56
1134.9	4279.53
1138.17	4370.97
1141.45	4184.08
1144.72	4244.57
1147.99	4031.57
1151.26	4185.02
1154.52	3999.93
1157.79	3931.51
1161.05	3817.76
1164.32	3303.66
1167.58	3203.99
1170.84	3068.74
1174.09	2682.96
1177.35	2527.66
1180.61	2343.89
1183.86	2003.49
1187.11	1681.48
1190.36	1469.8
1193.61	972.44
1196.86	731.362
1200.11	512.565
1203.36	300.048
1206.6	7.79981
1209.84	38.1699
1213.08	261.063
1216.32	8.52246
1219.56	62.6025
1222.8	27.1113
1226.03	13.2656
1229.27	23.7373
1232.5	110.163
1235.73	60.0322
1238.96	216.273
1242.19	234.772
1245.42	285.844
1248.64	204.307
1251.87	281.275
1255.09	153.898
1258.31	321.24
1261.54	400.37
1264.75	286.287
1267.97	306.823
1271.19	489.779
1274.4	439.174
1277.62	516.605
1280.83	487.312
1284.04	489.523
1287.25	501.733
1290.45	689.958
1293.66	592.689
1296.87	662.416
1300.07	913.5
1303.27	851.729
1306.47	876.679
1309.67	965.073
1312.87	857.391
1316.07	922.734
1319.26	1017.76
1322.45	905.55
1325.65	1053.08
1328.84	1184.16
1332.03	830.386
1335.22	966.79
1338.4	1028.1
1341.59	844.655
1344.77	761.685
1347.95	709.214
1351.14	431.91
1354.32	449.09
1357.49	381.783
1360.67	334.109
1363.85	404.751
1367.02	191.89
1370.19	85.0703
1373.37	85.0029
1376.54	263.632
1379.71	186.004
1382.87	11.2656
1386.04	2.21777
1389.2	20.9453
1392.37	87.9346
1395.53	40.4707
1398.69	1.68945
1401.85	9.03027
1405.01	14.998
1408.16	108.316
1411.32	117.233
1414.47	31.6104
1417.62	45.1426
1420.78	14.9277
1423.92	21.0381
1427.07	21.9463
1430.22	100.037
1433.37	212.352
1436.51	155.997
1439.65	311.768
1442.79	178.402
1445.93	449.941
1449.07	217.365
1452.21	232.692
1455.35	174.642
1458.48	379.013
1461.61	326.405
1464.74	381.647
1467.87	15.6924
1471	345.594
1474.13	308.738
1477.26	148.728
1480.38	112.147
1483.51	242.283
1486.63	192.545
1489.75	194.123
1492.87	63.2578
1495.99	83.7441
1499.1	150.969
1502.22	246.25
1505.33	231.457
1508.44	69.2246
1511.56	90.7734
1514.67	275.076
1517.77	69.9824
1520.88	85.8008
1523.99	331.008
1527.09	190.607
1530.19	361.916
1533.3	355.92
1536.4	42.6777
1539.5	45.3516
1542.59	11.6035
1545.69	286.996
1548.79	171.873
1551.88	391.269
1554.97	560.461
1558.06	149.252
1561.15	1.11133
