Measurement: Raman, 514 nm, depolarized, Raman Data Processed
Mineral: Heulandite-Ca
Rruff sample: R050017
Ideal chemistry: (Ca,Na,K)_5_(Si_27_Al_9_)O_72_26H_2_O
Locality: Poona, Maharashtra State, India
Source: Eugene Schlepp
Description: Single crystals
Measured chemistry: (Ca_.70_Na_.22_K_.02_[box]_0.06_)_5_(Si_0.77_Al_0.23_)_36_O_72_Â·24H_2_O
Pin_id: L00517
Orientation: Laser parallel to c* (0 0 1). Fiducial mark perpendicular to laser is parallel to -a [-1 0 0]
Raman shift (cm-1)	intensity
205.534	0
209.66	167.771
213.784	145.535
217.907	148.898
222.027	43.791
226.146	126.959
230.263	72.326
234.377	174.867
238.49	550.336
242.601	862.635
246.709	1272.44
250.816	1285.28
254.921	1295.83
259.024	1339.21
263.125	1044.1
267.224	925.998
271.321	885.504
275.416	505.318
279.51	439.203
283.601	491.965
287.69	357.521
291.778	367.822
295.863	67.711
299.947	213.625
304.029	389.066
308.108	226.859
312.186	597.363
316.262	890.918
320.336	1338.3
324.408	1850.51
328.478	1952.55
332.546	2602.43
336.612	2716.15
340.677	3011.7
344.739	3593.07
348.799	4096.23
352.858	4913.18
356.915	5729.92
360.969	6645.73
365.022	8078.06
369.073	9453.73
373.122	10789.1
377.169	12723.4
381.215	15196.6
385.258	18198.9
389.299	21267.4
393.339	25530.6
397.376	30804
401.412	33819.5
405.446	34714.5
409.478	31751.9
413.508	26435.8
417.536	21645.8
421.562	17438.1
425.586	13350.6
429.609	9682.52
433.629	7467.45
437.648	5531.31
441.665	4391.09
445.68	3926.75
449.693	3891.29
453.704	4346.91
457.713	5536.92
461.721	7363.51
465.726	9334.78
469.73	10502.3
473.731	12517.6
477.731	15386.5
481.729	19731.2
485.725	21439.5
489.72	18751.5
493.712	12867.2
497.703	7905.56
501.691	4799.02
505.678	3041.01
509.663	1761.46
513.646	1289.47
517.627	1075.47
521.607	665.064
525.584	467.629
529.56	255.488
533.534	158.504
537.506	20.857
541.476	25.105
545.444	20.842
549.41	76.035
553.375	155.828
557.337	162.896
561.298	187.922
565.257	80.629
569.214	67.01
573.17	53.162
577.123	275.453
581.075	516.412
585.024	793.689
588.972	1059.59
592.918	1210.46
596.863	1970.37
600.805	2582.19
604.746	3275.15
608.685	3807.93
612.621	3948.22
616.557	3663.72
620.49	3253.74
624.421	2815.2
628.351	2510.13
632.279	1730.75
636.205	1125.66
640.129	901.123
644.051	1077.06
647.972	1165.43
651.89	785.533
655.807	782.688
659.722	430.943
663.636	202.543
667.547	232.025
671.457	12.523
675.365	5.188
679.271	88.479
683.175	192.965
687.077	216.219
690.978	219.434
694.877	338.436
698.774	196.518
702.669	311.736
706.562	445.721
710.454	445.176
714.344	163.289
718.232	117.572
722.118	222.984
726.002	249.268
729.885	336.947
733.766	144.393
737.645	277.406
741.522	231.383
745.397	462.439
749.271	491.268
753.143	475.969
757.013	615.441
760.881	486.055
764.748	564.564
768.613	511.541
772.476	485.943
776.337	562.783
780.196	450.125
784.054	620.875
787.91	601.25
791.764	632.846
795.616	484.086
799.467	540.752
803.316	318.549
807.163	490.604
811.008	543.512
814.851	335.926
818.693	306.311
822.533	485.268
826.371	343.297
830.208	369.838
834.042	256.406
837.875	156.559
841.706	104.902
845.536	279.947
849.363	77.703
853.189	102.859
857.013	371.117
860.836	221.289
864.656	186.869
868.475	243.525
872.292	35.203
876.108	62.365
879.922	62.404
883.733	22.633
887.544	94.496
891.352	36.994
895.159	79.441
898.964	213.143
902.767	5.764
906.568	165.295
910.368	111.496
914.166	306.336
917.962	67.041
921.757	67.855
925.55	19.363
929.341	204.025
933.13	44.123
936.918	35.172
940.703	111.938
944.488	110.01
948.27	21.381
952.051	190.445
955.83	189.926
959.607	55.543
963.383	5.99
967.156	131.473
970.928	284.002
974.699	297.24
978.468	303.082
982.234	220.344
986	648.686
989.763	993.209
993.525	970.555
997.285	1003.69
1001.04	1451.94
1004.8	1326.16
1008.55	1304.08
1012.31	1565.56
1016.06	1463.24
1019.81	1622.62
1023.56	1841.51
1027.31	1800.62
1031.05	1868.86
1034.79	2022.76
1038.53	1844.04
1042.27	1839.97
1046.01	1843.75
1049.75	1868.65
1053.48	1779.24
1057.22	1831.78
1060.95	1651.88
1064.68	1572.13
1068.4	1846.31
1072.13	1996.28
1075.86	2024.09
1079.58	2480.93
1083.3	2552.85
1087.02	2744.02
1090.74	2830.23
1094.45	2965.26
1098.17	3741.09
1101.88	3238.02
1105.59	3518.41
1109.3	3403.39
1113.01	3276.58
1116.71	3553.23
1120.42	3676.73
1124.12	3362.51
1127.82	3415.67
1131.52	3637.48
1135.22	3587.69
1138.91	3998.52
1142.61	3411.91
1146.3	3707.17
1149.99	3513.73
1153.68	3442.01
1157.37	3139.67
1161.06	3145.5
1164.74	3057.15
1168.42	2905.1
1172.1	2369.1
1175.78	2164.65
1179.46	2312.56
1183.14	1892.7
1186.81	1439.93
1190.48	1366.28
1194.15	931.146
1197.83	941.395
1201.49	712.414
1205.16	671.367
1208.82	363.52
1212.49	303.59
1216.15	273.852
1219.81	135.064
1223.46	82.215
1227.12	79.172
1230.78	128.625
1234.43	191.223
1238.08	168.16
1241.73	297.049
1245.38	74.473
1249.03	46.746
1252.67	69.787
1256.31	48.543
1259.95	195.754
1263.6	173.375
1267.23	96.611
1270.87	150.859
1274.51	220.963
1278.14	309.213
1281.77	157.111
1285.4	79.045
1289.03	17.412
1292.66	110.977
1296.28	306.799
1299.91	206.389
1303.53	159.721
1307.15	121.932
1310.77	492.012
1314.38	159.793
1318	365.189
1321.61	548.279
1325.23	526.619
1328.84	73.6
1332.45	300.062
1336.06	151.947
1339.66	140.906
1343.27	153.545
1346.87	132.902
1350.47	23.338
1354.07	289.791
1357.67	347.707
1361.26	263.758
1364.86	429.812
1368.45	389.322
1372.04	266.662
1375.63	308.355
1379.22	113.361
1382.81	731.793
1386.39	302.111
1389.98	284.373
1393.56	187
1397.14	386.648
1400.72	154.113
1404.3	151.055
1407.87	55.537
1411.45	235.248
1415.02	241.363
1418.59	298.195
1422.16	225.072
1425.73	279.941
1429.29	205.23
1432.86	0
