Measurement: Raman, 514 nm, depolarized, Raman Data Processed
Mineral: Heulandite-Ca
Rruff sample: R050017
Ideal chemistry: (Ca,Na,K)_5_(Si_27_Al_9_)O_72_26H_2_O
Locality: Poona, Maharashtra State, India
Source: Eugene Schlepp
Description: Single crystals
Measured chemistry: (Ca_.70_Na_.22_K_.02_[box]_0.06_)_5_(Si_0.77_Al_0.23_)_36_O_72_Â·24H_2_O
Pin_id: L00164
Orientation: Laser parallel to (1 0 1). Fiducial mark perpendicular to laser is parallel to b [0 1 0]
Raman shift (cm-1)	intensity
77.004	0
81.195	708.98
85.384	1231.22
89.571	2848.9
93.755	4390.91
97.938	4502.79
102.119	4711.23
106.298	5233.67
110.474	4576.06
114.649	4003.25
118.822	4422.53
122.993	4227.78
127.161	3593.42
131.328	3747.51
135.493	3823.58
139.655	3799.61
143.816	3883.67
147.975	5137.56
152.131	5982.89
156.286	6183.99
160.439	5834.41
164.589	4992.38
168.738	3627.42
172.885	2344.71
177.029	1959.56
181.172	1787.18
185.313	1444.63
189.452	1536.45
193.588	1897.41
197.723	1996.55
201.856	1307.11
205.987	1015.06
210.116	630.571
214.243	93.431
218.367	287.455
222.49	456.793
226.611	439.688
230.73	697.934
234.847	547.666
238.962	162.523
243.075	218.244
247.186	300.34
251.296	873.786
255.403	1248.74
259.508	1192.76
263.611	1102.48
267.712	1380.79
271.812	1509.14
275.909	1536.38
280.005	1547.19
284.098	1921.39
288.19	1901.73
292.279	1757.81
296.367	1749.82
300.452	1993.16
304.536	2015.44
308.618	1885.51
312.698	2093.3
316.776	2469.48
320.851	2608.87
324.925	2749.73
328.998	3077.21
333.068	3590.88
337.136	3748.02
341.202	3722.53
345.266	4160.59
349.329	4694.67
353.389	5168.62
357.448	5544.14
361.504	6300.23
365.559	7535.01
369.612	8504.38
373.663	9040.87
377.712	10158.2
381.758	11753.1
385.804	12908.8
389.847	14351.2
393.888	16996.2
397.927	20395.8
401.965	22609.3
406	22244.6
410.034	20876.8
414.065	18708.4
418.095	15502.5
422.123	11855.6
426.149	8985.68
430.173	7014.49
434.195	5611.34
438.215	3987.48
442.234	3247.08
446.25	3015.1
450.265	3155.71
454.277	3173.21
458.288	3987.4
462.297	5419.55
466.304	6879.99
470.309	7619.18
474.312	8669.72
478.313	11902.2
482.313	15844.9
486.31	16977.1
490.306	13728.8
494.299	9230.18
498.291	5991.83
502.281	3614.36
506.269	2115.06
510.256	1301.28
514.24	1000.87
518.222	746.051
522.203	493.261
526.182	264
530.159	210.134
534.134	207.031
538.107	235.674
542.078	20.538
546.047	107.386
550.015	58.415
553.98	31.182
557.944	13.706
561.906	129.194
565.866	98.265
569.824	22.056
573.781	146.394
577.735	93.911
581.688	158.946
585.639	397.91
589.588	675.57
593.535	1048.61
597.48	1389.2
601.423	1860.64
605.365	2556.85
609.304	2888.99
613.242	2835.07
617.178	2149.1
621.112	1734.07
625.045	1491.98
628.975	1143.81
632.904	654.546
636.831	384.146
640.756	332.601
644.679	420.888
648.6	298.004
652.519	179.946
656.437	14.697
660.353	59.773
664.267	81.512
668.179	60.087
672.089	72.323
675.998	69.716
679.904	28.072
683.809	133.585
687.712	96.775
691.614	107.199
695.513	60.705
699.411	136.564
703.306	249.513
707.2	221.174
711.092	110.412
714.983	2.63
718.871	89.329
722.758	209.723
726.643	194.509
730.526	130.521
734.407	63.332
738.287	66.552
742.164	178.475
746.04	197.549
749.914	190.588
753.787	180.023
757.657	227.192
761.526	420.298
765.393	518.061
769.258	570.103
773.121	509.189
776.982	492.244
780.842	571.856
784.7	597.624
788.556	543.73
792.411	444.488
796.263	410.942
800.114	430.524
803.963	374.802
807.81	317.943
811.656	327.633
815.499	211.295
819.341	168.109
823.181	143.302
827.019	123.569
830.856	53.731
834.691	38.929
838.524	27.106
842.355	47.95
846.185	25.052
850.012	120.451
853.838	103.517
857.662	58.245
861.485	31.887
865.305	41.041
869.124	68.226
872.941	94.993
876.757	34.955
880.57	41.38
884.382	28.599
888.192	0.342
892	39.424
895.807	111.461
899.612	81.865
903.415	10.71
907.216	32.335
911.016	1.13
914.814	47.635
918.61	96.997
922.404	3.086
926.196	38.576
929.987	70.437
933.776	52.304
937.564	147.768
941.349	158.96
945.133	113.885
948.915	122.565
952.696	99.034
956.474	116.299
960.251	212.371
964.027	253.276
967.8	256.979
971.572	268.438
975.342	237.27
979.11	303.716
982.877	395.415
986.641	582.73
990.404	573.111
994.166	529.559
997.925	586.607
1001.68	774.779
1005.44	737.652
1009.19	815.877
1012.95	937.821
1016.7	914.324
1020.45	892.766
1024.19	864.369
1027.94	915.897
1031.68	1002.3
1035.43	1033.43
1039.17	1041.92
1042.91	996.953
1046.64	994.816
1050.38	979.051
1054.11	903.304
1057.85	973.41
1061.58	1036.55
1065.31	1141.57
1069.03	1116.8
1072.76	1066
1076.48	1285.01
1080.2	1526.9
1083.92	1843.72
1087.64	2146.59
1091.36	2299.43
1095.08	2436.21
1098.79	2441.09
1102.5	2517.22
1106.21	2733.46
1109.92	2833.18
1113.63	2887.31
1117.33	2886.86
1121.04	2928.07
1124.74	2789.59
1128.44	2506.17
1132.14	2582.57
1135.83	2725.91
1139.53	2809.87
1143.22	2906.23
1146.91	2849.37
1150.6	2643.11
1154.29	2439.63
1157.98	2338.1
1161.66	2195.89
1165.35	2152.26
1169.03	2071.69
1172.71	2017.6
1176.39	1641.1
1180.06	1462.74
1183.74	1255.02
1187.41	1085.89
1191.08	838.444
1194.75	869.678
1198.42	699.767
1202.09	695.132
1205.75	479.976
1209.42	311.992
1213.08	165.866
1216.74	186.328
1220.4	124.846
1224.05	151.151
1227.71	235.919
1231.36	200.237
1235.01	142.474
1238.66	63.411
1242.31	40.812
1245.96	26.712
1249.6	59.097
1253.25	165.14
1256.89	181.158
1260.53	239.736
1264.17	209.92
1267.81	130.786
1271.44	101.898
1275.08	19.878
1278.71	9.823
1282.34	56.356
1285.97	139.598
1289.59	104.962
1293.22	159.081
1296.84	202.034
1300.46	74.867
1304.09	17.455
1307.7	41.054
1311.32	4.998
1314.94	37.917
1318.55	61.703
1322.16	82.318
1325.78	112.75
1329.38	133.953
1332.99	5.937
1336.6	2.656
1340.2	9.89
1343.81	40.653
1347.41	40.631
1351.01	17.187
1354.61	107.833
1358.2	84.736
1361.8	134.346
1365.39	179.496
1368.98	74.622
1372.57	2.603
1376.16	7.284
1379.75	19.398
1383.33	55.141
1386.91	78.541
1390.5	130.83
1394.08	186.511
1397.65	209.445
1401.23	253.341
1404.81	164.225
1408.38	182.035
1411.95	96.984
1415.53	65.532
1419.09	88.182
1422.66	90.874
1426.23	182.545
1429.79	214.204
1433.36	274.963
1436.92	448.11
1440.47	476.412
1444.03	348.021
1447.59	390.872
1451.14	362.86
1454.7	318.368
1458.25	333.242
1461.8	263.614
1465.35	244.71
1468.89	340.021
1472.44	380.453
1475.98	334.022
1479.53	295.088
1483.07	269.031
1486.61	261.729
1490.14	82.127
1493.68	71.374
1497.21	6.201
1500.75	4.182
1504.28	28.814
1507.81	17.77
1511.34	31.979
1514.86	209.892
1518.39	220.832
1521.91	250.148
