Measurement: Raman, 514 nm, depolarized, Raman Data Processed
Mineral: Heulandite-Ca
Rruff sample: R060465
Ideal chemistry: (Ca,Na,K)_5_(Si_27_Al_9_)O_72_26H_2_O
Locality: Garrawilla, near Gunnadah, New South Wales, Australia
Source: Michael Scott
Description: Orange fan of platy crystals
Measured chemistry: (Ca_0.66_Na_0.24_K_0.10_)_5_(Si_0.77_Al_0.23_)_36_O_72_Â·24H_2_O
Pin_id: M01254
Orientation: Laser parallel to c* (0 0 1). Fiducial mark perpendicular to laser is parallel to a [1 0 0]
Raman shift (cm-1)	intensity
238.972	0
242.63	253.9
246.286	212.24
249.941	830.752
253.594	680.256
257.245	465.107
260.895	858.104
264.544	133.701
268.191	325.338
271.836	336.758
275.48	374.982
279.122	463.406
282.763	383.207
286.402	387.19
290.04	360.176
293.676	196.522
297.31	350.578
300.943	42.1348
304.575	171.984
308.205	235.621
311.833	266.477
315.46	416.609
319.085	757.779
322.709	1090.06
326.331	1171.23
329.952	1558.6
333.571	1897.86
337.188	2060.35
340.804	2310.72
344.419	2563.86
348.032	2894.33
351.643	3483.76
355.253	4205.13
358.862	5081.09
362.468	6027.02
366.074	7070.77
369.677	8225.32
373.28	9498.65
376.88	10891.7
380.479	12701.6
384.077	15027.4
387.673	17882.5
391.268	21389.5
394.861	24675.1
398.452	28331.8
402.042	30853.5
405.631	31145.2
409.218	29037
412.803	25434.5
416.387	21572.2
419.969	17816.1
423.55	14687.7
427.129	11530.4
430.707	8874.85
434.283	6651.1
437.858	5277.31
441.431	4297.88
445.003	3899.21
448.573	3847.7
452.142	4683.32
455.709	5865.87
459.274	7622.32
462.838	9565.65
466.401	11074.8
469.962	12127.9
473.522	12873.6
477.08	15201.1
480.636	17902.3
484.191	19566.2
487.744	17811.8
491.296	13873
494.847	9547.89
498.396	5939.44
501.943	3741.67
505.489	2352.55
509.033	1619.08
512.576	1080.26
516.117	862.078
519.657	533.539
523.196	484.891
526.732	223.016
530.268	120.059
533.801	70.9551
537.334	35.1934
540.865	81.1641
544.394	54.5859
547.922	61.9512
551.448	158.852
554.973	45.4434
558.496	151.865
562.017	208.602
565.538	87.2656
569.056	108.74
572.574	2.98828
576.089	39.4688
579.604	279.143
583.116	531.369
586.627	884.256
590.137	1196.97
593.645	1531.24
597.152	2146.19
600.657	2844.2
604.161	3848.9
607.663	4340.49
611.164	4557.52
614.663	4599.27
618.161	3917.51
621.657	3249.19
625.152	2517.28
628.645	1750.77
632.137	1375.09
635.627	1199.13
639.116	957.682
642.603	953.748
646.089	796.387
649.573	738.519
653.056	588.104
656.537	657.123
660.017	484.586
663.495	450.478
666.972	281.516
670.447	235.258
673.921	318.201
677.393	237.197
680.864	312.625
684.334	392.143
687.802	384.824
691.268	434.533
694.733	263.682
698.196	254.805
701.658	519.146
705.119	117.613
708.578	458.416
712.035	423.527
715.491	236.24
718.946	345.158
722.399	215.01
725.85	116.158
729.301	306.275
732.749	22.3086
736.196	123.016
739.642	217.553
743.086	240.992
746.529	179.19
749.97	292.648
753.41	360.644
756.848	441.137
760.285	721.086
763.72	639.129
767.154	822.109
770.586	980.609
774.017	808.106
777.447	972.668
780.875	842.543
784.301	1079.83
787.726	960.537
791.15	732.91
794.572	924.387
797.992	731.834
801.412	643.197
804.829	641.408
808.245	839.207
811.66	406.715
815.073	801.981
818.485	680.129
821.896	672.109
825.304	403.356
828.712	601.604
832.118	547.578
835.522	378.481
838.925	62.9238
842.327	182.93
845.727	141.445
849.125	112.246
852.523	273.426
855.918	190.906
859.313	160.16
862.705	20.7695
866.097	237.691
869.487	60.9883
872.875	317.25
876.262	28.4219
879.647	42.4766
883.031	104.777
886.414	8.03125
889.795	26.6914
893.175	187.34
896.553	172.469
899.93	20.1992
903.305	194.281
906.679	63.9258
910.051	94.9961
913.422	2.36328
916.792	44.2852
920.16	50.2383
923.526	208.379
926.891	303.176
930.255	188.656
933.617	115.816
936.978	191.637
940.337	24.1328
943.695	315.367
947.052	284.363
950.407	242.121
953.76	195.648
957.112	249.93
960.463	94.9844
963.812	237.676
967.16	637.453
970.506	359.223
973.851	429.027
977.195	504.926
980.537	827.637
983.877	653.328
987.216	862.777
990.554	1056.87
993.89	962.457
997.225	877.269
1000.56	1203.18
1003.89	1097.75
1007.22	1334.03
1010.55	1338.8
1013.88	1530.82
1017.2	1401.91
1020.53	1279.04
1023.85	1256.24
1027.17	1347.07
1030.49	1368.75
1033.81	1349.73
1037.13	1286.77
1040.45	1375.09
1043.76	1318.79
1047.07	1396.9
1050.39	1284.62
1053.7	1217.12
1057.01	1068.21
1060.31	1125.63
1063.62	1307.16
1066.92	1476.03
1070.23	1309.89
1073.53	1521.79
1076.83	1460.69
1080.13	1902.71
1083.43	1957.84
1086.72	2034.66
1090.02	2273.04
1093.31	2588.84
1096.6	2481.07
1099.89	2560.98
1103.18	2985.93
1106.47	2868.05
1109.76	3145.12
1113.04	2973.85
1116.32	2884.52
1119.61	2923.2
1122.88	3026.47
1126.16	3054.4
1129.44	3181.92
1132.72	3018.48
1135.99	3134.39
1139.27	3035.37
1142.54	3277.88
1145.81	3262.77
1149.08	3221.18
1152.35	2964.95
1155.61	2927.59
1158.88	2781.38
1162.14	2660.61
1165.4	2710.58
1168.66	2533.93
1171.92	2356.41
1175.18	2263.09
1178.44	2346.81
1181.69	1939.11
1184.94	1828.44
1188.2	1698.92
1191.45	1462.53
1194.7	1034.27
1197.94	938.309
1201.19	900.152
1204.44	700.305
1207.68	590.363
1210.92	466.949
1214.16	454.43
1217.4	168.023
1220.64	1.71094
1223.88	253.488
1227.11	86.3633
1230.35	214.316
1233.58	91.1523
1236.81	120.062
1240.04	102.027
1243.27	38.2344
1246.49	219.566
1249.72	69.5547
1252.94	1.54688
1256.17	29.8789
1259.39	27.4648
1262.61	21.1328
1265.83	55.6055
1269.04	410.574
1272.26	90.3164
1275.47	90.5781
1278.69	134.273
1281.9	69.1211
1285.11	103.141
1288.32	132.137
1291.52	155.461
1294.73	80.4531
1297.93	40.7188
1301.14	244.797
1304.34	171.316
1307.54	386.219
1310.74	428.133
1313.93	390.121
1317.13	323.922
1320.33	509.676
1323.52	521.394
1326.71	186.051
1329.9	504.66
1333.09	419.203
1336.28	367.684
1339.46	529.102
1342.65	585.394
1345.83	681.723
1349.02	328.66
1352.2	490.449
1355.38	211.652
1358.55	397.969
1361.73	315.297
1364.91	360.699
1368.08	417.098
1371.25	126.512
1374.42	490.688
1377.59	21.2891
1380.76	56.2617
1383.93	19.625
1387.09	179.883
1390.26	160.074
1393.42	31.0547
1396.58	96.8633
1399.74	39.8516
1402.9	119.793
1406.06	687.871
1409.21	489.316
1412.37	323.644
1415.52	65.0117
1418.67	80.5625
1421.83	354.516
1424.97	138.383
1428.12	442.019
1431.27	121.746
1434.41	488.633
1437.56	549.07
1440.7	419.914
1443.84	282.398
1446.98	562.719
1450.12	587.856
1453.25	522.789
1456.39	638.539
1459.52	462.098
1462.66	353.555
1465.79	387.07
1468.92	609.711
1472.05	530.273
1475.17	395.812
1478.3	284.734
1481.42	493.09
1484.55	301.973
1487.67	473.059
1490.79	29.0195
1493.91	148.648
1497.03	107.449
1500.14	496.027
1503.26	70.207
1506.37	45.5039
1509.48	590.609
1512.59	349.551
1515.7	315.324
1518.81	356.629
1521.92	370.59
1525.02	510.652
1528.13	376.41
1531.23	371.492
1534.33	169.242
1537.43	394.762
1540.53	117.992
1543.63	130.297
1546.72	439.961
1549.82	111.922
1552.91	51.7539
1556	156.492
1559.09	43.5586
1562.18	0
