Measurement: Raman, 514 nm, depolarized, Raman Data Processed
Mineral: Heulandite-Ca
Rruff sample: R060465
Ideal chemistry: (Ca,Na,K)_5_(Si_27_Al_9_)O_72_26H_2_O
Locality: Garrawilla, near Gunnadah, New South Wales, Australia
Source: Michael Scott
Description: Orange fan of platy crystals
Measured chemistry: (Ca_0.66_Na_0.24_K_0.10_)_5_(Si_0.77_Al_0.23_)_36_O_72_Â·24H_2_O
Pin_id: M01887
Orientation: Laser parallel to b* (0 1 0). Fiducial mark perpendicular to laser is parallel to -c [0 0 -1]
Raman shift (cm-1)	intensity
82.003	0
86.961	125.709
91.916	1270.69
96.869	4517.9
101.819	8042.97
106.766	11709.6
111.711	14009.7
116.653	15710.1
121.592	16432.4
126.529	17569.9
131.464	18612.4
136.395	19616
141.324	20636.2
146.251	19510.7
151.175	16753.3
156.096	14289.7
161.015	12590.6
165.931	11049.8
170.844	9759.68
175.755	8363.61
180.663	7437.58
185.569	6620.01
190.472	5927.6
195.373	5541.07
200.27	5420.97
205.166	4505.18
210.058	4251.65
214.948	3834.03
219.836	3658
224.721	3549.62
229.603	3649.32
234.482	3605.65
239.359	3619.6
244.234	3897.14
249.106	4088.47
253.975	3777.6
258.841	3456.77
263.705	2576.69
268.567	1997.74
273.425	1315.33
278.281	1050.38
283.135	543.791
287.986	218.988
292.834	35.0391
297.68	192.988
302.523	108.869
307.363	420.246
312.201	341.156
317.037	475.557
321.869	367.715
326.699	59.3008
331.527	64.4766
336.351	22.668
341.174	38.7812
345.993	354.857
350.81	973.947
355.625	1282
360.436	1827.91
365.245	2614.56
370.052	3508.43
374.856	4504.08
379.657	6133.86
384.456	8050.72
389.252	10576
394.045	13667.9
398.836	16538.2
403.625	17694.2
408.41	15954.7
413.193	12814.1
417.974	9577.02
422.751	6769.31
427.527	4157.34
432.299	2518.01
437.069	1713.32
441.836	1084.53
446.601	1391.37
451.363	1508.24
456.123	2199.15
460.88	3553.68
465.634	5046.04
470.386	6623.25
475.135	8773.15
479.881	11265.5
484.625	11516.1
489.366	8623.12
494.105	4651.26
498.84	2267.37
503.574	874.356
508.305	264.084
513.033	310.35
517.758	13.5234
522.481	59.5898
527.201	203.4
531.919	54.3965
536.634	118.199
541.346	198.191
546.056	12.1406
550.763	96.2266
555.468	133.25
560.17	75.2324
564.869	353.297
569.566	197.959
574.26	537.096
578.952	450.111
583.641	793.791
588.327	1064.33
593.011	1438.33
597.692	2083.41
602.37	2838.89
607.046	3499.94
611.719	4129.48
616.39	3739.89
621.058	3191.99
625.723	2903.45
630.386	2379.21
635.046	1932.22
639.703	1990.45
644.358	1758.91
649.01	1687.25
653.66	1349.07
658.307	1163.72
662.951	917.465
667.593	709.756
672.232	743.344
676.869	658.721
681.503	510.346
686.134	164.596
690.763	338.307
695.389	395.832
700.013	308.16
704.633	346.621
709.252	468.34
713.867	477.227
718.48	555.412
723.091	567.789
727.698	426.945
732.304	691.812
736.906	455.215
741.506	394.279
746.103	606.199
750.698	530.422
755.29	632.881
759.88	690.332
764.467	962.018
769.051	1396.3
773.632	1277.31
778.211	1587.83
782.788	1836.4
787.362	1779.62
791.933	1787.21
796.501	1679.34
801.067	1309.05
805.631	1330.05
810.191	1428.83
814.749	1672.76
819.305	1742.23
823.858	1192.18
828.408	776.195
832.956	454.352
837.501	558.455
842.043	469.31
846.583	601.244
851.12	599.018
855.654	636.82
860.186	916.143
864.716	577.887
869.242	454.15
873.766	260.213
878.288	285.383
882.807	144.984
887.323	50.8867
891.837	92.6465
896.348	87.8125
900.856	230.137
905.362	187.695
909.865	17.8379
914.366	292.529
918.864	200.668
923.359	1.12891
927.852	87.1074
932.342	127.166
936.829	7.68164
941.314	14.6426
945.796	34.3125
950.276	77.6797
954.753	114.324
959.228	21.5605
963.699	83.082
968.169	152.328
972.635	86.9356
977.099	186.715
981.56	92.1016
986.019	310.891
990.475	333.545
994.929	300.074
999.38	683.488
1003.83	968.68
1008.27	214.777
1012.72	508.914
1017.16	305.906
1021.6	729.051
1026.03	820.117
1030.46	665.039
1034.89	639.988
1039.32	801.777
1043.74	724.301
1048.17	822.148
1052.59	817.328
1057	718.414
1061.42	677.891
1065.83	913.062
1070.24	989.648
1074.65	1036.37
1079.05	1119.55
1083.45	1699.32
1087.85	2232.65
1092.25	2290.59
1096.64	2442.12
1101.03	2202.78
1105.42	1802.79
1109.8	1915.43
1114.19	1905.41
1118.57	2143.74
1122.95	1828.17
1127.32	1692.25
1131.69	1979.26
1136.06	2002.44
1140.43	1966.85
1144.8	1592.48
1149.16	1381.3
1153.52	1478.38
1157.87	1454.7
1162.23	1495.45
1166.58	1365.85
1170.93	1166.55
1175.28	878.566
1179.62	964.898
1183.96	725.66
1188.3	692.844
1192.64	557.527
1196.97	320.516
1201.3	206.742
1205.63	58.7578
1209.95	67.9336
1214.28	215.711
1218.6	37.6211
1222.92	138.543
1227.23	42.457
1231.55	148.211
1235.86	109.988
1240.16	106.344
1244.47	244.953
1248.77	103.836
1253.07	242.445
1257.37	296.039
1261.66	113.938
1265.95	475.328
1270.24	274.535
1274.53	250.125
1278.81	377.93
1283.09	230.938
1287.37	274.133
1291.65	319.496
1295.92	328.902
1300.19	659.258
1304.46	748.027
1308.73	666.844
1312.99	742.938
1317.25	915.062
1321.51	734.348
1325.77	366.781
1330.02	607.367
1334.27	235.644
1338.52	527.562
1342.76	368.16
1347	363.164
1351.24	249.656
1355.48	339.266
1359.72	369.438
1363.95	58.6914
1368.18	181.137
1372.4	219.894
1376.63	23.0977
1380.85	402.856
1385.07	249.371
1389.29	59.4844
1393.5	59.7266
1397.71	244.582
1401.92	198.75
1406.13	102.996
1410.33	44.1094
1414.53	19.0391
1418.73	288.699
1422.92	389.438
1427.12	198.731
1431.31	434.723
1435.5	644.906
1439.68	1447.5
1443.87	1610.51
1448.05	1709.64
1452.22	1628.96
1456.4	1868.82
1460.57	1379.46
1464.74	1111.23
1468.91	929.207
1473.07	803.5
1477.23	843.867
1481.39	697.856
1485.55	563.543
1489.7	107.531
1493.86	167.945
1498.01	61.4258
1502.15	120.887
1506.3	52.6797
1510.44	233.531
1514.58	303.25
1518.71	142.609
1522.85	210.793
1526.98	368.758
1531.11	368.109
1535.23	564.219
1539.35	69.6836
1543.47	396.676
1547.59	488.297
1551.71	417.336
1555.82	352.379
1559.93	98.1094
