Measurement: Raman, 514 nm, depolarized, Raman Data Processed
Mineral: Heulandite-Ca
Rruff sample: R050097
Ideal chemistry: (Ca,Na,K)_5_(Si_27_Al_9_)O_72_26H_2_O
Locality: Rat's Nest Claim, Custer County, Idaho, USA
Source: John Cornish
Description: Pale pink coffin-shaped tabular single crystals
Measured chemistry: (Ca_0.66_Na_0.30_K_0.04_)_5_(Si_0.77_Al_0.23_)_36_O_72_Â·24H_2_O
Pin_id: L00100
Orientation: Laser parallel to a* (1 0 0). Fiducial mark perpendicular to laser is parallel to b [0 1 0]
Raman shift (cm-1)	intensity
120.596	0
125.519	132.512
130.439	469.588
135.356	874.644
140.271	1283.44
145.184	1394.72
150.094	1383.34
155.002	1442.16
159.908	1021.63
164.811	893.893
169.711	751.766
174.61	628.818
179.505	700.223
184.399	428.963
189.29	468.678
194.178	517.777
199.064	429.383
203.948	298.285
208.829	156.875
213.708	54.2285
218.585	242.199
223.459	127.596
228.33	11.748
233.199	97.375
238.066	154.736
242.93	266.012
247.792	285.639
252.651	269.922
257.508	442.135
262.363	209.984
267.215	325.766
272.064	322.809
276.912	251.602
281.756	154.228
286.598	290.025
291.438	194.723
296.276	222.719
301.111	255.941
305.943	478.789
310.773	322.641
315.601	450.898
320.426	256.035
325.248	515.074
330.068	610.879
334.886	551.996
339.701	702.26
344.514	918.338
349.324	821.523
354.132	1184.99
358.938	1399.26
363.741	1550.76
368.541	1723.78
373.339	2087.07
378.135	2343.71
382.928	2935.37
387.718	3489.99
392.506	4309.54
397.292	5282.66
402.075	5826.18
406.856	5424.59
411.634	4459.18
416.41	3455.17
421.183	2541.31
425.954	1944.24
430.722	1147
435.488	996.24
440.251	808.014
445.012	670.852
449.77	955.25
454.526	771.064
459.28	1402.64
464.03	1860.58
468.779	2169.72
473.525	3115.88
478.268	3963.8
483.009	3943.2
487.747	2799.86
492.483	1801.46
497.217	981.318
501.948	582.387
506.676	377.457
511.402	31.3828
516.125	13.2754
520.846	115.996
525.565	271.141
530.281	62.4863
534.994	76.1856
539.705	27.3203
544.413	339.809
549.119	124.752
553.822	141.967
558.523	128.57
563.222	121.129
567.917	90.959
572.611	218.711
577.302	149.435
581.99	410.01
586.676	82.9023
591.359	415.549
596.04	551.01
600.718	720.215
605.394	907.289
610.067	1052.95
614.737	1009.06
619.406	766.303
624.071	653.623
628.734	307.625
633.395	314.273
638.053	334.451
642.708	120.141
647.361	575.289
652.012	411.166
656.66	246.625
661.305	264.465
665.948	222.871
670.588	323.047
675.226	24.7793
679.861	45.3535
684.494	238.438
689.124	97.1055
693.752	149.496
698.377	39.6855
702.999	128.887
707.619	211.293
712.237	17.6602
716.852	189.734
721.464	112.535
726.074	110.586
730.681	132.818
735.286	107.451
739.888	278.859
744.488	264.842
749.085	325.652
753.68	210.805
758.272	428.572
762.861	378.875
767.448	610.518
772.033	442.185
776.614	670.973
781.194	558.176
785.77	566.441
790.345	585.857
794.916	261.664
799.485	403.91
804.052	508.477
808.616	379.562
813.177	263.19
817.736	164.992
822.292	357.418
826.846	342.144
831.397	242.492
835.945	184.16
840.491	490.871
845.035	149.25
849.576	69.6953
854.114	170.75
858.65	343.754
863.183	461.766
867.713	3.875
872.241	89.2891
876.767	24.4648
881.29	240.828
885.81	205.805
890.328	263.762
894.843	183.227
899.356	14.8594
903.866	302.125
908.373	153.418
912.878	148.148
917.38	321.328
921.88	424.012
926.377	117.848
930.872	86.1641
935.364	89.2812
939.853	65.5469
944.34	93.4336
948.824	29.6289
953.306	63.1484
957.785	159.414
962.261	126.184
966.735	93.6758
971.207	258.414
975.675	105.258
980.141	121.941
984.605	184.984
989.066	587.273
993.524	235.914
997.98	354.293
1002.43	445.07
1006.88	441.68
1011.33	531.672
1015.78	379.195
1020.22	765.879
1024.66	279.812
1029.1	380.723
1033.53	589.238
1037.97	381.547
1042.4	362.559
1046.82	418.094
1051.25	609.508
1055.67	402.887
1060.09	360.606
1064.51	378.121
1068.92	423.312
1073.33	543.273
1077.74	696.582
1082.15	473.418
1086.55	760.758
1090.95	519.547
1095.35	749.488
1099.75	664.871
1104.14	546.769
1108.53	754.156
1112.92	752.383
1117.31	871.379
1121.69	1635.44
1126.07	1223.21
1130.45	1101.95
1134.82	1034.01
1139.19	667.324
1143.57	623.574
1147.93	468.609
1152.3	654.449
1156.66	659.746
1161.02	557.426
1165.38	603.094
1169.73	158.973
1174.08	245.047
1178.43	299.801
1182.78	409.504
1187.12	368.734
1191.46	123.934
1195.8	41.9453
1200.14	277.492
1204.47	5.63672
1208.8	227.559
1213.13	364.098
1217.46	31.6836
1221.78	52.8398
1226.1	41.957
1230.42	99.0781
1234.73	88.8867
1239.04	178.883
1243.35	418.418
1247.66	58.332
1251.97	116.117
1256.27	8.92188
1260.57	62.4688
1264.86	76.6953
1269.16	287.684
1273.45	352.957
1277.74	226.809
1282.03	363.219
1286.31	42.7383
1290.59	204.168
1294.87	122.863
1299.14	170.523
1303.42	219.961
1307.69	27.3164
1311.95	223.445
1316.22	322.328
1320.48	122.039
1324.74	396.746
1329	220.457
1333.26	330.258
1337.51	495.367
1341.76	437.586
1346	335.184
1350.25	675.562
1354.49	264.43
1358.73	183.731
1362.96	437.973
1367.2	396.356
1371.43	180.512
1375.66	148.383
1379.88	7.18359
1384.11	46.7773
1388.33	463.898
1392.54	212.984
1396.76	183.852
1400.97	26.4336
1405.18	84.25
1409.39	392.594
1413.59	112.727
1417.8	290.617
1421.99	186.379
1426.19	264.234
1430.38	106.152
1434.58	316.266
1438.77	333.523
1442.95	489.535
1447.13	327.953
1451.32	475.559
1455.49	204.801
1459.67	342.914
1463.84	509.496
1468.01	134.519
1472.18	246.312
1476.35	357.961
1480.51	337.504
1484.67	50.582
1488.83	389.301
1492.98	393.977
1497.13	265.988
1501.28	160.856
1505.43	246.481
1509.57	385.703
1513.71	24.0312
1517.85	359.207
1521.99	357.652
1526.12	427.777
1530.25	343.106
1534.38	395.727
1538.5	309.504
1542.62	161.18
1546.74	130.215
1550.86	174.324
1554.98	430.223
1559.09	256.93
1563.2	0.503906
1567.31	213.961
1571.41	0
