Measurement: Raman, 514 nm, depolarized, Raman Data Processed
Mineral: Heulandite-Ca
Rruff sample: R050097
Ideal chemistry: (Ca,Na,K)_5_(Si_27_Al_9_)O_72_26H_2_O
Locality: Rat's Nest Claim, Custer County, Idaho, USA
Source: John Cornish
Description: Pale pink coffin-shaped tabular single crystals
Measured chemistry: (Ca_0.66_Na_0.30_K_0.04_)_5_(Si_0.77_Al_0.23_)_36_O_72_Â·24H_2_O
Pin_id: L00358
Orientation: Laser parallel to -b* (0 -1 0). Fiducial mark perpendicular to laser is parallel to c [0 0 1]
Raman shift (cm-1)	intensity
206.221	0
210.347	88.119
214.472	162.131
218.594	26.147
222.714	176.02
226.832	295.77
230.948	414.603
235.063	764.988
239.175	1231.42
243.286	1677.82
247.394	2124.8
251.501	2272.92
255.605	2209.9
259.708	1970.81
263.808	1581.01
267.907	1120.12
272.004	781.706
276.099	650.444
280.192	219.236
284.283	86.052
288.372	111.016
292.459	61.118
296.544	112.536
300.627	31.881
304.709	56.128
308.788	168.857
312.865	212.229
316.941	317.326
321.015	371.964
325.086	445.121
329.156	500.686
333.224	688.054
337.29	985.104
341.354	1114.58
345.416	1369.72
349.476	1680.58
353.534	2312.27
357.591	2757.91
361.645	3254.61
365.698	4065.14
369.748	4983.95
373.797	6031.76
377.844	6953.85
381.889	8416
385.932	10139.1
389.973	12202.1
394.012	14341.2
398.049	16588.4
402.084	18676.6
406.118	17654.2
410.15	15520.5
414.179	12797.1
418.207	10364.3
422.233	7931.45
426.257	6188.49
430.279	4672.92
434.299	3794.16
438.318	3040.23
442.334	2447.48
446.349	2153.51
450.361	2269.1
454.372	2543.6
458.381	3164.94
462.388	4201.93
466.394	5436.39
470.397	6404.07
474.398	7767.38
478.398	10224.7
482.396	12934
486.391	12957.6
490.385	10409.9
494.377	6667.46
498.368	3931.8
502.356	2377.2
506.342	1493.63
510.327	1027.09
514.31	486.789
518.291	584.874
522.27	483.975
526.247	276.54
530.222	264.185
534.196	227.247
538.167	181.688
542.137	141.711
546.105	110.618
550.071	76.65
554.035	150.706
557.998	133.999
561.958	32.367
565.917	23.372
569.874	95.891
573.829	115.542
577.782	249.37
581.733	203.76
585.683	391.239
589.63	662.521
593.576	999.823
597.52	1515.8
601.462	1957.44
605.402	2381.76
609.341	2708.81
613.277	2485.81
617.212	2071.75
621.145	1602.6
625.076	1311.22
629.006	1004.68
632.933	701.876
636.859	458.742
640.783	398.278
644.705	307.517
648.625	179.385
652.543	174.825
656.46	188.829
660.375	31.637
664.288	19.65
668.199	53.784
672.108	80.67
676.016	208.982
679.921	109.977
683.825	133.448
687.727	155.855
691.628	127.936
695.526	202.257
699.423	229.53
703.318	208.729
707.211	262.542
711.102	245.89
714.992	245.331
718.879	219.231
722.765	274.525
726.649	282.349
730.532	355.272
734.412	299.773
738.291	272.062
742.168	380.529
746.043	314.644
749.916	384.095
753.788	525.936
757.658	485.383
761.526	621.556
765.392	746.302
769.257	955.2
773.119	1175.82
776.98	1183.87
780.839	1434.87
784.697	1595.49
788.552	1378.41
792.406	1318.03
796.258	1244.47
800.108	1293.99
803.957	1106.66
807.804	1163.93
811.649	1119.92
815.492	1397.91
819.333	1349.43
823.173	1065.67
827.011	665.301
830.847	388.386
834.681	301.987
838.514	228.112
842.345	164.576
846.174	64.736
850.001	185.278
853.827	186.653
857.651	116.843
861.473	146.153
865.293	109.688
869.112	55.846
872.928	55.449
876.744	110.224
880.557	44.04
884.369	119.286
888.178	60.505
891.987	6.538
895.793	77.419
899.598	24.117
903.401	0.689
907.202	120.536
911.001	43.591
914.799	22.471
918.595	41.256
922.389	38.253
926.182	78.188
929.972	50.08
933.761	110.367
937.549	30.43
941.334	6.29
945.118	1.971
948.9	48.512
952.681	61.844
956.459	189.168
960.236	153.436
964.012	110.65
967.785	210.854
971.557	83.062
975.327	154.296
979.095	264.545
982.862	254.857
986.627	437.177
990.39	302.482
994.152	518.5
997.912	446.624
1001.67	661.42
1005.43	700.645
1009.18	761.179
1012.93	900.12
1016.68	781.513
1020.43	932.302
1024.18	1001.25
1027.93	1040.98
1031.67	1151.67
1035.42	1277.68
1039.16	1323.29
1042.9	1119.64
1046.63	1302.02
1050.37	1216.16
1054.11	1132.32
1057.84	1117.55
1061.57	1134.77
1065.3	1269.22
1069.03	1278.35
1072.75	1306.67
1076.47	1515.76
1080.2	1654.14
1083.92	1964.97
1087.64	2022.21
1091.36	2282.21
1095.07	2221.27
1098.79	2125.34
1102.5	2294.78
1106.21	2233.45
1109.92	2392.17
1113.62	2487.97
1117.33	2325.81
1121.04	2317.05
1124.74	2271.13
1128.44	2308.32
1132.14	2362.79
1135.83	2361.42
1139.53	2283.14
1143.22	2521.09
1146.92	2295.17
1150.61	2236.96
1154.3	2035.71
1157.98	2022.77
1161.67	1838.88
1165.35	1831.25
1169.04	1741.39
1172.72	1493.61
1176.4	1243.95
1180.07	1115.24
1183.75	938.055
1187.42	827.43
1191.1	758.438
1194.77	737.054
1198.44	552.842
1202.1	458.745
1205.77	237.801
1209.43	192.343
1213.1	147.282
1216.76	103.777
1220.42	280.685
1224.07	215.829
1227.73	156.059
1231.38	179.494
1235.04	172.134
1238.69	128.983
1242.34	45.965
1245.99	141.799
1249.63	14.555
1253.28	166.1
1256.92	136.867
1260.56	145.892
1264.2	80.171
1267.84	125.678
1271.48	453.484
1275.11	18.821
1278.74	90.646
1282.38	149.931
1286.01	57.647
1289.63	74.005
1293.26	133.938
1296.89	89.34
1300.51	104.3
1304.13	44.425
1307.75	23.614
1311.37	131.865
1314.99	210.673
1318.6	253.009
1322.22	357.492
1325.83	395.132
1329.44	294.931
1333.05	158.888
1336.66	19.533
1340.26	274.098
