Measurement: Raman, 514 nm, depolarized, Raman Data Processed
Mineral: Heulandite-Ca
Rruff sample: R040021
Ideal chemistry: (Ca,Na,K)_5_(Si_27_Al_9_)O_72_26H_2_O
Locality: Prospect Park, Patterson, Passaic County, New Jersey, USA
Source: University of Arizona Mineral Museum
Description: Group of colorless lamellar crystals
Measured chemistry: Na_0.25_(Na_0.55_K_0.45_)_Σ=1_(Ca_2.42_Na_0.85_Sr_0.73_)_Σ=4.00_(Si_27.60_Al_8.40_)_Σ=36_O_72_·24H_2_O ; H_2_O estimated by difference
Pin_id: m00146
Orientation: Laser parallel to [-1 0 -1]. Fiducial mark perpendicular to laser is parallel to b* (0 1 0)
Raman shift (cm-1)	intensity
105.908	0
110.082	316.926
114.254	1384.16
118.424	2187.83
122.592	3593.45
126.758	5262
130.922	6728.12
135.083	9077.44
139.243	10402
143.401	11403.4
147.557	11535.3
151.711	11029.9
155.863	10391.8
160.013	9753.91
164.161	8563.09
168.308	7499.32
172.452	6054.64
176.594	4284.46
180.734	3101.44
184.872	2561.07
189.008	2147.06
193.143	1964.16
197.275	1445.66
201.405	1125.02
205.534	738.91
209.66	206.344
213.784	487.168
217.907	712.713
222.027	687.871
226.146	480.859
230.263	116.828
234.377	366.889
238.49	1272.41
242.601	1860.07
246.709	2485.78
250.816	2949.19
254.921	2935.68
259.024	2683.12
263.125	2405.69
267.224	2143.33
271.321	1828.01
275.416	1891.43
279.51	1745.83
283.601	1610.31
287.69	1930.22
291.778	2030.96
295.863	2458.02
299.947	2467.7
304.029	2631.29
308.108	2856.63
312.186	3198.17
316.262	3634.64
320.336	4478.39
324.408	5029.99
328.478	5788.61
332.546	6306.02
336.612	6857.1
340.677	7292.01
344.739	7834.52
348.799	8490.21
352.858	9410.01
356.915	10879.4
360.969	12670.5
365.022	14352.8
369.073	16040.7
373.122	18117
377.169	20215.1
381.215	22172.4
385.258	24713
389.299	29173.4
393.339	34306.3
397.376	40555.6
401.412	44855.6
405.446	44591.6
409.478	40741
413.508	33864.4
417.536	26435.4
421.562	19615.9
425.586	15231
429.609	11173.2
433.629	8422.39
437.648	6917.33
441.665	5803.03
445.68	5487.8
449.693	5729.07
453.704	6678.59
457.713	8988.38
461.721	12378.9
465.726	15540.7
469.73	19147.9
473.731	23345.6
477.731	30209.1
481.729	32191
485.725	26835.8
489.72	18993.5
493.712	12357.6
497.703	7592.98
501.691	4860.02
505.678	3108.03
509.663	2028.6
513.646	1560.8
517.627	1173.64
521.607	646.229
525.584	379.885
529.56	243.217
533.534	162.239
537.506	103.953
541.476	87.688
545.444	13.75
549.41	36.625
553.375	189.779
557.337	71.807
561.298	20.439
565.257	138.258
569.214	155.48
573.17	171.314
577.123	358.093
581.075	571.691
585.024	1110.14
588.972	1827.52
592.918	2444.9
596.863	3460.36
600.805	4599.89
604.746	5939.44
608.685	6467.02
612.621	5981.6
616.557	5167.19
620.49	3794.78
624.421	3148.37
628.351	1978.93
632.279	1384.43
636.205	851.688
640.129	624.832
644.051	499.095
647.972	389.979
651.89	414.681
655.807	81.174
659.722	19.589
663.636	76.272
667.547	114.393
671.457	131.877
675.365	162.046
679.271	51.399
683.175	48.706
687.077	10.859
690.978	18.807
694.877	60.509
698.774	263.587
702.669	17.417
706.562	245.235
710.454	65.669
714.344	342.058
718.232	349.652
722.118	380.003
726.002	423.904
729.885	492.032
733.766	406.087
737.645	493.703
741.522	495.044
745.397	819.146
749.271	770.979
753.143	1026.05
757.013	1254.27
760.881	1356.11
764.748	1785.53
768.613	2243.01
772.476	2650.25
776.337	2675.81
780.196	3166.28
784.054	2869.74
787.91	2690.36
791.764	2301.57
795.616	2004.45
799.467	1726.35
803.316	1676.46
807.163	1391.05
811.008	1377.71
814.851	1434.87
818.693	1245.15
822.533	920.262
826.371	534.689
830.208	424.218
834.042	113.49
837.875	170.76
841.706	89.776
845.536	11.095
849.363	98.859
853.189	92.131
857.013	116.825
860.836	71.107
864.656	11.428
868.475	11.682
872.292	30.819
876.108	21.963
879.922	23.301
883.733	13.386
887.544	110.691
891.352	120.088
895.159	78.317
898.964	79.515
902.767	1.444
906.568	34.364
910.368	32.167
914.166	132.174
917.962	154.697
921.757	12.737
925.55	158.268
929.341	88.318
933.13	204.919
936.918	232.095
940.703	214.856
944.488	148.219
948.27	227.203
952.051	288.85
955.83	384.163
959.607	450.166
963.383	452.923
967.156	626.51
970.928	633.951
974.699	804.364
978.468	933.851
982.234	1176.27
986	1286.14
989.763	1198.21
993.525	1434.74
997.285	1580.12
1001.04	1953.98
1004.8	1967.13
1008.55	1913.15
1012.31	2113.82
1016.06	2274.34
1019.81	2321.16
1023.56	2452.81
1027.31	2341.03
1031.05	2401.49
1034.79	2483.29
1038.53	2503.35
1042.27	2593.7
1046.01	2546.37
1049.75	2618.28
1053.48	2712.26
1057.22	2716.47
1060.95	2685.47
1064.68	2835.97
1068.4	2812.74
1072.13	3240.8
1075.86	3661.34
1079.58	4250.69
1083.3	4678.48
1087.02	5240.43
1090.74	5523.51
1094.45	5829.17
1098.17	6060.91
1101.88	6279.33
1105.59	6087.75
1109.3	6419.93
1113.01	6313.01
1116.71	6324.63
1120.42	6413.88
1124.12	6643.65
1127.82	6192.32
1131.52	6296.08
1135.22	6228.38
1138.91	5671.35
1142.61	5513.39
1146.3	5358.89
1149.99	4931.76
1153.68	4611.84
1157.37	4269.68
1161.06	3880.89
1164.74	3666.23
1168.42	3308.93
1172.1	2962.53
1175.78	2730.8
1179.46	2362.15
1183.14	2051.55
1186.81	1722.15
1190.48	1530.84
1194.15	1227.05
1197.83	956.73
1201.49	1007.42
1205.16	604.206
1208.82	423.511
1212.49	347.615
1216.15	305.235
1219.81	188.566
1223.46	164.18
1227.12	229.683
1230.78	163.574
1234.43	117.834
1238.08	88.021
1241.73	61.257
1245.38	67.946
1249.03	130.096
1252.67	86.352
1256.31	58.785
1259.95	120.989
1263.6	151.408
1267.23	14.949
1270.87	27.115
1274.51	59
1278.14	124.889
1281.77	18.61
1285.4	5.916
1289.03	77.934
1292.66	27.326
1296.28	13.004
1299.91	66.08
1303.53	27.333
1307.15	82.63
1310.77	26.034
1314.38	154.897
1318	57.803
1321.61	5.892
1325.23	101.994
1328.84	12.5
1332.45	29.619
1336.06	55.68
1339.66	11.391
1343.27	68.533
1346.87	56.146
1350.47	95.215
1354.07	109.768
1357.67	76.553
1361.26	81.547
1364.86	82.609
1368.45	249.834
1372.04	256.953
1375.63	153.537
1379.22	300.543
1382.81	227.48
1386.39	222.346
1389.98	348.75
1393.56	303.904
1397.14	210.035
1400.72	292.6
1404.3	122.844
1407.87	137.898
1411.45	371.455
1415.02	148.604
1418.59	313.77
1422.16	209.76
1425.73	276.336
1429.29	207.795
1432.86	262.918
1436.42	342.258
1439.98	448.225
1443.54	745.535
1447.1	681.344
1450.66	836.033
1454.21	972.977
1457.77	797.26
1461.32	640.105
1464.87	517.666
1468.42	498.223
1471.96	450.91
1475.51	318.189
1479.06	231.848
1482.6	303.377
1486.14	286.352
1489.68	193.904
1493.22	296.201
1496.75	62.262
1500.29	164.502
1503.82	32.729
1507.35	12.869
1510.88	57.33
1514.41	92.607
1517.94	1.037
