Measurement: Raman, 514 nm, depolarized, Raman Data Processed
Mineral: Heulandite-Ca
Rruff sample: R050097
Ideal chemistry: (Ca,Na,K)_5_(Si_27_Al_9_)O_72_26H_2_O
Locality: Rat's Nest Claim, Custer County, Idaho, USA
Source: John Cornish
Description: Pale pink coffin-shaped tabular single crystals
Measured chemistry: (Ca_0.66_Na_0.30_K_0.04_)_5_(Si_0.77_Al_0.23_)_36_O_72_Â·24H_2_O
Pin_id: L00063
Orientation: Laser parallel to (-1 0 -1). Fiducial mark perpendicular to laser is parallel to -b [0 -1 0]
Raman shift (cm-1)	intensity
147.482	0
152.434	283.503
157.382	331.679
162.327	287.232
167.269	353.022
172.208	250.209
177.144	83.6728
182.076	281.116
187.006	452.794
191.932	575.995
196.855	561.755
201.775	466.779
206.692	54.3643
211.606	33.4014
216.517	138.938
221.425	106.603
226.329	21.5869
231.231	147.932
236.129	385.028
241.025	651.838
245.917	894.969
250.806	1019.3
255.692	968.978
260.576	870.835
265.456	605.089
270.333	605.662
275.207	350.022
280.077	234.609
284.945	166.739
289.81	118.742
294.672	157.636
299.53	256.799
304.386	439.873
309.239	555.684
314.088	865.941
318.935	1142
323.779	1352.8
328.619	1774.08
333.457	1865.77
338.291	2224.12
343.123	2493.13
347.952	2848.92
352.777	3360.31
357.6	4234.34
362.419	5089.94
367.236	6006.29
372.05	7121.64
376.86	8548.33
381.668	10218
386.473	12657.1
391.274	15341.8
396.073	18162.4
400.869	19815.5
405.662	19233.5
410.452	16602.1
415.239	13030
420.023	9842.13
424.804	7337.07
429.582	5448.72
434.358	4024.04
439.13	3130.76
443.899	2746.14
448.666	2581.19
453.429	2850.12
458.19	3664.01
462.948	4976.47
467.703	6385.3
472.455	8054.21
477.204	10076.1
481.95	11798.3
486.693	11268.4
491.433	8493.5
496.171	5086.66
500.906	2861.28
505.637	1448.82
510.366	810.482
515.092	678.729
519.815	444.081
524.535	324.562
529.253	108.337
533.967	108.999
538.679	68.7554
543.388	38.5102
548.094	40.1802
552.797	89.4531
557.497	153.553
562.195	164.96
566.889	45.5337
571.581	11.7207
576.27	49.7895
580.956	178.18
585.64	341.489
590.32	557.797
594.998	1026.17
599.673	1410.34
604.345	1771.4
609.014	2079.36
613.681	1923.2
618.344	1515.97
623.005	1095.78
627.664	821.476
632.319	539.188
636.971	405.769
641.621	255.143
646.268	100.394
650.913	66.4199
655.554	51.0962
660.193	78.4053
664.829	79.3467
669.462	0.993652
674.092	10.2993
678.72	42.7715
683.345	77.585
687.967	78.7568
692.587	28.8867
697.203	154.314
701.817	121.091
706.429	147.724
711.037	235.823
715.643	136.054
720.246	192.999
724.846	164.143
729.444	98.4204
734.039	189.605
738.631	147.592
743.221	228.699
747.808	295.342
752.392	375.614
756.973	411.657
761.552	589.24
766.128	726.293
770.702	840.496
775.272	988.21
779.84	1001.36
784.406	951.509
788.968	797.189
793.528	770.865
798.086	653.269
802.641	660.84
807.193	775.065
811.742	861.027
816.289	893.818
820.833	820.34
825.374	571.389
829.913	337.948
834.449	295.31
838.983	77.4092
843.514	71.0117
848.042	62.5864
852.568	22.1782
857.091	26.3223
861.611	45.9907
866.129	9.02002
870.644	37.4834
875.156	25.4805
879.666	8.07812
884.174	11.2319
888.678	28.9736
893.181	48.4658
897.68	23.7686
902.177	33.7305
906.672	7.51465
911.163	36.2334
915.653	41.4985
920.139	40.0825
924.623	24.7788
929.105	47.0278
933.584	2.72461
938.06	54.2315
942.534	33.9302
947.005	96.4092
951.474	70.7314
955.94	153.879
960.403	166.831
964.864	218.585
969.323	260.137
973.779	321.418
978.232	366.166
982.683	461.407
987.131	580.618
991.577	613.671
996.02	772.835
1000.46	816.453
1004.9	953.037
1009.34	929.47
1013.77	1006.93
1018.2	1063.2
1022.63	1107.45
1027.05	1039.07
1031.48	1095.16
1035.9	994.883
1040.32	1028.03
1044.73	1078.02
1049.14	1029.84
1053.56	1054.49
1057.96	979.143
1062.37	969.999
1066.77	1039.39
1071.17	1126.42
1075.57	1193.64
1079.97	1316.59
1084.36	1628.94
1088.75	1787.57
1093.14	1883.27
1097.53	2020.41
1101.91	2082.3
1106.29	2193.22
1110.67	2229.03
1115.05	2140.25
1119.42	2261.13
1123.79	2244.93
1128.16	2326.68
1132.53	2276.44
1136.89	2225.89
1141.25	2263.16
1145.61	2086.7
1149.97	2075.42
1154.32	2002.42
1158.67	1725.21
1163.02	1638.87
1167.37	1569.7
1171.71	1359.57
1176.06	1185.5
1180.4	1054.62
1184.73	894.917
1189.07	670.329
1193.4	584.921
1197.73	423.601
1202.06	327.814
1206.39	226.754
1210.71	181.562
1215.03	182.478
1219.35	51.5142
1223.66	15.3608
1227.98	71.9575
1232.29	46.8169
1236.6	36.8227
1240.9	41.0386
1245.21	37.9824
1249.51	83.8496
1253.81	4.45654
1258.11	24.2319
1262.4	166.833
1266.69	45.7383
1270.98	42.0674
1275.27	25.5288
1279.56	106.856
1283.84	58.4507
1288.12	30.5547
1292.4	24.4946
1296.68	116.262
1300.95	120.944
1305.22	39.5615
1309.49	81.1069
1313.76	148.494
1318.02	69.7183
1322.28	82.8086
1326.54	9.24316
1330.8	103.549
1335.06	114.116
1339.31	73.4312
1343.56	77.1665
1347.81	55.4214
1352.06	30.9487
1356.3	30.6816
1360.54	117.268
1364.78	150.384
1369.02	72.6221
1373.25	120.918
1377.48	128.501
1381.71	132.19
1385.94	95.5938
1390.17	83.9062
1394.39	39.4429
1398.61	116.683
1402.83	76.8833
1407.05	36.5537
1411.26	91.6206
1415.47	114.867
1419.68	41.168
1423.89	52.2832
1428.1	138.323
1432.3	148.189
1436.5	186.709
1440.7	198.48
1444.9	153.682
1449.09	122.492
1453.28	237.86
1457.47	142.069
1461.66	104.457
1465.85	31.6011
1470.03	107.197
1474.21	82.6235
1478.39	64.939
1482.56	108.038
1486.74	1.78564
1490.91	116.044
1495.08	7.15234
1499.25	130.486
1503.41	68.0161
1507.58	15.4815
1511.74	27.2319
1515.9	66.3096
1520.05	115.115
1524.21	92.8408
1528.36	72.375
1532.51	34.8994
1536.66	167.264
1540.81	123.276
