Measurement: Raman, 514 nm, depolarized, Raman Data Processed
Mineral: Hubnerite
Rruff sample: R050139
Ideal chemistry: Mn^2+^W^6+^O_4_
Locality: Pasto Bueno District, Pallasca Province, Ancash Department, Peru
Source: Dave Bunk Minerals
Description: Black tabular crystals associated with quartz
Measured chemistry: (Mn^2+^_0.79_Fe^2+^_0.20_)W_1.00_O4
Pin_id: L00188
Orientation: Laser parallel to -c* (0 0 -1). Fiducial mark perpendicular to laser is parallel to -a [-1 0 0]
Raman shift (cm-1)	intensity
88.728	0
92.926	313.111
97.121	422.267
101.314	176.687
105.505	98.306
109.694	22.764
113.881	604.733
118.066	469.89
122.249	1294.1
126.43	4269.5
130.608	5244.2
134.785	1719.13
138.959	591.812
143.131	280.298
147.301	139.512
151.469	64.188
155.635	26.99
159.799	205.762
163.961	534.464
168.121	658.966
172.278	273.247
176.434	129.47
180.587	103.647
184.739	216.422
188.888	231.347
193.035	330.973
197.18	398.58
201.324	712.242
205.465	1180.1
209.603	948.647
213.74	443.659
217.875	155.306
222.008	123.009
226.139	19.824
230.267	35.889
234.394	37.181
238.518	6.444
242.641	12.062
246.761	9.302
250.879	71.79
254.996	70.751
259.11	193.965
263.222	343.188
267.332	388.38
271.44	464.201
275.546	478.492
279.65	558.793
283.752	615.191
287.852	682.879
291.95	752.883
296.046	794.246
300.14	796.543
304.231	836.581
308.321	920.267
312.409	1041.4
316.495	1245.84
320.578	1513.71
324.66	1908.79
328.739	1875.77
332.817	1515.73
336.892	1316.41
340.966	1124.48
345.037	1070.15
349.107	1109.59
353.174	1155.53
357.24	1198.54
361.303	1123.6
365.365	982.026
369.424	993.297
373.481	904.962
377.537	896.375
381.59	946.872
385.642	951.969
389.691	1240.2
393.738	2041.84
397.784	3042.91
401.827	2305.48
405.868	1349.51
409.908	911.022
413.945	755.342
417.98	600.778
422.014	516.647
426.045	539.714
430.075	513.149
434.102	466.342
438.127	435.195
442.151	377.461
446.172	408.439
450.192	431.729
454.209	403.447
458.225	338.49
462.238	354.71
466.25	368.619
470.259	327
474.267	337.985
478.273	290.345
482.276	329.14
486.278	258.804
490.278	286.12
494.276	273.042
498.271	308.638
502.265	280.962
506.257	301.79
510.247	299.986
514.235	357.067
518.221	315.056
522.205	378.931
526.187	458.479
530.167	573.647
534.145	799.282
538.122	1048.82
542.096	1214.31
546.068	1150.42
550.039	948.596
554.007	706.856
557.973	439.301
561.938	264.939
565.901	192.771
569.861	187.783
573.82	135.021
577.777	84.946
581.732	39.073
585.685	30.47
589.636	14.736
593.585	26.509
597.532	20.213
601.477	1.296
605.42	13.326
609.361	1.871
613.301	14.314
617.238	21.266
621.174	51.088
625.108	21.587
629.039	12.812
632.969	45.453
636.897	15.101
640.823	39.06
644.747	19.807
648.669	34.97
652.589	101.348
656.508	136.977
660.424	222.157
664.339	332.499
668.251	557.453
672.162	645.779
676.071	800.473
679.978	838.332
683.883	892.318
687.786	1027.44
691.687	1211.72
695.586	1456.16
699.484	1580.79
703.379	1357.6
707.273	935.575
711.165	576.732
715.055	343.351
718.943	236.51
722.829	126.105
726.713	115.859
730.595	13.749
734.476	12.737
738.354	5.242
742.231	26.028
746.106	20.232
749.978	66.186
753.849	128.032
757.719	255.266
761.586	459.411
765.451	833.052
769.315	1260.67
773.177	1457.5
777.036	1394
780.894	1175.46
784.75	907.609
788.605	725.624
792.457	567.863
796.307	446.638
800.156	408.476
804.003	287.485
807.848	272.661
811.691	245.005
815.532	235.509
819.371	251.173
823.209	246.99
827.045	318.153
830.878	458.313
834.71	465.695
838.54	627.729
842.369	770.389
846.195	965.998
850.02	1194.34
853.842	1584.89
857.663	2261.47
861.482	3100.92
865.299	4376.03
869.115	6412.29
872.928	9813.17
876.74	16327.5
880.55	27661.8
884.358	38136
888.164	31610.9
891.969	18404.8
895.771	10288
899.572	5888.42
903.371	3584.58
907.168	2517.34
910.963	1704.57
914.757	1161.59
918.548	975.722
922.338	692.967
926.126	518.33
929.912	434.793
933.697	324.366
937.479	268.473
941.26	245.784
945.039	206.629
948.816	202.555
952.591	222.543
956.365	219.584
960.136	180.728
963.906	110.901
967.674	51.196
971.441	47.646
975.205	64.906
978.968	43.292
982.729	3.249
986.488	19.018
990.245	24.84
994	49.431
997.754	31.6
1001.51	42.693
1005.26	37.967
1009	12.974
1012.75	11.81
1016.5	22.81
1020.24	5.105
1023.98	57.861
1027.72	10.392
1031.46	70.151
1035.19	44.451
1038.93	37.367
1042.66	18.853
1046.39	15.916
1050.12	1.82
1053.85	89.744
1057.57	9.836
1061.29	62.704
1065.02	59.505
1068.74	112.999
1072.45	69.813
1076.17	158.322
1079.88	108.679
1083.6	149.031
1087.31	110.312
1091.02	78.685
1094.72	61.872
1098.43	83.13
1102.13	50.154
1105.84	92.235
1109.54	83.237
1113.24	101.135
1116.93	28.901
1120.63	50.718
1124.32	44.66
1128.01	49.147
1131.7	28.487
1135.39	75.632
1139.08	20.496
1142.76	95.678
1146.45	36.068
1150.13	36.814
1153.81	26.909
1157.48	12.104
1161.16	11.897
1164.84	16.792
1168.51	0.275
1172.18	21.847
1175.85	15.444
1179.52	73.632
1183.18	15.211
1186.85	59.604
1190.51	42.59
1194.17	38.536
1197.83	25.725
1201.48	11.32
1205.14	54.416
1208.79	43.932
1212.44	60.606
1216.09	27.24
1219.74	91.481
1223.39	50.698
1227.03	46.123
1230.68	92.131
1234.32	36.906
1237.96	49.03
1241.6	111.6
1245.23	84.098
1248.87	74.617
1252.5	79.968
1256.13	70.208
1259.76	65.007
1263.39	47.31
1267.02	40.431
1270.64	59.532
1274.26	44.408
1277.88	57.262
1281.5	62.79
1285.12	52.48
1288.74	65.988
1292.35	35.537
1295.96	36.45
1299.57	67.258
1303.18	63.37
1306.79	20.634
1310.4	57.255
1314	37.873
1317.6	11.443
1321.2	17.581
1324.8	4.811
1328.4	7.746
1331.99	34.313
1335.59	23.406
1339.18	48.555
1342.77	56.646
1346.36	42.529
1349.95	76.32
1353.53	26.038
1357.12	43.74
1360.7	45.453
1364.28	72.297
1367.86	22.877
1371.44	32.484
1375.01	41.026
1378.59	7.371
1382.16	73.232
1385.73	69.021
1389.3	24.734
1392.87	50.345
1396.43	98.725
1399.99	82.826
1403.56	51.33
1407.12	24.506
1410.68	30.182
1414.23	38.442
1417.79	54.99
1421.34	46.044
1424.9	72.705
1428.45	39.719
1431.99	41.916
1435.54	26.084
1439.09	20.592
1442.63	70.508
1446.17	1.325
1449.71	19.391
1453.26	43.811
1456.79	53.566
1460.33	40.269
1463.86	97.627
1467.39	76.367
1470.92	85.098
1474.45	93.147
1477.98	47.475
1481.51	6.699
1485.03	55.429
1488.56	53.366
1492.08	11.424
1495.6	81.048
1499.11	25.355
1502.63	66.122
1506.14	42.285
1509.66	45.989
1513.17	66.669
1516.68	51.207
1520.19	22.569
