Measurement: Raman, 514 nm, depolarized, Raman Data Processed
Mineral: Hubnerite
Rruff sample: R050069
Ideal chemistry: Mn^2+^W^6+^O_4_
Locality: Yaogangxian, Yizhang County, Hunan Province, China
Source: Rock Currier
Description: Black colored prismatic single crystal
Measured chemistry: (Mn_0.68_Fe_0.32_)W_1.00_O_4_
Pin_id: L00211
Orientation: Laser parallel to a* (1 0 0). Fiducial mark perpendicular to laser is parallel to -b [0 -1 0]
Raman shift (cm-1)	intensity
151.324	0
155.481	83.93
159.636	80.236
163.789	56.666
167.939	80.213
172.088	71.027
176.234	86.146
180.379	51.57
184.521	39.851
188.662	136.695
192.8	126.847
196.937	256.858
201.071	509.217
205.203	935.65
209.333	1246.84
213.462	1081.02
217.588	589.458
221.712	386.555
225.834	180.909
229.954	178.371
234.072	98.356
238.188	48.197
242.302	34.124
246.414	8.507
250.523	55.925
254.631	45.823
258.737	8.784
262.841	52.246
266.943	74.273
271.042	84.493
275.14	70.319
279.236	40.622
283.33	18.319
287.421	21.986
291.511	12.243
295.599	103.256
299.684	87.932
303.768	112.761
307.85	52.573
311.929	137.322
316.007	351.531
320.083	713.178
324.156	1296.87
328.228	1659.83
332.298	1568.92
336.365	1085.95
340.431	778.858
344.495	557.92
348.556	433.368
352.616	438.048
356.674	355.592
360.729	408.181
364.783	281.227
368.835	252.751
372.884	251.164
376.932	222.702
380.978	154.363
385.022	254.346
389.064	206.543
393.104	342.599
397.141	552.265
401.177	752.051
405.211	504.044
409.243	247.33
413.273	126.965
417.301	36.023
421.327	88.013
425.351	98.907
429.374	96.543
433.394	36.486
437.412	54.663
441.428	80.831
445.443	73.444
449.455	95.839
453.465	102.749
457.474	94.706
461.48	47.428
465.485	67.772
469.487	119.597
473.488	88.326
477.487	45.975
481.483	58.113
485.478	110.312
489.471	99.44
493.462	111.128
497.451	139.083
501.438	185.823
505.423	265.467
509.406	293.74
513.388	351.623
517.367	288.754
521.344	247.758
525.32	332.103
529.293	385.335
533.265	372.112
537.234	495.39
541.202	513.962
545.168	544.576
549.132	510.35
553.094	401.411
557.054	267.367
561.012	262.184
564.968	151.882
568.923	100.906
572.875	163.626
576.825	76.482
580.774	65.508
584.721	48.388
588.665	65.79
592.608	12.856
596.549	16.202
600.488	25.553
604.425	17.3
608.361	7.617
612.294	5.643
616.225	47.504
620.155	2.989
624.083	11.864
628.008	18.463
631.932	36.261
635.854	5.061
639.774	79.338
643.693	52.091
647.609	17.612
651.523	59.336
655.436	32.27
659.346	128.521
663.255	92.1
667.162	184.823
671.067	189.495
674.97	274.115
678.871	367.681
682.771	500.205
686.668	572.702
690.564	715.173
694.458	863.661
698.35	819.15
702.24	723.638
706.128	707.121
710.014	525.604
713.898	421.073
717.781	312.19
721.662	216.958
725.541	135.265
729.418	99.66
733.293	84.671
737.166	74.531
741.037	49.255
744.907	58.023
748.775	10.011
752.64	9.032
756.504	47.675
760.367	32.691
764.227	43.707
768.085	60.158
771.942	116.103
775.797	90.948
779.65	60.007
783.501	141.326
787.35	82.163
791.197	51.881
795.043	81.046
798.887	82.742
802.728	90.088
806.568	77.705
810.407	132.842
814.243	115.097
818.078	190.435
821.91	175.372
825.741	194.724
829.57	310.187
833.398	278.955
837.223	323.335
841.047	374.917
844.868	497.531
848.688	638.749
852.507	755.139
856.323	995.959
860.137	1404.81
863.95	1952.06
867.761	2731.46
871.57	4221.44
875.377	6665.69
879.183	10171.5
882.987	13201.7
886.788	12331.9
890.588	8112.35
894.387	4598.99
898.183	2627.34
901.978	1571.76
905.771	1082.03
909.562	757.634
913.351	534.344
917.138	401.126
920.924	267.005
924.708	232.939
928.49	162.923
932.27	196.957
936.048	153.037
939.825	105.166
943.6	87.349
947.373	96.586
951.144	75.875
954.914	79.766
958.682	95.144
962.448	20.554
966.212	32.635
969.974	0.846
973.735	19.641
977.494	4.14
981.251	30.697
985.006	19.301
988.76	28.864
992.512	21.555
996.262	54.841
1000.01	4.188
1003.76	13.653
1007.5	51.427
1011.24	6.501
1014.99	17.125
1018.72	50.894
1022.46	67.617
1026.2	66.264
1029.93	28.231
1033.66	2.037
1037.39	13.823
1041.12	36.545
1044.85	57.327
1048.58	55.089
1052.3	16.171
1056.02	84.034
1059.74	69.808
1063.46	67.697
1067.18	49.619
1070.89	92.33
1074.6	63.13
1078.32	103.818
1082.03	62.544
1085.73	59.205
1089.44	91.355
1093.14	61.62
1096.85	19.229
1100.55	60.268
1104.25	39.832
1107.94	55.361
1111.64	1.944
1115.33	13.527
1119.03	40.045
1122.72	40.654
1126.4	43.112
1130.09	22.476
1133.78	46.692
1137.46	39.676
1141.14	30.52
1144.82	51.959
1148.5	6.703
1152.18	80.027
1155.85	8.489
1159.53	58.047
1163.2	48.012
1166.87	61.734
1170.54	67.884
1174.2	29.092
1177.87	17.403
1181.53	70.997
1185.19	44.04
1188.85	23.519
1192.51	30.711
1196.16	1.183
1199.82	62.472
1203.47	56.208
1207.12	89.666
1210.77	37.797
1214.42	87.863
1218.07	75.909
1221.71	85.031
1225.35	49.941
1228.99	96.074
1232.63	59.168
1236.27	127.022
1239.91	122.733
1243.54	58.357
1247.17	69.28
1250.8	106.212
1254.43	66.71
1258.06	95.364
1261.69	85.564
1265.31	15.166
1268.93	112.14
1272.55	79.194
1276.17	70.207
1279.79	43.562
1283.4	39.391
1287.02	51.222
1290.63	34.983
1294.24	26.289
1297.85	9.896
1301.46	23.938
1305.06	26.085
1308.67	31.368
1312.27	27.442
1315.87	0.492
1319.47	1.548
1323.07	13.145
1326.66	26.017
1330.26	35.549
1333.85	64.299
1337.44	33.859
1341.03	52.636
1344.61	19.48
1348.2	70.704
1351.78	56.907
1355.37	58.862
1358.95	45.798
1362.53	18.818
1366.1	46.665
1369.68	55.544
1373.25	95.732
1376.82	75.484
1380.39	67.937
1383.96	85.069
1387.53	4.76
1391.1	64.637
1394.66	58.627
1398.22	7.783
1401.79	109.551
1405.34	46.827
1408.9	55.884
1412.46	110.178
1416.01	87.229
1419.56	66.463
1423.12	43.705
1426.66	75.723
1430.21	15.14
1433.76	47.503
1437.3	29.123
1440.85	39.54
1444.39	42.575
1447.93	86.325
1451.46	39.592
1455	70.7
1458.54	33.431
1462.07	10.79
1465.6	60.157
1469.13	48.187
1472.66	83.138
1476.18	71.248
1479.71	29.016
1483.23	70.498
1486.76	45.676
1490.28	40.478
1493.79	61.081
1497.31	51.363
1500.83	46.854
1504.34	25.882
1507.85	94.473
1511.36	3.033
1514.87	17.47
1518.38	17.159
