Measurement: Raman, 514 nm, ccw, Raman Data Processed
Mineral: Hubnerite
Rruff sample: R050139
Ideal chemistry: Mn^2+^W^6+^O_4_
Locality: Pasto Bueno District, Pallasca Province, Ancash Department, Peru
Source: Dave Bunk Minerals
Description: Black tabular crystals associated with quartz
Measured chemistry: (Mn^2+^_0.79_Fe^2+^_0.20_)W_1.00_O4
Pin_id: L00514
Orientation: Laser parallel to (1 0 1). Fiducial mark perpendicular to laser is parallel to b [0 1 0]
Raman shift (cm-1)	intensity
91.876	0
96.795	474.377
101.712	1074.13
106.626	2494.64
111.539	2631.15
116.449	6476.15
121.357	15784.7
126.263	12004.4
131.167	6454.77
136.068	5904.49
140.967	2071.89
145.865	392.575
150.759	347.099
155.652	188.542
160.543	142.795
165.431	106.577
170.317	173.364
175.201	10.8457
180.083	185.691
184.962	333.832
189.839	922.406
194.714	2265.8
199.587	6076.73
204.458	11928
209.326	16027
214.192	13206.6
219.056	5749.44
223.918	2215.07
228.777	841.597
233.634	388.115
238.489	115.987
243.342	61.2139
248.192	74.8135
253.04	513.779
257.886	1700.03
262.73	2756.15
267.571	2114.41
272.41	1040.47
277.247	328.512
282.081	131.026
286.913	204.572
291.743	280.822
296.571	207.744
301.396	541.309
306.219	764.679
311.04	1629.68
315.859	3483.16
320.675	6700.47
325.489	10103.6
330.3	10596.1
335.109	6662.59
339.916	3718.14
344.721	2102.72
349.523	1375.28
354.323	1110.77
359.121	857.996
363.916	728.415
368.709	792.481
373.5	316.328
378.288	19.9053
383.074	2.16309
387.858	9.97852
392.639	122.772
397.418	67.8769
402.194	181.391
406.969	36.6103
411.74	12.1826
416.51	30.4434
421.277	7.23535
426.042	180.737
430.804	199.774
435.564	359.438
440.322	576.247
445.077	861.438
449.83	1161.24
454.581	1250.75
459.329	1082.18
464.075	999.185
468.818	1084.02
473.559	951.165
478.298	960.568
483.034	850.233
487.768	940.163
492.499	956.362
497.228	970.837
501.955	908.595
506.679	1169.65
511.401	961
516.12	968.16
520.837	935.74
525.551	1050.09
530.264	748.381
534.973	893.203
539.68	514.796
544.385	793.263
549.088	698.352
553.788	687.694
558.485	500.217
563.18	574.852
567.873	459.896
572.563	551.114
577.251	148.775
581.936	23.3945
586.619	151.708
591.299	372.919
595.977	239.617
600.652	48.7744
605.325	20.5576
609.996	210.367
614.664	235.232
619.329	613.199
623.992	562.899
628.653	801.273
633.311	670.571
637.967	829.435
642.62	895.413
647.271	1183.82
651.919	1176.13
656.565	1503.48
661.208	2278.24
665.848	2845.78
670.487	4178.31
675.122	5642.21
679.756	7856.32
684.386	12525.2
689.014	18178.9
693.64	27408.5
698.263	35066.4
702.884	34328.6
707.502	26277.1
712.118	16593.7
716.731	10895.2
721.341	7334.31
725.949	5395.46
730.555	3840.67
735.158	2808.6
739.758	1894.62
744.356	1381.55
748.952	1174.14
753.544	1007.56
758.135	845.408
762.722	875.656
767.308	1166.28
771.89	1223.37
776.47	1475.8
781.048	1270.65
785.623	1258.86
790.195	1095.42
794.765	1139.35
799.332	1017.63
803.897	765.266
808.459	792.242
813.019	896.547
817.576	931.162
822.13	915.076
826.682	1101.28
831.232	1156.77
835.778	1293.77
840.322	1544.15
844.864	2233.86
849.403	3427.58
853.939	4779.64
858.473	6957.91
863.004	10570.2
867.533	16463.3
872.059	27574.5
876.582	52908.5
881.103	97931.3
885.621	125278
890.137	88957
894.65	43554.8
899.16	19197.7
903.668	10025.1
908.173	5887.18
912.675	3836.02
917.175	2486.55
921.673	1764.21
926.167	1377.55
930.659	964.996
935.149	770.971
939.635	782.621
944.12	620.557
948.601	402.93
953.08	472.701
957.556	433.848
962.03	394.334
966.501	65.1309
970.969	13.1465
975.435	124.158
979.898	154.783
984.358	85.957
988.816	235.512
993.271	23.1367
997.723	35.6914
1002.17	203.17
1006.62	159.127
1011.06	24.8535
1015.51	147.721
1019.95	58.4062
1024.38	48.3477
1028.82	129.728
1033.25	142.945
1037.67	265.498
1042.1	192.268
1046.52	9.79297
1050.94	109.982
1055.36	362.914
1059.78	351.231
1064.19	328.147
1068.6	155.223
1073.01	391.328
1077.41	464.795
1081.81	555.119
1086.21	244.541
1090.61	598.061
1095	372.356
1099.39	471.697
1103.78	480.666
1108.16	257.1
1112.55	260.994
1116.93	552.119
1121.31	612.627
1125.68	517.766
1130.05	276.5
1134.42	412.951
1138.79	219.75
1143.15	182.623
1147.51	185.115
1151.87	189.435
1156.22	159.566
1160.58	277.619
1164.93	56.6426
1169.28	251.289
1173.62	574.326
1177.96	256.897
1182.3	391.908
1186.64	515.912
1190.97	252.658
1195.3	511.932
1199.63	511.809
1203.96	245.119
1208.28	405.332
1212.6	362.029
1216.92	302.894
1221.23	178.794
1225.54	343.296
1229.85	255.702
1234.16	308.33
1238.46	246.102
1242.76	230.44
1247.06	282.198
1251.36	384.848
1255.65	431.207
1259.94	273.56
1264.22	267.613
1268.51	376.944
1272.79	147.634
1277.07	19.9463
1281.34	243.526
1285.62	57.7715
1289.89	97.7568
1294.15	236.087
1298.42	10.6846
1302.68	265.014
1306.94	276.22
1311.2	20.4756
1315.45	196.655
1319.7	170.865
1323.95	134.932
1328.19	24.0225
1332.44	209.816
1336.68	139.732
1340.91	207.889
1345.15	161.815
1349.38	162.233
1353.61	229.343
1357.83	347.348
1362.06	408.946
1366.28	266.813
1370.49	64.3701
1374.71	228.143
1378.92	190.516
1383.13	407.917
1387.33	137.864
1391.54	181.423
1395.74	213.444
1399.93	175.134
1404.13	168.004
1408.32	297.576
1412.51	129.15
1416.7	185.572
1420.88	157.037
1425.06	135.629
1429.24	203.574
1433.41	135.12
1437.59	65.6924
1441.76	27.7939
1445.92	77.0625
1450.09	185.715
1454.25	72.2734
1458.4	149.914
1462.56	66.2402
1466.71	196.844
1470.86	56.1768
1475.01	159.303
1479.15	158.504
1483.29	142.293
1487.43	234.619
1491.57	181.61
1495.7	242.233
1499.83	212.644
1503.96	147.567
1508.08	204.691
1512.2	96.043
1516.32	122.217
1520.43	350.154
1524.55	370.859
1528.66	444.346
1532.76	187.35
1536.87	415.369
1540.97	114.494
1545.07	203.397
1549.16	209.652
1553.25	155.69
1557.34	303.115
1561.43	304.254
1565.51	217.291
1569.59	135.012
1573.67	8.24609
1577.75	131.522
