Measurement: Raman, 514 nm, depolarized, Raman Data Processed
Mineral: Hubnerite
Rruff sample: R050139
Ideal chemistry: Mn^2+^W^6+^O_4_
Locality: Pasto Bueno District, Pallasca Province, Ancash Department, Peru
Source: Dave Bunk Minerals
Description: Black tabular crystals associated with quartz
Measured chemistry: (Mn^2+^_0.79_Fe^2+^_0.20_)W_1.00_O4
Pin_id: L00483
Orientation: Laser parallel to -a* (-1 0 0). Fiducial mark perpendicular to laser is parallel to -b [0 -1 0]
Raman shift (cm-1)	intensity
94.324	0
98.519	93.181
102.712	12.236
106.902	409.43
111.09	1031.06
115.277	581.668
119.461	428.003
123.643	1684.31
127.823	4361.51
132.001	3612.06
136.176	1326.72
140.35	832.947
144.521	476.177
148.691	351.171
152.858	214.863
157.024	45.648
161.187	28.427
165.348	104.986
169.507	162.738
173.664	243.328
177.819	257.455
181.971	288.447
186.122	398.925
190.271	416.848
194.417	560.145
198.562	828.044
202.704	1581.47
206.844	1991.32
210.983	1294.73
215.119	531.573
219.253	248.97
223.385	154.984
227.515	50.221
231.643	11.143
235.769	72.804
239.893	74.863
244.014	72.626
248.134	63.772
252.252	12.3
256.367	29.955
260.481	123.698
264.592	245.11
268.702	364.577
272.809	385.746
276.915	402.365
281.018	421.905
285.119	520.961
289.218	634.187
293.316	805.704
297.411	837.442
301.504	942.758
305.595	1077.26
309.684	1195.45
313.771	1600.73
317.856	2365.71
321.939	3637.82
326.02	4126.59
330.099	3483.3
334.176	2478.8
338.251	1899.15
342.323	1520.6
346.394	1275.44
350.463	1243.72
354.53	1188.61
358.594	1121.99
362.657	1037.79
366.718	1000.7
370.777	936.93
374.833	873.569
378.888	896.909
382.941	945.087
386.992	982.65
391.04	1198.62
395.087	1714.63
399.132	1865.23
403.174	1215.17
407.215	826.746
411.254	763.42
415.29	617.935
419.325	551.954
423.358	486.693
427.389	480.889
431.417	525.95
435.444	512.263
439.469	503.509
443.492	449.614
447.512	469.942
451.531	465.213
455.548	449.645
459.563	412.334
463.576	516.344
467.587	376.271
471.596	346.037
475.603	341.318
479.608	358.622
483.611	352.507
487.612	371.986
491.611	306.168
495.608	287.364
499.603	388.589
503.596	398.607
507.587	583.464
511.577	612.169
515.564	561.237
519.549	552.045
523.533	553.717
527.514	578.16
531.493	793.355
535.471	989.166
539.447	1161.02
543.42	1291.93
547.392	1185.16
551.362	903.05
555.329	695.229
559.295	405.68
563.259	297.451
567.221	202.315
571.181	152.981
575.139	188.099
579.095	67.302
583.049	14.327
587.002	12.473
590.952	19.43
594.9	17
598.847	8.832
602.792	16.137
606.734	13.458
610.675	65.238
614.614	29.025
618.55	42.038
622.485	32.545
626.418	2.75
630.349	20.265
634.279	43.233
638.206	4.113
642.131	18.159
646.055	29.639
649.976	17.856
653.896	54.664
657.814	87.878
661.729	104.739
665.643	201.045
669.555	261.417
673.465	357.859
677.373	537.373
681.28	610.977
685.184	804.683
689.087	1006.5
692.987	1359.44
696.886	1526.54
700.783	1408.78
704.677	1148.2
708.57	781.754
712.462	498.41
716.351	298.159
720.238	226.995
724.124	151.921
728.007	109.578
731.889	76.409
735.769	14.938
739.647	42.082
743.523	1.481
747.397	30.097
751.269	32.357
755.139	23.71
759.008	18.817
762.875	74.156
766.739	114.53
770.602	186.283
774.463	131.114
778.323	87.129
782.18	109.979
786.035	37.292
789.889	62.77
793.741	44.156
797.591	90.825
801.439	115.665
805.285	132.904
809.129	179.312
812.971	149.833
816.812	144.45
820.651	216.192
824.488	242.564
828.323	331.431
832.156	381.954
835.987	442.786
839.817	510.254
843.644	612.608
847.47	872.802
851.294	1165.48
855.116	1467.77
858.936	1963.54
862.755	2816.83
866.571	4060.12
870.386	6056.86
874.199	9762.2
878.01	16604.9
881.82	25826.8
885.627	25718.7
889.433	15910.6
893.236	8450.46
897.038	4546.31
900.838	2713.2
904.637	1743.91
908.433	1204.22
912.228	857.384
916.021	683.779
919.812	564.249
923.601	422.781
927.388	326.384
931.174	254.062
934.958	247.942
938.739	176.896
942.52	147.73
946.298	145.174
950.074	163.783
953.849	180.743
957.622	166.742
961.393	128.772
965.162	111.826
968.93	47.243
972.696	2.031
976.459	25.219
980.222	19.332
983.982	76.451
987.74	23.734
991.497	12.592
995.252	10.131
999.005	21.255
1002.76	6.623
1006.51	31.006
1010.25	28.737
1014	87.891
1017.74	19.611
1021.49	3.436
1025.23	0.552
1028.96	21.21
1032.7	59.14
1036.44	26.382
1040.17	44.147
1043.9	39.968
1047.63	58.472
1051.36	78.105
1055.09	42.123
1058.81	102.421
1062.54	87.493
1066.26	50.985
1069.97	86.883
1073.69	106.222
1077.41	39.28
1081.12	44.749
1084.84	56.534
1088.55	117.276
1092.25	94.254
1095.96	111.914
1099.67	54.02
1103.37	82.196
1107.07	73.28
1110.77	81.387
1114.47	42.938
1118.16	39.471
1121.86	29.439
1125.55	80.969
1129.24	76.156
1132.93	76.765
1136.62	79.172
1140.31	27.709
1143.99	28.856
1147.67	12.223
1151.35	19.248
1155.03	44.538
1158.71	0.981
1162.39	48.057
1166.06	22.437
1169.73	80.614
1173.4	41.119
1177.07	63.707
1180.74	14.375
1184.4	15.225
1188.07	18.724
1191.73	16.981
1195.39	44.126
1199.05	24.139
1202.7	42.003
1206.36	53.777
1210.01	49.64
1213.66	78.139
1217.31	28.581
1220.96	81.044
1224.6	35.97
1228.25	52.333
1231.89	89.745
1235.53	80.911
1239.17	121.985
1242.81	74.828
1246.44	20.687
1250.08	68.54
1253.71	82.308
1257.34	29.019
1260.97	31.629
1264.6	108.035
1268.22	52.867
1271.85	99.583
1275.47	73.271
1279.09	44.527
1282.71	37.555
1286.33	88.9
1289.94	57.891
1293.56	75.804
1297.17	77.068
1300.78	65.683
1304.39	41.141
1307.99	12.386
1311.6	2.996
1315.2	31.556
1318.8	33.855
1322.4	22.241
1326	55.46
1329.6	41.191
1333.19	8.338
1336.79	12.286
1340.38	32.742
1343.97	31.734
1347.56	38.532
1351.14	34.961
1354.73	62.551
1358.31	2.822
1361.89	41.584
1365.47	28.745
1369.05	57.929
1372.63	63.596
1376.2	15.073
1379.78	49.725
1383.35	30.028
1386.92	61.245
1390.49	67.437
1394.05	59.5
1397.62	77.067
1401.18	88.121
1404.74	32.863
1408.3	22.394
1411.86	6.884
1415.42	3.267
1418.97	83.529
1422.53	63.094
1426.08	64.846
1429.63	39.938
1433.18	91.125
1436.72	77.036
1440.27	64.504
1443.81	103.645
1447.36	5.856
1450.89	61.746
1454.43	61.919
1457.97	74.517
1461.51	42.445
1465.04	0.88
1468.57	39.955
1472.1	70.802
1475.63	78.125
1479.16	65.568
1482.68	98.996
1486.21	70.226
1489.73	51.161
1493.25	96.598
1496.77	14.833
1500.29	3.662
1503.8	57.314
1507.32	84.187
1510.83	5.985
1514.34	88.578
1517.85	56.803
1521.36	0
