Measurement: Raman, 514 nm, depolarized, Raman Data Processed
Mineral: Hubnerite
Rruff sample: R050069
Ideal chemistry: Mn^2+^W^6+^O_4_
Locality: Yaogangxian, Yizhang County, Hunan Province, China
Source: Rock Currier
Description: Black colored prismatic single crystal
Measured chemistry: (Mn_0.68_Fe_0.32_)W_1.00_O_4_
Pin_id: L00322
Orientation: Laser parallel to (-1 0 -1). Fiducial mark perpendicular to laser is parallel to -b [0 -1 0]
Raman shift (cm-1)	intensity
149.938	0
154.096	166.968
158.251	295.574
162.405	40.126
166.556	30.462
170.705	223.394
174.853	158.378
178.998	3.146
183.141	118.898
187.282	271.777
191.421	249.193
195.558	268.665
199.693	499.918
203.826	524.908
207.957	532.044
212.086	399.619
216.213	253.582
220.337	127.273
224.46	123.962
228.581	50.295
232.699	191.882
236.816	58.618
240.931	12.812
245.043	55.771
249.154	154.485
253.262	31.058
257.369	69.985
261.473	230.6
265.576	139.703
269.676	109.023
273.775	113.207
277.871	169.311
281.965	60.857
286.058	71.744
290.148	20.03
294.236	164.944
298.323	61.916
302.407	48.191
306.489	60.385
310.57	113.822
314.648	100.767
318.724	192.656
322.799	456.201
326.871	737.938
330.941	738.509
335.01	528.169
339.076	499.812
343.14	495.615
347.203	315.384
351.263	186.35
355.321	388.442
359.378	432.582
363.432	261.409
367.484	270.469
371.535	390.701
375.583	416.164
379.63	330.377
383.674	325.825
387.717	492.394
391.757	611.374
395.796	710.238
399.832	865.032
403.867	692.278
407.899	705.172
411.93	485.152
415.959	342.25
419.986	382.854
424.01	502.352
428.033	304.271
432.054	97.251
436.073	252.685
440.09	336.684
444.105	344.081
448.118	153.375
452.129	240.515
456.138	338.396
460.145	261.628
464.15	190.787
468.153	135.456
472.155	225.492
476.154	278.252
480.151	215.353
484.147	101.809
488.14	189.273
492.132	400.127
496.122	131.651
500.109	140.193
504.095	304.343
508.079	449.287
512.061	415.5
516.041	220.658
520.019	284.872
523.995	397.853
527.969	480.853
531.941	413.765
535.911	226.461
539.88	508.994
543.846	550.796
547.811	553.191
551.773	356.434
555.734	213.186
559.693	436.79
563.65	380.431
567.605	264.044
571.558	210.661
575.509	238.358
579.458	323.213
583.405	254.561
587.351	87.506
591.294	44.487
595.236	15.12
599.175	91.992
603.113	144.749
607.049	5.645
610.983	63.736
614.915	53.92
618.845	183.191
622.774	192.265
626.7	8
630.625	20.812
634.547	290.457
638.468	339.209
642.387	78.317
646.304	107.593
650.219	147.037
654.132	195.271
658.043	283.703
661.952	52.738
665.86	18.168
669.766	100.889
673.669	189.648
677.571	348.664
681.471	97.396
685.369	176.349
689.266	285.254
693.16	453.921
697.053	412.774
700.943	301.67
704.832	40.53
708.719	29.382
712.604	348.045
716.487	166.75
720.368	25.401
724.248	26.005
728.125	42.248
732.001	270.505
735.875	118.236
739.747	36.381
743.617	136.503
747.486	60.255
751.352	275.428
755.217	381.771
759.079	268.521
762.94	154.777
766.799	361.613
770.657	587.67
774.512	654.167
778.365	407.105
782.217	317.564
786.067	274.578
789.915	320.162
793.761	323.389
797.606	380.79
801.448	158.523
805.289	46.534
809.128	121.054
812.965	289.247
816.8	541.683
820.633	428.5
824.465	116.743
828.294	119.174
832.122	287.851
835.948	576.715
839.772	555.521
843.595	574.387
847.415	493.318
851.234	641.566
855.051	1070.63
858.866	1249.66
862.679	1773.42
866.491	2181.3
870.301	2890.72
874.109	4689.99
877.915	6957.73
881.719	9435.71
885.521	9399.73
889.322	6866.22
893.121	4188.05
896.918	3149.46
900.713	1889.76
904.506	1569.91
908.298	909.552
912.088	620.284
915.876	471.609
919.662	412.584
923.447	513.684
927.229	564.909
931.01	366.62
934.789	158.245
938.566	50.016
942.342	111.921
946.116	274.027
949.888	426.229
953.658	408.544
957.426	200.968
961.193	53.528
964.957	146.212
968.72	189.078
972.482	371.881
976.241	295.03
979.999	108.165
983.755	18.244
987.509	45.24
991.261	18.69
995.012	292.241
998.761	415.895
1002.51	289.545
1006.25	113.172
1010	112.966
1013.74	37.441
1017.48	231.389
1021.22	535.493
1024.95	414.472
1028.69	228.855
1032.42	45.57
1036.15	24.668
1039.88	130.589
1043.61	455.949
1047.34	610.939
1051.06	516.256
1054.78	356.614
1058.5	181.935
1062.22	12.311
1065.94	273.405
1069.65	518.948
1073.37	704.506
1077.08	600.099
1080.79	346.068
1084.5	175.792
1088.2	62.074
1091.91	228.097
1095.61	554.305
1099.31	600.376
1103.01	406.721
1106.71	262.795
1110.41	78.869
1114.1	45.101
1117.8	171.33
1121.49	337.37
1125.18	444.352
1128.86	416.259
1132.55	222.299
1136.23	112.982
1139.92	149.1
1143.6	75.56
1147.28	182.181
1150.95	349.748
1154.63	488.057
1158.3	563.651
1161.97	235.993
1165.64	70.89
1169.31	70.438
1172.98	76.902
1176.65	302.621
1180.31	531.67
1183.97	568.07
1187.63	513.895
1191.29	237.969
1194.95	91.873
1198.6	62.966
1202.26	171.671
1205.91	376.142
1209.56	400.676
1213.2	645.254
1216.85	448.629
1220.5	303.598
1224.14	108.938
1227.78	27.438
1231.42	135.015
1235.06	581.387
1238.69	639.446
1242.33	831.324
1245.96	603.151
1249.59	465.133
1253.22	357.41
1256.85	209.491
1260.48	200.99
1264.1	382.691
1267.72	463.733
1271.35	824.646
1274.97	875.221
1278.58	838.688
1282.2	658.523
1285.81	138.053
1289.43	107.872
1293.04	157.574
1296.65	157.043
1300.26	465.794
1303.86	533.964
1307.47	555.403
1311.07	352.412
1314.67	294.441
1318.27	121.422
1321.87	172.299
1325.46	51.213
1329.06	162.192
1332.65	316.119
1336.24	600.491
1339.83	704.774
1343.42	603.881
1347	468.251
1350.59	171.753
1354.17	64.517
1357.75	112.872
1361.33	33.532
1364.91	256.325
1368.49	648.23
1372.06	605.82
1375.63	357.414
1379.2	765.922
1382.78	703.676
1386.34	481.021
1389.91	238.201
1393.47	145.061
1397.04	160.797
1400.6	326.764
1404.16	396.264
1407.72	950.35
1411.27	831.801
1414.83	991.695
1418.38	919.867
1421.93	2049.47
1425.48	429.504
1429.03	169.158
1432.58	149.729
1436.12	169.01
1439.66	229.945
1443.21	787.801
1446.75	863.324
1450.29	1035.08
1453.82	850.682
1457.36	915.07
1460.89	688.855
1464.42	531.035
1467.95	253.287
1471.48	205.504
1475.01	165.457
1478.54	162.51
1482.06	551.709
1485.58	651.299
1489.1	974.713
1492.62	954.592
1496.14	938.264
1499.65	712.125
1503.17	678.082
1506.68	511.197
1510.19	683.234
1513.7	0.797
1517.21	0.217
