Measurement: Raman, 514 nm, depolarized, Raman Data Processed
Mineral: Hubnerite
Rruff sample: R050139
Ideal chemistry: Mn^2+^W^6+^O_4_
Locality: Pasto Bueno District, Pallasca Province, Ancash Department, Peru
Source: Dave Bunk Minerals
Description: Black tabular crystals associated with quartz
Measured chemistry: (Mn^2+^_0.79_Fe^2+^_0.20_)W_1.00_O4
Pin_id: L00536
Orientation: Laser parallel to -b* (0 -1 0). Fiducial mark perpendicular to laser is parallel to -c [0 0 -1]
Raman shift (cm-1)	intensity
88.728	0
92.926	340.854
97.121	340.047
101.314	117.19
105.505	105.706
109.694	355.249
113.881	857.646
118.066	654.105
122.249	1207.41
126.43	2894.94
130.608	3495.74
134.785	1499.54
138.959	896.738
143.131	677.256
147.301	265.258
151.469	18.732
155.635	8.532
159.799	23.699
163.961	161.184
168.121	237.528
172.278	166.635
176.434	166.949
180.587	129.913
184.739	176.937
188.888	576.96
193.035	462.34
197.18	598.311
201.324	1110.8
205.465	1628.72
209.603	1114.42
213.74	431.934
217.875	185.121
222.008	72.512
226.139	48.633
230.267	26.496
234.394	46.811
238.518	78.191
242.641	58.237
246.761	2.117
250.879	27.251
254.996	350.527
259.11	746.436
263.222	766.339
267.332	593.696
271.44	455.523
275.546	511.341
279.65	581.743
283.752	681.582
287.852	811.729
291.95	899.632
296.046	966.677
300.14	1009.99
304.231	1191.39
308.321	1340.05
312.409	1681.53
316.495	2126.07
320.578	3122.19
324.66	3923.13
328.739	4017.42
332.817	3105.42
336.892	2448.96
340.966	1929.31
345.037	1605.57
349.107	1455.82
353.174	1348.38
357.24	1334.1
361.303	1230.28
365.365	1131.46
369.424	1164.84
373.481	1137.71
377.537	1071.74
381.59	1022.54
385.642	1097.12
389.691	1268.33
393.738	1643.42
397.784	2132.63
401.827	1712.8
405.868	1197.23
409.908	943.817
413.945	780.725
417.98	734.023
422.014	676.668
426.045	670.67
430.075	665.211
434.102	624.499
438.127	603.061
442.151	590.972
446.172	609.469
450.192	549.896
454.209	601.619
458.225	484.214
462.238	487.184
466.25	488.391
470.259	458.014
474.267	430.707
478.273	386.651
482.276	394.384
486.278	393.569
490.278	422.357
494.276	383.807
498.271	350.969
502.265	332.914
506.257	367.686
510.247	384.567
514.235	371.467
518.221	368.903
522.205	363.683
526.187	370.458
530.167	413.84
534.145	558.798
538.122	589.552
542.096	652.977
546.068	585.581
550.039	478.534
554.007	314.471
557.973	249.657
561.938	230.104
565.901	109.89
569.861	153.768
573.82	51.669
577.777	69.067
581.732	96.521
585.685	20.14
589.636	37.384
593.585	25.05
597.532	18.211
601.477	0.612
605.42	6.762
609.361	50.067
613.301	2.004
617.238	21.67
621.174	35.481
625.108	20.059
629.039	14.689
632.969	24.158
636.897	51.028
640.823	3.289
644.747	23.915
648.669	17.94
652.589	46.769
656.508	113.482
660.424	104.628
664.339	126.355
668.251	270.611
672.162	372.774
676.071	553.134
679.978	748.927
683.883	1021.11
687.786	1498.37
691.687	2078.07
695.586	2618.28
699.484	2766.67
703.379	2400.3
707.273	1692.12
711.165	1121.09
715.055	803.178
718.943	551.106
722.829	311.435
726.713	255.029
730.595	127.361
734.476	78.951
738.354	27.474
742.231	43.125
746.106	66.121
749.978	22.116
753.849	24.389
757.719	42.09
761.586	143.969
765.451	165.712
769.315	239.406
773.177	284.957
777.036	240.304
780.894	193.313
784.75	141.165
788.605	157.996
792.457	108.959
796.307	170.061
800.156	94.401
804.003	103.909
807.848	131.584
811.691	141.427
815.532	146.436
819.371	170.608
823.209	211.935
827.045	242.6
830.878	355.235
834.71	401.037
838.54	572.342
842.369	686.774
846.195	899.113
850.02	1147.53
853.842	1548.23
857.663	2274.3
861.482	3282.31
865.299	4775.43
869.115	6784.33
872.928	10486.8
876.74	17579.1
880.55	28551.7
884.358	34546.1
888.164	25279.3
891.969	13992.3
895.771	7953.19
899.572	4505.7
903.371	2915.53
907.168	1997.25
910.963	1495.45
914.757	1009.54
918.548	777.236
922.338	573.954
926.126	449.958
929.912	455.985
933.697	302.11
937.479	351.343
941.26	285.662
945.039	217.112
948.816	210.051
952.591	251.883
956.365	219.424
960.136	126.135
963.906	122.896
967.674	56.798
971.441	66.958
975.205	3.99
978.968	42.084
982.729	17.22
986.488	36.246
990.245	18.63
994	17.184
997.754	3.698
1001.51	12.258
1005.26	24.132
1009	58.137
1012.75	8.615
1016.5	32.375
1020.24	9.476
1023.98	39.432
1027.72	21.396
1031.46	34.381
1035.19	10.161
1038.93	37.214
1042.66	31.895
1046.39	23.645
1050.12	104.66
1053.85	123.357
1057.57	113.106
1061.29	67.96
1065.02	76.407
1068.74	66.84
1072.45	93.292
1076.17	128.61
1079.88	116.912
1083.6	52.167
1087.31	63.374
1091.02	79.554
1094.72	23.658
1098.43	85.694
1102.13	55.672
1105.84	61.589
1109.54	115.45
1113.24	49.249
1116.93	34.997
1120.63	46.725
1124.32	75.122
1128.01	157.629
1131.7	92.095
1135.39	128.517
1139.08	30.139
1142.76	64.281
1146.45	106.33
1150.13	51.066
1153.81	94.968
1157.48	1.829
1161.16	73.418
1164.84	34.67
1168.51	15.195
1172.18	10.368
1175.85	4.781
1179.52	39.766
1183.18	32.173
1186.85	78.342
1190.51	79.086
1194.17	29.2
1197.83	0.095
1201.48	36.919
1205.14	37.933
1208.79	110.825
1212.44	71.592
1216.09	157.055
1219.74	48.243
1223.39	78.206
1227.03	82.024
1230.68	140.79
1234.32	114.775
1237.96	130.257
1241.6	103.42
1245.23	126.889
1248.87	125.202
1252.5	112.886
1256.13	117.433
1259.76	107.311
1263.39	81.93
1267.02	85.589
1270.64	136.299
1274.26	93.835
1277.88	83.074
1281.5	98.338
1285.12	127.94
1288.74	96.437
1292.35	17.313
1295.96	100.9
1299.57	75.224
1303.18	88.309
1306.79	24.991
1310.4	40.982
1314	14.802
1317.6	23.571
1321.2	35.221
1324.8	4.896
1328.4	7.189
1331.99	8.457
1335.59	33.963
1339.18	42.096
1342.77	28.437
1346.36	34.508
1349.95	35.338
1353.53	97.361
1357.12	8.591
1360.7	45.349
1364.28	64.631
1367.86	63.71
1371.44	56.234
1375.01	102.693
1378.59	58.424
1382.16	48.88
1385.73	37.224
1389.3	55.436
1392.87	25.433
1396.43	22.432
1399.99	118.176
1403.56	125.842
1407.12	94.293
1410.68	115.536
1414.23	45.163
1417.79	99.794
1421.34	48.82
1424.9	83.422
1428.45	63.961
1431.99	48.835
1435.54	48.023
1439.09	62.521
1442.63	3.911
1446.17	93.429
1449.71	13.233
1453.26	103.944
1456.79	104.321
1460.33	53.797
1463.86	103.939
1467.39	38.563
1470.92	47.75
1474.45	97.114
1477.98	13.062
1481.51	51.396
1485.03	62.967
1488.56	17.678
1492.08	42.1
1495.6	38.168
1499.11	127.373
1502.63	80.673
1506.14	43.899
1509.66	55.374
1513.17	9.087
1516.68	0
