Measurement: Raman, 514 nm, ccw, Raman Data Processed
Mineral: Hubnerite
Rruff sample: R050139
Ideal chemistry: Mn^2+^W^6+^O_4_
Locality: Pasto Bueno District, Pallasca Province, Ancash Department, Peru
Source: Dave Bunk Minerals
Description: Black tabular crystals associated with quartz
Measured chemistry: (Mn^2+^_0.79_Fe^2+^_0.20_)W_1.00_O4
Pin_id: L00514
Orientation: Laser parallel to (1 0 1). Fiducial mark perpendicular to laser is parallel to b [0 1 0]
Raman shift (cm-1)	intensity
96.795	0
101.712	256.424
106.626	1336.79
111.539	1763.43
116.449	6883.72
121.357	9086.78
126.263	8333.39
131.167	11524.4
136.068	9516.97
140.967	2440.39
145.865	209.322
150.759	53.0586
155.652	101.97
160.543	388.885
165.431	708.438
170.317	797.414
175.201	822.707
180.083	710.651
184.962	638.157
189.839	634.488
194.714	1400.79
199.587	3017.95
204.458	5796.26
209.326	7785.36
214.192	6452.97
219.056	2791.08
223.918	1073.15
228.777	120.633
233.634	86.6992
238.489	144.95
243.342	207.542
248.192	259.738
253.04	102.858
257.886	463.008
262.73	1213.91
267.571	1429.18
272.41	977.273
277.247	332.904
282.081	257.108
286.913	544.796
291.743	1077.59
296.571	2099.53
301.396	1477.46
306.219	792.449
311.04	1091.21
315.859	2291.24
320.675	4221.2
325.489	6274.5
330.3	6431.04
335.109	4344.67
339.916	2801.23
344.721	2686.92
349.523	3671.35
354.323	4308.68
359.121	4669.88
363.916	3606.95
368.709	2095.88
373.5	1487.65
378.288	1078.17
383.074	913.136
387.858	1216.18
392.639	2565.71
397.418	3671.87
402.194	3159.57
406.969	992.906
411.74	354.774
416.51	259.398
421.277	64.7627
426.042	105.564
430.804	45.5537
435.564	39.7705
440.322	169.447
445.077	302.375
449.83	406.417
454.581	366.284
459.329	426.422
464.075	223.483
468.818	343.81
473.559	303.609
478.298	400.95
483.034	254.372
487.768	572.558
492.499	700.527
497.228	823.286
501.955	1052.58
506.679	2015.58
511.401	2568.4
516.12	2982.19
520.837	1777.34
525.551	1538.38
530.264	1863.94
534.973	2788.75
539.68	3599.13
544.385	4299.31
549.088	3821.52
553.788	2866.09
558.485	1990.42
563.18	1301.06
567.873	796.014
572.563	602.606
577.251	356.774
581.936	70.8203
586.619	405.858
591.299	292.362
595.977	75.6514
600.652	128.516
605.325	91.5557
609.996	24.0488
614.664	86.9736
619.329	119.339
623.992	227.853
628.653	501.846
633.311	588.174
637.967	524.862
642.62	870.932
647.271	1017.4
651.919	1633.3
656.565	2162.64
661.208	3224.44
665.848	4993.72
670.487	7187.48
675.122	9191.74
679.756	10018.5
684.386	9885.73
689.014	10629.5
693.64	13103.8
698.263	14907.6
702.884	14486
707.502	10512.4
712.118	6627.87
716.731	4295.42
721.341	2940.82
725.949	2043.17
730.555	1339.95
735.158	776.953
739.758	525.166
744.356	391.475
748.952	58.7461
753.544	98.6055
758.135	9.29492
762.722	194.481
767.308	857.629
771.89	1182.93
776.47	1178.18
781.048	1419.4
785.623	985.518
790.195	789.535
794.765	583.453
799.332	623.266
803.897	669.977
808.459	573.584
813.019	578.084
817.576	777.262
822.13	813.752
826.682	989.387
831.232	1032.96
835.778	1278.88
840.322	1702.07
844.864	2414.23
849.403	3371.9
853.939	4879.22
858.473	7287.38
863.004	10894.1
867.533	17050
872.059	28899.4
876.582	54074.7
881.103	96133.7
885.621	116876
890.137	79737.9
894.65	37937.9
899.16	17541.3
903.668	9193.77
908.173	5401.32
912.675	3336.01
917.175	2253.63
921.673	1454.95
926.167	1051.53
930.659	1070.94
935.149	764.567
939.635	748.064
944.12	638.878
948.601	752.268
953.08	527.049
957.556	530.993
962.03	249.314
966.501	189.15
970.969	156.38
975.435	333.688
979.898	2.12402
984.358	122.603
988.816	232.207
993.271	43.5127
997.723	204.185
1002.17	186.528
1006.62	97.5283
1011.06	49.7353
1015.51	6.34766
1019.95	221.367
1024.38	51.9922
1028.82	7.36426
1033.25	177.023
1037.67	143.408
1042.1	230.291
1046.52	85.2881
1050.94	379.739
1055.36	109.285
1059.78	141.721
1064.19	444.996
1068.6	351.31
1073.01	360.229
1077.41	492.782
1081.81	331.467
1086.21	418.765
1090.61	315.991
1095	381.108
1099.39	331.946
1103.78	297.274
1108.16	410.357
1112.55	320.624
1116.93	386.427
1121.31	375.318
1125.68	374.453
1130.05	195.672
1134.42	298.95
1138.79	168.401
1143.15	327.82
1147.51	156.226
1151.87	102.477
1156.22	154.381
1160.58	212.848
1164.93	122.09
1169.28	206.465
1173.62	389.191
1177.96	166.049
1182.3	237.58
1186.64	219.166
1190.97	419.28
1195.3	280.162
1199.63	369.594
1203.96	172.845
1208.28	336.91
1212.6	190.938
1216.92	357.791
1221.23	67.6934
1225.54	60.7744
1229.85	116.826
1234.16	413.247
1238.46	120.34
1242.76	46.4883
1247.06	172.349
1251.36	241.668
1255.65	31.9111
1259.94	338.084
1264.22	209.298
1268.51	207.562
1272.79	61.3438
1277.07	14.6396
1281.34	81.1943
1285.62	251.461
1289.89	21.1406
1294.15	185.061
1298.42	209.569
1302.68	243.103
1306.94	240.836
1311.2	7.50586
1315.45	118.583
1319.7	163.189
1323.95	405.688
1328.19	435.704
1332.44	515.543
1336.68	262.425
1340.91	498.057
1345.15	201.288
1349.38	297.31
1353.61	306.697
1357.83	254.71
1362.06	402.384
1366.28	402.459
1370.49	308.342
1374.71	231.616
1378.92	119.097
1383.13	76.2852
1387.33	213.241
1391.54	332.228
1395.74	203.09
1399.93	463.794
1404.13	316.228
1408.32	116.332
1412.51	115.488
1416.7	27.9092
1420.88	45.0185
1425.06	8.69727
1429.24	166.953
1433.41	209.713
1437.59	261.298
1441.76	23.4727
1445.92	306.981
1450.09	131.694
1454.25	131.617
1458.4	160.438
1462.56	48.6797
1466.71	87.4512
1470.86	48.874
1475.01	56.6435
1479.15	236.155
1483.29	214.473
1487.43	83.8252
1491.57	175.894
1495.7	316.681
1499.83	273.057
1503.96	75.8125
1508.08	289.467
1512.2	341.002
1516.32	407.031
1520.43	77.9062
1524.55	409.602
1528.66	160.172
1532.76	240.179
1536.87	237.789
1540.97	0.540039
1545.07	0.027344
1549.16	284.876
1553.25	356.783
1557.34	263.12
1561.43	11.9316
1565.51	180.134
1569.59	288.615
1573.67	49.2539
1577.75	0.794922
