Measurement: Raman, 514 nm, depolarized, Raman Data Processed
Mineral: Hubnerite
Rruff sample: R050069
Ideal chemistry: Mn^2+^W^6+^O_4_
Locality: Yaogangxian, Yizhang County, Hunan Province, China
Source: Rock Currier
Description: Black colored prismatic single crystal
Measured chemistry: (Mn_0.68_Fe_0.32_)W_1.00_O_4_
Pin_id: L00506
Orientation: Laser parallel to b* (0 1 0). Fiducial mark perpendicular to laser is parallel to c [0 0 1]
Raman shift (cm-1)	intensity
149.938	0
154.096	116.16
158.251	173.725
162.405	100.836
166.556	216.711
170.705	174.115
174.853	98.9365
178.998	69.6465
183.141	1.54785
187.282	164.932
191.421	183.876
195.558	318.729
199.693	358.129
203.826	598.498
207.957	659.165
212.086	559.045
216.213	352.631
220.337	292.62
224.46	204.358
228.581	172.477
232.699	119.881
236.816	86.3901
240.931	44.2002
245.043	17.7515
249.154	75.4463
253.262	58.2124
257.369	120.694
261.473	114.234
265.576	248.023
269.676	159.191
273.775	29.8364
277.871	113.179
281.965	39.2065
286.058	0.049316
290.148	6.34814
294.236	14.1977
298.323	20.9683
302.407	-7.4621
306.489	11.8467
310.57	61.1025
314.648	151.52
318.724	412.043
322.799	667.353
326.871	962.973
330.941	1074.81
335.01	1043.02
339.076	909.873
343.14	622.345
347.203	539.386
351.263	491.884
355.321	353.102
359.378	415.596
363.432	392.809
367.484	360.991
371.535	351.854
375.583	334.443
379.63	410.141
383.674	322.665
387.717	397.884
391.757	396.834
395.796	514.168
399.832	795.805
403.867	653.23
407.899	516.327
411.93	384.391
415.959	306.736
419.986	280.039
424.01	199.417
428.033	235.839
432.054	227.785
436.073	162.367
440.09	299.894
444.105	167.209
448.118	244.384
452.129	123.835
456.138	225.001
460.145	104.186
464.15	164.493
468.153	79.7881
472.155	87.9014
476.154	160.556
480.151	134.023
484.147	157.396
488.14	149.481
492.132	148.235
496.122	168.886
500.109	147.952
504.095	188.216
508.079	141.712
512.061	125.31
516.041	112.561
520.019	144.015
523.995	173.982
527.969	199.563
531.941	168.996
535.911	170.107
539.88	186.178
543.846	209.681
547.811	248.244
551.773	188.903
555.734	101.523
559.693	95.0488
563.65	111.375
567.605	107.486
571.558	102.957
575.509	117.091
579.458	73.5203
583.405	1.18945
587.351	78.8235
591.294	21.718
595.236	6.61011
599.175	9.7356
603.113	2.26636
607.049	12.0435
610.983	46.5832
614.915	25.3772
618.845	5.93799
622.774	42.2114
626.7	8.71582
630.625	2.17676
634.547	6.10205
638.468	60.3745
642.387	57.5972
646.304	4.73047
650.219	63.0835
654.132	19.6631
658.043	63.937
661.952	119.467
665.86	80.5518
669.766	177.526
673.669	230.335
677.571	292.479
681.471	364.92
685.369	473.705
689.266	653.866
693.16	857.46
697.053	985.51
700.943	947.472
704.832	867.672
708.719	714.874
712.604	544.479
716.487	364.94
720.368	292.315
724.248	191.606
728.125	133.051
732.001	118.511
735.875	80.9126
739.747	31.6274
743.617	43.8452
747.486	26.894
751.352	11.8535
755.217	55.6509
759.079	35.6973
762.94	52.2759
766.799	84.8174
770.657	40.5244
774.512	91.7036
778.365	46.666
782.217	110.788
786.067	29.8506
789.915	55.7451
793.761	5.37891
797.606	29.229
801.448	101.828
805.289	96.6548
809.128	84.7461
812.965	122.904
816.8	115.109
820.633	171.536
824.465	100.611
828.294	184.351
832.122	213.894
835.948	235.415
839.772	294.321
843.595	391.993
847.415	516.776
851.234	640.436
855.051	888.49
858.866	1157.42
862.679	1663.52
866.491	2468.56
870.301	3541.3
874.109	5229.48
877.915	7681.72
881.719	10023.7
885.521	9814.08
889.322	7284.5
893.121	4725.3
896.918	2844.91
900.713	1771.54
904.506	1196.28
908.298	946.123
912.088	619.062
915.876	462.077
919.662	326.181
923.447	333.395
927.229	200.684
931.01	236.051
934.789	183.507
938.566	106.022
942.342	160.592
946.116	44.2251
949.888	71.8574
953.658	72.6792
957.426	25.5015
961.193	70.2803
964.957	74.0981
968.72	4.04932
972.482	62.0508
976.241	75.4263
979.999	22.6562
983.755	12.7456
987.509	10.1616
991.261	26.1357
995.012	9.73779
998.761	13.2642
1002.51	10.9458
1006.25	31.6152
1010	55.439
1013.74	82.0269
1017.48	0.052246
1021.22	4.03369
1024.95	15.3628
1028.69	24.0859
1032.42	35.1313
1036.15	75.3472
1039.88	17.4033
1043.61	70.4805
1047.34	36.5571
1051.06	45.7876
1054.78	53.103
1058.5	114.573
1062.22	82.8042
1065.94	77.2622
1069.65	66.481
1073.37	94.5464
1077.08	95.5933
1080.79	72.6245
1084.5	75.6357
1088.2	68.6255
1091.91	121.591
1095.61	89.5288
1099.31	73.4399
1103.01	45.312
1106.71	38.8074
1110.41	43.3784
1114.1	44.1357
1117.8	55.9487
1121.49	16.6865
1125.18	61.5425
1128.86	103.088
1132.55	74.6489
1136.23	71.2715
1139.92	71.6748
1143.6	59.8667
1147.28	2.16455
1150.95	84.1465
1154.63	54.3892
1158.3	0.882813
1161.97	37.3096
1165.64	21.1953
1169.31	24.8
1172.98	3.59448
1176.65	50.6748
1180.31	44.3513
1183.97	69.5613
1187.63	132.637
1191.29	59.917
1194.95	55.1838
1198.6	28.9985
1202.26	23.8
1205.91	87.115
1209.56	36.8926
1213.2	69.9912
1216.85	103.244
1220.5	72.0833
1224.14	145.5
1227.78	102.976
1231.42	81.2283
1235.06	141.301
1238.69	149.117
1242.33	158.833
1245.96	155.944
1249.59	162.098
1253.22	28.5991
1256.85	81.9304
1260.48	53.1838
1264.1	76.3501
1267.72	77.136
1271.35	164.814
1274.97	127.731
1278.58	72.4836
1282.2	139.133
1285.81	28.8247
1289.43	34.0718
1293.04	48.6787
1296.65	42.9263
1300.26	86.4131
1303.86	2.05225
1307.47	5.88037
1311.07	13.728
1314.67	40.4688
1318.27	20.3525
1321.87	36.8467
1325.46	54.3398
1329.06	23.6148
1332.65	18.0444
1336.24	35.1919
1339.83	102.361
1343.42	60.1899
1347	72.9956
1350.59	5.78418
1354.17	19.6211
1357.75	38.9482
1361.33	79.5293
1364.91	76.1479
1368.49	27.8296
1372.06	94.4307
1375.63	84.1279
1379.2	98.1392
1382.78	65.3037
1386.34	86.2129
1389.91	99.5264
1393.47	110.954
1397.04	74.5527
1400.6	65.167
1404.16	88.1494
1407.72	113.324
1411.27	92.4898
1414.83	88.061
1418.38	79.0366
1421.93	113.888
1425.48	114.71
1429.03	83.3076
1432.58	36.5601
1436.12	64.7632
1439.66	34.2466
1443.21	38.5259
1446.75	90.209
1450.29	115.981
1453.82	109.953
1457.36	75.6856
1460.89	69.3149
1464.42	65.7061
1467.95	77.8291
1471.48	68.3457
1475.01	65.7041
1478.54	63.5933
1482.06	114.912
1485.58	48.6738
1489.1	2.53223
1492.62	47.9678
1496.14	14.5073
1499.65	45.3423
1503.17	64.4736
1506.68	45.8906
1510.19	74.7412
1513.7	79.5176
1517.21	1.53564
1520.72	0
