Measurement: Raman, 514 nm, depolarized, Raman Data Processed
Mineral: Hubnerite
Rruff sample: R050139
Ideal chemistry: Mn^2+^W^6+^O_4_
Locality: Pasto Bueno District, Pallasca Province, Ancash Department, Peru
Source: Dave Bunk Minerals
Description: Black tabular crystals associated with quartz
Measured chemistry: (Mn^2+^_0.79_Fe^2+^_0.20_)W_1.00_O4
Pin_id: L00514
Orientation: Laser parallel to (1 0 1). Fiducial mark perpendicular to laser is parallel to b [0 1 0]
Raman shift (cm-1)	intensity
99.254	0
104.169	166.954
109.083	2098.8
113.994	2989.11
118.903	7888.54
123.81	15262.7
128.715	15646.1
133.618	19127.2
138.518	9046.22
143.416	1579.67
148.312	464.911
153.206	2.27246
158.098	51.2393
162.987	52.2422
167.874	256.022
172.759	605.602
177.642	531.141
182.523	438.749
187.401	593.433
192.277	1506.65
197.151	2688.42
202.023	6400.77
206.892	10422.5
211.76	11164.7
216.624	6227.27
221.487	2375.02
226.348	766.884
231.206	154.835
236.062	98.8301
240.916	155.2
245.767	177.075
250.616	123.985
255.463	300.022
260.308	1055.37
265.151	1506.51
269.991	1153.88
274.829	751.691
279.664	301.291
284.498	136.142
289.329	525.869
294.157	981.482
298.984	1289.59
303.808	1050.73
308.63	1252.93
313.45	2568.65
318.267	5035.71
323.082	9082.31
327.895	11142.7
332.705	9123.05
337.513	5445.38
342.319	3568.56
347.122	2736.6
351.923	2981.48
356.722	3046.18
361.519	2711.69
366.313	2146
371.105	1660.1
375.894	998.981
380.681	1042.42
385.466	1236.93
390.249	2683.5
395.029	5558.09
399.806	6827.21
404.582	4402.72
409.355	1428.89
414.126	562.698
418.894	308.146
423.66	16.7686
428.423	20.4434
433.185	16.1992
437.944	106.418
442.7	346.473
447.454	324.919
452.206	435.815
456.955	579.255
461.702	468.144
466.447	186.759
471.189	367.836
475.929	468.181
480.666	388.169
485.401	524.815
490.134	708.119
494.864	508.089
499.592	805.736
504.317	1432.07
509.04	1726.1
513.761	2081.84
518.479	1845.3
523.195	1982.53
527.908	2361.86
532.619	3419.04
537.327	5073.75
542.033	6587.57
546.737	7050.88
551.438	5598.74
556.137	3862.21
560.833	2337.95
565.527	1636.06
570.218	763.027
574.907	253.294
579.594	112.812
584.278	74.6309
588.959	47.7344
593.638	227.138
598.315	211.62
602.989	19.626
607.661	94.5723
612.33	197.282
616.997	254.202
621.661	271.787
626.323	393.247
630.982	324.018
635.639	474.224
640.294	561.974
644.946	705.454
649.595	872.729
654.242	1209.45
658.886	1580.63
663.528	3273.31
668.168	4338.5
672.805	6183.22
677.439	7441.45
682.071	8537.23
686.701	10075.6
691.328	13581.5
695.952	17445
700.574	18990.1
705.193	15822.9
709.81	10578.6
714.424	6704.74
719.036	4240.04
723.646	2830.29
728.252	2017.01
732.857	1389.1
737.458	904.797
742.058	563.527
746.654	343.595
751.248	117.99
755.84	54.0986
760.429	110.754
765.015	430.509
769.599	884.805
774.181	1153.15
778.759	1111.67
783.336	1007.25
787.909	982.906
792.48	891.611
797.049	919.364
801.615	866.165
806.179	895.011
810.739	998.898
815.298	1010.82
819.853	1157.78
824.407	1445.77
828.957	1556.82
833.505	1787.8
838.051	2553.83
842.593	3213.9
847.134	4182.02
851.671	5984.45
856.206	8506.92
860.739	12728.4
865.269	19149.9
869.796	30675.9
874.321	54627
878.843	104385
883.362	163898
887.879	154217
892.393	82910.1
896.905	37192.2
901.414	18392.3
905.921	10559.2
910.424	5874.01
914.926	4120.06
919.424	2754.95
923.92	1937.14
928.414	1411.93
932.904	1259.21
937.392	867.343
941.878	721.829
946.361	569.639
950.841	679.749
955.318	747.146
959.793	509.797
964.265	370.673
968.735	174.74
973.202	19.9756
977.666	89.3799
982.128	153.15
986.587	127.519
991.044	11.292
995.497	74.1572
999.948	10.0986
1004.4	161.394
1008.84	35.4795
1013.29	47.7959
1017.73	57.7402
1022.16	44.0078
1026.6	89.082
1031.03	94.2637
1035.46	136.12
1039.89	71.9853
1044.31	107.091
1048.73	118.09
1053.15	109.294
1057.57	277.188
1061.98	249.796
1066.39	361.056
1070.8	356.066
1075.21	300.647
1079.61	632.295
1084.01	330.772
1088.41	265.248
1092.8	479.747
1097.2	481.955
1101.59	287.808
1105.97	387.882
1110.36	380.389
1114.74	354.185
1119.12	296.708
1123.49	247.803
1127.87	325.113
1132.24	119.556
1136.6	152.085
1140.97	30.3115
1145.33	277.453
1149.69	139.695
1154.05	100.888
1158.4	136.718
1162.75	83.0859
1167.1	55.1406
1171.45	4.24414
1175.79	84.9414
1180.13	158.042
1184.47	142.282
1188.81	189.94
1193.14	40.3525
1197.47	53.6201
1201.79	133.828
1206.12	75.6055
1210.44	60.169
1214.76	1.47559
1219.07	318.938
1223.39	153.754
1227.7	252.585
1232.01	40.251
1236.31	218.85
1240.61	10.4033
1244.91	213.759
1249.21	265.716
1253.5	6.9834
1257.79	109.347
1262.08	45.0029
1266.37	162.019
1270.65	167.75
1274.93	173.252
1279.21	49.581
1283.48	29.6172
1287.75	87.0283
1292.02	447.967
1296.29	164.606
1300.55	36.875
1304.81	147.648
1309.07	211.543
1313.32	254.394
1317.58	92.459
1321.83	293.424
1326.07	43.5645
1330.32	176.758
1334.56	141.671
1338.8	259.338
1343.03	141.877
1347.26	190.188
1351.49	132.171
1355.72	86.0518
1359.94	300.506
1364.17	5.10352
1368.38	200.12
1372.6	15.1123
1376.81	0.401367
1381.02	11.1465
1385.23	59.8145
1389.44	61.6553
1393.64	141.806
1397.84	64.9365
1402.03	8.49512
1406.23	174.289
1410.42	67.9336
1414.61	88.1953
1418.79	67.7481
1422.97	160.074
1427.15	126.143
1431.33	145.553
1435.5	99.4082
1439.67	99.0156
1443.84	190.606
1448.01	227.572
1452.17	43.2256
1456.33	218.53
1460.48	343.674
1464.64	209.779
1468.79	178.455
1472.94	2.65918
1477.08	34.2012
1481.22	87.0772
1485.36	334.068
1489.5	364.125
1493.63	451.854
1497.76	206.737
1501.89	443.322
1506.02	155.69
1510.14	258.306
1514.26	278.168
1518.38	225.927
1522.49	381.663
1526.6	386.578
1530.71	289.275
1534.82	208.32
1538.92	158.654
1543.02	145.83
1547.11	16.376
1551.21	231.06
1555.3	313.397
1559.39	380.848
1563.47	37.7031
1567.55	380.315
1571.63	128.803
1575.71	215.758
