Measurement: Raman, 514 nm, depolarized, Raman Data Processed
Mineral: Hubnerite
Rruff sample: R050069
Ideal chemistry: Mn^2+^W^6+^O_4_
Locality: Yaogangxian, Yizhang County, Hunan Province, China
Source: Rock Currier
Description: Black colored prismatic single crystal
Measured chemistry: (Mn_0.68_Fe_0.32_)W_1.00_O_4_
Pin_id: L00498
Orientation: Laser parallel to c* (0 0 1). Fiducial mark perpendicular to laser is parallel to a [1 0 0]
Raman shift (cm-1)	intensity
149.938	0
154.096	10.687
158.251	72.408
162.405	302.112
166.556	1033.36
170.705	312.008
174.853	25.444
178.998	5.553
183.141	0.741
187.282	50.118
191.421	45.776
195.558	150.097
199.693	315.254
203.826	862.401
207.957	1328.74
212.086	606.883
216.213	229.483
220.337	164.942
224.46	59.011
228.581	68.327
232.699	49.578
236.816	26.974
240.931	17.07
245.043	7.515
249.154	12.962
253.262	41.409
257.369	165.579
261.473	251.529
265.576	42.303
269.676	23.517
273.775	8.781
277.871	23.392
281.965	13.916
286.058	8.481
290.148	6.094
294.236	67.245
298.323	68.253
302.407	42.061
306.489	91.567
310.57	137.074
314.648	212.603
318.724	473.324
322.799	943.485
326.871	1192.99
330.941	955.654
335.01	574.347
339.076	436.284
343.14	289.746
347.203	262.104
351.263	333.518
355.321	463.744
359.378	467.576
363.432	351.705
367.484	226.167
371.535	218.27
375.583	194.882
379.63	228.166
383.674	255.058
387.717	380.244
391.757	676.408
395.796	2079.62
399.832	2967.76
403.867	1239.74
407.899	542.175
411.93	312.985
415.959	198.345
419.986	137.974
424.01	120.409
428.033	90.714
432.054	64.427
436.073	77.974
440.09	41.944
444.105	35.596
448.118	27.154
452.129	22.404
456.138	61.842
460.145	31.672
464.15	28.176
468.153	14.195
472.155	30.846
476.154	33.749
480.151	24.346
484.147	23.476
488.14	12.574
492.132	17.501
496.122	14.098
500.109	1.408
504.095	74.484
508.079	52.369
512.061	91.073
516.041	62.605
520.019	132.971
523.995	186.183
527.969	244.248
531.941	391.142
535.911	684.808
539.88	1098.47
543.846	1477.02
547.811	1354.47
551.773	936.848
555.734	621.15
559.693	384.386
563.65	260.568
567.605	143.713
571.558	134.866
575.509	82.989
579.458	33.934
583.405	26.576
587.351	5.756
591.294	30.546
595.236	22.146
599.175	8.264
603.113	11.823
607.049	8.79
610.983	0.848
614.915	3.52
618.845	11.69
622.774	8.636
626.7	1.047
630.625	44.693
634.547	14.095
638.468	4.661
642.387	2.644
646.304	5.71
650.219	53.088
654.132	67.887
658.043	137.776
661.952	230.21
665.86	391.684
669.766	655.301
673.669	990.15
677.571	989.313
681.471	735.492
685.369	725.688
689.266	1009.91
693.16	1432.17
697.053	1980.47
700.943	2026.81
704.832	1269.18
708.719	770.626
712.604	492.13
716.487	275.685
720.368	130.287
724.248	110.952
728.125	76.666
732.001	85.441
735.875	29.255
739.747	0.946
743.617	12.729
747.486	65.979
751.352	104.075
755.217	150.857
759.079	270.156
762.94	480.604
766.799	885.67
770.657	1501.6
774.512	1792.4
778.365	1367.86
782.217	924.549
786.067	620.671
789.915	489.688
793.761	388.956
797.606	266.471
801.448	147.67
805.289	85.111
809.128	100.651
812.965	107.298
816.8	108.046
820.633	124.886
824.465	121.818
828.294	137.838
832.122	195.944
835.948	299.139
839.772	352.428
843.595	446.89
847.415	556.628
851.234	952.227
855.051	1271.05
858.866	1839.93
862.679	2446.74
866.491	3301.95
870.301	4818.2
874.109	8313.88
877.915	15565.1
881.719	31767.4
885.521	46929.4
889.322	28581.2
893.121	12904.8
896.918	6494.45
900.713	3908.16
904.506	2433.97
908.298	1575.87
912.088	1063.87
915.876	845.956
919.662	658.129
923.447	559.379
927.229	439.702
931.01	373.142
934.789	327.95
938.566	245.288
942.342	209.112
946.116	157.87
949.888	167.691
953.658	150.564
957.426	116.567
961.193	82.541
964.957	99.561
968.72	85.661
972.482	97.767
976.241	79.916
979.999	49.101
983.755	27.369
987.509	23.298
991.261	24.169
995.012	29.734
998.761	10.552
1002.51	11.542
1006.25	24.44
1010	19.111
1013.74	44.583
1017.48	8.692
1021.22	6.361
1024.95	28.207
1028.69	26.493
1032.42	12.247
1036.15	1.934
1039.88	23.551
1043.61	36.92
1047.34	19.193
1051.06	36.241
1054.78	60.666
1058.5	32.927
1062.22	16.592
1065.94	62.949
1069.65	52.084
1073.37	77.256
1077.08	90.352
1080.79	43.533
1084.5	39.68
1088.2	20.737
1091.91	37.947
1095.61	70.93
1099.31	29.962
1103.01	8.918
1106.71	39.915
1110.41	17.889
1114.1	16.714
1117.8	64.536
1121.49	47.449
1125.18	41.169
1128.86	37.853
1132.55	14.575
1136.23	8.174
1139.92	3.315
1143.6	58.792
1147.28	41.164
1150.95	13.435
1154.63	1.048
1158.3	14.327
1161.97	4.52
1165.64	0.234
1169.31	30.97
1172.98	30.789
1176.65	34.072
1180.31	31.475
1183.97	32.3
1187.63	31.797
1191.29	0.203
1194.95	8.903
1198.6	27.44
1202.26	2.253
1205.91	36.578
1209.56	56.891
1213.2	34.372
1216.85	23.615
1220.5	46.88
1224.14	12.156
1227.78	24.169
1231.42	85.109
1235.06	16.977
1238.69	47.651
1242.33	46.401
1245.96	35.047
1249.59	22.567
1253.22	38.252
1256.85	48.788
1260.48	53.44
1264.1	64.796
1267.72	48.139
1271.35	63.424
1274.97	48.639
1278.58	65.639
1282.2	49.917
1285.81	53.198
1289.43	48.844
1293.04	48.886
1296.65	33.156
1300.26	20.897
1303.86	21.176
1307.47	35.286
1311.07	19.736
1314.67	25.268
1318.27	21.723
1321.87	35.271
1325.46	1.2
1329.06	32.211
1332.65	26.398
1336.24	36.143
1339.83	55.135
1343.42	14.203
1347	44.46
1350.59	26.924
1354.17	23.495
1357.75	14.327
1361.33	60.251
1364.91	36.163
1368.49	26.771
1372.06	81.577
1375.63	20.255
1379.2	38.749
1382.78	33.302
1386.34	33.685
1389.91	59.977
1393.47	34.228
1397.04	27.297
1400.6	37.489
1404.16	65.518
1407.72	50.689
1411.27	51.801
1414.83	30.697
1418.38	44.382
1421.93	25.8
1425.48	34.199
1429.03	48.365
1432.58	12.696
1436.12	28.845
1439.66	26.37
1443.21	45.453
1446.75	38.216
1450.29	68.548
1453.82	33.039
1457.36	3.478
1460.89	51.584
1464.42	52.385
1467.95	44.596
1471.48	59.821
1475.01	72.861
1478.54	67.137
1482.06	75.481
1485.58	67.611
1489.1	50.596
1492.62	33.824
1496.14	38.189
1499.65	20.308
1503.17	24.054
1506.68	36.927
1510.19	5.388
1513.7	13.963
1517.21	0.698
1520.72	12.543
