Measurement: Raman, 514 nm, ccw, Raman Data Processed
Mineral: Hubnerite
Rruff sample: R050139
Ideal chemistry: Mn^2+^W^6+^O_4_
Locality: Pasto Bueno District, Pallasca Province, Ancash Department, Peru
Source: Dave Bunk Minerals
Description: Black tabular crystals associated with quartz
Measured chemistry: (Mn^2+^_0.79_Fe^2+^_0.20_)W_1.00_O4
Pin_id: L00514
Orientation: Laser parallel to (1 0 1). Fiducial mark perpendicular to laser is parallel to b [0 1 0]
Raman shift (cm-1)	intensity
64.784	0
69.715	371.707
74.643	103.424
79.57	310.685
84.494	1090.34
89.416	2765.53
94.336	4873.28
99.254	5815.28
104.169	7380.64
109.083	8983.96
113.994	10805.1
118.903	15134.5
123.81	25987.3
128.715	37810.1
133.618	45364.2
138.518	21378.5
143.416	6998.99
148.312	4420.28
153.206	3731.9
158.098	3378.73
162.987	3040.87
167.874	3155.46
172.759	2953.48
177.642	2803.51
182.523	2897.01
187.401	3063.26
192.277	3595.72
197.151	4906.46
202.023	8182.63
206.892	11440
211.76	12059.8
216.624	6710.28
221.487	3256.73
226.348	1988.16
231.206	1258.95
236.062	1253.14
240.916	864.701
245.767	648.851
250.616	577.965
255.463	797.553
260.308	977.244
265.151	1336.73
269.991	1090.58
274.829	1202.04
279.664	545.323
284.498	471.354
289.329	180.835
294.157	571.068
298.984	679.437
303.808	1143.15
308.63	1968.71
313.45	4102.17
318.267	8453.67
323.082	13792.4
327.895	16768
332.705	12786.9
337.513	7241.35
342.319	3998.23
347.122	2247.31
351.923	1575.61
356.722	1483.15
361.519	1146.98
366.313	1123.35
371.105	1052.05
375.894	1055.7
380.681	1415.1
385.466	2707.11
390.249	7712.59
395.029	14807.4
399.806	17874.6
404.582	9588.86
409.355	3248.25
414.126	1436.63
418.894	632.944
423.66	133.102
428.423	17.9658
433.185	232.855
437.944	225.763
442.7	224.299
447.454	18.6338
452.206	15.4922
456.955	66.9961
461.702	223.247
466.447	321.841
471.189	47.999
475.929	265.063
480.666	2.70019
485.401	666.415
490.134	960.57
494.864	746.919
499.592	933.598
504.317	1449.73
509.04	1709.99
513.761	2126.24
518.479	2701.7
523.195	3620.05
527.908	5621.93
532.619	8385.3
537.327	12595.1
542.033	16410.3
546.737	16913.9
551.438	13895.9
556.137	9218.45
560.833	5353.56
565.527	3610.27
570.218	2127.39
574.907	1254.37
579.594	924.26
584.278	482.121
588.959	144.908
593.638	78.8574
598.315	6.02344
602.989	257.494
607.661	1.99609
612.33	52.2031
616.997	268.309
621.661	125.838
626.323	258.769
630.982	118.027
635.639	266.842
640.294	18.2168
644.946	209.371
649.595	168.504
654.242	162.592
658.886	488.766
663.528	745.102
668.168	1353.6
672.805	1828.27
677.439	2569.1
682.071	3069.1
686.701	4063.27
691.328	5339.62
695.952	6551.16
700.574	7122.88
705.193	5719.81
709.81	3555.94
714.424	2394.72
719.036	1482.44
723.646	1005.57
728.252	718.99
732.857	160.424
737.458	303.379
742.058	187.08
746.654	149.994
751.248	145.356
755.84	130.588
760.429	164.049
765.015	82.9609
769.599	587.184
774.181	749.371
778.759	935.381
783.336	996.844
787.909	1059.77
792.48	1294.25
797.049	1407.29
801.615	1425.79
806.179	2003.74
810.739	2186.15
815.298	2432.03
819.853	2605.38
824.407	3021.2
828.957	3404.51
833.505	4106.29
838.051	5101.56
842.593	6192.32
847.134	7919.57
851.671	10744.4
856.206	14946.9
860.739	21752
865.269	33046.4
869.796	52838.2
874.321	94832.9
878.843	179076
883.362	267102
887.879	237182
892.393	120083
896.905	53834.3
901.414	26059.9
905.921	14644.4
910.424	9243.21
914.926	6442.65
919.424	4151.83
923.92	3030.36
928.414	2245.32
932.904	1787.64
937.392	1450.29
941.878	1126.29
946.361	1107.57
950.841	1076.24
955.318	950.174
959.793	844.396
964.265	812.488
968.735	572.848
973.202	441.002
977.666	330.416
982.128	134.09
986.587	136.041
991.044	70.2129
995.497	5.12109
999.948	99.0566
1004.4	123.049
1008.84	115.785
1013.29	80.8867
1017.73	72.0254
1022.16	134.734
1026.6	77.8242
1031.03	18.623
1035.46	14.9805
1039.89	50.4824
1044.31	180.199
1048.73	333.096
1053.15	301.535
1057.57	385.922
1061.98	707.35
1066.39	492.943
1070.8	1420.67
1075.21	377.326
1079.61	465.949
1084.01	377.535
1088.41	580.383
1092.8	251.654
1097.2	383.059
1101.59	430.506
1105.97	221.525
1110.36	278.397
1114.74	376.607
1119.12	331.519
1123.49	136.356
1127.87	348.205
1132.24	390.08
1136.6	433.988
1140.97	80.125
1145.33	404.971
1149.69	142.969
1154.05	213.84
1158.4	211.125
1162.75	31.2852
1167.1	33.2773
1171.45	248.047
1175.79	286.705
1180.13	71.9844
1184.47	146.281
1188.81	127.996
1193.14	331.281
1197.47	199.123
1201.79	292.023
1206.12	98.8066
1210.44	268.264
1214.76	126.385
1219.07	299.453
1223.39	13.5566
1227.7	12.9102
1232.01	75.582
1236.31	376.546
1240.61	88.7324
1244.91	22.6221
1249.21	155.819
1253.5	236.272
1257.79	31.9248
1262.08	343.95
1266.37	220.42
1270.65	224.099
1274.93	83.4932
1279.21	42.2295
1283.48	45.1631
1287.75	292.744
1292.02	65.9902
1296.29	232.929
1300.55	259.869
1304.81	294.106
1309.07	293.555
1313.32	193.795
1317.58	310.041
1321.83	310.527
1326.07	184.344
1330.32	205.198
1334.56	100.48
1338.8	387.917
1343.03	94.9424
1347.26	323.062
1351.49	2.07129
1355.72	19.2852
1359.94	200.676
1364.17	108.132
1368.38	289.103
1372.6	19.3203
1376.81	17.5703
1381.02	384.015
1385.23	127.147
1389.44	94.0879
1393.64	136.116
1397.84	375.898
1402.03	400.076
1406.23	475.161
1410.42	212.79
1414.61	440.801
1418.79	136.825
1422.97	226.551
1427.15	231.817
1431.33	172.582
1435.5	315.019
1439.67	310.342
1443.84	212.914
1448.01	130.874
1452.17	9.5459
1456.33	37.0977
1460.48	98.6152
1464.64	213.887
1468.79	80.1514
1472.94	53.1103
1477.08	164.282
1481.22	138.583
1485.36	166.185
1489.5	101.536
1493.63	150.284
1497.76	397.522
1501.89	429.458
1506.02	514.422
1510.14	263.524
1514.26	499.391
1518.38	199.048
1522.49	291.877
1526.6	272.872
1530.71	199.205
1534.82	346.116
1538.92	344.971
1543.02	250.008
1547.11	168.119
1551.21	48.998
1555.3	3.23535
1559.39	140.846
1563.47	260.237
1567.55	135.561
1571.63	75.3428
1575.71	53.2461
