Measurement: Raman, 514 nm, depolarized, Raman Data Processed
Mineral: Humite
Rruff sample: R050665
Ideal chemistry: Mg_7_(SiO_4_)_3_(F,OH)_2_
Locality: Tilly Foster mine, Brewster, Putnam County, New York, USA
Source: University of Arizona Mineral Museum
Description: Granular aggregate of reddish-orange crystals
Measured chemistry: (Mg_0.91_Fe^2+^_0.09_)_7_(Si_1.00_O_4_)_3_(F_0.56_(OH)_0.44_)_2_
Pin_id: M01318
Orientation: Laser parallel to c* (0 0 1). Fiducial mark perpendicular to laser is parallel to -a [-1 0 0]
Raman shift (cm-1)	intensity
171.638	0
176.552	21.2314
181.464	9.3042
186.373	177.552
191.28	243.352
196.183	329.425
201.084	223.316
205.982	173
210.878	111.789
215.77	76.8555
220.66	227.504
225.547	226.781
230.431	201.442
235.313	307.272
240.192	389.755
245.068	378.637
249.941	346.996
254.811	342.976
259.679	430.753
264.544	248.405
269.406	270.981
274.265	269.615
279.122	287.382
283.976	230.856
288.827	219.492
293.676	201.67
298.521	253.118
303.364	271.783
308.205	361.543
313.042	532.316
317.877	650.159
322.709	569.849
327.538	556.161
332.365	449.662
337.188	349.508
342.009	459.601
346.828	343.873
351.643	413.27
356.456	288.766
361.266	219.412
366.074	135.336
370.878	72.4766
375.68	58.8032
380.479	28.3774
385.276	121.381
390.07	98.7756
394.861	24.5332
399.649	55.6592
404.435	56.9807
409.218	114.618
413.998	24.3662
418.775	151.116
423.55	292.7
428.322	257.103
433.091	208.966
437.858	161.019
442.622	250.738
447.383	266.291
452.142	342.507
456.898	347.856
461.651	435.851
466.401	386.647
471.149	572.246
475.894	616.623
480.636	607.76
485.376	673.644
490.113	749.264
494.847	787.967
499.578	773.802
504.307	759.033
509.033	682.315
513.757	685.966
518.478	892.096
523.196	1001.48
527.911	1192.1
532.624	1566.81
537.334	1309.14
542.041	1238.32
546.746	1087.42
551.448	798.145
556.147	682.814
560.844	559.641
565.538	595.801
570.229	598.48
574.918	670.684
579.604	774.425
584.287	910.705
588.967	1073.54
593.645	1442.93
598.321	2222.87
602.993	2693.38
607.663	2347.45
612.33	1533.09
616.995	786.683
621.657	638.102
626.316	336.489
630.973	246.474
635.627	129.058
640.278	85.1606
644.927	19.3691
649.573	35.1377
654.216	50.0537
658.857	56.0742
663.495	124.223
668.131	73.7778
672.763	50.6079
677.393	66.4663
682.021	28.189
686.646	26.894
691.268	51.855
695.888	106.866
700.504	163.77
705.119	331.543
709.73	530.205
714.339	759.776
718.946	982.278
723.55	1354.73
728.151	1799.15
732.749	2421.64
737.345	2948.99
741.938	3955.45
746.529	5265.97
751.117	6815.56
755.702	6963.24
760.285	5932.05
764.865	4482
769.442	3137.11
774.017	2533.92
778.59	2490.45
783.159	2533.99
787.726	1853.27
792.291	1189.71
796.852	1025.23
801.412	868.79
805.968	1035.96
810.522	1269.48
815.073	1805.84
819.622	3109.44
824.168	5877.8
828.712	11431.6
833.253	19169.6
837.791	22081.2
842.327	20081.6
846.86	14781.6
851.39	9359.24
855.918	8008.47
860.444	8777.32
864.966	7661.78
869.487	5126.92
874.004	3128.71
878.519	1883.19
883.031	1107.39
887.541	888.335
892.048	620.062
896.553	421.488
901.055	244.578
905.554	129.33
910.051	317.778
914.545	521.943
919.037	491.905
923.526	269.091
928.013	242.866
932.497	554.4
936.978	349.059
941.457	297.022
945.933	489.035
950.407	619.509
954.878	892.448
959.346	1422.56
963.812	2457.25
968.276	2271.85
972.736	1305.14
977.195	738.037
981.65	490.667
986.103	346.697
990.554	371.705
995.002	359.052
999.447	369.931
1003.89	465.41
1008.33	472.351
1012.77	360.332
1017.2	257.879
1021.64	345.448
1026.07	251.052
1030.49	188.406
1034.92	242.082
1039.34	217.013
1043.76	203.734
1048.18	101.58
1052.59	15.5288
1057.01	109.612
1061.41	18.6851
1065.82	116.359
1070.23	104.975
1074.63	13.8862
1079.03	60.5664
1083.43	52.1001
1087.82	37.499
1092.21	14.5742
1096.6	34.2983
1100.99	8.4624
1105.37	57.2378
1109.76	35.5859
1114.13	81.7139
1118.51	77.583
1122.88	211.221
1127.26	99.6231
1131.63	32.0742
1135.99	134.55
1140.36	2.02295
1144.72	60.0835
1149.08	24.9175
1153.43	21.8232
1157.79	54.3877
1162.14	147.552
1166.49	86.3745
1170.84	214.833
1175.18	146.898
1179.52	227.626
1183.86	191.019
1188.2	274.254
1192.53	256.422
1196.86	254.916
1201.19	210.347
1205.52	277.793
1209.84	294.015
1214.16	384.772
1218.48	422.294
1222.8	534.967
1227.11	372.373
1231.42	427.456
1235.73	378.622
1240.04	527.229
1244.34	460.774
1248.64	545.288
1252.94	494.118
1257.24	424.31
1261.54	511.896
1265.83	466.946
1270.12	533.648
1274.4	375.717
1278.69	621.849
1282.97	345.431
1287.25	447.544
1291.52	442.648
1295.8	340.12
1300.07	274.171
1304.34	328.002
1308.61	278.681
1312.87	229.195
1317.13	152.728
1321.39	170.459
1325.65	180.277
1329.9	0.823242
1334.15	92.1045
1338.4	64.9868
1342.65	37.2192
1346.89	32.4277
1351.14	80.084
1355.38	68.7978
1359.61	22.5557
1363.85	59.437
1368.08	115.302
1372.31	48.0747
1376.54	103.816
1380.76	163.523
1384.98	72.2012
1389.2	45.8784
1393.42	15.606
1397.64	3.6294
1401.85	35.2188
1406.06	48.1826
1410.27	24.3227
1414.47	78.0215
1418.67	141.112
1422.88	91.8848
1427.07	59.7329
1431.27	69.8262
1435.46	225.376
1439.65	241.173
1443.84	261.21
1448.03	373.964
1452.21	271.004
1456.39	321.234
1460.57	388.078
1464.74	489.313
1468.92	319.072
1473.09	501.707
1477.26	383.961
1481.42	477.039
1485.59	501.821
1489.75	588.734
1493.91	750.972
1498.06	627.518
1502.22	720.042
1506.37	595.544
1510.52	538.414
1514.67	373.731
1518.81	329.442
1522.95	346.488
1527.09	194.282
1531.23	229.928
1535.36	65.522
1539.5	131.311
1543.63	136.666
1547.75	130.209
1551.88	37.2153
1556	109.011
1560.12	59.9937
