Measurement: Raman, 514 nm, ccw, Raman Data RAW
Mineral: Humite
Rruff sample: R050665
Ideal chemistry: Mg_7_(SiO_4_)_3_(F,OH)_2_
Locality: Tilly Foster mine, Brewster, Putnam County, New York, USA
Source: University of Arizona Mineral Museum
Description: Granular aggregate of reddish-orange crystals
Measured chemistry: (Mg_0.91_Fe^2+^_0.09_)_7_(Si_1.00_O_4_)_3_(F_0.56_(OH)_0.44_)_2_
Pin_id: M01664
Orientation: Laser parallel to a* (1 0 0). Fiducial mark perpendicular to laser is parallel to b [0 1 0]
Raman shift (cm-1)	intensity
93.154	0
98.107	134.093
103.057	25.355
108.004	257.329
112.949	237.759
117.891	367.257
122.83	213.125
127.767	286.728
132.7	348.884
137.631	767.498
142.56	920.616
147.485	1021.17
152.408	1091.93
157.328	996.069
162.246	1034.97
167.16	925.187
172.073	1081.31
176.982	945.119
181.888	1225.81
186.792	1387.89
191.694	1804.45
196.592	1832.18
201.488	1978.15
206.381	1864.41
211.271	1914.99
216.159	2028.87
221.044	2070.72
225.926	1846.43
230.806	1625.15
235.683	1734.29
240.557	1815.29
245.429	1867.14
250.298	1745.96
255.164	1611.61
260.027	1431.77
264.888	1505.52
269.746	1638.54
274.601	1782.65
279.454	1951.39
284.304	1929.8
289.151	1909.92
293.996	1877.64
298.838	1894.87
303.677	2116.52
308.514	2260.53
313.348	2398.84
318.179	2402.42
323.008	2442.25
327.834	1955.78
332.657	1790.24
337.478	1697.21
342.295	1676.15
347.111	1980.04
351.923	2093.91
356.733	1998.28
361.54	1558.63
366.345	1110.83
371.147	849.002
375.946	688.187
380.743	537.964
385.537	399.886
390.328	222.861
395.116	85.8691
399.902	105.135
404.686	236.115
409.466	240.367
414.244	204.283
419.019	33.7578
423.792	306.965
428.562	530.788
433.329	504.224
438.094	756.246
442.856	981.827
447.616	1337.94
452.372	1580.58
457.126	1946.02
461.878	2159.62
466.627	2547.76
471.373	2971.99
476.116	3320.31
480.857	3954.06
485.596	4630.77
490.331	5023.86
495.064	5276.54
499.795	5365.18
504.522	5408.04
509.247	4956.78
513.97	4937.81
518.69	5595.02
523.407	7023.72
528.121	8953.27
532.833	10074
537.543	9355.21
542.249	8277.7
546.953	7391.32
551.655	4789.19
556.354	3197.92
561.05	2454.88
565.743	2211.74
570.434	1818.66
575.123	1609.74
579.808	1230.99
584.491	908.417
589.172	996.032
593.85	1093.84
598.525	1471.86
603.197	1724.11
607.868	1580.58
612.535	1356.95
617.2	995.079
621.862	768.569
626.522	531.171
631.178	158.289
635.833	64.3594
640.485	179.118
645.134	72.728
649.78	178.873
654.424	81.9336
659.066	16.2134
663.704	26.5947
668.341	61.8921
672.974	129.549
677.605	263.794
682.234	325.783
686.859	575.032
691.483	779.161
696.103	1031.24
700.721	1514.86
705.337	2018.1
709.949	2804
714.56	3456.9
719.167	4396.9
723.772	5721.36
728.375	7953.88
732.975	10643.5
737.572	13969.3
742.167	20013.3
746.759	29167.5
751.349	37691
755.936	38869.9
760.52	31954.1
765.102	21892.5
769.681	13028.3
774.258	7760.86
778.832	5844.45
783.404	5202.48
787.973	3784.26
792.539	2297.54
797.103	1137.76
801.665	639.925
806.223	837.763
810.779	1261.47
815.333	2537.74
819.884	5005.17
824.433	10218.8
828.979	20790.7
833.522	39026.8
838.063	42374.2
842.601	36930.9
847.137	24630.9
851.67	13873.4
856.2	9587.26
860.729	8930.25
865.254	6653.52
869.777	4504.44
874.297	2825.53
878.815	2029.63
883.33	1150.3
887.843	635.64
892.353	291.658
896.861	18.2339
901.366	146.887
905.869	149.081
910.369	21.0234
914.866	276.182
919.361	424.717
923.854	488.522
928.344	899.733
932.831	1759.23
937.316	1123.43
941.798	651.064
946.278	719.923
950.755	1290.07
955.23	1993.09
959.702	4150.5
964.171	7222.63
968.638	6184.67
973.103	3380.99
977.565	1900.88
982.025	1335.82
986.482	1321.55
990.936	1319.42
995.388	1473.7
999.837	1417.58
1004.28	1468.45
1008.73	1341.84
1013.17	1396.18
1017.61	1275.12
1022.05	1000.67
1026.48	891.135
1030.91	778.213
1035.34	706.85
1039.77	639.543
1044.19	398.813
1048.62	138.36
1053.03	157.679
1057.45	82.7607
1061.87	120.507
1066.28	21.2056
1070.69	189.81
1075.09	47.9678
1079.5	60.5698
1083.9	33.6397
1088.3	14.5918
1092.69	14.231
1097.09	53.3945
1101.48	24.0855
1105.87	55.3599
1110.26	36.3276
1114.64	89.0679
1119.02	18.333
1123.4	6.87549
1127.78	76.4556
1132.15	39.269
1136.53	70.5889
1140.89	8.57666
1145.26	28.4697
1149.63	10.356
1153.99	57.1201
1158.35	53.0322
1162.7	110.055
1167.06	140.268
1171.41	266.901
1175.76	401.932
1180.11	555.273
1184.45	550.913
1188.79	767.848
1193.13	890.071
1197.47	1019.58
1201.81	1088.37
1206.14	1394.45
1210.47	1468.94
1214.79	1660.28
1219.12	1749.5
1223.44	1783.33
1227.76	2084.67
1232.08	2161.93
1236.39	2322.72
1240.7	2285.12
1245.02	2481.23
1249.32	2399.72
1253.63	2420.05
1257.93	2363.56
1262.23	2406.26
1266.53	2366.06
1270.82	2431.69
1275.12	2276.8
1279.41	2412.73
1283.69	2435.12
1287.98	2418.79
1292.26	2039.21
1296.54	1712.9
1300.82	1482.26
1305.1	1089.92
1309.37	765.32
1313.64	510.488
1317.91	404.429
1322.17	366.147
1326.44	274.639
1330.7	178.908
1334.96	224.982
1339.21	227.885
1343.47	188.647
1347.72	268.31
1351.97	255.953
1356.21	334.593
1360.46	370.272
1364.7	303.95
1368.94	220.401
1373.17	227.833
1377.41	390.438
1381.64	81.2231
1385.87	164.241
1390.1	5.19873
1394.32	23.8579
1398.54	57.3643
1402.76	95.9438
1406.98	133.23
1411.19	25.7061
1415.41	122.626
1419.62	99.9346
1423.82	199.612
1428.03	209.24
1432.23	317.399
1436.43	367.726
1440.63	491.862
1444.82	519.269
1449.02	773.752
1453.21	880.6
1457.4	1015.49
1461.58	1260.58
1465.77	1384.99
1469.95	1611.75
1474.12	1826.9
1478.3	2316.49
1482.47	2629.58
1486.64	2822.72
1490.81	3164.63
1494.98	3467.3
1499.14	3728.65
1503.31	3750.04
1507.47	3152.19
1511.62	3003.38
1515.78	2401.72
1519.93	1854.4
1524.08	1397.67
1528.23	951.49
1532.37	598.7
1536.51	450.222
1540.65	302.236
1544.79	204.137
1548.93	15.7168
1553.06	164.105
1557.19	67.3745
1561.32	99.5024
1565.44	72.7925
1569.57	104.778
1573.69	57.519
1577.81	0
