Measurement: Raman, 514 nm, ccw, Raman Data Processed
Mineral: Humite
Rruff sample: R050665
Ideal chemistry: Mg_7_(SiO_4_)_3_(F,OH)_2_
Locality: Tilly Foster mine, Brewster, Putnam County, New York, USA
Source: University of Arizona Mineral Museum
Description: Granular aggregate of reddish-orange crystals
Measured chemistry: (Mg_0.91_Fe^2+^_0.09_)_7_(Si_1.00_O_4_)_3_(F_0.56_(OH)_0.44_)_2_
Pin_id: M01664
Orientation: Laser parallel to a* (1 0 0). Fiducial mark perpendicular to laser is parallel to b [0 1 0]
Raman shift (cm-1)	intensity
91.916	0
96.869	125.298
101.82	38.5552
106.768	42.5308
111.713	57.7046
116.656	449.773
121.596	152.917
126.533	33.6538
131.467	92.5127
136.399	190.864
141.328	332.029
146.254	384.79
151.178	223.077
156.098	283.728
161.017	224.619
165.932	257.668
170.845	246.525
175.755	333.55
180.662	525.536
185.567	702.029
190.469	1369.1
195.368	1982
200.264	1354.1
205.158	545.774
210.049	204.011
214.937	512.802
219.823	742.132
224.706	800.99
229.586	594.408
234.464	411.449
239.339	412.752
244.211	410.251
249.081	617.382
253.947	818.308
258.812	1125.43
263.673	1277.59
268.532	881.492
273.388	781.315
278.241	800.573
283.092	992.434
287.94	763.881
292.785	813.995
297.628	602.662
302.468	486.149
307.305	318.496
312.14	274.963
316.972	320.375
321.801	260.875
326.628	208.723
331.451	304.903
336.273	309.396
341.091	448.184
345.907	577.249
350.72	544.65
355.531	622.612
360.339	326.353
365.144	146.901
369.947	84.687
374.746	17.7541
379.544	68.1204
384.338	161.546
389.13	75.8928
393.919	41.0723
398.706	47.1594
403.49	83.1604
408.271	198.775
413.05	351.741
417.826	508.697
422.599	516.621
427.37	305.078
432.138	147.483
436.903	24.231
441.666	46.082
446.426	123.08
451.183	214.005
455.938	237.183
460.69	337.085
465.44	228.687
470.187	432.963
474.931	515.889
479.672	686.442
484.411	773.74
489.148	616.717
493.881	615.581
498.612	679.48
503.341	604.431
508.066	584.802
512.789	618.755
517.51	727.203
522.228	1001.75
526.943	1426.82
531.656	1699.22
536.365	1691.29
541.073	1777.18
545.778	2002.9
550.48	1646.71
555.179	1164.62
559.876	1071.43
564.57	1008.18
569.262	914.875
573.951	859.45
578.637	614.759
583.321	505.8
588.002	495.018
592.68	605.407
597.356	1108.75
602.03	1468.06
606.7	1626.34
611.368	1149.59
616.034	686.834
620.697	475.073
625.357	297.32
630.014	152.544
634.67	28.5459
639.322	62.7105
643.972	44.1555
648.619	103.267
653.264	145.769
657.906	129.768
662.545	183.348
667.182	150.597
671.816	62.0635
676.448	52.6123
681.077	85.2886
685.703	7.6731
690.327	25.1333
694.948	127.879
699.567	292.387
704.183	543.493
708.797	848.527
713.407	1357.73
718.016	1920.49
722.621	2475.06
727.225	3331.17
731.825	4175.16
736.423	4979.08
741.019	6097.07
745.611	7879.89
750.202	10028.9
754.789	10910
759.374	9852.26
763.957	7804.38
768.537	6102.39
773.114	5447.34
777.689	6279.64
782.261	7274.35
786.831	5657.94
791.398	3453.13
795.963	2562.72
800.524	2247.18
805.084	2370.95
809.641	2806.42
814.195	3538.84
818.747	5395.86
823.296	9476.57
827.842	17624.8
832.386	33072.1
836.928	45923.8
841.467	53685.1
846.003	48384.8
850.537	32476
855.068	31057.7
859.597	41669.7
864.123	42410.1
868.646	26054.9
873.167	14538.1
877.686	10156.8
882.202	6746.86
886.715	4138.36
891.226	2817.3
895.734	2025.73
900.24	1361.67
904.743	1092.12
909.244	941.299
913.742	991.273
918.238	942.687
922.731	1019.72
927.221	1356.72
931.709	2621.24
936.195	2444.51
940.678	1708.38
945.158	1513.68
949.636	2005.06
954.111	3587.67
958.584	7182.6
963.054	12912.1
967.522	12436.8
971.987	5823.14
976.45	2640.82
980.91	1358.79
985.368	888.765
989.823	365.184
994.275	282.139
998.725	296.029
1003.17	172.498
1007.62	250.402
1012.06	243.955
1016.5	182.936
1020.94	203.923
1025.37	196.797
1029.81	125.406
1034.23	87.2886
1038.66	160.817
1043.09	169.701
1047.51	17.335
1051.93	59.8565
1056.35	42.8618
1060.76	108.793
1065.17	115.019
1069.58	70.7583
1073.99	118.165
1078.4	98.4966
1082.8	58.7844
1087.2	45.0727
1091.6	175.41
1095.99	14.77
1100.38	32.9121
1104.77	79.0911
1109.16	18.5601
1113.55	89.9771
1117.93	58.9138
1122.31	117.209
1126.68	124.976
1131.06	112.193
1135.43	158.819
1139.8	168.882
1144.17	231.365
1148.54	202.287
1152.9	200.643
1157.26	163.36
1161.62	244.304
1165.97	248.512
1170.32	119.948
1174.67	249.462
1179.02	318.19
1183.37	231.378
1187.71	305.828
1192.05	351.055
1196.39	354.872
1200.72	344.826
1205.05	460.986
1209.38	425.852
1213.71	436.676
1218.04	505.802
1222.36	495.834
1226.68	589.013
1231	551.187
1235.31	546.917
1239.63	532.425
1243.94	527.828
1248.25	551.727
1252.55	540.207
1256.86	523.187
1261.15	496.618
1265.45	544.357
1269.75	501.842
1274.04	486.61
1278.33	393.568
1282.62	507.761
1286.91	521.247
1291.19	348.582
1295.47	337.645
1299.75	259.777
1304.03	256.682
1308.3	182.032
1312.57	138.334
1316.84	96.2083
1321.11	44.217
1325.37	79.0588
1329.63	10.178
1333.89	40.574
1338.15	3.66992
1342.4	13.8704
1346.65	12.0095
1350.9	47.0437
1355.15	23.1372
1359.4	37.2346
1363.64	103.374
1367.88	58.3965
1372.12	110.319
1376.35	152.109
1380.58	35.8105
1384.81	160.367
1389.04	109.798
1393.26	88.1064
1397.49	58.2886
1401.71	24.3543
1405.92	92.2822
1410.14	60.0818
1414.35	55.8088
1418.56	114.55
1422.77	137.637
1426.98	129.126
1431.18	97.9116
1435.38	129.142
1439.58	143.178
1443.78	226.19
1447.97	225.625
1452.16	204.28
1456.35	229.471
1460.54	384.021
1464.72	446.951
1468.9	448.805
1473.08	490.536
1477.26	524.974
1481.43	698.653
1485.6	696.168
1489.77	830.651
1493.94	841.973
1498.1	849.386
1502.27	883.212
1506.43	814.134
1510.58	734.869
1514.74	640.396
1518.89	505.965
1523.04	424.043
1527.19	264.458
1531.34	154.893
1535.48	95.3975
1539.62	96.8313
1543.76	4.73706
1547.89	3.14111
1552.03	120.266
1556.16	122.263
1560.29	7.49194
1564.41	95.6694
1568.54	62.7778
1572.66	26.0276
1576.78	47.6467
