Measurement: Raman, 514 nm, depolarized, Raman Data Processed
Mineral: Humite
Rruff sample: R040071
Ideal chemistry: Mg_7_(SiO_4_)_3_(F,OH)_2_
Locality: Tilly Foster mine, Brewster, Putnam County, New York, USA
Source: University of Arizona Mineral Museum
Description: Red crystals
Measured chemistry: (Mg_0.91_Fe_0.09_)_7_(Si_0.99_Ti_0.01_O_4_)_3_(F_0.76_(OH)_0.24_)_2_
Pin_id: L00052
Orientation: Laser parallel to a* (1 0 0). Fiducial mark perpendicular to laser is parallel to -b [0 -1 0]
Raman shift (cm-1)	intensity
51.466	0
55.666	129.634
59.863	199.041
64.059	30.611
68.253	23.522
72.445	45.854
76.635	155.809
80.823	287.09
85.009	237.809
89.193	499.255
93.375	555.895
97.554	389.252
101.732	233.846
105.908	559.684
110.082	306.51
114.254	533.058
118.424	735.07
122.592	528.581
126.758	450.317
130.922	611.283
135.083	642.42
139.243	759.227
143.401	819.072
147.557	830.508
151.711	774.299
155.863	717.557
160.013	749.238
164.161	712.326
168.308	724.848
172.452	709.817
176.594	703.24
180.734	863.116
184.872	1123.45
189.008	1402.27
193.143	1639.64
197.275	1529.61
201.405	1296.22
205.534	1208.49
209.66	1148.4
213.784	1172.92
217.907	1205.91
222.027	1294.01
226.146	1188.22
230.263	1009.67
234.377	990.628
238.49	1043.54
242.601	1148.64
246.709	1099.12
250.816	1165.23
254.921	1094.36
259.024	1194.63
263.125	1153.43
267.224	1163.75
271.321	1128.8
275.416	1193.76
279.51	1224.41
283.601	1249.68
287.69	1204.86
291.778	1155.62
295.863	994.717
299.947	1044.13
304.029	1029.85
308.108	1097.87
312.186	1028.24
316.262	1047.14
320.336	1110.74
324.408	1011.19
328.478	904.475
332.546	839.571
336.612	825.478
340.677	1081.23
344.739	1066.66
348.799	1113.63
352.858	1066.13
356.915	979.971
360.969	769.962
365.022	624.065
369.073	537.268
373.122	742.553
377.169	1001.85
381.215	985.323
385.258	807.845
389.299	613.508
393.339	372.34
397.376	41.36
401.412	174.518
405.446	193.706
409.478	142.503
413.508	111.54
417.536	65.619
421.562	36.963
425.586	101.316
429.609	103.666
433.629	81
437.648	141.308
441.665	280.578
445.68	394.799
449.693	586.962
453.704	688.057
457.713	852.072
461.721	977.001
465.726	1123.83
469.73	1333.57
473.731	1423.33
477.731	1910.18
481.729	2170.72
485.725	2383.38
489.72	2535.14
493.712	2681.83
497.703	2735.25
501.691	2827.82
505.678	2619.48
509.663	2491.79
513.646	2544.55
517.627	2877.39
521.607	3372.55
525.584	4191.3
529.56	5100.64
533.534	5280.55
537.506	4737.04
541.476	4422.1
545.444	3911.74
549.41	2968.95
553.375	2025.73
557.337	1727.08
561.298	1718.72
565.257	1268.33
569.214	1162
573.17	1056.13
577.123	1099.99
581.075	1260.86
585.024	1365.34
588.972	1208.43
592.918	1049.13
596.863	1183.45
600.805	1432.4
604.746	1588.96
608.685	1264.16
612.621	883.988
616.557	693.452
620.49	466.56
624.421	381.315
628.351	84.721
632.279	48.458
636.205	81.643
640.129	167.182
644.051	180.316
647.972	203.974
651.89	169.137
655.807	198.829
659.722	113.039
663.636	77.375
667.547	100.707
671.457	46.901
675.365	45.435
679.271	143.583
683.175	330.565
687.077	317.4
690.978	471.107
694.877	654.703
698.774	810.173
702.669	1089.64
706.562	1629.01
710.454	2058.19
714.344	2534.66
718.232	3290.03
722.118	4035.67
726.002	5198.67
729.885	6514.97
733.766	7956.46
737.645	9588.05
741.522	12430.7
745.397	16002.5
749.271	19781.5
753.143	22730.5
757.013	21650.8
760.881	17898.2
764.748	13422.8
768.613	9677.59
772.476	7091.65
776.337	6077.98
780.196	5960.58
784.054	5587.5
787.91	4294.7
791.764	3132.15
795.616	2275.07
799.467	1843.86
803.316	1727.23
807.163	1850.22
811.008	2261.89
814.851	3098.61
818.693	4742.53
822.533	7723.47
826.371	12898.1
830.208	22774.2
834.042	34282.1
837.875	37845.9
841.706	38179.5
845.536	32772
849.363	23054.4
853.189	18125.5
857.013	19206.6
860.836	22415.5
864.656	19612.2
868.475	13274.9
872.292	8578.33
876.108	6260.54
879.922	4660.47
883.733	3293.14
887.544	2407.53
891.352	1757.64
895.159	1213.47
898.964	983.025
902.767	837.303
906.568	817.305
910.368	867.029
914.166	1112.48
917.962	1199.64
921.757	1500.87
925.55	2261.66
929.341	4372.35
933.13	5836.11
936.918	4010.58
940.703	2445.49
944.488	1655.17
948.27	1698.77
952.051	2282.13
955.83	3411.51
959.607	5552.19
963.383	8734.14
967.156	8534.86
970.928	5231.55
974.699	2980.69
978.468	1958.5
982.234	1576.15
986	1184.23
989.763	1123.46
993.525	1129.43
997.285	1105.47
1001.04	1046.93
1004.8	1034.46
1008.55	1021.55
1012.31	1040.58
1016.06	963.116
1019.81	853.909
1023.56	752.357
1027.31	542.013
1031.05	535.512
1034.79	526.747
1038.53	477.125
1042.27	401.642
1046.01	333.387
1049.75	79.335
1053.48	89.476
1057.22	42.782
1060.95	53.228
1064.68	21.795
1068.4	36.464
1072.13	91.8
1075.86	94.069
1079.58	28.373
1083.3	61.676
1087.02	11.948
1090.74	74.547
1094.45	141.262
1098.17	103.555
1101.88	37.168
1105.59	114.89
1109.3	80.924
1113.01	84.295
1116.71	132.993
1120.42	75.887
1124.12	173.675
1127.82	37.687
1131.52	8.519
1135.22	1.201
1138.91	58.757
1142.61	17.437
1146.3	70.208
1149.99	8.706
1153.68	24.314
1157.37	33.349
1161.06	31.32
1164.74	120.544
1168.42	139.041
1172.1	181.926
1175.78	268.319
1179.46	291.789
1183.14	388.239
1186.81	445.164
1190.48	479.522
1194.15	578.672
1197.83	678.299
1201.49	824.334
1205.16	855.625
1208.82	928.777
1212.49	1008.97
1216.15	1090.05
1219.81	1160.22
1223.46	1248.01
1227.12	1357.57
1230.78	1483.55
1234.43	1479.4
1238.08	1529.96
1241.73	1567.28
1245.38	1587.75
1249.03	1604.3
1252.67	1676.58
1256.31	1563.08
1259.95	1686.57
1263.6	1624.69
1267.23	1675.55
1270.87	1743.42
1274.51	1696.06
1278.14	1743.65
1281.77	1711.41
1285.4	1750.72
1289.03	1612.97
1292.66	1537.66
1296.28	1276.14
1299.91	1119.18
1303.53	957.297
1307.15	879.57
1310.77	639.983
1314.38	531.847
1318	533.528
1321.61	438.608
1325.23	385.925
1328.84	338.043
1332.45	268.839
1336.06	188.423
1339.66	352.66
1343.27	160.704
1346.87	327.509
1350.47	300.03
1354.07	214.286
1357.67	280.403
1361.26	245.484
1364.86	192.637
1368.45	191.022
1372.04	176.895
1375.63	203.67
1379.22	157.296
1382.81	123.058
1386.39	61.435
1389.98	16.844
1393.56	28.786
1397.14	33.586
1400.72	47.933
1404.3	35.692
1407.87	99.28
1411.45	55.917
1415.02	18.353
1418.59	20.359
1422.16	23.193
1425.73	14.27
1429.29	6.235
1432.86	19.81
1436.42	132.393
1439.98	77.128
1443.54	131.083
1447.1	215.366
1450.66	349.239
1454.21	390.607
1457.77	389.004
1461.32	311.946
1464.87	260.591
1468.42	324.743
1471.96	388.017
1475.51	419.79
1479.06	500.338
1482.6	615.369
1486.14	713.259
1489.68	819.228
1493.22	965.172
1496.75	898.306
1500.29	1060.63
1503.82	1005.41
1507.35	862.229
1510.88	628.252
1514.41	361.293
1517.94	233.045
1521.46	43.771
