Measurement: Raman, 514 nm, ccw, Raman Data Processed
Mineral: Humite
Rruff sample: R050665
Ideal chemistry: Mg_7_(SiO_4_)_3_(F,OH)_2_
Locality: Tilly Foster mine, Brewster, Putnam County, New York, USA
Source: University of Arizona Mineral Museum
Description: Granular aggregate of reddish-orange crystals
Measured chemistry: (Mg_0.91_Fe^2+^_0.09_)_7_(Si_1.00_O_4_)_3_(F_0.56_(OH)_0.44_)_2_
Pin_id: M01664
Orientation: Laser parallel to a* (1 0 0). Fiducial mark perpendicular to laser is parallel to b [0 1 0]
Raman shift (cm-1)	intensity
101.82	0
106.768	126.016
111.713	254.904
116.656	630.277
121.596	689.231
126.533	96.9102
131.467	148.58
136.399	186.677
141.328	434.383
146.254	337.84
151.178	332.755
156.098	275.028
161.017	239.91
165.932	189.885
170.845	239.583
175.755	337.736
180.662	384.415
185.567	715.521
190.469	1237.4
195.368	1452.45
200.264	1226.56
205.158	710.815
210.049	543.261
214.937	590.918
219.823	632.791
224.706	571.399
229.586	561.582
234.464	595.555
239.339	582.576
244.211	581.585
249.081	611.131
253.947	601.38
258.812	627.172
263.673	756.954
268.532	780.284
273.388	765.482
278.241	816.516
283.092	837.412
287.94	742.798
292.785	687.73
297.628	739.116
302.468	590.878
307.305	464.956
312.14	506.298
316.972	548.86
321.801	678.604
326.628	597.503
331.451	486.502
336.273	373.503
341.091	469.473
345.907	481.41
350.72	672.367
355.531	614.688
360.339	598.699
365.144	289.45
369.947	317.014
374.746	395.18
379.544	545.987
384.338	1015.36
389.13	925.031
393.919	681.978
398.706	257.988
403.49	57.2681
408.271	187.04
413.05	25.9678
417.826	112.725
422.599	155.748
427.37	267.404
432.138	328.687
436.903	297.566
441.666	328.014
446.426	645.007
451.183	703.519
455.938	931.527
460.69	1168.01
465.44	1270.94
470.187	1495.31
474.931	1770.09
479.672	2198.27
484.411	2519.82
489.148	2820.9
493.881	2899.59
498.612	2915.78
503.341	3050.06
508.066	2900.64
512.789	2769.86
517.51	3081.04
522.228	3785.52
526.943	4845.93
531.656	5695.37
536.365	5339.65
541.073	4737.3
545.778	4050.21
550.48	3097.54
555.179	2326.64
559.876	2167.38
564.57	2195.19
569.262	2167.83
573.951	1975.49
578.637	2198.14
583.321	2671.79
588.002	2076.45
592.68	1503.12
597.356	1411.8
602.03	1545.52
606.7	1462.28
611.368	994.086
616.034	906.961
620.697	556.916
625.357	418.966
630.014	146.086
634.67	79.9206
639.322	111.865
643.972	126.3
648.619	162.257
653.264	29.873
657.906	142.656
662.545	67.8521
667.182	52.081
671.816	78.9639
676.448	62.6187
681.077	138.451
685.703	249.901
690.327	378.732
694.948	493.278
699.567	626.338
704.183	934.484
708.797	1398.34
713.407	1923.95
718.016	2636.35
722.621	3411.58
727.225	4534.7
731.825	6035.74
736.423	7658.75
741.019	9985.77
745.611	13629.8
750.202	18301
754.789	20203.3
759.374	17569.8
763.957	12407.6
768.537	7938.87
773.114	5201.58
777.689	4145.09
782.261	4064.39
786.831	3066.84
791.398	1828.08
795.963	909.869
800.524	437.089
805.084	426.613
809.641	577.347
814.195	1282.61
818.747	2376.44
823.296	4921.04
827.842	10065.9
832.386	19888.1
836.928	27244.9
841.467	28759
846.003	24688.5
850.537	15575.4
855.068	13663.4
859.597	16949.8
864.123	16781.7
868.646	10235.9
873.167	5781.52
877.686	4127.52
882.202	2470.87
886.715	1493.64
891.226	878.836
895.734	494.495
900.24	122.575
904.743	30.0635
909.244	245.084
913.742	369.381
918.238	821.027
922.731	1424.66
927.221	3334.42
931.709	7979.83
936.195	5963.2
940.678	2436.24
945.158	1391.33
949.636	1199.56
954.111	2000.83
958.584	3595.59
963.054	6407.02
967.522	6803.88
971.987	3282.02
976.45	1693.5
980.91	1062.84
985.368	810.435
989.823	668.432
994.275	618
998.725	711.956
1003.17	657.223
1007.62	770.534
1012.06	762.268
1016.5	603.978
1020.94	574.369
1025.37	436.623
1029.81	391.42
1034.23	307.582
1038.66	254.291
1043.09	219.966
1047.51	156.757
1051.93	2.33545
1056.35	24.3442
1060.76	25.3975
1065.17	18.4395
1069.58	28.9302
1073.99	30.6543
1078.4	35.1958
1082.8	184.26
1087.2	49.3359
1091.6	48.1943
1095.99	44.5225
1100.38	115.642
1104.77	0.233887
1109.16	66.6753
1113.55	6.59375
1117.93	57.4414
1122.31	27.127
1126.68	39.5684
1131.06	79.0171
1135.43	96.8091
1139.8	79.7769
1144.17	54.0063
1148.54	16.5605
1152.9	98.0459
1157.26	4.08984
1161.62	52.6167
1165.97	98.4814
1170.32	151.523
1174.67	225.833
1179.02	386.472
1183.37	329.382
1187.71	395.851
1192.05	572.904
1196.39	713.114
1200.72	715.517
1205.05	741.013
1209.38	934.183
1213.71	911.095
1218.04	997.842
1222.36	1170.17
1226.68	1214.68
1231	1240.07
1235.31	1288.83
1239.63	1281.34
1243.94	1256.53
1248.25	1448.63
1252.55	1337.49
1256.86	1384.43
1261.15	1324.02
1265.45	1379.82
1269.75	1362.8
1274.04	1377.64
1278.33	1330
1282.62	1376.41
1286.91	1323.1
1291.19	1249.64
1295.47	988.88
1299.75	740.89
1304.03	593.629
1308.3	485.39
1312.57	375.894
1316.84	169.179
1321.11	290.265
1325.37	197.176
1329.63	159.923
1333.89	96.4824
1338.15	120.865
1342.4	105.22
1346.65	162.81
1350.9	17.501
1355.15	242.249
1359.4	166.315
1363.64	255.485
1367.88	153.694
1372.12	185.891
1376.35	149.029
1380.58	129.197
1384.81	103.509
1389.04	24.6606
1393.26	49.602
1397.49	39.6826
1401.71	26.9605
1405.92	58.7856
1410.14	1.29932
1414.35	62.8013
1418.56	5.12793
1422.77	109.618
1426.98	163.684
1431.18	202.934
1435.38	288.091
1439.58	293.875
1443.78	306.815
1447.97	408.518
1452.16	517.052
1456.35	601.993
1460.54	785.072
1464.72	838.379
1468.9	945.445
1473.08	1085.19
1477.26	1239.14
1481.43	1471.31
1485.6	1547.72
1489.77	1826.06
1493.94	2088.01
1498.1	2109.59
1502.27	2101.97
1506.43	2042.81
1510.58	1849.08
1514.74	1635.33
1518.89	1241.26
1523.04	1031.28
1527.19	631.338
1531.34	513.318
1535.48	315.741
1539.62	144.72
1543.76	107.706
1547.89	87.3906
1552.03	61.9482
1556.16	102.175
1560.29	36.3442
1564.41	113.895
1568.54	86.4326
1572.66	51.8237
1576.78	0.312988
