Measurement: Raman, 514 nm, depolarized, Raman Data Processed
Mineral: Humite
Rruff sample: R050665
Ideal chemistry: Mg_7_(SiO_4_)_3_(F,OH)_2_
Locality: Tilly Foster mine, Brewster, Putnam County, New York, USA
Source: University of Arizona Mineral Museum
Description: Granular aggregate of reddish-orange crystals
Measured chemistry: (Mg_0.91_Fe^2+^_0.09_)_7_(Si_1.00_O_4_)_3_(F_0.56_(OH)_0.44_)_2_
Pin_id: M01664
Orientation: Laser parallel to a* (1 0 0). Fiducial mark perpendicular to laser is parallel to b [0 1 0]
Raman shift (cm-1)	intensity
99.345	0
104.294	4.96973
109.241	84.8281
114.185	419.531
119.126	148.056
124.064	211.022
129	79.938
133.933	134.407
138.864	405.706
143.791	584.792
148.716	564.401
153.638	402.537
158.558	478.495
163.475	382.793
168.389	407.082
173.3	425.109
178.209	519.618
183.115	641.339
188.018	962.28
192.918	1421.89
197.816	1510.8
202.711	1124.11
207.604	770.861
212.494	816.078
217.381	988.76
222.265	1152.89
227.147	970.44
232.026	829.445
236.902	920.989
241.775	790.161
246.646	951.674
251.514	826.085
256.38	877.586
261.243	915.71
266.103	964.904
270.96	1089.27
275.815	1037.99
280.667	1110.73
285.516	999.291
290.363	1039.58
295.207	1002.5
300.048	910.974
304.887	895.939
309.723	864.34
314.556	974.131
319.387	1030.27
324.215	935.732
329.04	788.476
333.862	816.41
338.682	631.491
343.5	730.705
348.314	937.059
353.126	1018.81
357.935	830.245
362.742	538.619
367.546	374.242
372.347	295.553
377.145	354.676
381.941	456.228
386.735	583.623
391.525	354.931
396.313	206.523
401.098	53.8423
405.881	203.008
410.661	93.9287
415.438	14.8342
420.213	164.904
424.985	245.066
429.754	163.383
434.521	252.074
439.285	295.834
444.046	469.598
448.805	726.017
453.561	812.064
458.315	1069.71
463.065	1186.94
467.813	1285.72
472.559	1672.04
477.302	1986.86
482.042	2357.17
486.78	2663.03
491.515	2857.58
496.247	2894.66
500.977	3134.38
505.704	2967.41
510.428	2845.6
515.15	2929.83
519.869	3460.99
524.586	4461.57
529.3	5539.65
534.011	5954.58
538.719	5291.06
543.425	4867.77
548.129	3936.15
552.83	2613.38
557.528	2043.61
562.223	1771.48
566.916	1795.06
571.607	1822.63
576.294	1661.21
580.979	1566.77
585.662	1571.34
590.341	1204.92
595.019	1163.51
599.693	1362.12
604.365	1632.76
609.035	1405.43
613.701	1050.16
618.366	745.958
623.027	441.832
627.686	326.798
632.342	17.239
636.996	26.9431
641.647	74.8811
646.296	126.399
650.942	161.577
655.585	184.526
660.226	146.218
664.864	47.4531
669.499	10.7854
674.132	35.4443
678.763	21.8074
683.39	131.671
688.015	217.609
692.638	311.928
697.258	648.389
701.875	879.677
706.49	1304.66
711.102	1811.39
715.712	2408.91
720.319	3198.28
724.923	4311.53
729.525	5804.72
734.124	7679.89
738.721	9760.09
743.315	13404.4
747.907	18662.8
752.496	22796.3
757.082	22373.1
761.666	17642.2
766.247	11758.5
770.826	7467.45
775.402	5472
779.975	5151.4
784.546	4749.21
789.115	3072.88
793.681	1835.32
798.244	1005.74
802.804	746.77
807.363	967.576
811.918	1446.31
816.471	2651.23
821.022	4968.23
825.569	9632.66
830.115	19660.5
834.657	33253.8
839.198	36516.4
843.735	36499.5
848.27	24381.2
852.803	17113.4
857.333	18044.2
861.86	21811.6
866.385	16431.5
870.907	9118.97
875.427	5740
879.944	3907.5
884.459	2284.52
888.971	1347.09
893.481	824.259
897.988	309.004
902.492	149.261
906.994	153.136
911.493	401.908
915.99	557.868
920.485	760.453
924.976	1305.35
929.466	3451.31
933.952	5053.38
938.436	2807.59
942.918	1327.87
947.397	1114.49
951.874	1662.28
956.348	2894.44
960.819	5922.95
965.288	8848.35
969.755	5893.2
974.219	2624.74
978.68	1496
983.139	998.127
987.595	818.684
992.049	702.187
996.501	673.61
1000.95	816.968
1005.4	760.648
1009.84	707.248
1014.28	701.342
1018.72	556.334
1023.16	517.04
1027.59	437.192
1032.02	264.573
1036.45	252.928
1040.88	248.182
1045.3	127.528
1049.72	25.0898
1054.14	37.4019
1058.56	44.9253
1062.97	14.5938
1067.38	98.251
1071.79	18.2969
1076.19	61.9014
1080.6	130.958
1085	105.974
1089.4	58.9546
1093.79	34.6885
1098.19	32.1743
1102.58	13.5117
1106.97	8.66162
1111.35	15.1724
1115.74	40.0664
1120.12	48.0073
1124.5	12.9038
1128.87	26.2764
1133.25	106.481
1137.62	54.647
1141.99	107.366
1146.35	73.4453
1150.72	209.143
1155.08	97.8706
1159.44	81.5537
1163.79	118.221
1168.15	121.991
1172.5	171.869
1176.85	326.948
1181.19	395.924
1185.54	445.479
1189.88	617.972
1194.22	570.975
1198.55	724.372
1202.89	871.946
1207.22	964.803
1211.55	960.196
1215.88	1033.42
1220.2	1220.34
1224.52	1274.13
1228.84	1341.28
1233.16	1356.67
1237.47	1468.05
1241.78	1414.76
1246.09	1478.71
1250.4	1484.61
1254.7	1359.53
1259.01	1427.17
1263.31	1387.87
1267.6	1511.91
1271.9	1272
1276.19	1452.05
1280.48	1384.87
1284.77	1415.05
1289.05	1376.15
1293.33	1244.49
1297.61	891.888
1301.89	772.352
1306.16	507.723
1310.44	425.862
1314.71	361.739
1318.97	211.377
1323.24	142.785
1327.5	70.0171
1331.76	141.197
1336.02	146.213
1340.28	98.2886
1344.53	190.551
1348.78	130.956
1353.03	177.427
1357.27	165.986
1361.52	189.608
1365.76	199.155
1370	169.75
1374.23	137.148
1378.47	154.038
1382.7	52.1773
1386.93	48.2163
1391.15	42.0703
1395.38	23.5776
1399.6	0.228516
1403.82	11.0815
1408.03	96.6523
1412.25	55.5815
1416.46	86.7251
1420.67	5.3916
1424.88	72.4468
1429.08	170.368
1433.28	159.398
1437.48	271.598
1441.68	364.864
1445.87	390.996
1450.07	423.268
1454.26	630.868
1458.44	739.757
1462.63	770.188
1466.81	979.432
1470.99	1081.87
1475.17	1180.6
1479.34	1438.4
1483.52	1706.05
1487.69	1852.02
1491.86	2219.16
1496.02	2274.83
1500.19	2249.3
1504.35	2284.25
1508.51	1948.14
1512.66	1766.97
1516.82	1459.9
1520.97	1025.05
1525.12	862.202
1529.26	479.592
1533.41	345.878
1537.55	271.198
1541.69	81.625
1545.83	70.5523
1549.96	56.145
1554.09	161.631
1558.22	18.5488
1562.35	146.393
1566.48	55.5005
1570.6	115.168
1574.72	0.233887
