Measurement: Raman, 514 nm, depolarized, Raman Data Processed
Mineral: Humite
Rruff sample: R040071
Ideal chemistry: Mg_7_(SiO_4_)_3_(F,OH)_2_
Locality: Tilly Foster mine, Brewster, Putnam County, New York, USA
Source: University of Arizona Mineral Museum
Description: Red crystals
Measured chemistry: (Mg_0.91_Fe_0.09_)_7_(Si_0.99_Ti_0.01_O_4_)_3_(F_0.76_(OH)_0.24_)_2_
Pin_id: L00333
Orientation: Laser parallel to -c* (0 0 -1). Fiducial mark perpendicular to laser is parallel to a [1 0 0]
Raman shift (cm-1)	intensity
94.071	0
98.251	26.358
102.428	22.614
106.604	88.234
110.777	177.189
114.949	114.606
119.119	203.379
123.286	157.077
127.452	101.567
131.615	180.059
135.777	299.306
139.937	395.255
144.094	427.187
148.25	474.569
152.403	393.346
156.555	414.087
160.705	448.749
164.853	510.253
168.998	515.926
173.142	499.296
177.284	588.26
181.424	591.115
185.562	682.262
189.698	877.487
193.831	1033.71
197.963	1189
202.093	1218.39
206.221	1338.92
210.347	1222.61
214.472	611.485
218.594	708.62
222.714	775.053
226.832	813.818
230.948	891.928
235.063	931.366
239.175	905.105
243.286	909.118
247.394	1020.06
251.501	996.303
255.605	900.092
259.708	824.195
263.808	716.649
267.907	707.048
272.004	658.167
276.099	852.111
280.192	674.677
284.283	616.766
288.372	567.3
292.459	589.22
296.544	583.479
300.627	587.036
304.709	654.851
308.788	810.891
312.865	973.13
316.941	1176.55
321.015	1288.2
325.086	1280.23
329.156	1087.8
333.224	1028.23
337.29	928.562
341.354	799.719
345.416	778.302
349.476	725.361
353.534	709.891
357.591	539.754
361.645	377.823
365.698	302.965
369.748	185.144
373.797	180.324
377.844	164.496
381.889	73.654
385.932	101.788
389.973	61.889
394.012	42.066
398.049	79.184
402.084	97.6
406.118	96.384
410.15	33.661
414.179	93.265
418.207	232.663
422.233	442.962
426.257	564.244
430.279	527.634
434.299	387.743
438.318	312.921
442.334	322.031
446.349	430.063
450.361	451.91
454.372	532.851
458.381	585.59
462.388	500.215
466.394	672.72
470.397	752.098
474.398	841.344
478.398	993.151
482.396	1158.29
486.391	1394.21
490.385	1468.51
494.377	1574.45
498.368	1646.62
502.356	1670.51
506.342	1612.91
510.327	1555.32
514.31	1587.52
518.291	1676.59
522.27	1928.31
526.247	2475.54
530.222	2894.35
534.196	3005.82
538.167	2903.96
542.137	2606.75
546.105	2302.21
550.071	1953.33
554.035	1503.56
557.998	1206.19
561.958	1140.35
565.917	1026.73
569.874	928.885
573.829	962.927
577.782	1054.86
581.733	1244.52
585.683	1486.9
589.63	1983.02
593.576	2908.87
597.52	4340.46
601.462	5677.78
605.402	5809.85
609.341	4561.67
613.277	2927.24
617.212	1836.57
621.145	1123.66
625.076	659.76
629.006	390.158
632.933	138.58
636.859	55.772
640.783	78.467
644.705	140.507
648.625	102.567
652.543	136.662
656.46	109.872
660.375	184.062
664.288	181.247
668.199	121.489
672.108	58.637
676.016	7.567
679.921	20.573
683.825	37.082
687.727	158.65
691.628	210.168
695.526	261.649
699.423	468.107
703.318	561.555
707.211	786.009
711.102	1103.51
714.992	1626.21
718.879	1969.22
722.765	2474.59
726.649	3143.26
730.532	4008.14
734.412	5016.12
738.291	6031.2
742.168	7590.79
746.043	9946.73
749.916	12579.2
753.788	14435.8
757.658	13964.6
761.526	11955.6
765.392	9104.8
769.257	7123.24
773.119	5545.92
776.98	5244.89
780.839	5767.16
784.697	5564.26
788.552	4425.72
792.406	3282.1
796.258	2623.26
800.108	2295.71
803.957	2387.36
807.804	2530.21
811.649	3130.94
815.492	4032.89
819.333	5942.55
823.173	9385.03
827.011	15762.1
830.847	27492.7
834.681	41189.1
838.514	44563.9
842.345	41626.2
846.174	34144.1
850.001	22720.6
853.827	16533.7
857.651	15442.4
861.473	16870.8
865.293	15389.8
869.112	10895.4
872.928	7022.01
876.744	4680.3
880.557	3466.61
884.369	2513.49
888.178	1875.91
891.987	1524.87
895.793	1152.39
899.598	985.447
903.401	840.052
907.202	858.202
911.001	1208.15
914.799	1647.04
918.595	1733.03
922.389	1163.64
926.182	920.949
929.972	733.942
933.761	829.351
937.549	892.001
941.334	865.321
945.118	1075.58
948.9	1453.39
952.681	1927.42
956.459	2285.09
960.236	3975.04
964.012	6814.6
967.785	8025.22
971.557	5666.97
975.327	3554.06
979.095	2363.12
982.862	1594.37
986.627	1201.6
990.39	1120.61
994.152	1045.61
997.912	1042.7
1001.67	1001.19
1005.43	1033.4
1009.18	981.53
1012.93	981.011
1016.68	899.349
1020.43	830.594
1024.18	780.159
1027.93	708.227
1031.67	554.606
1035.42	520.569
1039.16	484.015
1042.9	443.613
1046.63	346.353
1050.37	193.22
1054.11	193.204
1057.84	59.288
1061.57	40.548
1065.3	3.364
1069.03	90.169
1072.75	60.039
1076.47	64.96
1080.2	107.992
1083.92	27.218
1087.64	77.605
1091.36	115.205
1095.07	78.18
1098.79	73.46
1102.5	42.036
1106.21	73.885
1109.92	14.911
1113.62	40.448
1117.33	49.875
1121.04	61.838
1124.74	204.662
1128.44	67.34
1132.14	16.17
1135.83	13.089
1139.53	2.511
1143.22	2.375
1146.92	62.262
1150.61	65.754
1154.3	11.346
1157.98	72.716
1161.67	55.607
1165.35	109.046
1169.04	145.854
1172.72	118.79
1176.4	155.258
1180.07	183.378
1183.75	266.411
1187.42	312.275
1191.1	311.155
1194.77	448.209
1198.44	453.452
1202.1	497.263
1205.77	541.309
1209.43	683.84
1213.1	660.621
1216.76	703.307
1220.42	800.488
1224.07	814.962
1227.73	903.867
1231.38	943.947
1235.04	1084.27
1238.69	914.906
1242.34	1023.47
1245.99	995.167
1249.63	1018.08
1253.28	936.561
1256.92	1003.44
1260.56	1020.03
1264.2	931.837
1267.84	902.901
1271.48	1030.42
1275.11	960.06
1278.74	960.39
1282.38	1029.82
1286.01	988.289
1289.63	934.256
1293.26	873.723
1296.89	788.133
1300.51	681.085
1304.13	565.783
1307.75	396.693
1311.37	398.978
1314.99	322.208
1318.6	266.849
1322.22	283.51
1325.83	225.471
1329.44	237.867
1333.05	195.605
1336.66	192.503
1340.26	123.727
1343.87	135.354
1347.47	174.408
1351.07	182.867
1354.67	175.696
1358.27	191.892
1361.86	130.631
1365.46	71.888
1369.05	188.734
1372.64	124.27
1376.23	101.632
1379.82	24.984
1383.41	58.705
1386.99	66.038
1390.57	30.116
1394.16	55.895
1397.74	37.427
1401.32	11.495
1404.89	20.314
1408.47	43.37
1412.04	43.567
1415.61	12.381
1419.18	23.778
1422.75	10.982
1426.32	2.606
1429.89	39.718
1433.45	11.132
1437.01	59.874
1440.58	96.052
1444.13	155.125
1447.69	190.091
1451.25	254.876
1454.81	221.783
1458.36	249.511
1461.91	268.203
1465.46	336.738
1469.01	342.774
1472.56	365.058
1476.1	382.682
1479.64	435.423
1483.19	569.011
1486.73	567.206
1490.27	594.107
1493.81	693.349
1497.34	745.757
1500.88	774.435
1504.41	769.63
1507.94	740.755
1511.47	602.47
1515	499.151
1518.53	343.124
1522.05	133.758
1525.57	2.89
