Measurement: Raman, 514 nm, depolarized, Raman Data Processed
Mineral: Humite
Rruff sample: R050665
Ideal chemistry: Mg_7_(SiO_4_)_3_(F,OH)_2_
Locality: Tilly Foster mine, Brewster, Putnam County, New York, USA
Source: University of Arizona Mineral Museum
Description: Granular aggregate of reddish-orange crystals
Measured chemistry: (Mg_0.91_Fe^2+^_0.09_)_7_(Si_1.00_O_4_)_3_(F_0.56_(OH)_0.44_)_2_
Pin_id: M00589
Orientation: Laser parallel to b* (0 1 0). Fiducial mark perpendicular to laser is parallel to c [0 0 1]
Raman shift (cm-1)	intensity
159.339	0
164.26	11.8267
169.179	2.06262
174.095	0.850708
179.009	139.581
183.919	134.243
188.827	184.657
193.732	506.227
198.634	540.628
203.534	295.377
208.43	97.1237
213.324	148.681
218.215	222.945
223.104	249.514
227.99	287.889
232.872	335.036
237.753	335.288
242.63	409.55
247.504	431.949
252.376	405.54
257.245	467.343
262.112	582.371
266.975	394.661
271.836	285.236
276.694	300.124
281.549	320.146
286.402	294.081
291.252	228.576
296.099	195.438
300.943	232.268
305.785	219.616
310.624	238.755
315.46	360.553
320.293	473.831
325.124	500.779
329.952	427.116
334.777	353.78
339.599	406.723
344.419	332.907
349.236	296.298
354.05	202.875
358.862	232.658
363.67	137.731
368.476	71.0525
373.28	0.236938
378.08	36.6483
382.878	9.08533
387.673	92.0263
392.466	15.4925
397.255	12.4888
402.042	37.1215
406.827	39.4211
411.608	32.4716
416.387	64.4496
421.163	145.442
425.936	159.337
430.707	52.9853
435.475	8.55579
440.24	17.9681
445.003	34.3223
449.763	144.411
454.52	242.424
459.274	307.99
464.026	316.163
468.775	357.656
473.522	333.445
478.265	319.848
483.006	271.079
487.744	283.125
492.48	197.973
497.213	209.348
501.943	204.124
506.671	225.606
511.395	187.742
516.117	200.845
520.837	313.145
525.554	330.763
530.268	428.536
534.979	446.102
539.688	467.447
544.394	432.548
549.097	452.914
553.798	383.36
558.496	390.443
563.191	413.805
567.884	480.645
572.574	574.963
577.261	764.76
581.945	964.437
586.627	1111.27
591.307	1548.51
595.983	2403.24
600.657	3474.46
605.329	3955.17
609.997	2821.38
614.663	1605.08
619.326	956.287
623.987	538.003
628.645	343.235
633.3	144.988
637.953	78.2594
642.603	8.92835
647.25	24.851
651.895	9.04334
656.537	37.6188
661.176	58.3313
665.813	36.2639
670.447	84.4989
675.079	103.056
679.708	52.8793
684.334	62.7836
688.957	35.6206
693.578	8.0957
698.196	12.0144
702.812	107.862
707.425	259.521
712.035	373.017
716.643	635.376
721.248	873.642
725.85	1255.88
730.45	1493.06
735.047	1822.2
739.642	1984.31
744.234	2602.43
748.823	3225.58
753.41	3839.78
757.994	3802.07
762.575	3284.45
767.154	2776.95
771.73	2597.53
776.304	3065.05
780.875	3853.53
785.443	3507.42
790.009	2364.18
794.572	1681.97
799.132	1456.46
803.69	1416.7
808.245	1743.68
812.798	2168.16
817.348	3158.04
821.896	5142.34
826.44	9496.95
830.983	17979.6
835.522	28606.1
840.059	29874.2
844.594	28205.2
849.125	18798.9
853.655	13455.3
858.181	14455.5
862.705	17424.3
867.227	13572.9
871.746	8488.22
876.262	5293.28
880.776	3426.1
885.287	2170.68
889.795	1493.02
894.301	1381.11
898.804	1232.96
903.305	762.586
907.803	563.992
912.299	538.185
916.792	393.233
921.282	346.395
925.77	413.245
930.255	560.719
934.738	765.596
939.218	753.755
943.695	783.953
948.17	1122.69
952.643	1876.25
957.112	2376.57
961.58	4282.01
966.044	6234.64
970.506	4214.41
974.966	2126.65
979.423	1195.75
983.877	676.4
988.329	516.561
992.778	389.462
997.225	337.762
1001.67	323.602
1006.11	368.671
1010.55	308.752
1014.99	277.402
1019.42	243.988
1023.85	326.344
1028.28	229.444
1032.71	217.127
1037.13	233.548
1041.55	173.532
1045.97	145.155
1050.39	55.6968
1054.8	15.8813
1059.21	104.489
1063.62	110.655
1068.03	49.7981
1072.43	78.4094
1076.83	136.55
1081.23	26.4985
1085.62	69.0403
1090.02	21.9114
1094.41	25.5984
1098.8	23.114
1103.18	30.7427
1107.56	33.7336
1111.94	38.2283
1116.32	34.9067
1120.7	92.3518
1125.07	129.595
1129.44	98.5991
1133.81	65.344
1138.17	93.7837
1142.54	34.8987
1146.9	139.68
1151.26	183.147
1155.61	120.273
1159.96	89.053
1164.32	143.464
1168.66	103.481
1173.01	119.094
1177.35	195.555
1181.69	171.587
1186.03	197.841
1190.36	106.507
1194.7	154.933
1199.03	135.49
1203.36	205.583
1207.68	203.142
1212	204.923
1216.32	212.633
1220.64	203.993
1224.96	218.879
1229.27	207.663
1233.58	211.938
1237.89	205.724
1242.19	155.865
1246.49	176.843
1250.8	206.721
1255.09	171.884
1259.39	197.455
1263.68	133.222
1267.97	175.477
1272.26	106.844
1276.54	182.288
1280.83	150.669
1285.11	167.856
1289.38	141.008
1293.66	161.075
1297.93	158.809
1302.2	34.0488
1306.47	153.461
1310.74	93.761
1315	47.1965
1319.26	45.428
1323.52	74.6216
1327.78	48.6833
1332.03	87.842
1336.28	15.706
1340.53	27.5154
1344.77	68.9763
1349.02	42.3582
1353.26	29.3377
1357.49	25.9084
1361.73	47.0696
1365.96	53.1853
1370.19	17.6775
1374.42	6.69434
1378.65	34.8357
1382.87	49.8665
1387.09	4.45532
1391.31	2.06519
1395.53	32.3306
1399.74	31.3364
1403.95	89.9045
1408.16	51.1746
1412.37	37.3313
1416.57	25.6746
1420.78	33.8093
1424.97	35.1023
1429.17	47.8938
1433.37	73.1609
1437.56	67.1931
1441.75	154.334
1445.93	112.339
1450.12	82.3064
1454.3	111.883
1458.48	162.13
1462.66	135.018
1466.83	144.133
1471	188.929
1475.17	152.566
1479.34	156.354
1483.51	175.84
1487.67	299.784
1491.83	200.719
1495.99	211.083
1500.14	251.045
1504.29	259.596
1508.44	203.097
1512.59	160.43
1516.74	147.829
1520.88	178.744
1525.02	93.0806
1529.16	67.8281
1533.3	56.9758
1537.43	1.44629
1541.56	62.8811
1545.69	33.169
1549.82	9.01465
1553.94	160.252
1558.06	13.998
1562.18	0
