Measurement: Raman, 514 nm, depolarized, Raman Data Processed
Mineral: Humite
Rruff sample: R040071
Ideal chemistry: Mg_7_(SiO_4_)_3_(F,OH)_2_
Locality: Tilly Foster mine, Brewster, Putnam County, New York, USA
Source: University of Arizona Mineral Museum
Description: Red crystals
Measured chemistry: (Mg_0.91_Fe_0.09_)_7_(Si_0.99_Ti_0.01_O_4_)_3_(F_0.76_(OH)_0.24_)_2_
Pin_id: L00308
Orientation: Laser parallel to b* (0 1 0). Fiducial mark perpendicular to laser is parallel to c [0 0 1]
Raman shift (cm-1)	intensity
85.706	0
89.89	115.674
94.071	259.798
98.251	73.129
102.428	14.133
106.604	92.41
110.777	62.669
114.949	183.876
119.119	132.939
123.286	50.863
127.452	189.681
131.615	288.228
135.777	325.114
139.937	311.157
144.094	270.516
148.25	207.342
152.403	113.133
156.555	68.759
160.705	5.218
164.853	48.334
168.998	27.367
173.142	6.985
177.284	12.724
181.424	9.739
185.562	68.123
189.698	260.259
193.831	588.848
197.963	651.944
202.093	486.848
206.221	236.656
210.347	504.663
214.472	164.265
218.594	247.021
222.714	296.406
226.832	361.103
230.948	457.615
235.063	444.132
239.175	465.876
243.286	428.517
247.394	503.412
251.501	539.564
255.605	528.86
259.708	618.751
263.808	533.565
267.907	405.026
272.004	389.457
276.099	368.751
280.192	383.361
284.283	396.434
288.372	334.063
292.459	325.923
296.544	278.596
300.627	307.648
304.709	214.607
308.788	282.58
312.865	418.551
316.941	546.188
321.015	753.101
325.086	684.263
329.156	578.32
333.224	528.091
337.29	509.476
341.354	464.307
345.416	452.934
349.476	410.667
353.534	343.258
357.591	318.893
361.645	269.401
365.698	206.582
369.748	49.77
373.797	41.908
377.844	56.265
381.889	93.544
385.932	112.25
389.973	59.927
394.012	24.42
398.049	22.64
402.084	33.89
406.118	14.516
410.15	179.508
414.179	229.202
418.207	235.382
422.233	246.047
426.257	206.232
430.279	94.968
434.299	32.258
438.318	39.251
442.334	6.985
446.349	101.802
450.361	284.101
454.372	349.558
458.381	379.81
462.388	381.022
466.394	499.001
470.397	469.232
474.398	406.274
478.398	436.974
482.396	433.069
486.391	329.355
490.385	259.602
494.377	220.745
498.368	210.999
502.356	225.177
506.342	180.077
510.327	177.04
514.31	197.562
518.291	281.021
522.27	329.131
526.247	372.498
530.222	449.563
534.196	442.214
538.167	501.737
542.137	558.168
546.105	622.235
550.071	531.522
554.035	481.984
557.998	424.319
561.958	442.57
565.917	472.039
569.874	571.244
573.829	722.126
577.782	1094.92
581.733	1261.56
585.683	1372.49
589.63	1710.19
593.576	2572.45
597.52	4033.36
601.462	5570.91
605.402	5712.91
609.341	4239.82
613.277	2528.04
617.212	1444.99
621.145	923.695
625.076	594.387
629.006	368.372
632.933	210.346
636.859	109.065
640.783	29.513
644.705	44.652
648.625	37.481
652.543	19.073
656.46	76.231
660.375	69.392
664.288	27.528
668.199	61.093
672.108	153.347
676.016	122.095
679.921	31.19
683.825	68.698
687.727	7.809
691.628	66.318
695.526	20.261
699.423	97.573
703.318	115.312
707.211	270.974
711.102	486.575
714.992	670.145
718.879	1005.63
722.765	1265.38
726.649	1560
730.532	1838.58
734.412	2046.15
738.291	2301.69
742.168	2744.24
746.043	3283.8
749.916	3938.4
753.788	4293.11
757.658	4101.93
761.526	3696.88
765.392	3345.96
769.257	3180.23
773.119	3461.65
776.98	4226.22
780.839	5306.96
784.697	5048.87
788.552	3817.97
792.406	2877.14
796.258	2552.81
800.108	2506.94
803.957	2663.12
807.804	3086.84
811.649	3553.09
815.492	4512.6
819.333	6075.71
823.173	9243.63
827.011	15726.2
830.847	28103.1
834.681	41856.9
838.514	41854.3
842.345	42862.5
846.174	33847.6
850.001	23070.7
853.827	19228.3
857.651	21882.6
861.473	26575.2
865.293	22634.3
869.112	15558.7
872.928	11109.6
876.744	8083.79
880.557	5541.43
884.369	4022.47
888.178	3150.93
891.987	2703.78
895.793	2813.04
899.598	2371.7
903.401	1706.75
907.202	1437.4
911.001	1278.75
914.799	1197.41
918.595	1154.45
922.389	1108.31
926.182	1040.01
929.972	1000.33
933.761	1186.92
937.549	1229.33
941.334	1443.35
945.118	1681.4
948.9	2287.27
952.681	3154.21
956.459	3646.87
960.236	5611.2
964.012	9761.54
967.785	9398.62
971.557	5388.9
975.327	3012.2
979.095	1899.16
982.862	1360.36
986.627	1015.47
990.39	1456.77
994.152	1307.14
997.912	540.496
1001.67	624.846
1005.43	530.42
1009.18	609.741
1012.93	545.049
1016.68	522.362
1020.43	573.896
1024.18	453.915
1027.93	426.507
1031.67	385.892
1035.42	372.585
1039.16	459.177
1042.9	400.114
1046.63	243.667
1050.37	94.541
1054.11	27.338
1057.84	21.183
1061.57	2.871
1065.3	68.904
1069.03	86.974
1072.75	52.041
1076.47	89.42
1080.2	89.731
1083.92	44.787
1087.64	10.653
1091.36	39.28
1095.07	12.949
1098.79	79.912
1102.5	46.982
1106.21	66.128
1109.92	5.442
1113.62	15.064
1117.33	10.427
1121.04	21.864
1124.74	23.048
1128.44	23.321
1132.14	73.492
1135.83	33.466
1139.53	41.343
1143.22	113.012
1146.92	71.78
1150.61	60.182
1154.3	93.543
1157.98	46.023
1161.67	24.535
1165.35	71.531
1169.04	131.914
1172.72	90.487
1176.4	153.116
1180.07	104.691
1183.75	88.86
1187.42	82.407
1191.1	43.088
1194.77	161.549
1198.44	197.516
1202.1	252.091
1205.77	271.258
1209.43	324.451
1213.1	247.496
1216.76	281.552
1220.42	255.259
1224.07	327.12
1227.73	292.478
1231.38	389.067
1235.04	425.192
1238.69	288.256
1242.34	246.349
1245.99	229.662
1249.63	275.714
1253.28	254.773
1256.92	254.633
1260.56	272.78
1264.2	300.343
1267.84	253.841
1271.48	243.994
1275.11	129.987
1278.74	193.825
1282.38	161.337
1286.01	184.808
1289.63	226.063
1293.26	211.493
1296.89	191.437
1300.51	180.348
1304.13	100.65
1307.75	148.309
1311.37	98.563
1314.99	55.985
1318.6	127.544
1322.22	120.593
1325.83	143.242
1329.44	131.122
1333.05	111.34
1336.66	98.487
1340.26	10.406
1343.87	39.629
1347.47	53.211
1351.07	38.076
1354.67	56.587
1358.27	143.793
1361.86	92.758
1365.46	59.497
1369.05	120.02
1372.64	90.462
1376.23	7.095
1379.82	14.601
1383.41	18.009
1386.99	455.245
1390.57	54.412
1394.16	111.188
1397.74	77.485
1401.32	116.731
1404.89	110.704
1408.47	138.998
1412.04	24.09
1415.61	103.79
1419.18	56.213
1422.75	66.247
1426.32	92.358
1429.89	125.464
1433.45	168.002
1437.01	234.276
1440.58	187.958
1444.13	142.705
1447.69	132.385
1451.25	58.167
1454.81	62.582
1458.36	16.378
1461.91	4.311
1465.46	44.936
1469.01	125.662
1472.56	95.967
1476.1	122.9
1479.64	197.057
1483.19	138.778
1486.73	149.583
1490.27	148.786
1493.81	115.78
1497.34	66.496
1500.88	73.3
1504.41	56.416
1507.94	40.59
1511.47	16.999
1515	83.083
