Measurement: Raman, 514 nm, depolarized, Raman Data Processed
Mineral: Huntite
Rruff sample: R040126
Ideal chemistry: CaMg_3_(CO_3_)_4_
Locality: Crestmore Quarry, Riverside County, California, USA
Source: University of Arizona Mineral Museum
Description: White fine-grained massive
Measured chemistry: Ca_0.97_Mg_3.02_(CO_3_)_4_
Pin_id: M00404
Raman shift (cm-1)	intensity
95.465	0
99.644	57.77
103.82	84.813
107.995	215.627
112.168	525.711
116.339	773.445
120.508	712.726
124.675	471.919
128.84	398.697
133.003	521.545
137.164	499.376
141.323	551.272
145.48	546.413
149.635	734.307
153.788	1054.61
157.939	967.072
162.088	571.597
166.235	537.903
170.38	635.835
174.523	545.259
178.664	566.08
182.803	357.262
186.94	528.854
191.076	551.015
195.209	414.056
199.34	497.807
203.47	402.28
207.597	427.527
211.722	343.54
215.846	335.486
219.967	378.09
224.087	457.771
228.204	636.795
232.32	706.42
236.434	706.643
240.545	1287.43
244.655	1808.72
248.763	1760.39
252.869	2242.85
256.973	1606.47
261.075	924.349
265.175	656.916
269.273	1831.38
273.369	2426.13
277.463	1506.33
281.556	1413.72
285.646	582.411
289.734	347.408
293.821	239.405
297.905	300.163
301.988	213.396
306.069	175.267
310.147	577.607
314.224	1274.48
318.299	1428.58
322.372	822.397
326.443	257.975
330.512	227.15
334.579	18.377
338.645	40.337
342.708	68.411
346.769	34.113
350.829	49.522
354.887	45.121
358.942	120.88
362.996	152.176
367.048	220.361
371.098	136.569
375.146	136.636
379.192	295.511
383.236	324.468
387.279	342.36
391.319	379.307
395.358	336.169
399.394	224.938
403.429	53.771
407.462	106.302
411.493	36.543
415.522	5.432
419.549	22.439
423.575	258.839
427.598	7.473
431.619	1.746
435.639	101.18
439.657	59.527
443.673	18.256
447.687	64.053
451.699	46.539
455.709	95.305
459.717	165.967
463.724	53.986
467.728	51.535
471.731	18.85
475.732	126.021
479.731	83.76
483.728	43.85
487.723	7.373
491.716	51.305
495.708	119.205
499.697	30.283
503.685	154.377
507.671	191.367
511.655	107.961
515.637	192.146
519.617	196.248
523.596	151.6
527.572	115.197
531.547	81.738
535.52	105.191
539.491	157.268
543.46	19.045
547.427	130.492
551.393	211.723
555.356	112.67
559.318	33.289
563.278	26.441
567.236	213.092
571.192	151.564
575.147	70.611
579.099	169.814
583.05	167.566
586.999	91.852
590.946	77.695
594.891	8.314
598.834	178.805
602.776	195.236
606.715	178.699
610.653	79.785
614.589	3.658
618.523	171.838
622.456	74.957
626.386	49.006
630.315	118.568
634.242	122.928
638.167	108.635
642.09	140.955
646.012	64.193
649.931	82.379
653.849	143.922
657.765	202.154
661.679	140.264
665.592	130.492
669.502	210.484
673.411	281.109
677.318	158.16
681.223	251.744
685.126	7.871
689.028	190.896
692.927	326.781
696.825	292.447
700.721	495.203
704.616	354.221
708.508	420.227
712.399	565.484
716.288	537.389
720.175	556.215
724.06	739
727.944	658.682
731.825	329.43
735.705	223.994
739.584	476.895
743.46	262.988
747.334	235.312
751.207	214.01
755.078	314.91
758.947	356.016
762.815	386.338
766.68	44.736
770.544	297.67
774.406	216.014
778.267	343.092
782.125	170.148
785.982	201.68
789.837	454.656
793.69	179.822
797.542	142.547
801.391	165.805
805.239	223.623
809.085	103.074
812.93	142.828
816.772	221.945
820.613	264.869
824.452	207.48
828.29	252.336
832.125	265.824
835.959	61.871
839.791	117.451
843.621	111.307
847.45	94.395
851.277	307.686
855.102	189.377
858.925	103.137
862.746	325.873
866.566	138.26
870.384	282.045
874.2	194.617
878.015	726.814
881.828	448.854
885.639	9.258
889.448	362.559
893.256	74.012
897.061	65.176
900.865	36.053
904.668	245.895
908.468	416.613
912.267	467.141
916.064	407.117
919.86	125.564
923.653	285.789
927.445	194.615
931.236	544.209
935.024	353.146
938.811	332.416
942.596	410.723
946.379	335.344
950.161	361.973
953.94	428.332
957.719	186.254
961.495	543.457
965.27	69.939
969.043	186.635
972.814	323.871
976.583	430.354
980.351	356.018
984.117	524.533
987.882	415.502
991.644	122.129
995.405	387.064
999.165	369.811
1002.92	628.42
1006.68	408.035
1010.43	564.152
1014.18	369.943
1017.93	85.66
1021.68	377.439
1025.43	475.312
1029.18	671.322
1032.92	518.844
1036.66	585.438
1040.4	411.688
1044.14	396.445
1047.88	569.906
1051.62	385.434
1055.35	860.078
1059.08	894.754
1062.81	417.059
1066.54	490.496
1070.27	254.574
1073.99	427.555
1077.72	611.039
1081.44	503.852
1085.16	695.531
1088.88	686.777
1092.59	548.574
1096.31	760.465
1100.02	641.062
1103.73	1030.8
1107.44	1310.2
1111.15	1779.87
1114.86	1764.22
1118.57	5452.57
1122.27	17660.8
1125.97	9518.55
1129.67	2775.56
1133.37	1162.52
1137.07	559.625
1140.76	266.285
1144.45	96.723
1148.15	142.176
1151.84	46.992
1155.53	416.355
1159.21	339.004
1162.9	512.316
1166.58	25.141
1170.26	142.211
1173.94	190.594
1177.62	93.297
1181.3	35.609
1184.97	428.152
1188.65	620.246
1192.32	602.754
1195.99	495.312
1199.66	338.027
1203.33	331
1206.99	374.496
1210.65	448.461
1214.32	613.035
1217.98	449.156
1221.64	711.797
1225.29	829.586
1228.95	374.867
1232.6	419.336
1236.26	38.734
1239.91	100.125
1243.56	532.648
1247.2	260.555
1250.85	636.645
1254.49	648.082
1258.13	167.516
1261.78	262.984
1265.41	428.516
1269.05	192.191
1272.69	328.426
1276.32	447.418
1279.95	72.742
1283.59	556.965
1287.21	599.246
