Measurement: Raman, , ccw, Raman Data Processed
Mineral: Huntite
Rruff sample: P000080
Ideal chemistry: CaMg_3_(CO_3_)_4_
Locality: Virtual
Source: ScottLab
Description: PURPLE OpenSource 20190319
Raman shift (cm-1)	intensity
24.7324	0
30.0357	0
35.339	0
40.6423	0.0533176
45.9455	0.639813
51.2488	1.22631
56.5521	1.8128
61.8554	2.3993
67.1587	2.98579
72.462	3.57229
77.7653	4.15879
83.0685	4.74528
88.3718	5.33178
93.6751	6.26992
98.9784	10.3599
104.282	21.4975
109.585	70.1012
114.888	213.4
120.192	125.222
125.495	28.8675
130.798	13.975
136.101	10.4564
141.405	11.5736
146.708	22.2449
152.011	143.523
157.315	119.29
162.618	21.4889
167.921	32.0044
173.224	9.86795
178.528	6.18302
183.831	5.57142
189.134	5.65024
194.438	6.16293
199.741	7.12612
205.044	8.72968
210.347	11.477
215.651	16.8478
220.954	31.5905
226.257	119.541
231.56	182.323
236.864	138.738
242.167	393.749
247.47	509.066
252.774	838.903
258.077	386.143
263.38	139.392
268.683	455.735
273.987	623.7
279.29	363.503
284.593	156.563
289.897	90.0098
295.2	36.8425
300.503	33.7376
305.807	57.5502
311.11	226.039
316.413	489.838
321.716	150.772
327.02	39.771
332.323	22.0582
337.626	15.5276
342.93	12.1555
348.233	10.4723
353.536	13.8905
358.839	32.101
364.143	57.2623
369.446	54.5158
374.749	43.9722
380.053	53.6965
385.356	70.3014
390.659	73.5823
395.962	58.0049
401.266	36.5114
406.569	20.9187
411.872	12.3855
417.175	7.99131
422.479	5.58901
427.782	4.15224
433.085	3.2229
438.389	2.58477
443.692	2.12653
448.995	1.78599
454.298	1.526
459.602	1.32314
464.905	1.16202
470.208	1.03216
475.512	0.926208
480.815	0.838903
486.118	0.766383
491.421	0.705767
496.725	0.654878
502.028	0.612045
507.331	0.575976
512.635	0.545663
517.938	0.520315
523.241	0.499314
528.544	0.482172
533.848	0.468513
539.151	0.458047
544.454	0.45057
549.758	0.445937
555.061	0.444071
560.364	0.444951
565.668	0.448611
570.971	0.455152
576.274	0.464733
581.577	0.477591
586.881	0.494047
592.184	0.514525
597.487	0.539574
602.79	0.56991
608.094	0.606449
613.397	0.650385
618.7	0.703274
624.004	0.767169
629.307	0.844836
634.61	0.940033
639.913	1.058
645.217	1.20619
650.52	1.39556
655.823	1.6428
661.127	1.97438
666.43	2.43473
671.733	3.10388
677.036	4.14053
682.34	5.90511
687.643	9.379
692.946	17.6269
698.25	37.178
703.553	60.0782
708.856	55.8548
714.159	46.2727
719.463	79.7978
724.766	162.559
730.069	77.8387
735.373	36.0868
740.676	38.0187
745.979	32.6666
751.283	14.1457
756.586	6.90552
761.889	4.4223
767.192	3.20469
772.496	2.47468
777.799	1.99001
783.102	1.64794
788.405	1.39652
793.709	1.20648
799.012	1.06014
804.315	0.946355
809.619	0.857916
814.922	0.79027
820.225	0.740797
825.528	0.708593
830.832	0.694597
836.135	0.702302
841.438	0.739481
846.742	0.82234
852.045	0.986204
857.348	1.31729
862.651	2.07042
867.955	4.29192
873.258	16.6488
878.561	253.058
883.865	14.5145
889.168	3.95849
894.471	1.89312
899.774	1.15177
905.078	0.800777
910.381	0.605294
915.684	0.484001
920.987	0.40267
926.291	0.344857
931.594	0.301842
936.897	0.268651
942.201	0.242274
947.504	0.220791
952.807	0.202933
958.111	0.187833
963.414	0.174876
968.717	0.163621
974.02	0.153739
979.324	0.14498
984.627	0.137155
989.93	0.130114
995.234	0.662715
1000.54	1.50341
1005.84	2.34411
1011.14	3.18481
1016.45	4.02551
1021.75	4.86621
1027.05	5.70692
1032.36	6.54761
1037.66	7.38832
1042.96	8.22901
1048.27	9.06972
1053.57	9.91041
1058.87	10.7511
1064.18	11.5918
1069.48	12.4325
1074.78	13.2732
1080.09	14.1139
1085.39	18.6403
1090.69	25.8497
1096	38.7017
1101.3	69.2872
1106.6	218.191
1111.91	250.643
1117.21	910.301
1122.51	3940.41
1127.82	661.12
1133.12	190.572
1138.42	88.2314
1143.73	50.6078
1149.03	32.7663
1154.33	22.9315
1159.63	16.9423
1164.94	13.0269
1170.24	10.3276
1175.55	8.38837
1180.85	6.94853
1186.15	5.85019
1191.45	4.99333
1196.76	4.31197
1202.06	3.76131
1207.37	3.30994
1212.67	2.93536
1217.97	2.6211
1223.28	2.35486
1228.58	2.12735
1233.88	1.93142
1239.18	1.76151
1244.49	1.6132
1249.79	1.483
1255.09	1.36806
1260.4	1.26615
1265.7	1.17535
1271	1.09412
1276.31	1.02119
1281.61	0.955462
1286.91	0.89606
1292.22	0.842205
1297.52	0.793255
1302.82	0.748652
1308.13	0.707912
1313.43	0.67064
1318.73	0.636512
1324.04	0.605183
1329.34	0.576424
1334.64	0.550001
1339.95	0.525748
1345.25	0.503492
1350.55	0.483112
1355.86	0.464506
1361.16	0.447607
1366.46	0.432388
1371.77	0.41884
1377.07	0.407026
1382.37	0.397036
1387.68	0.389079
1392.98	0.383442
1398.28	0.380632
1403.59	0.381385
1408.89	0.386938
1414.19	0.399283
1419.5	0.421881
1424.8	0.461045
1430.1	0.529354
1435.41	0.654687
1440.71	0.909651
1446.01	1.53626
1451.32	3.81791
1456.62	28.6097
1461.92	38.7014
1467.23	4.42881
1472.53	1.63177
1477.83	0.909333
1483.14	0.616139
1488.44	0.467201
1493.74	0.380227
1499.05	0.324308
1504.35	0.285696
1509.65	0.257506
1514.95	0.236019
1520.26	0.219037
1525.56	0.205218
1530.87	0.193704
1536.17	0.183899
1541.47	0.175416
1546.78	0.167976
1552.08	0.161366
1557.38	0.155434
1562.68	0.150071
1567.99	0.145185
1573.29	0.140708
1578.6	0.136587
1583.9	0.132779
1589.2	0.129252
1594.51	0.125971
1599.81	0.122928
1605.11	0.1201
1610.41	0.117471
1615.72	0.11503
1621.02	0.112781
1626.32	0.110709
1631.63	0.108819
1636.93	0.107111
1642.23	0.105594
1647.54	0.104277
1652.84	0.103179
1658.14	0.102316
1663.45	0.101726
1668.75	0.101442
1674.05	0.101529
1679.36	0.102054
1684.66	0.103127
1689.96	0.104897
1695.27	0.107572
1700.57	0.111455
1705.87	0.117015
1711.18	0.124972
1716.48	0.136494
1721.78	0.153603
1727.09	0.179982
1732.39	0.223007
1737.69	0.299218
1743	0.452382
1748.3	0.832675
1753.6	2.28831
1758.91	19.974
1764.21	16.9808
1769.51	2.10406
1774.82	0.790266
1780.12	0.431517
1785.42	0.283293
1790.73	0.207745
1796.03	0.163885
1801.33	0.136027
1806.64	0.11712
1811.94	0.103622
1817.24	0.0935755
1822.55	0.0858424
1827.85	0.0800072
1833.15	0.0776157
1838.46	0.0752242
1843.76	0.0728327
1849.06	0.0704411
1854.37	0.0680497
1859.67	0.0656581
1864.97	0.0632666
1870.28	0.0608751
1875.58	0.0584836
1880.88	0.056092
1886.18	0.0537005
1891.49	0.051309
1896.79	0.0489175
1902.1	0.046526
1907.4	0.0441344
1912.7	0.0417429
1918.01	0.0393514
1923.31	0.0369599
1928.61	0.0345684
1933.91	0.0321768
1939.22	0.0297853
1944.52	0.0273938
1949.83	0.0250023
1955.13	0.0226107
1960.43	0.0202193
1965.73	0.0178277
1971.04	0.0154362
1976.34	0.0130447
1981.64	0.0106532
1986.95	0.00826162
1992.25	0.00587007
1997.55	0.00347857
2002.86	0.00108703
2008.16	0
