Measurement: Raman, 514 nm, depolarized, Raman Data Processed
Mineral: Hydroxylbastnasite-(Ce)
Rruff sample: R060283
Ideal chemistry: CeCO_3_(OH)
Locality: Trimouns, Luzenac, France
Source: Herb Obodda
Description: Brown hexagonal tablet
Measured chemistry: (Ce_0.50_Nd_0.24_(La,Pr)_0.23_Y_0.03_)_Σ=1_CO_3_((OH)_0.65_F_0.35_)_Σ=1_
Pin_id: M00330
Orientation: Laser parallel to a* (1 0 0). Fiducial mark perpendicular to laser is parallel to c [0 0 1]
Raman shift (cm-1)	intensity
41.831	0
46.827	21.4125
51.819	114.172
56.809	190.843
61.795	232.441
66.779	340.125
71.76	518.021
76.738	362.319
81.713	215.013
86.685	67.491
91.655	68.1727
96.621	126.063
101.585	93.6704
106.545	257.107
111.503	1199.32
116.458	3263.97
121.41	4126.52
126.36	4784.93
131.306	6391.36
136.25	6857.16
141.19	6533.02
146.128	6091.35
151.063	6055.93
155.995	6141.25
160.925	5454.3
165.851	5000.72
170.775	5298.25
175.695	5713.27
180.613	6159.69
185.528	6410.52
190.44	7018.76
195.35	6760.13
200.256	6112.65
205.16	5057.1
210.061	4335.81
214.959	3802.31
219.854	4256.98
224.747	5191.27
229.636	6192.61
234.523	7636.39
239.407	8985.27
244.288	10272.6
249.166	11181
254.042	11232.1
258.915	10997.2
263.784	10245.5
268.651	9388.13
273.516	8909.9
278.377	7918.79
283.236	6888.78
288.092	5858.82
292.945	4955.91
297.795	4458.03
302.642	4491.12
307.487	4702.12
312.329	5027.98
317.168	5384.62
322.004	5691.98
326.838	6076
331.668	6456.62
336.496	6639.68
341.321	6818.5
346.144	6640.09
350.963	6239.9
355.78	5367.04
360.594	4881.26
365.405	4316.51
370.214	3906.08
375.019	3600.55
379.822	3306.07
384.622	3108.26
389.42	2852.18
394.215	2493.89
399.006	2295.54
403.795	2081.33
408.582	1902.22
413.365	1475.98
418.146	1072.56
422.924	778.908
427.7	554.986
432.472	366.747
437.242	370.143
442.009	366.129
446.774	308.66
451.535	320.693
456.294	299.185
461.05	294.093
465.804	124.378
470.554	27.9983
475.302	4.91748
480.047	53.9714
484.79	99.9902
489.529	162.48
494.266	212.822
499.001	102.275
503.732	153.699
508.461	142.262
513.187	173.161
517.911	104.548
522.631	52.0173
527.349	100.406
532.065	26.7815
536.777	4.05225
541.487	170.103
546.194	128.023
550.898	253.753
555.6	463.293
560.299	652.629
564.995	872.752
569.689	1035.65
574.38	1134.3
579.068	1288.71
583.754	1277.85
588.437	1114.73
593.117	993.333
597.794	820.652
602.469	588.684
607.141	507.423
611.81	389.866
616.477	319.968
621.141	275.438
625.802	287.354
630.461	276.521
635.117	291.219
639.77	221.477
644.421	180.598
649.069	195.807
653.714	279.846
658.357	450.397
662.997	623.308
667.634	848.878
672.269	949.528
676.901	1243.28
681.53	1499.18
686.157	2010.56
690.781	2659.04
695.402	2639.74
700.021	2150.72
704.637	1846.85
709.251	1662.11
713.861	1919.51
718.469	3041.05
723.075	6118.74
727.678	8508.59
732.278	6151.6
736.876	3731.78
741.47	2514.61
746.063	1928.69
750.652	1709.42
755.239	1288.36
759.824	1265.83
764.406	1387.55
768.985	1634.11
773.561	1985.67
778.135	2175.5
782.706	2271.09
787.275	2268.29
791.841	2311.72
796.404	2108.01
800.965	1899.71
805.523	1634.78
810.079	1363.26
814.632	1080.2
819.182	815.254
823.73	653.194
828.275	580.706
832.818	616.688
837.358	680.695
841.895	929.083
846.43	1345.76
850.962	1586.28
855.491	1404.79
860.018	932.347
864.543	925.95
869.064	1399.59
873.583	1190.26
878.1	507.945
882.614	150.858
887.125	71.8599
891.634	86.5764
896.14	33.4153
900.644	19.0605
905.145	35.1228
909.644	15
914.14	48.6389
918.633	72.1777
923.124	104.468
927.612	64.5725
932.098	26.8872
936.581	16.8362
941.061	19.2944
945.539	3.67261
950.015	35.145
954.487	25.1502
958.958	6.6853
963.425	66.2708
967.89	11.2339
972.353	162.555
976.813	69.4321
981.271	145.935
985.726	167.225
990.178	180.256
994.628	225.044
999.075	238.56
1003.52	297.804
1007.96	215.767
1012.4	197.422
1016.84	123.768
1021.27	145.799
1025.71	154.575
1030.13	148.859
1034.56	193.027
1038.99	249.508
1043.41	285.644
1047.83	368.094
1052.24	562.014
1056.66	831.982
1061.07	1088.53
1065.48	1527.98
1069.89	3465.73
1074.29	16790.7
1078.69	46450.4
1083.09	49758.9
1087.49	48182.9
1091.88	37269
1096.28	40038
1100.66	41732.8
1105.05	19042.6
1109.43	4241.2
1113.82	1064.36
1118.2	581.831
1122.57	451.973
1126.95	237.25
1131.32	220.01
1135.69	174.886
1140.05	146.008
1144.42	146.019
1148.78	93.5876
1153.14	130.926
1157.5	40.9031
1161.85	108.32
1166.2	107.392
1170.55	42.3643
1174.9	40.2173
1179.24	91.1597
1183.58	115.952
1187.92	46.6746
1192.26	55.397
1196.6	63.1189
1200.93	46.9028
1205.26	58.6814
1209.58	5.43286
1213.91	46.1992
1218.23	61.8901
1222.55	46.5215
1226.87	49.0737
1231.18	75.6458
1235.49	4.19385
1239.8	28.4597
1244.11	27.3413
1248.41	0.273438
1252.72	46.3838
1257.02	68.0229
1261.32	17.4236
1265.61	31.002
1269.9	8.35962
1274.19	0.321777
1278.48	21.958
1282.77	18.2085
1287.05	27.7812
1291.33	69.3826
1295.61	0.651123
1299.88	20.2935
1304.15	25.0813
1308.42	58.9993
1312.69	74.9971
1316.96	29.8855
1321.22	60.8938
1325.48	80.7986
1329.74	107.695
1334	174.556
1338.25	191.06
1342.5	66.4792
1346.75	138.376
1351	146.885
1355.24	140.619
1359.48	172.73
1363.72	189.431
1367.96	200.313
1372.19	317.924
1376.42	352.673
1380.65	465.223
1384.88	709.212
1389.11	1595.68
1393.33	3394.84
1397.55	4904.73
1401.76	4377.66
1405.98	3557.91
1410.19	3195.4
1414.4	3252.05
1418.61	3804.79
1422.82	4184.86
1427.02	5279.88
1431.22	6638.33
1435.42	5913.91
1439.61	3911.2
1443.81	2348.82
1448	1615.52
1452.18	1368.29
1456.37	1044.32
1460.56	793.737
1464.74	665.399
1468.92	484.519
1473.09	594.087
1477.27	522.081
1481.44	437.448
1485.61	380.089
1489.78	326.006
1493.94	308.322
1498.1	164.001
1502.26	158.908
1506.42	164.185
1510.58	223.17
1514.73	327.947
1518.88	354.59
1523.03	311.16
1527.17	228.791
1531.32	174.694
1535.46	70.2068
1539.6	54.7949
1543.73	24.011
1547.87	48.654
1552	87.2353
1556.13	44.6179
1560.26	29.2808
