Measurement: Raman, 514 nm, depolarized, Raman Data Processed
Mineral: Hydroxylbastnasite-(Ce)
Rruff sample: R060283
Ideal chemistry: CeCO_3_(OH)
Locality: Trimouns, Luzenac, France
Source: Herb Obodda
Description: Brown hexagonal tablet
Measured chemistry: (Ce_0.50_Nd_0.24_(La,Pr)_0.23_Y_0.03_)_Σ=1_CO_3_((OH)_0.65_F_0.35_)_Σ=1_
Pin_id: M00326
Orientation: Laser parallel to -c* (0 0 -1). Fiducial mark perpendicular to laser is parallel to a [1 0 0]
Raman shift (cm-1)	intensity
41.831	0
46.827	41.2018
51.819	118.148
56.809	234.453
61.795	343.39
66.779	434.305
71.76	706.766
76.738	564.461
81.713	320.693
86.685	127.818
91.655	76.2631
96.621	166.967
101.585	73.929
106.545	441.98
111.503	2072.83
116.458	6537.66
121.41	7514.45
126.36	6595.94
131.306	9011.82
136.25	10594.1
141.19	9586.35
146.128	8582.27
151.063	9060.52
155.995	10759
160.925	9381.52
165.851	7831.17
170.775	7834.84
175.695	9147.48
180.613	8880.02
185.528	8134.39
190.44	8809.72
195.35	9187.53
200.256	8872.48
205.16	7159.44
210.061	5459.05
214.959	4299.53
219.854	3869.71
224.747	4327.78
229.636	4755.59
234.523	5145.98
239.407	5231.15
244.288	5547.76
249.166	6340.61
254.042	7287.35
258.915	7666.41
263.784	6594.08
268.651	5091.26
273.516	3917.86
278.377	3148.86
283.236	2597.2
288.092	2514.85
292.945	2595.84
297.795	2985.14
302.642	3737.69
307.487	4882.45
312.329	6088.33
317.168	7106.27
322.004	7888.21
326.838	8664.08
331.668	9278.83
336.496	9724.37
341.321	9685.97
346.144	9531.62
350.963	9118.83
355.78	8568.06
360.594	7555.02
365.405	6308.35
370.214	5618.52
375.019	5065.9
379.822	4543.67
384.622	3803.86
389.42	3422.14
394.215	3013.82
399.006	2762.72
403.795	2477.28
408.582	2092.2
413.365	1770.27
418.146	1434.42
422.924	1089.92
427.7	797.831
432.472	663.986
437.242	631.048
442.009	479.794
446.774	529.705
451.535	447.208
456.294	288.437
461.05	220.346
465.804	168.896
470.554	117.045
475.302	103.754
480.047	20.9849
484.79	146.396
489.529	83.3813
494.266	91.9619
499.001	104.074
503.732	189.881
508.461	182.971
513.187	136.531
517.911	190.394
522.631	214.794
527.349	118.731
532.065	3.32959
536.777	37.0435
541.487	61.3745
546.194	343.818
550.898	490.32
555.6	729.867
560.299	1123.44
564.995	1674.04
569.689	2174.63
574.38	2612.22
579.068	2933.78
583.754	2996.3
588.437	2715.77
593.117	2399.19
597.794	1946.55
602.469	1441.83
607.141	962.026
611.81	609.138
616.477	452.157
621.141	332.089
625.802	354.472
630.461	250.317
635.117	274.84
639.77	186.808
644.421	194.88
649.069	321.442
653.714	360.529
658.357	737.715
662.997	1228.42
667.634	1285.23
672.269	1250.91
676.901	1357.01
681.53	1723.87
686.157	2923.27
690.781	4331.19
695.402	4529.52
700.021	3314.23
704.637	2650.3
709.251	2004.68
713.861	1407.37
718.469	1184.36
723.075	1570.64
727.678	1819.28
732.278	1847.11
736.876	1550.31
741.47	1383.81
746.063	1504.62
750.652	1500.75
755.239	1472.21
759.824	1832.81
764.406	2193.74
768.985	2716.84
773.561	3303.61
778.135	3800.86
782.706	4046.09
787.275	4167.76
791.841	3803.17
796.404	3279.12
800.965	2768.52
805.523	2171.52
810.079	1671.69
814.632	1348.81
819.182	965.729
823.73	772.084
828.275	648.935
832.818	616.534
837.358	997.704
841.895	1518.91
846.43	2934.73
850.962	3577.27
855.491	3027.82
860.018	2158.38
864.543	1672.94
869.064	2829.48
873.583	3800.99
878.1	1540.46
882.614	541.918
887.125	242.124
891.634	45.5344
896.14	32.8997
900.644	17.7839
905.145	3.15601
909.644	65.0488
914.14	34.0105
918.633	87.771
923.124	17.302
927.612	49.471
932.098	35.9631
936.581	38.2561
941.061	45.4731
945.539	26.6323
950.015	127.685
954.487	59.7273
958.958	27.6819
963.425	0.383301
967.89	78.418
972.353	24.7163
976.813	228.48
981.271	230.796
985.726	239.723
990.178	303.281
994.628	291.418
999.075	276.099
1003.52	340.321
1007.96	249.108
1012.4	286.465
1016.84	205.35
1021.27	135.768
1025.71	134.718
1030.13	106.35
1034.56	152.56
1038.99	212.077
1043.41	347.103
1047.83	419.689
1052.24	554.761
1056.66	786.819
1061.07	1133.09
1065.48	1378.31
1069.89	2398.28
1074.29	8402.31
1078.69	33464.9
1083.09	41461.8
1087.49	48059.9
1091.88	37337.7
1096.28	38953.4
1100.66	44442.6
1105.05	19753.4
1109.43	4336.53
1113.82	1272.96
1118.2	677.119
1122.57	542.372
1126.95	345.242
1131.32	270.538
1135.69	225.067
1140.05	196.874
1144.42	291.237
1148.78	246.157
1153.14	268.17
1157.5	138.55
1161.85	150.844
1166.2	138.69
1170.55	197.167
1174.9	98.8396
1179.24	184.088
1183.58	98.2134
1187.92	95.022
1192.26	109.619
1196.6	90.1682
1200.93	141.93
1205.26	10.3115
1209.58	8.5625
1213.91	72.915
1218.23	64.0762
1222.55	49.916
1226.87	41.2158
1231.18	48.2334
1235.49	27.4978
1239.8	5.54858
1244.11	0.423828
1248.41	5.02734
1252.72	31.3445
1257.02	85.4946
1261.32	17.5171
1265.61	14.5889
1269.9	8.89673
1274.19	85.6269
1278.48	34.9463
1282.77	52.3069
1287.05	4.58911
1291.33	73.447
1295.61	76.4646
1299.88	2.42163
1304.15	68.9785
1308.42	109.741
1312.69	28.2707
1316.96	97.7244
1321.22	100.077
1325.48	43.554
1329.74	61.1003
1334	62.6719
1338.25	66.917
1342.5	43.6992
1346.75	158.97
1351	102.126
1355.24	131.986
1359.48	114.242
1363.72	51.9639
1367.96	46.4458
1372.19	104.255
1376.42	135.63
1380.65	172.605
1384.88	246.704
1389.11	565.721
1393.33	1250.59
1397.55	2179.2
1401.76	2444.43
1405.98	2686.88
1410.19	3144.07
1414.4	3212.78
1418.61	3262.05
1422.82	2958.53
1427.02	2714.28
1431.22	2826.19
1435.42	2723.04
1439.61	2275.14
1443.81	1807.72
1448	1160.77
1452.18	873.792
1456.37	816.961
1460.56	988.485
1464.74	1014.53
1468.92	1251.76
1473.09	1371.4
1477.27	1273.3
1481.44	1111.47
1485.61	820.968
1489.78	521.902
1493.94	287.028
1498.1	158.293
1502.26	131.723
1506.42	127.506
1510.58	162.845
1514.73	127.814
1518.88	111.436
1523.03	80.7637
1527.17	108.882
1531.32	110.542
1535.46	70.1152
1539.6	136.815
1543.73	113.346
1547.87	26.2585
1552	90.4504
1556.13	89.6406
1560.26	0.173828
