Measurement: Raman, 514 nm, depolarized, Raman Data Processed
Mineral: Ilvaite
Rruff sample: R050040
Ideal chemistry: CaFe^2+^_2_Fe^3+^OSi_2_O_7_(OH)
Locality: Capo Calamita, Isle of Elba, Italy
Source: University of Arizona Mineral Museum
Description: Brown fragment
Measured chemistry: Ca_1.00_(Fe^2+^_1.89_Mn_0.10_Mg_0.01_)_Î£=2_Fe^3+^_1.00_OSi_2.00_O_7_(OH); trace amounts of Al; OH estimated by charge balance
Pin_id: M00410
Orientation: Laser parallel to b* (0 1 0). Fiducial mark perpendicular to laser is parallel to c [0 0 1]
Raman shift (cm-1)	intensity
132.542	0
137.485	1144
142.425	1084
147.362	1853.02
152.296	2733.3
157.228	3497.56
162.156	2766.01
167.082	2976.62
172.005	3313.2
176.925	4198.35
181.842	4369.69
186.757	5698.24
191.668	6716.78
196.577	6559.66
201.483	6978.22
206.386	1523.66
211.286	814.43
216.183	562.824
221.078	474.598
225.969	193.82
230.858	182.148
235.744	124.582
240.628	418.594
245.508	395.238
250.386	359.309
255.26	104.949
260.132	151.035
265.001	630.031
269.868	1593
274.731	1918.09
279.592	2101.64
284.45	1450.7
289.305	1013.5
294.157	384.816
299.007	201.418
303.854	157.348
308.698	350.852
313.539	531.953
318.377	930.707
323.213	1912.17
328.046	3012.95
332.876	3071.98
337.703	2772.28
342.527	1995.09
347.349	1542.82
352.168	1016.14
356.984	1203.69
361.797	899.109
366.608	710.246
371.415	34.4258
376.22	557.738
381.023	244.539
385.822	155.82
390.619	241.613
395.413	427.195
400.204	230.785
404.992	544.473
409.778	326.871
414.561	816.766
419.341	747.195
424.118	820.797
428.893	1062.33
433.665	1299.02
438.434	936.445
443.201	1301.86
447.964	1031.64
452.725	1011.56
457.483	1231.42
462.239	1239.67
466.991	1473.98
471.741	1446.33
476.489	1702.68
481.233	2308.46
485.975	2123.94
490.714	2241.53
495.45	3081.33
500.184	3355.9
504.915	3466.79
509.643	3289.23
514.368	3072.43
519.091	3020.5
523.811	3117.5
528.528	2804.3
533.243	2911.69
537.955	2774.25
542.664	2667.17
547.37	3079.23
552.074	2749.36
556.775	2514.75
561.473	2595.8
566.169	2361.34
570.862	2413.43
575.552	2101.12
580.24	1598.26
584.925	1035.97
589.607	632.223
594.286	574.898
598.963	540.949
603.637	421.098
608.309	172.086
612.977	548.715
617.643	388.367
622.307	292.121
626.967	66.4492
631.625	209.129
636.281	200.891
640.933	214.316
645.583	190.051
650.231	257.934
654.875	71.9648
659.517	34.0273
664.157	94.5234
668.793	133.32
673.427	25.8008
678.059	110.769
682.687	6.62109
687.313	169.703
691.937	470.129
696.557	756.801
701.175	803.82
705.791	920.234
710.403	683.394
715.014	318.582
719.621	237.133
724.226	185.965
728.828	78.4414
733.428	1.41016
738.025	75.8008
742.619	24.0977
747.21	112.258
751.799	231.25
756.386	216.941
760.969	52.7734
765.551	49.7891
770.129	107.953
774.705	90.793
779.278	203.129
783.849	199.66
788.417	212.617
792.982	486.039
797.545	194.68
802.105	291.344
806.663	383.621
811.217	326.527
815.77	569.981
820.319	618.094
824.867	491.422
829.411	317.254
833.953	206.543
838.492	446.769
843.029	131.184
847.563	162.555
852.094	354.172
856.623	481.711
861.15	191.426
865.673	320.234
870.194	441.496
874.713	212
879.229	468.93
883.742	471.805
888.253	221.539
892.761	381.711
897.267	361.113
901.77	314.731
906.27	220.856
910.768	391.551
915.263	320.328
919.756	391.359
924.246	359.992
928.734	372.059
933.219	448.981
937.701	574.629
942.181	648.109
946.658	531.938
951.133	360.891
955.605	622.93
960.075	723.957
964.542	685.481
969.006	1030.81
973.468	1172.31
977.928	992.836
982.385	991.582
986.839	979
991.291	885.082
995.74	699.883
1000.19	697.84
1004.63	275.887
1009.07	162.746
1013.51	456.629
1017.95	564.668
1022.38	159.941
1026.81	552.383
1031.24	291.152
1035.67	613.019
1040.09	794.688
1044.51	355.148
1048.93	517.461
1053.35	793.648
1057.76	531.949
1062.17	646.391
1066.58	432.992
1070.99	701.621
1075.39	891.102
1079.79	521.828
1084.19	741.031
1088.59	485.715
1092.98	766.551
1097.37	453.133
1101.76	606.047
1106.15	380.797
1110.53	618.578
1114.91	884.832
1119.29	726.371
1123.67	632.223
1128.04	701.508
1132.41	460.336
1136.78	120.305
1141.15	251.18
1145.51	293.606
1149.87	109.629
1154.23	510.488
1158.59	429.879
1162.94	170.789
1167.29	183.691
1171.64	158.07
1175.98	224.606
1180.33	91.418
1184.67	222.676
1189.01	185.168
1193.34	72.1523
1197.68	361.266
1202.01	23.2734
1206.34	76.168
1210.66	118.348
1214.99	88.3281
1219.31	126.18
1223.63	173.82
1227.94	420.176
1232.26	89.2578
1236.57	127.695
1240.88	140.637
1245.19	254.309
1249.49	316.019
1253.79	133.156
1258.09	209.648
1262.39	41.5742
1266.68	431.648
1270.97	80.4219
1275.26	371.668
1279.55	310.984
1283.84	367.668
1288.12	232.949
1292.4	3.875
1296.67	177.336
1300.95	81.3359
1305.22	147.883
1309.49	477.062
1313.76	332.891
1318.03	457.957
1322.29	544.539
1326.55	265.312
1330.81	238.758
1335.06	358.582
1339.31	572.371
1343.56	226.793
1347.81	431.023
1352.06	567.301
1356.3	372.035
1360.54	388.336
1364.78	280.609
1369.02	294.727
1373.25	186.543
1377.48	502.481
1381.71	218.109
1385.94	195.633
1390.16	494.277
1394.38	137.219
1398.6	435.023
1402.82	157.199
1407.03	413.113
1411.24	231.566
1415.45	308.363
1419.66	324.652
1423.87	320.973
1428.07	110.352
1432.27	208.891
1436.46	473.719
1440.66	371.066
1444.85	264.961
1449.04	567.078
1453.23	213.062
1457.42	303.731
1461.6	67.2344
1465.78	677.883
1469.96	193.844
1474.14	60.4766
1478.31	97.0391
1482.48	452.086
1486.65	287.68
1490.82	250.019
1494.98	172.231
1499.14	15.3398
1503.3	89.8945
1507.46	197.762
1511.61	268.922
1515.77	261.469
1519.92	166.586
1524.06	7.41406
1528.21	80.6289
