Measurement: Raman, 514 nm, depolarized, Raman Data Processed
Mineral: Ilvaite
Rruff sample: R050040
Ideal chemistry: CaFe^2+^_2_Fe^3+^OSi_2_O_7_(OH)
Locality: Capo Calamita, Isle of Elba, Italy
Source: University of Arizona Mineral Museum
Description: Brown fragment
Measured chemistry: Ca_1.00_(Fe^2+^_1.89_Mn_0.10_Mg_0.01_)_Î£=2_Fe^3+^_1.00_OSi_2.00_O_7_(OH); trace amounts of Al; OH estimated by charge balance
Pin_id: M00123
Orientation: Laser parallel to (1 0 1). Fiducial mark perpendicular to laser is parallel to b [0 1 0]
Raman shift (cm-1)	intensity
159.692	0
164.62	764.379
169.544	1210.65
174.465	937.82
179.384	1240.41
184.3	1582.27
189.213	2833.57
194.123	4590.13
199.03	5002.65
203.934	4771.57
208.836	1368.66
213.735	1804.5
218.631	1511.89
223.524	1517.02
228.414	1447.27
233.302	1351.68
238.186	429.269
243.068	10.4375
247.947	221.238
252.823	484.785
257.697	113.75
262.567	348.008
267.435	894.406
272.3	1768.62
277.162	2182.47
282.021	1538.16
286.878	1014.27
291.732	981.898
296.583	623.129
301.431	587.867
306.276	276.059
311.119	599.41
315.958	1445.54
320.795	2388.91
325.629	4067.39
330.461	5470.38
335.289	5495.37
340.115	4209.29
344.938	2948.34
349.759	2258.64
354.576	1559.38
359.391	1015.06
364.203	1332.98
369.012	785.164
373.818	514.871
378.622	65.3477
383.423	131.504
388.221	7.08984
393.016	301.285
397.809	66.3984
402.598	6.69141
407.386	72.3555
412.17	194.82
416.951	874.961
421.73	1300.77
426.506	1671.52
431.279	1635.23
436.05	1740.34
440.818	1518.45
445.583	1164.07
450.345	1514.14
455.105	1435.12
459.861	1764.33
464.615	1864.19
469.367	2486.65
474.115	2608.19
478.861	2880.06
483.604	3697.83
488.345	4034.95
493.082	5775.28
497.817	7077.47
502.55	7877.02
507.279	7274.75
512.006	6691.04
516.73	6393.65
521.451	5838.29
526.17	6353.25
530.886	6302.43
535.599	5878.76
540.31	5503.95
545.017	5157.06
549.723	5010.22
554.425	4493.67
559.125	4154.53
563.822	3709.74
568.516	3267.61
573.207	3381.35
577.896	3709.64
582.583	3805.38
587.266	2976.7
591.947	2031.51
596.625	1168.7
601.3	926.773
605.973	579.356
610.643	527.984
615.311	178.215
619.975	209.824
624.637	457.961
629.297	499.602
633.953	478.102
638.607	271.598
643.259	359.082
647.907	241.246
652.553	85.1484
657.197	359.051
661.837	92.1445
666.475	216.555
671.111	168.262
675.743	81.9258
680.373	12.9844
685.001	616.746
689.625	637.348
694.247	1751.16
698.867	3088.61
703.483	3766.99
708.097	3229.23
712.709	1871.3
717.318	775.195
721.924	331.309
726.527	269.414
731.128	197.644
735.726	126.504
740.322	85.8906
744.915	50.2773
749.505	529.891
754.093	193.348
758.678	10.1211
763.26	196.898
767.84	23.5977
772.417	66.1758
776.992	37.6836
781.564	20.5703
786.133	202.688
790.7	141.148
795.264	409.371
799.825	488.711
804.384	542.644
808.94	1030.95
813.494	2002.98
818.045	2336.58
822.593	2226.21
827.139	1597.14
831.682	970.406
836.223	446.062
840.761	842.137
845.296	828.688
849.829	982.75
854.359	1049.38
858.887	1490.59
863.412	1432.39
867.934	1391.46
872.454	1040.45
876.971	1263.18
881.486	1332.17
885.998	1007.08
890.507	1074.02
895.014	1124.55
899.518	845.527
904.02	870.594
908.519	545.164
913.016	900.121
917.51	932.367
922.001	1178.16
926.49	1265.43
930.976	1596.07
935.46	1376.97
939.941	1441.28
944.42	1515.2
948.896	1381.38
953.369	1392.91
957.84	1916.61
962.309	2159.4
966.774	2946.29
971.238	3930.33
975.698	5707.56
980.156	5983.01
984.612	5831.68
989.065	5876.59
993.516	4840.76
997.964	4394.27
1002.41	3857.15
1006.85	3121.59
1011.29	2842.26
1015.73	2494.37
1020.16	2248.09
1024.6	2292.96
1029.03	2551.97
1033.46	2438.78
1037.88	2768.85
1042.3	2887.69
1046.72	2628.69
1051.14	2619.82
1055.56	2897.64
1059.97	2362.57
1064.38	2333.06
1068.79	2754.78
1073.19	2472.81
1077.59	2210.95
1081.99	2339.05
1086.39	2395.97
1090.79	1860.36
1095.18	1804.75
1099.57	1837.11
1103.95	1849.41
1108.34	1685.69
1112.72	1309.66
1117.1	1247.67
1121.48	1085.82
1125.85	1165.19
1130.23	882.481
1134.6	844.953
1138.96	511.168
1143.33	375.281
1147.69	270.711
1152.05	468.211
1156.41	215.723
1160.76	45.1797
1165.11	171.023
1169.46	220.863
1173.81	170.41
1178.16	73.2969
1182.5	236.008
1186.84	170.473
1191.18	195.328
1195.51	151.777
1199.84	40.0234
1204.17	159
1208.5	28.7383
1212.83	161.332
1217.15	78.2812
1221.47	390.062
1225.79	413.664
1230.1	129.074
1234.41	496.762
1238.73	632.602
1243.03	328.231
1247.34	336.637
1251.64	244.078
1255.94	392.703
1260.24	173.031
1264.54	295.184
1268.83	400.383
1273.12	87.4688
1277.41	172.793
1281.69	0.726563
1285.98	234.945
1290.26	418.879
1294.54	208.676
1298.81	285.773
1303.09	635.371
1307.36	491.875
1311.63	382.402
1315.89	570.691
1320.16	618.121
1324.42	634.648
1328.68	363.469
1332.93	548.094
1337.19	514.055
1341.44	319.418
1345.69	566.309
1349.94	638.102
1354.18	165.223
1358.42	159.203
1362.66	572.254
1366.9	281.926
1371.13	337.957
1375.37	368.184
1379.6	444.551
1383.82	518.789
1388.05	327.086
1392.27	308.883
1396.49	292.519
1400.71	428.84
1404.92	245.383
1409.14	61.6172
1413.35	164.664
1417.56	418.891
1421.76	121.543
1425.97	298.812
1430.17	234.336
1434.37	342.106
1438.56	248.836
1442.76	299.238
1446.95	245.148
1451.14	200.562
1455.33	221.391
1459.51	224.75
1463.69	228.496
1467.87	210.883
1472.05	31.6992
1476.22	297.918
1480.4	384.273
1484.57	494.41
1488.73	87.3203
1492.9	340.106
1497.06	145.699
1501.22	296.027
1505.38	74.2539
1509.54	655.867
1513.69	410.852
1517.84	239.371
1521.99	294.113
1526.14	280.094
1530.28	185.574
1534.42	26.0508
1538.56	440.684
1542.7	0
