Measurement: Raman, 514 nm, depolarized, Raman Data Processed
Mineral: Ilvaite
Rruff sample: R050040
Ideal chemistry: CaFe^2+^_2_Fe^3+^OSi_2_O_7_(OH)
Locality: Capo Calamita, Isle of Elba, Italy
Source: University of Arizona Mineral Museum
Description: Brown fragment
Measured chemistry: Ca_1.00_(Fe^2+^_1.89_Mn_0.10_Mg_0.01_)_Î£=2_Fe^3+^_1.00_OSi_2.00_O_7_(OH); trace amounts of Al; OH estimated by charge balance
Pin_id: M00376
Orientation: Laser parallel to -a* (-1 0 0). Fiducial mark perpendicular to laser is parallel to -b [0 -1 0]
Raman shift (cm-1)	intensity
135.014	0
139.955	603.219
144.894	325.227
149.83	2132.59
154.762	2934.83
159.692	2276.7
164.62	3520.14
169.544	3326.22
174.465	3677.57
179.384	4545.03
184.3	5699.43
189.213	6892.6
194.123	8675.16
199.03	8901.4
203.934	5596.69
208.836	2997.35
213.735	2093.97
218.631	1010.39
223.524	418.691
228.414	416.406
233.302	324.18
238.186	113.367
243.068	369.352
247.947	407.527
252.823	397.566
257.697	288.391
262.567	152.184
267.435	684.094
272.3	1349.33
277.162	1715.86
282.021	1157.26
286.878	1283.19
291.732	804.504
296.583	816.144
301.431	914.91
306.276	723.223
311.119	1353.36
315.958	1439.19
320.795	2617.23
325.629	3651.78
330.461	4784.45
335.289	4553.69
340.115	3606.08
344.938	2513.88
349.759	1913.03
354.576	1803.16
359.391	1842.39
364.203	1470.84
369.012	893.312
373.818	730.742
378.622	577.867
383.423	304.684
388.221	237.695
393.016	459.684
397.809	265.699
402.598	144.836
407.386	282.031
412.17	354.09
416.951	570.691
421.73	809.418
426.506	1261.78
431.279	1402.92
436.05	1255.08
440.818	898.594
445.583	816.934
450.345	1082.54
455.105	1136.4
459.861	1131.34
464.615	1381.9
469.367	1259.3
474.115	1668.54
478.861	1976.19
483.604	2248.89
488.345	2879.14
493.082	3733.34
497.817	4964.03
502.55	5434.07
507.279	4988.28
512.006	4751.58
516.73	4233.94
521.451	3967.99
526.17	4236.38
530.886	3891.28
535.599	3979.13
540.31	3876.63
545.017	3589.61
549.723	3405.53
554.425	3308.82
559.125	2743.95
563.822	2779.49
568.516	2467.77
573.207	2713.67
577.896	2530.42
582.583	2774.85
587.266	1988.94
591.947	1525.06
596.625	904.547
601.3	854.844
605.973	733.129
610.643	885.93
615.311	367.957
619.975	542.293
624.637	681.484
629.297	252.324
633.953	619.965
638.607	577.18
643.259	127.812
647.907	322.594
652.553	205.695
657.197	57.4297
661.837	196.301
666.475	144.156
671.111	41.5078
675.743	176.715
680.373	44.9805
685.001	298.394
689.625	413.977
694.247	902.359
698.867	1449.67
703.483	2238.74
708.097	1782.9
712.709	910.172
717.318	271.547
721.924	153.594
726.527	37.2383
731.128	145.402
735.726	36.4414
740.322	38.1562
744.915	204.762
749.505	94.8125
754.093	198.129
758.678	379.516
763.26	116.141
767.84	20.9609
772.417	4.69531
776.992	247.019
781.564	12.9727
786.133	269.918
790.7	14.2852
795.264	373.32
799.825	605.289
804.384	493.238
808.94	927.031
813.494	1335.27
818.045	2075.1
822.593	1540.88
827.139	1025.44
831.682	806.106
836.223	428.449
840.761	619.504
845.296	794.488
849.829	609.715
854.359	1375.16
858.887	1264.29
863.412	1088.05
867.934	975.367
872.454	1157.19
876.971	1045.79
881.486	1051.76
885.998	1053.82
890.507	1063.38
895.014	882.008
899.518	834.832
904.02	789.848
908.519	686.559
913.016	860.055
917.51	1016.97
922.001	894.297
926.49	778.246
930.976	1021.04
935.46	950.043
939.941	1011.18
944.42	841.84
948.896	668.559
953.369	933.125
957.84	1233.68
962.309	941.164
966.774	1489.73
971.238	1674.37
975.698	2497.78
980.156	3028.07
984.612	3068.24
989.065	2706.32
993.516	1950.04
997.964	1527.84
1002.41	1291.85
1006.85	1031.87
1011.29	784.402
1015.73	654.859
1020.16	581.949
1024.6	566.211
1029.03	463.375
1033.46	446.473
1037.88	195.738
1042.3	584.402
1046.72	714.246
1051.14	880.414
1055.56	426.074
1059.97	1001.83
1064.38	677.227
1068.79	857.996
1073.19	714.918
1077.59	845.492
1081.99	683.012
1086.39	578.981
1090.79	574.93
1095.18	498.117
1099.57	610.371
1103.95	610.531
1108.34	679.992
1112.72	494.613
1117.1	713.75
1121.48	625.613
1125.85	679.629
1130.23	313.039
1134.6	146.969
1138.96	493.402
1143.33	304.598
1147.69	27.5039
1152.05	307.535
1156.41	432.516
1160.76	99.4531
1165.11	428.801
1169.46	47.4922
1173.81	175.098
1178.16	380.156
1182.5	97.9922
1186.84	68.9141
1191.18	4.48438
1195.51	425.512
1199.84	145.215
1204.17	73.6094
1208.5	102.758
1212.83	83.7539
1217.15	147.34
1221.47	14.6602
1225.79	76.7812
1230.1	51.0508
1234.41	133.078
1238.73	405.594
1243.03	147.426
1247.34	329.641
1251.64	78.3984
1255.94	109.719
1260.24	127.379
1264.54	232
1268.83	149.945
1273.12	153.266
1277.41	269.434
1281.69	192.445
1285.98	299.281
1290.26	184.953
1294.54	232.031
1298.81	427.09
1303.09	472
1307.36	575.949
1311.63	466.984
1315.89	272.121
1320.16	419.281
1324.42	693.734
1328.68	630.402
1332.93	481.422
1337.19	369.906
1341.44	835.762
1345.69	348.465
1349.94	555.711
1354.18	741.894
1358.42	323.031
1362.66	735.934
1366.9	733.352
1371.13	315.875
1375.37	573.121
1379.6	519.473
1383.82	438.977
1388.05	234.449
1392.27	495.231
1396.49	369.949
1400.71	457.832
1404.92	365.484
1409.14	357.457
1413.35	459.684
1417.56	473.68
1421.76	401.082
1425.97	530.469
1430.17	505.731
1434.37	360.758
1438.56	238.019
1442.76	675.102
1446.95	479.891
1451.14	167.832
1455.33	257.121
1459.51	886.465
1463.69	233.266
1467.87	406.168
1472.05	303.938
1476.22	474.992
1480.4	138.836
1484.57	372.457
1488.73	66.1055
1492.9	192.016
1497.06	27.2617
1501.22	534.129
1505.38	337.332
1509.54	222.871
1513.69	204.766
1517.84	332.481
1521.99	236.992
1526.14	450.711
1530.28	165.262
1534.42	2.25
