Measurement: Raman, 514 nm, depolarized, Raman Data Processed
Mineral: Ilvaite
Rruff sample: R050040
Ideal chemistry: CaFe^2+^_2_Fe^3+^OSi_2_O_7_(OH)
Locality: Capo Calamita, Isle of Elba, Italy
Source: University of Arizona Mineral Museum
Description: Brown fragment
Measured chemistry: Ca_1.00_(Fe^2+^_1.89_Mn_0.10_Mg_0.01_)_Î£=2_Fe^3+^_1.00_OSi_2.00_O_7_(OH); trace amounts of Al; OH estimated by charge balance
Pin_id: M00423
Orientation: Laser parallel to -c* (0 0 -1). Fiducial mark perpendicular to laser is parallel to a [1 0 0]
Raman shift (cm-1)	intensity
148.596	0
153.53	921.391
158.46	43.6641
163.388	999.156
168.313	1654.5
173.235	1249.92
178.155	1108.09
183.071	1328.35
187.985	2150.62
192.896	3711.06
197.803	5267.81
202.709	6371.22
207.611	1598.19
212.51	1655.19
217.407	1430.44
222.301	1979.03
227.192	2111.77
232.08	1456.34
236.965	1022.25
241.848	360.027
246.728	395.543
251.604	401.191
256.479	208.019
261.35	1963.6
266.218	1301.39
271.084	1220.72
275.947	2124.69
280.807	1734.67
285.664	1008.02
290.518	613.762
295.37	254.168
300.219	311.188
305.065	454.492
309.908	401.758
314.749	938.516
319.586	1868.99
324.421	2811.83
329.253	4223.03
334.083	4606.41
338.909	3950.04
343.733	2809.81
348.554	1973.27
353.372	1438.19
358.187	1025.81
363	1124.27
367.81	799.051
372.617	453.82
377.421	528.93
382.223	173.969
387.022	244.961
391.818	193.734
396.611	167.672
401.401	109.789
406.189	376.742
410.974	685.871
415.756	803.848
420.536	569.152
425.312	1150.91
430.086	1604.17
434.858	1552.16
439.626	1180.36
444.392	1136.4
449.155	956.984
453.915	1110.61
458.672	1112.11
463.427	1387.52
468.179	1300.78
472.928	1550.56
477.675	2105.31
482.419	2562.61
487.16	2912.01
491.898	3898.05
496.634	4669.12
501.367	6356.6
506.097	5496.89
510.825	5485.43
515.549	4825.14
520.271	4604.18
524.991	4705.75
529.707	4868.2
534.421	4454.13
539.132	4256.79
543.841	3921.45
548.547	3566.35
553.25	3528.02
557.95	3121.45
562.648	2786.57
567.343	2652.37
572.035	2845.8
576.724	2690.86
581.411	2756.61
586.095	2528.06
590.777	2038.9
595.456	1372.44
600.132	953.441
604.805	779.555
609.476	509.523
614.144	189.543
618.809	24.7852
623.472	388.242
628.132	193.719
632.789	164.172
637.444	28.5977
642.096	213.754
646.745	240.539
651.392	282.828
656.036	406.008
660.677	213.777
665.316	560.461
669.952	107.238
674.585	313.43
679.216	422.957
683.844	283.805
688.469	645.883
693.092	1074.14
697.712	2172.55
702.329	3621.09
706.944	3409.72
711.556	1983.42
716.166	1202.17
720.773	787.945
725.377	351.723
729.978	64.5273
734.577	3.42969
739.173	68.0664
743.767	26.8555
748.358	15.4102
752.946	181.629
757.532	223.559
762.115	53.1758
766.695	165.418
771.273	62.1875
775.848	97.2891
780.421	119.285
784.991	120.875
789.558	89.5469
794.123	274.516
798.685	115.391
803.245	603.25
807.802	838.09
812.356	1571
816.907	1694.97
821.456	2137.04
826.003	1545.23
830.547	1141.57
835.088	766.09
839.627	464.82
844.163	629.801
848.696	1049.07
853.227	977.652
857.755	1134.61
862.281	1210.95
866.804	1007.34
871.324	1247.11
875.842	1132.61
880.357	1184.97
884.87	701
889.38	957.172
893.888	837.293
898.393	894.68
902.895	463.676
907.395	467.391
911.892	817.922
916.387	720.875
920.879	1028.69
925.368	1115.71
929.855	1194.6
934.339	1471.02
938.821	928.023
943.301	1319.86
947.777	1089.59
952.251	1462
956.723	1511.17
961.192	1606.14
965.658	2260.05
970.122	2873.75
974.583	3476.59
979.042	4100.11
983.498	4558.9
987.952	4650.83
992.403	3803.74
996.852	3376.59
1001.3	2516.47
1005.74	2140.91
1010.18	1928.83
1014.62	1604.55
1019.06	1596
1023.49	1380.2
1027.92	1397.16
1032.35	1445.59
1036.78	1884.9
1041.2	1677.53
1045.62	1903.49
1050.04	1609.41
1054.45	1606
1058.87	1940.69
1063.28	1667.42
1067.68	1689.16
1072.09	1601.45
1076.49	1760.03
1080.89	1554.75
1085.29	1441.66
1089.69	1612.09
1094.08	1354.96
1098.47	1435.33
1102.86	1212.78
1107.24	1290.09
1111.63	973.43
1116.01	964.785
1120.38	847.285
1124.76	952.582
1129.13	711.668
1133.5	710.207
1137.87	427.375
1142.24	508.348
1146.6	112.949
1150.96	74
1155.32	243.996
1159.67	84.5469
1164.03	325.238
1168.38	7.71484
1172.72	61.4375
1177.07	80.8633
1181.41	86.0469
1185.75	13.1523
1190.09	131.852
1194.43	256.316
1198.76	137.359
1203.09	135.926
1207.42	177.144
1211.75	154.797
1216.07	273.312
1220.39	17.7109
1224.71	57.5352
1229.02	1.70703
1233.34	172.812
1237.65	12.1367
1241.96	46.0469
1246.26	275.371
1250.57	69.9609
1254.87	108.231
1259.17	141.856
1263.46	113.023
1267.76	210.043
1272.05	32.1602
1276.34	303.848
1280.62	499.277
1284.91	320.473
1289.19	177.812
1293.47	69.9609
1297.74	154.672
1302.02	439.871
1306.29	505.074
1310.56	609.269
1314.83	384.039
1319.09	645.93
1323.35	350.824
1327.61	477.676
1331.87	519.629
1336.12	363.789
1340.38	398.965
1344.63	433.832
1348.87	574.109
1353.12	504.43
1357.36	385.082
1361.6	557.566
1365.84	720.519
1370.08	566.156
1374.31	347.969
1378.54	715.551
1382.77	581.051
1386.99	365.066
1391.22	683.691
1395.44	195.223
1399.66	185.504
1403.87	222.836
1408.09	66.8125
1412.3	463.859
1416.51	192.16
1420.71	35.5742
1424.92	21.6602
1429.12	281.856
1433.32	321.988
1437.51	415.602
1441.71	167.551
1445.9	418.098
1450.09	125.328
1454.28	233.387
1458.46	256.004
1462.65	209.426
1466.83	370.211
1471	379.336
1475.18	297.137
1479.35	232.402
1483.52	112.207
1487.69	73.8984
1491.86	63.5625
1496.02	354.887
1500.18	231.273
1504.34	504.719
1508.5	224.191
1512.65	369.996
1516.8	75.4883
1520.95	335.41
1525.1	190.199
1529.24	460.746
1533.39	8.10938
1537.53	0
