Measurement: Raman, 514 nm, depolarized, Raman Data Processed
Mineral: Inderite
Rruff sample: R050195
Ideal chemistry: MgB_3_O_3_(OH)_5_5H_2_O
Locality: Boron, Kern County, California, USA
Source: Dave Bunk Minerals
Description: Colorless prismatic crystal
Measured chemistry: Mg_1.00_B_3.00_O_3_(OH)_5_Â·5H_2_O ; Mg measured, only
Pin_id: L00488
Orientation: Laser parallel to a* (1 0 0). Fiducial mark perpendicular to laser is parallel to b [0 1 0]
Raman shift (cm-1)	intensity
103.82	0
107.995	2686.54
112.168	883.293
116.339	2665.88
120.508	2059.62
124.675	10244.2
128.84	12377
133.003	4831.29
137.164	243.406
141.323	50.921
145.48	1588.13
149.635	6873.28
153.788	5552.3
157.939	2862.47
162.088	4781.28
166.235	10649.2
170.38	12106.4
174.523	6169.87
178.664	3573.42
182.803	5824.75
186.94	9086.6
191.076	11240.9
195.209	9297.12
199.34	3803.23
203.47	814.634
207.597	50.428
211.722	136.938
215.846	224.103
219.967	68.939
224.087	134.825
228.204	6.122
232.32	826.534
236.434	2491.36
240.545	2882.14
244.655	1920.06
248.763	1323.48
252.869	654.977
256.973	178.297
261.075	293.55
265.175	471.234
269.273	170.775
273.369	118.472
277.463	326.141
281.556	1130.24
285.646	2301.72
289.734	3919.1
293.821	7071.14
297.905	12093.3
301.988	14416.8
306.069	10373.3
310.147	7117.85
314.224	6319.97
318.299	5272.96
322.372	2957.49
326.443	1529.13
330.512	1268.09
334.579	2097.81
338.645	3647.14
342.708	6441.14
346.769	7942.87
350.829	6749.52
354.887	5495.94
358.942	4622.23
362.996	4398.55
367.048	4030.87
371.098	3763.82
375.146	4018.93
379.192	4936.95
383.236	5872.32
387.279	5781.46
391.319	5465.45
395.358	5311.72
399.394	5034.71
403.429	4756.68
407.462	5192.65
411.493	6828.64
415.522	10302.7
419.549	15838.8
423.575	18038.7
427.598	13166.3
431.619	8259
435.639	6295.07
439.657	7461.53
443.673	8139.77
447.687	5105.64
451.699	2557.08
455.709	1373.13
459.717	929.793
463.724	1080.11
467.728	1559.15
471.731	2021.92
475.732	3068.44
479.731	5277.74
483.728	9400.87
487.723	18698.9
491.716	32459.9
495.708	35057
499.697	23419
503.685	15532.2
507.671	9287.35
511.655	4324.73
515.637	2104.57
519.617	870.299
523.596	289.812
527.572	53.266
531.547	238.082
535.52	135.877
539.491	128.668
543.46	263.254
547.427	308.023
551.393	182.561
555.356	195.82
559.318	582.34
563.278	1225.02
567.236	2258.41
571.192	3754.84
575.147	5639.97
579.099	7654.34
583.05	10060.4
586.999	10145.5
590.946	7924.06
594.891	6263.67
598.834	4799.77
602.776	4361.03
606.715	5171.43
610.653	6351.98
614.589	7922.66
618.523	10588.5
622.456	13982.5
626.386	18753.6
630.315	23999.8
634.242	27527.2
638.167	28731.8
642.09	27725.5
646.012	24388.3
649.931	20095.3
653.849	16035
657.765	12346.2
661.679	9836.56
665.592	7873.35
669.502	6241.62
673.411	5223.05
677.318	4153.87
681.223	3526.58
685.126	3133.43
689.028	2923.34
692.927	2129.23
696.825	2090.5
700.721	1615.58
704.616	1423.14
708.508	1299.54
712.399	855.484
716.288	893.676
720.175	1224.73
724.06	1819.64
727.944	2932.4
731.825	4694.01
735.705	8684.46
739.584	16111.7
743.46	24121.8
747.334	21541.7
751.207	13883.4
755.078	8385.76
758.947	5467.93
762.815	4161.84
766.68	3653.5
770.544	3021.89
774.406	2147.03
778.267	1742.89
782.125	1073.48
785.982	768.795
789.837	688.826
793.69	447.574
797.542	248.031
801.391	267.193
805.239	169.061
809.085	370.613
812.93	376.859
816.772	419.803
820.613	35.443
824.452	13.73
828.29	2.68
832.125	187.982
835.959	428.42
839.791	333.104
843.621	343.965
847.45	294.553
851.277	66.322
855.102	144.891
858.925	633.633
862.746	1176.5
866.566	1322.25
870.384	1858.71
874.2	2045.9
878.015	2789.82
881.828	3112.47
885.639	3176.86
889.448	3120.01
893.256	2775.18
897.061	2289.59
900.865	2138.04
904.668	1723.28
908.468	1326.31
912.267	1194.14
916.064	1071.79
919.86	719.246
923.653	747.537
927.445	359.666
931.236	440.643
935.024	548.473
938.811	884.168
942.596	1108.74
946.379	1523.2
950.161	1445.51
953.94	1278.77
957.719	781.553
961.495	338.385
965.27	235.406
969.043	43.371
972.814	22.229
976.583	146.291
980.351	141.852
984.117	149.564
987.882	273.275
991.644	540.623
995.405	805.201
999.165	1574.59
1002.92	2498.63
1006.68	2560.59
1010.43	2741.22
1014.18	3049.26
1017.93	3091.74
1021.68	3245.57
1025.43	2951.82
1029.18	2706.4
1032.92	2349.36
1036.66	1683.88
1040.4	1417.85
1044.14	1533.28
1047.88	1767.1
1051.62	2228.32
1055.35	2740.93
1059.08	3142.96
1062.81	2561.4
1066.54	2089.25
1070.27	1509.52
1073.99	1004.2
1077.72	743.279
1081.44	690.766
1085.16	714.699
1088.88	552.236
1092.59	558.008
1096.31	193.16
1100.02	98.688
1103.73	283.615
1107.44	73.994
1111.15	505.852
1114.86	567.195
1118.57	1112.04
1122.27	1782.34
1125.97	2282.2
1129.67	2930.67
1133.37	3762.19
1137.07	4559.45
1140.76	4516.36
1144.45	4217.77
1148.15	3958.61
1151.84	3740.83
1155.53	3523.14
1159.21	3917.07
1162.9	4400.88
1166.58	4925.9
1170.26	5344.84
1173.94	4954.44
1177.62	4645.55
1181.3	3908.95
1184.97	3226.37
1188.65	2816.95
1192.32	2393.55
1195.99	2078.74
1199.66	1856.01
1203.33	1284.2
1206.99	800.988
1210.65	489.879
1214.32	173.812
1217.98	232.893
1221.64	306.566
1225.29	280.006
1228.95	344.238
1232.6	389.365
1236.26	337.217
1239.91	237.844
1243.56	263.672
1247.2	405.412
1250.85	504.498
1254.49	728.645
1258.13	883.893
1261.78	912.477
1265.41	735.57
1269.05	701.695
1272.69	727.957
1276.32	586.486
1279.95	811.352
1283.59	581.621
1287.21	716.303
1290.84	492.836
1294.47	285.783
1298.09	116.279
1301.72	85.611
1305.34	269.812
1308.96	167.16
1312.58	150.051
1316.19	191.67
1319.81	395.887
1323.42	400.531
1327.03	289.438
1330.64	107.477
1334.25	57.592
1337.86	294.848
1341.46	245.398
1345.07	536.242
1348.67	640.789
1352.27	995.01
1355.87	905.818
1359.46	1005.91
1363.06	777.049
1366.65	588.191
1370.25	364.893
1373.84	22
1377.43	89.531
1381.02	426.32
1384.6	448.789
1388.18	408.82
