Measurement: Raman, 514 nm, depolarized, Raman Data Processed
Mineral: Inderite
Rruff sample: R050195
Ideal chemistry: MgB_3_O_3_(OH)_5_5H_2_O
Locality: Boron, Kern County, California, USA
Source: Dave Bunk Minerals
Description: Colorless prismatic crystal
Measured chemistry: Mg_1.00_B_3.00_O_3_(OH)_5_Â·5H_2_O ; Mg measured, only
Pin_id: L00380
Orientation: Laser parallel to -b* (0 -1 0). Fiducial mark perpendicular to laser is parallel to -c [0 0 -1]
Raman shift (cm-1)	intensity
106.604	0
110.777	1976.33
114.949	182.797
119.119	1355.31
123.286	4198.67
127.452	5472.64
131.615	3017.19
135.777	1322.12
139.937	1751.81
144.094	1811.82
148.25	3871.91
152.403	3460.95
156.555	2954.7
160.705	5291.03
164.853	11229.8
168.998	13140.7
173.142	7069.74
177.284	3711.68
181.424	3798.77
185.562	3530.36
189.698	2466.24
193.831	991.953
197.963	224.621
202.093	180.463
206.221	281.188
210.347	51.559
214.472	24.613
218.594	146.703
222.714	349.959
226.832	959.857
230.948	1178.13
235.063	1646.45
239.175	2109.42
243.286	2048.05
247.394	1632.12
251.501	1178.43
255.605	1211.61
259.708	528.469
263.808	43.086
267.907	124.096
272.004	27.598
276.099	85.342
280.192	134.436
284.283	659.324
288.372	1468.8
292.459	2184.18
296.544	3547.04
300.627	4687.95
304.709	4003.72
308.788	3000.3
312.865	2809.6
316.941	2673.55
321.015	1735.48
325.086	480.006
329.156	275.014
333.224	6.766
337.29	327.855
341.354	210.895
345.416	420.389
349.476	767.334
353.534	912.471
357.591	850.771
361.645	1081.52
365.698	1655.59
369.748	2371.64
373.797	2934.84
377.844	3651.76
381.889	4300.02
385.932	4334.87
389.973	3370.01
394.012	2748.79
398.049	2903.4
402.084	3590.55
406.118	3681.17
410.15	4345.1
414.179	6052.22
418.207	8296.48
422.233	8741.86
426.257	6971.78
430.279	5615.36
434.299	5210.31
438.318	5989.25
442.334	5692.69
446.349	3656.35
450.361	2739.21
454.372	2100.23
458.381	1231.38
462.388	1145.63
466.394	1775
470.397	1959.45
474.398	2754.98
478.398	3714.71
482.396	6705.57
486.391	12094.5
490.385	20514
494.377	20797.5
498.368	13096.1
502.356	8469.49
506.342	5281.6
510.327	2543.73
514.31	1247.87
518.291	1129.01
522.27	757.285
526.247	111.672
530.222	21.471
534.196	122.447
538.167	149.57
542.137	120.541
546.105	368.406
550.071	314.561
554.035	39.15
557.998	360.412
561.958	593.707
565.917	856.139
569.874	1280.94
573.829	1821.62
577.782	2761.16
581.733	3216.56
585.683	2960.83
589.63	2511
593.576	1919.15
597.52	1543.22
601.462	1049.14
605.402	1244.89
609.341	1800.46
613.277	2909.85
617.212	3460.07
621.145	4690.15
625.076	6549.53
629.006	8342.71
632.933	9412.37
636.859	9802.74
640.783	9436.86
644.705	8496.13
648.625	7335.8
652.543	5565.53
656.46	3953.16
660.375	2742.72
664.288	2324.06
668.199	2919.29
672.108	1510.21
676.016	760.361
679.921	324.725
683.825	651.18
687.727	694.512
691.628	743.664
695.526	75.557
699.423	134.406
703.318	65.266
707.211	260.424
711.102	215.893
714.992	229.652
718.879	261.439
722.765	328.725
726.649	914.707
730.532	2104.52
734.412	3442.15
738.291	6115.61
742.168	9504.89
746.043	8798
749.916	5585.94
753.788	3431.7
757.658	1722.29
761.526	958.719
765.392	1259.27
769.257	1043.56
773.119	608.445
776.98	84.164
780.839	238.738
784.697	447.133
788.552	635.668
792.406	276.793
796.258	97.797
800.108	650.859
803.957	319.918
807.804	683.938
811.649	709.898
815.492	883.898
819.333	188.293
823.173	269.113
827.011	570.508
830.847	258.754
834.681	8.711
838.514	110.75
842.345	124.754
846.174	146.312
850.001	171.953
853.827	370.77
857.651	569.324
861.473	829.273
865.293	564.059
869.112	819.812
872.928	1909.7
876.744	2113.25
880.557	1914.71
884.369	1720.51
888.178	1872.78
891.987	946.945
895.793	1160.02
899.598	1108.99
903.401	634.809
907.202	590.59
911.001	164.277
914.799	373.875
918.595	725.359
922.389	1443.87
926.182	502.148
929.972	170.281
933.761	468.113
937.549	897.652
941.334	1524.23
945.118	2110.58
948.9	2519.49
952.681	2303.98
956.459	2085.55
960.236	995.832
964.012	1135.71
967.785	877.676
971.557	468.316
975.327	104.645
979.095	63.871
982.862	21.984
986.627	182.852
990.39	225.156
994.152	623.328
997.912	339.676
1001.67	764.289
1005.43	400
1009.18	441.988
1012.93	1024.5
1016.68	855.125
1020.43	1164.75
1024.18	454.371
1027.93	511.004
1031.67	485.477
1035.42	776.793
1039.16	869.969
1042.9	551.973
1046.63	971.793
1050.37	83.402
1054.11	457.746
1057.84	989.84
1061.57	1248.65
1065.3	1309.21
1069.03	905.168
1072.75	612.688
1076.47	212.246
1080.2	183.414
1083.92	89.98
1087.64	413.547
1091.36	803.355
1095.07	580.945
1098.79	64.234
1102.5	23.523
1106.21	179.859
1109.92	34.016
1113.62	274.031
1117.33	411.488
1121.04	324.555
1124.74	416.258
1128.44	68.191
1132.14	76.684
1135.83	263.012
1139.53	263.223
1143.22	1295.99
1146.92	1316.81
1150.61	1094.25
1154.3	1177.84
1157.98	1398.59
1161.67	1261.82
1165.35	1806.22
1169.04	2204.75
1172.72	2654.76
1176.4	2541.47
1180.07	2332.44
1183.75	1697.92
1187.42	1278.77
1191.1	1336.17
1194.77	1601.91
1198.44	1473.55
1202.1	1977.35
1205.77	1213.31
1209.43	1021.08
1213.1	682.398
1216.76	334.59
1220.42	760.691
1224.07	376.531
1227.73	773.543
1231.38	947.852
1235.04	1161.77
1238.69	855.492
1242.34	476.875
1245.99	75.043
1249.63	133.848
1253.28	477.398
1256.92	497.484
1260.56	667.406
1264.2	1066.17
1267.84	1159.04
1271.48	1032.43
1275.11	45.711
1278.74	75.617
1282.38	52.703
1286.01	135.359
1289.63	947.09
1293.26	698.707
1296.89	877.355
1300.51	879.117
1304.13	32.582
1307.75	563.32
1311.37	385.344
1314.99	641.254
1318.6	751.121
1322.22	719.18
1325.83	874.395
1329.44	1296.06
1333.05	1267.74
1336.66	1151.29
1340.26	943.715
1343.87	920.078
1347.47	1714.59
1351.07	1347.79
1354.67	2082.05
1358.27	1602.55
1361.86	1614.84
1365.46	1520.61
1369.05	1336.46
1372.64	830.07
1376.23	0
