Measurement: Raman, 514 nm, depolarized, Raman Data Processed
Mineral: Inderite
Rruff sample: R050195
Ideal chemistry: MgB_3_O_3_(OH)_5_5H_2_O
Locality: Boron, Kern County, California, USA
Source: Dave Bunk Minerals
Description: Colorless prismatic crystal
Measured chemistry: Mg_1.00_B_3.00_O_3_(OH)_5_Â·5H_2_O ; Mg measured, only
Pin_id: L00373
Orientation: Laser parallel to (1 0 1). Fiducial mark perpendicular to laser is parallel to b [0 1 0]
Raman shift (cm-1)	intensity
85.706	0
89.89	544.444
94.071	6678.53
98.251	8872.38
102.428	3816.94
106.604	8769.29
110.777	8177.16
114.949	2721.42
119.119	1184.41
123.286	4659.79
127.452	10756.3
131.615	10098.6
135.777	3314.09
139.937	3630.98
144.094	4033.11
148.25	5852.74
152.403	7768.75
156.555	5354.32
160.705	4094.28
164.853	6742.31
168.998	12435.1
173.142	9395.99
177.284	5045.4
181.424	6258.5
185.562	11139.2
189.698	12781.4
193.831	11277.2
197.963	5747.26
202.093	1860.09
206.221	241.251
210.347	167.527
214.472	21.456
218.594	60.915
222.714	133.646
226.832	57.126
230.948	528.48
235.063	1179.83
239.175	1887.52
243.286	1300.19
247.394	1030.52
251.501	495.905
255.605	193.584
259.708	283.466
263.808	421.091
267.907	577.786
272.004	618.373
276.099	190.829
280.192	367.754
284.283	1040.52
288.372	1867.03
292.459	3855.13
296.544	7390.73
300.627	10240.2
304.709	9271.59
308.788	6595.99
312.865	5420.43
316.941	4729.51
321.015	3296.83
325.086	2196.25
329.156	1890.36
333.224	1690.19
337.29	2241.88
341.354	4360.02
345.416	6814.41
349.476	6104.44
353.534	4998.67
357.591	4392.06
361.645	3635.57
365.698	2996.19
369.748	2983.91
373.797	3410.99
377.844	4102.03
381.889	4720.89
385.932	4873.49
389.973	4767.58
394.012	4280.93
398.049	3608.21
402.084	3300.93
406.118	3874.37
410.15	4921.81
414.179	7038.3
418.207	11526.7
422.233	17684
426.257	16981.3
430.279	10860
434.299	7653.33
438.318	8914.28
442.334	12444.3
446.349	9010.99
450.361	4615.61
454.372	2397.85
458.381	1644.07
462.388	1247.17
466.394	1243.16
470.397	1997.06
474.398	3197.88
478.398	5075.65
482.396	8447.4
486.391	16279.2
490.385	33741.9
494.377	48373.7
498.368	35220.5
502.356	20008.4
506.342	12823.4
510.327	7379.65
514.31	3594.1
518.291	1724.89
522.27	890.219
526.247	474.368
530.222	303.461
534.196	138.435
538.167	187.363
542.137	261.72
546.105	242.438
550.071	284.744
554.035	288.067
557.998	0.828
561.958	520.662
565.917	1229.64
569.874	1862.78
573.829	2830.06
577.782	4491.55
581.733	6704.82
585.683	7839.42
589.63	6598.59
593.576	5155.39
597.52	4267.52
601.462	3804.26
605.402	3852.14
609.341	4425.17
613.277	5821.33
617.212	8175.63
621.145	11076.1
625.076	14317.6
629.006	18616.3
632.933	23016.1
636.859	26920.1
640.783	26910.1
644.705	23869.3
648.625	20322.6
652.543	16660
656.46	13926.6
660.375	10769.6
664.288	8306.3
668.199	6611.71
672.108	5316.1
676.016	4402.46
679.921	3576.97
683.825	2797.71
687.727	2387.17
691.628	2322.66
695.526	2076.68
699.423	1621.4
703.318	1281.28
707.211	794.068
711.102	892.343
714.992	901.577
718.879	1017.78
722.765	1230.89
726.649	1993.9
730.532	3589.8
734.412	6416.58
738.291	11491.2
742.168	19240.7
746.043	21256.1
749.916	15782.2
753.788	10431.2
757.658	6714.87
761.526	4701.32
765.392	3810.54
769.257	3417.5
773.119	2922.21
776.98	2184.66
780.839	1514.85
784.697	1091.79
788.552	832.469
792.406	765.923
796.258	735.148
800.108	604.157
803.957	420.958
807.804	329.478
811.649	326.702
815.492	475.62
819.333	310.224
823.173	104.487
827.011	33.741
830.847	129.728
834.681	107.96
838.514	189.866
842.345	237.739
846.174	307.58
850.001	351.152
853.827	44.152
857.651	251.47
861.473	660.241
865.293	812.337
869.112	1335.46
872.928	1992.34
876.744	2916.92
880.557	3862.23
884.369	4268.26
888.178	3535.01
891.987	2928.49
895.793	2354.7
899.598	2065.66
903.401	1935.37
907.202	1399.82
911.001	1022.04
914.799	789.012
918.595	626.758
922.389	663.28
926.182	652.585
929.972	672.678
933.761	582.699
937.549	528.887
941.334	1101.6
945.118	1638.36
948.9	2428.07
952.681	2229.66
956.459	1581.65
960.236	976.243
964.012	612.675
967.785	543.565
971.557	522.691
975.327	456.411
979.095	267.499
982.862	71.788
986.627	50.292
990.39	212.082
994.152	446.3
997.912	808.855
1001.67	1302.53
1005.43	2195.71
1009.18	1170.61
1012.93	1078.61
1016.68	1182.05
1020.43	1535.76
1024.18	1758.7
1027.93	1670.83
1031.67	1201.17
1035.42	841.785
1039.16	732.711
1042.9	877.905
1046.63	1230.3
1050.37	1559.91
1054.11	1778.73
1057.84	1769.78
1061.57	1729.06
1065.3	1430.56
1069.03	1035.3
1072.75	672.261
1076.47	371.443
1080.2	68.848
1083.92	85.522
1087.64	69.705
1091.36	126.706
1095.07	55.403
1098.79	120.652
1102.5	96.964
1106.21	202.377
1109.92	121.058
1113.62	302.031
1117.33	728.316
1121.04	1338.92
1124.74	2378.89
1128.44	2967.34
1132.14	3710.41
1135.83	4081.39
1139.53	4295.45
1143.22	4280.73
1146.92	3983.26
1150.61	3981.96
1154.3	3827.67
1157.98	3969.69
1161.67	3979.35
1165.35	4062.57
1169.04	4279.42
1172.72	4516.9
1176.4	4465.97
1180.07	4181.74
1183.75	3909.41
1187.42	3445.31
1191.1	2872.54
1194.77	2287.82
1198.44	2020.55
1202.1	1805.71
1205.77	1557.17
1209.43	1297.17
1213.1	1048.94
1216.76	810.52
1220.42	409.191
1224.07	294.781
1227.73	176.691
1231.38	220.105
1235.04	335.298
1238.69	424.834
1242.34	559.412
1245.99	504.054
1249.63	645.78
1253.28	433.861
1256.92	435.911
1260.56	418.728
1264.2	422.325
1267.84	1270.68
1271.48	611.736
1275.11	792.388
1278.74	840.407
1282.38	601.24
1286.01	514.166
1289.63	277.139
1293.26	157.872
1296.89	218.871
1300.51	214.148
1304.13	263.721
1307.75	296.679
1311.37	279.145
1314.99	92.253
1318.6	56.328
1322.22	0.799
1325.83	113.431
1329.44	88.918
1333.05	250.275
1336.66	404.098
1340.26	654.604
1343.87	1008.94
1347.47	1113.29
1351.07	1198.96
1354.67	952.594
1358.27	583.433
1361.86	380.138
1365.46	332.124
1369.05	313.796
1372.64	469.828
1376.23	409.66
1379.82	398.82
1383.41	367.235
1386.99	277.938
1390.57	25.936
