Measurement: Raman, 514 nm, depolarized, Raman Data Processed
Mineral: Inderite
Rruff sample: R050195
Ideal chemistry: MgB_3_O_3_(OH)_5_5H_2_O
Locality: Boron, Kern County, California, USA
Source: Dave Bunk Minerals
Description: Colorless prismatic crystal
Measured chemistry: Mg_1.00_B_3.00_O_3_(OH)_5_Â·5H_2_O ; Mg measured, only
Pin_id: L00296
Orientation: Laser parallel to c* (0 0 1). Fiducial mark perpendicular to laser is parallel to a [1 0 0]
Raman shift (cm-1)	intensity
102.428	0
106.604	4088.7
110.777	3274.77
114.949	871.15
119.119	133.76
123.286	2519.98
127.452	8970.34
131.615	10705.3
135.777	5461.85
139.937	2970.11
144.094	3356.7
148.25	4279.56
152.403	5117.32
156.555	4116.08
160.705	3932.84
164.853	5608.64
168.998	7545.36
173.142	5239.79
177.284	1602.11
181.424	309
185.562	470.035
189.698	1345.43
193.831	1469.43
197.963	1254.15
202.093	631.859
206.221	172.553
210.347	564.467
214.472	18.113
218.594	210.09
222.714	180.055
226.832	323.693
230.948	728.826
235.063	320.414
239.175	126.111
243.286	389.895
247.394	1277.8
251.501	1079.74
255.605	777.436
259.708	704.58
263.808	474.174
267.907	386.033
272.004	603.906
276.099	114.783
280.192	373.537
284.283	262.473
288.372	569.014
292.459	1315.95
296.544	2676.75
300.627	3252.81
304.709	2979.28
308.788	2640.29
312.865	2404.71
316.941	2430.64
321.015	2088.84
325.086	2351.09
329.156	2654.84
333.224	2144.85
337.29	2538.06
341.354	4158.52
345.416	5783.23
349.476	4682.37
353.534	3326.82
357.591	2674.65
361.645	2019.85
365.698	1532.94
369.748	2059.86
373.797	3045.74
377.844	3527.4
381.889	3575.8
385.932	3732.1
389.973	3678.48
394.012	3361.58
398.049	2761.86
402.084	3549.28
406.118	4493.95
410.15	6402.85
414.179	9045.96
418.207	14486.2
422.233	19766.7
426.257	18560.9
430.279	12626.9
434.299	9786.92
438.318	11031.1
442.334	13079.5
446.349	9747.78
450.361	5176.05
454.372	3395.32
458.381	2410.59
462.388	1503.87
466.394	1698.31
470.397	1424.49
474.398	2463.86
478.398	3141.41
482.396	5052.14
486.391	9130.07
490.385	18061.2
494.377	23669.4
498.368	16297.8
502.356	8208.27
506.342	4313.91
510.327	2636.7
514.31	1552.66
518.291	629.785
522.27	374.111
526.247	245.732
530.222	190.6
534.196	161.811
538.167	390.25
542.137	55.258
546.105	157.58
550.071	66.555
554.035	301.043
557.998	110.16
561.958	1015.02
565.917	2111.46
569.874	2165.57
573.829	2677.77
577.782	4101.07
581.733	5570.46
585.683	6166.95
589.63	4739.74
593.576	3738.45
597.52	2799.91
601.462	2350.63
605.402	2416.49
609.341	2518.4
613.277	3534.38
617.212	5158.43
621.145	7186.55
625.076	9289.74
629.006	11986
632.933	14744.4
636.859	17120.7
640.783	17280.2
644.705	15553.7
648.625	13139.7
652.543	11119.3
656.46	9271.94
660.375	7311.59
664.288	5640.29
668.199	4466.02
672.108	3676.78
676.016	3149.64
679.921	2548.13
683.825	1862.85
687.727	1198.22
691.628	1241.34
695.526	1025.1
699.423	1057.24
703.318	145.027
707.211	34.455
711.102	63.896
714.992	407.523
718.879	10.566
722.765	144.535
726.649	524.5
730.532	1775.45
734.412	3358.39
738.291	6288.32
742.168	10412.2
746.043	10898.1
749.916	7576.01
753.788	4837.84
757.658	2924.61
761.526	1471.33
765.392	971.004
769.257	643.625
773.119	603.18
776.98	399.684
780.839	235.145
784.697	41.562
788.552	254.086
792.406	7.258
796.258	229.387
800.108	343.059
803.957	151.852
807.804	498.617
811.649	425.355
815.492	1096.04
819.333	949.656
823.173	686.203
827.011	287.727
830.847	26.875
834.681	15.723
838.514	10.355
842.345	103.387
846.174	111.852
850.001	8.418
853.827	262.766
857.651	643.246
861.473	940.281
865.293	1229.18
869.112	1020.6
872.928	1922.31
876.744	2435.38
880.557	3134.39
884.369	3473.36
888.178	2887.28
891.987	1991.41
895.793	1457.24
899.598	1339.03
903.401	1129.78
907.202	1052.49
911.001	798.168
914.799	309.805
918.595	603.402
922.389	247.969
926.182	632.504
929.972	576.012
933.761	877.312
937.549	1175.34
941.334	1763.59
945.118	2887.7
948.9	3864.59
952.681	4021.6
956.459	3417.84
960.236	2082.2
964.012	1745.4
967.785	1363
971.557	975.27
975.327	685.535
979.095	164.789
982.862	184.312
986.627	122.637
990.39	61.035
994.152	160.664
997.912	612.074
1001.67	755.844
1005.43	602.309
1009.18	366.902
1012.93	534.66
1016.68	703.867
1020.43	783.555
1024.18	374.512
1027.93	253.559
1031.67	68.691
1035.42	164.902
1039.16	8.797
1042.9	38.609
1046.63	360.09
1050.37	843.711
1054.11	1383.26
1057.84	1947.93
1061.57	2142.65
1065.3	1761.42
1069.03	1538.23
1072.75	501.062
1076.47	286.938
1080.2	50.168
1083.92	18.266
1087.64	124.703
1091.36	507.785
1095.07	595.984
1098.79	257.98
1102.5	109.641
1106.21	96.738
1109.92	73.07
1113.62	3.34
1117.33	475.504
1121.04	1044.47
1124.74	1587.57
1128.44	1443.76
1132.14	1860.14
1135.83	1935.49
1139.53	2049.36
1143.22	2609.85
1146.92	2605.65
1150.61	2556.61
1154.3	2477.06
1157.98	2074.88
1161.67	1649.41
1165.35	2073.45
1169.04	1847.35
1172.72	2452.85
1176.4	2689.94
1180.07	2695.26
1183.75	2370.25
1187.42	1913.36
1191.1	1689.79
1194.77	1871.84
1198.44	1481.66
1202.1	1914.75
1205.77	1709.88
1209.43	1758.59
1213.1	1511.94
1216.76	916.688
1220.42	1581
1224.07	414.172
1227.73	475.195
1231.38	644.484
1235.04	1526.82
1238.69	1381.87
1242.34	1232.43
1245.99	579.625
1249.63	588.504
1253.28	789.012
1256.92	440.801
1260.56	540.426
1264.2	1029.61
1267.84	1399.27
1271.48	1387.88
1275.11	728.062
1278.74	721.77
1282.38	353.469
1286.01	217.816
1289.63	348.898
1293.26	408.758
1296.89	749.898
1300.51	1014.44
1304.13	579.523
1307.75	1034.21
1311.37	442.523
1314.99	260.797
1318.6	130.898
1322.22	48.785
1325.83	479.371
1329.44	803.715
1333.05	1294.07
1336.66	1617.99
1340.26	1958.57
1343.87	2277.35
1347.47	2491.22
1351.07	2203.02
1354.67	2318.6
1358.27	1552.16
1361.86	1592.75
1365.46	1557.31
1369.05	1533.29
1372.64	1544.34
1376.23	1159.71
1379.82	758.348
