Measurement: Raman, 514 nm, depolarized, Raman Data Processed
Mineral: Inyoite
Rruff sample: R040161
Ideal chemistry: CaB_3_O_3_(OH)_5_4H_2_O
Locality: Kramer deposit, Boron, Kern County, California, USA
Source: University of Arizona Mineral Museum
Description: Group of colorless indistinct rounded crystals
Measured chemistry: Ca_1.00_B_3.00_O_3_(OH)_5_Â·4H_2_O
Pin_id: L00078
Orientation: Laser parallel to -c* (0 0 -1). Fiducial mark perpendicular to laser is parallel to a [1 0 0]
Raman shift (cm-1)	intensity
93.155	0
98.106	225.419
103.056	1269.43
108.002	1929.45
112.946	698.283
117.888	678.771
122.827	1519.64
127.763	2450.25
132.697	2834.77
137.628	2167.77
142.556	2817.95
147.482	5565.59
152.405	6789.22
157.326	3686.44
162.244	3684.61
167.159	5034.76
172.072	8237.71
176.982	10159.2
181.89	10297.6
186.795	8647.47
191.697	9618.61
196.597	8215.17
201.494	4486.24
206.389	2665.58
211.281	1694.59
216.17	871.1
221.057	514.189
225.941	310.763
230.823	215.268
235.702	279.608
240.578	91.9717
245.452	119.999
250.323	7.97754
255.192	171.325
260.058	350.915
264.921	400.647
269.782	523.787
274.64	626.791
279.495	429.285
284.348	376.021
289.198	37.7803
294.046	153.56
298.891	183.918
303.733	216.759
308.573	8.26465
313.41	145.682
318.245	582.275
323.077	1069.46
327.906	1254.08
332.733	931.112
337.557	816.527
342.379	1319.62
347.198	2259.57
352.014	3160.94
356.828	2840.1
361.639	2339.4
366.447	2524.12
371.253	3153.24
376.056	3460.77
380.857	3274.64
385.655	3896.95
390.451	3977.02
395.243	2644.78
400.034	2018.19
404.821	2084.09
409.606	2129.42
414.389	1827.14
419.168	1139.24
423.945	646.679
428.72	351.459
433.492	308.653
438.261	54.8428
443.028	43.8184
447.792	39.667
452.553	35.2139
457.312	114.73
462.068	300.288
466.822	479.246
471.573	557.612
476.321	213.385
481.067	77.5596
485.81	49.9375
490.551	49.7022
495.289	42.376
500.024	307.041
504.757	604.265
509.487	554.305
514.214	470.106
518.939	783.477
523.661	885.404
528.381	1126.03
533.098	1135.61
537.812	759.869
542.524	356.637
547.233	404.041
551.94	388.112
556.644	730.967
561.345	585.637
566.044	927.93
570.74	947.729
575.433	1270.67
580.124	1690.23
584.812	2170.09
589.498	2625.21
594.181	3696.59
598.861	5930.9
603.539	10539.6
608.214	21417.4
612.887	37132.6
617.557	38988
622.224	20016.7
626.889	8138.3
631.551	4061.18
636.21	2272.5
640.867	1559.37
645.521	1104.27
650.173	935.314
654.822	517.438
659.468	432.965
664.112	369.787
668.753	298.879
673.392	219.545
678.028	506.676
682.661	355.291
687.292	540.117
691.92	390.125
696.545	479.371
701.168	331.139
705.788	457.859
710.406	555.961
715.021	844.088
719.633	1407.15
724.243	2834.02
728.85	5097.91
733.455	4886.77
738.056	2375.41
742.656	971.76
747.252	493.772
751.846	321.428
756.438	251.787
761.027	127.701
765.613	242.303
770.196	35.6289
774.777	10.5
779.356	32.375
783.932	117.416
788.505	35.3652
793.075	80.207
797.643	139.336
802.208	130.846
806.771	312.846
811.331	262.348
815.888	159.31
820.443	107.443
824.995	32.7227
829.545	33.1367
834.092	60.418
838.636	79.9883
843.178	10.4629
847.717	18.0156
852.254	146.049
856.788	231.648
861.319	333.94
865.848	339.131
870.374	348.992
874.897	526.402
879.418	407.332
883.936	395.793
888.452	222.789
892.965	372.334
897.475	512.621
901.983	763.422
906.488	1022.97
910.99	1340.22
915.49	1490.97
919.988	1718.55
924.482	2268.4
928.974	2574.31
933.464	2158.5
937.951	1712.54
942.435	1249.35
946.917	1151.13
951.396	1147.08
955.872	1135.04
960.346	996.602
964.817	871.686
969.285	562.725
973.751	664.258
978.215	544.898
982.675	432.115
987.134	110.387
991.589	58.2461
996.042	355.719
1000.49	171.922
1004.94	140.481
1009.38	292.18
1013.83	538.229
1018.27	237.852
1022.7	107.189
1027.14	19.8496
1031.57	209.174
1036	322.258
1040.43	162.477
1044.85	180.035
1049.27	508.812
1053.69	701.971
1058.11	956.41
1062.52	1311.05
1066.93	1087.8
1071.34	973.586
1075.75	698.383
1080.15	535.189
1084.55	538.043
1088.95	500.088
1093.35	264.416
1097.74	240.059
1102.13	214.231
1106.52	331.762
1110.9	131.514
1115.28	204.481
1119.66	189.445
1124.04	512.635
1128.41	185.869
1132.79	140.969
1137.16	36.1973
1141.52	353.535
1145.89	196.268
1150.25	7.91797
1154.61	50.5488
1158.96	41.7227
1163.32	133.727
1167.67	133.844
1172.02	132.365
1176.36	423.596
1180.71	210.809
1185.05	314.018
1189.38	410.213
1193.72	446.394
1198.05	487.555
1202.38	692.695
1206.71	571.814
1211.04	764.812
1215.36	547.064
1219.68	563.213
1224	579.277
1228.31	598.305
1232.62	580.291
1236.93	716.221
1241.24	646.938
1245.54	854.848
1249.84	712.547
1254.14	925.258
1258.44	615.91
1262.73	720.606
1267.03	613.106
1271.31	535.736
1275.6	473.43
1279.88	204.914
1284.16	162.797
1288.44	155.996
1292.72	230.986
1296.99	115.527
1301.26	132.56
1305.53	87.9102
1309.79	471.348
1314.06	280.398
1318.32	443.172
1322.57	415.572
1326.83	479.94
1331.08	374.275
1335.33	232.578
1339.58	343.35
1343.82	522.592
1348.06	173.807
1352.3	336.986
1356.54	230.695
1360.77	316.459
1365.01	366.559
1369.23	260.639
1373.46	264.279
1377.68	268.346
1381.9	135.44
1386.12	328.568
1390.34	350.666
1394.55	146.639
1398.76	362.123
1402.97	235.322
1407.18	337.389
1411.38	307.158
1415.58	109.82
1419.78	183.127
1423.97	37.9023
1428.17	163.174
1432.36	188.447
1436.54	199.992
1440.73	87.7949
1444.91	421.688
1449.09	275.268
1453.27	308.223
1457.44	324.125
1461.61	56.041
1465.78	378.885
1469.95	330.83
1474.11	488.772
1478.27	88.7246
1482.43	9.29883
1486.59	392.672
1490.74	205.49
1494.89	276.228
1499.04	49.3008
1503.19	404.975
1507.33	21.9141
1511.47	62.0273
1515.61	52.5078
1519.75	415.44
1523.88	246.459
1528.01	192.586
1532.14	120.051
1536.26	261.934
1540.38	377.559
1544.51	249.5
1548.62	142.703
1552.74	179.699
1556.85	87.6406
1560.96	149.824
1565.07	116.754
1569.17	0.816406
