Measurement: Raman, 514 nm, depolarized, Raman Data Processed
Mineral: Inyoite
Rruff sample: R040161
Ideal chemistry: CaB_3_O_3_(OH)_5_4H_2_O
Locality: Kramer deposit, Boron, Kern County, California, USA
Source: University of Arizona Mineral Museum
Description: Group of colorless indistinct rounded crystals
Measured chemistry: Ca_1.00_B_3.00_O_3_(OH)_5_Â·4H_2_O
Pin_id: L00092
Orientation: Laser parallel to (1 0 1). Fiducial mark perpendicular to laser is parallel to b [0 1 0]
Raman shift (cm-1)	intensity
93.155	0
98.106	261.164
103.056	1321.32
108.002	1640.29
112.946	559.474
117.888	524.287
122.827	926.067
127.763	1310.16
132.697	2551.33
137.628	2018.53
142.556	3092.04
147.482	6836.98
152.405	9575.32
157.326	3578.23
162.244	2483.34
167.159	3966.9
172.072	7308.66
176.982	12029.2
181.89	14491
186.795	11439.4
191.697	10983.7
196.597	9420.12
201.494	4694.79
206.389	2200.34
211.281	1342.68
216.17	587.567
221.057	331.634
225.941	87.3721
230.823	119.802
235.702	11.9795
240.578	204.564
245.452	84.7178
250.323	158.01
255.192	835.045
260.058	1080.37
264.921	1285.82
269.782	1089.89
274.64	1048.41
279.495	925.976
284.348	370.32
289.198	281.871
294.046	93.5947
298.891	159.607
303.733	346.304
308.573	595.893
313.41	1165.35
318.245	2226.77
323.077	2914.66
327.906	3663.4
332.733	2774.49
337.557	1665.98
342.379	914.538
347.198	797.411
352.014	738.914
356.828	944.374
361.639	968.227
366.447	1413.45
371.253	2227.59
376.056	2735.45
380.857	2701.4
385.655	3325.61
390.451	3652.67
395.243	2539.91
400.034	2248.86
404.821	2144.43
409.606	2290.55
414.389	1579.17
419.168	854.244
423.945	298.728
428.72	13.5957
433.492	25.5449
438.261	30.7285
443.028	239.447
447.792	197.584
452.553	102.137
457.312	14.2949
462.068	270.529
466.822	474.988
471.573	130.656
476.321	201.473
481.067	79.4531
485.81	82.6699
490.551	180.607
495.289	325.859
500.024	476.268
504.757	799.955
509.487	933.959
514.214	750.363
518.939	863.137
523.661	951.426
528.381	1129.42
533.098	1045.95
537.812	988.055
542.524	972.613
547.233	1050.46
551.94	949.461
556.644	1142.72
561.345	1229.2
566.044	1446.76
570.74	1790.81
575.433	1943.08
580.124	2231.32
584.812	2484.71
589.498	3008.73
594.181	3685.87
598.861	5733.83
603.539	10024.7
608.214	18723.7
612.887	31685.7
617.557	34521.3
622.224	17716.8
626.889	8036.99
631.551	4132.21
636.21	2527.26
640.867	1811.12
645.521	1294.01
650.173	1350.38
654.822	1146.53
659.468	913.025
664.112	977.012
668.753	816.273
673.392	1027.1
678.028	982.09
682.661	1171.56
687.292	1179.45
691.92	958.689
696.545	1074.82
701.168	1005.91
705.788	888.207
710.406	1179.04
715.021	1168.13
719.633	1684.26
724.243	3074.58
728.85	5084.58
733.455	5105.06
738.056	2248.85
742.656	1312.46
747.252	555.785
751.846	411.805
756.438	197.549
761.027	156.986
765.613	113.463
770.196	183.516
774.777	181.379
779.356	17.6758
783.932	107.592
788.505	122.082
793.075	3.76562
797.643	172.268
802.208	211.477
806.771	147.918
811.331	183.719
815.888	77.6797
820.443	193.287
824.995	85.4922
829.545	112.898
834.092	63.2168
838.636	230.732
843.178	290.242
847.717	269.35
852.254	585.076
856.788	578.441
861.319	509.43
865.848	1090.09
870.374	907.367
874.897	876.242
879.418	864.734
883.936	961.894
888.452	881.666
892.965	729.055
897.475	840.541
901.983	1056.29
906.488	1054.73
910.99	1194.28
915.49	1346.33
919.988	1944.34
924.482	2309.73
928.974	2840.97
933.464	2302.48
937.951	2031.85
942.435	1469
946.917	1056.43
951.396	911.193
955.872	1130.24
960.346	1012.09
964.817	731.17
969.285	730.244
973.751	625.654
978.215	510.9
982.675	615.416
987.134	107.059
991.589	121.201
996.042	193.338
1000.49	472.975
1004.94	405.156
1009.38	367.051
1013.83	263.227
1018.27	368.643
1022.7	138.006
1027.14	163.475
1031.57	37.0352
1036	160.668
1040.43	80.3301
1044.85	76.3789
1049.27	289.551
1053.69	555.986
1058.11	350.783
1062.52	487.887
1066.93	602.338
1071.34	408.348
1075.75	349.613
1080.15	263.059
1084.55	260.75
1088.95	158.877
1093.35	402.322
1097.74	276.039
1102.13	280.162
1106.52	125.557
1110.9	298.121
1115.28	66.8535
1119.66	91.7227
1124.04	458.713
1128.41	15.1934
1132.79	18.9297
1137.16	1.81641
1141.52	53.543
1145.89	98.9688
1150.25	0.509766
1154.61	112.289
1158.96	201.234
1163.32	151.383
1167.67	324.76
1172.02	539.775
1176.36	281.289
1180.71	541.41
1185.05	704.543
1189.38	499.678
1193.72	477.807
1198.05	734.926
1202.38	749.025
1206.71	802.088
1211.04	770.104
1215.36	1016.06
1219.68	846.955
1224	1241.77
1228.31	1072.49
1232.62	1096.12
1236.93	1122.64
1241.24	1280.21
1245.54	1129.69
1249.84	1375.35
1254.14	1376.37
1258.44	1368.85
1262.73	1220.59
1267.03	1048.07
1271.31	901.791
1275.6	888.217
1279.88	721.121
1284.16	918.68
1288.44	147.772
1292.72	304.801
1296.99	225.016
1301.26	608.885
1305.53	755.644
1309.79	855.33
1314.06	567.908
1318.32	1192.36
1322.57	645.688
1326.83	951.863
1331.08	756.883
1335.33	516.742
1339.58	612.434
1343.82	563.961
1348.06	361.293
1352.3	431.445
1356.54	505.426
1360.77	435.219
1365.01	111.684
1369.23	48.6055
1373.46	442.293
1377.68	251.883
1381.9	119.363
1386.12	577.777
1390.34	316.113
1394.55	340.356
1398.76	345.519
1402.97	2.64844
1407.18	378.641
1411.38	210.484
1415.58	457.281
1419.78	98.4609
1423.97	16.5
1428.17	447.113
1432.36	245.977
1436.54	49.832
1440.73	571.656
1444.91	490.07
1449.09	246.172
1453.27	377.258
1457.44	501.106
1461.61	638.731
1465.78	105.113
1469.95	456.07
1474.11	88.4219
1478.27	342.023
1482.43	356.496
1486.59	303.449
1490.74	219.492
1494.89	388.621
1499.04	301.258
1503.19	364.207
1507.33	382.922
1511.47	348.519
1515.61	283.199
1519.75	543.074
1523.88	226.41
1528.01	353.316
1532.14	520.754
1536.26	216.621
1540.38	80.1172
1544.51	394.992
1548.62	385.394
1552.74	313.875
1556.85	58.3086
1560.96	351.57
1565.07	24.2383
1569.17	39.418
