Measurement: Raman, 514 nm, depolarized, Raman Data Processed
Mineral: Inyoite
Rruff sample: R040161
Ideal chemistry: CaB_3_O_3_(OH)_5_4H_2_O
Locality: Kramer deposit, Boron, Kern County, California, USA
Source: University of Arizona Mineral Museum
Description: Group of colorless indistinct rounded crystals
Measured chemistry: Ca_1.00_B_3.00_O_3_(OH)_5_Â·4H_2_O
Pin_id: L00339
Orientation: Laser parallel to a* (1 0 0). Fiducial mark perpendicular to laser is parallel to b [0 1 0]
Raman shift (cm-1)	intensity
94.393	0
99.344	432.132
104.293	940.235
109.239	500.976
114.182	721.094
119.123	1016.75
124.061	1284.88
128.997	2027.44
133.93	3207.19
138.86	2426.61
143.788	3996.51
148.713	8105.23
153.636	7315.94
158.556	3535.05
163.473	3474.63
168.388	6125.47
173.3	10760.7
178.21	13998.9
183.117	13633.1
188.021	11872.6
192.923	13314.6
197.822	9508.76
202.718	4724.95
207.612	2556.9
212.504	1493.38
217.392	646.299
222.279	445.44
227.162	53.3662
232.043	15.3565
236.921	4.36133
241.797	88.1992
246.67	133.398
251.54	718.63
256.408	1655.79
261.274	1832.98
266.136	1798.14
270.996	1341.58
275.854	926.799
280.709	518.436
285.561	138.951
290.41	341.767
295.257	195.775
300.102	137.662
304.944	123.287
309.783	351.528
314.619	980.994
319.453	2007.85
324.285	3081.22
329.113	3351.1
333.939	2150.47
338.763	981.107
343.584	509.034
348.402	485.853
353.218	336.18
358.031	429.029
362.841	986.384
367.649	1896.23
372.454	3145.55
377.257	3820.97
382.057	4255.9
386.854	5518.22
391.649	5612.02
396.441	4428.86
401.231	4191.41
406.018	4772.69
410.802	3668.91
415.584	1762.62
420.363	809.771
425.139	217.334
429.913	224.273
434.684	28.3389
439.453	83.3643
444.219	15.4727
448.982	184.463
453.743	862.172
458.501	1949.72
463.257	3995.52
468.01	3196.78
472.76	1277.48
477.508	375.614
482.253	25.1777
486.996	214.19
491.736	309.684
496.473	742.659
501.207	1253.11
505.94	1103.05
510.669	904.617
515.396	836.568
520.12	863.233
524.842	970.551
529.561	784.756
534.277	830.801
538.991	578.981
543.702	159.374
548.41	211.394
553.116	126.902
557.819	471.057
562.52	595.745
567.218	832.898
571.913	1058.8
576.606	1387.44
581.296	2149.78
585.984	2412.25
590.669	3336.23
595.351	4855.85
600.031	7629.69
604.708	14031.7
609.383	26582
614.055	41476.3
618.724	34132.9
623.391	14911.6
628.055	6054.39
632.716	2922.87
637.375	1608.45
642.031	1154.91
646.685	657.498
651.335	347.228
655.984	340.977
660.63	65.1914
665.273	49.4336
669.913	18.0879
674.551	62.2852
679.186	97.2188
683.819	166.639
688.449	86.459
693.076	75.8223
697.701	268.279
702.323	298.953
706.943	397.469
711.56	917.379
716.174	1544.97
720.786	2811.92
725.395	5301.5
730.001	8304.33
734.605	6374.78
739.206	2768.81
743.805	1362.42
748.401	839.588
752.995	563.314
757.585	621.59
762.173	474.484
766.759	486.027
771.342	333.182
775.922	366.846
780.5	151.019
785.075	51.6191
789.648	26.4336
794.217	137.621
798.785	63.8652
803.349	86.2773
807.911	495.697
812.471	214.381
817.027	198.578
821.582	42.6465
826.133	52.7656
830.682	148.453
835.228	59.7285
839.772	95.9727
844.313	89.3359
848.852	238.072
853.387	212.144
857.921	553.76
862.451	672.91
866.979	734.744
871.505	676.982
876.028	587.795
880.548	484.221
885.065	535.254
889.58	678.922
894.093	403.713
898.602	583.713
903.109	542.801
907.614	943.961
912.116	711.658
916.615	928.883
921.112	905.934
925.606	1448.31
930.097	1554.53
934.586	1220.53
939.072	920.799
943.556	915.537
948.037	777.141
952.515	1110.24
956.991	999.65
961.464	888.019
965.934	542.697
970.402	345.705
974.867	360.772
979.33	214.113
983.79	228.613
988.248	306.873
992.702	479.217
997.155	10.4707
1001.6	261.815
1006.05	213.203
1010.5	393.32
1014.94	284.539
1019.38	306.201
1023.81	165.865
1028.25	80.3008
1032.68	127.035
1037.11	191.025
1041.53	226.633
1045.96	111.029
1050.38	310.893
1054.8	246.867
1059.21	404.004
1063.62	521.404
1068.04	568.045
1072.44	446.912
1076.85	264.9
1081.25	225.986
1085.65	173.172
1090.05	309.633
1094.44	327.394
1098.84	228.787
1103.22	288.719
1107.61	526.979
1112	271.541
1116.38	280.16
1120.76	533.051
1125.13	85.041
1129.51	155.99
1133.88	26.1836
1138.25	96.4707
1142.61	67.1953
1146.98	72.1133
1151.34	53.5449
1155.7	1.78516
1160.05	56.6055
1164.4	125.133
1168.76	346.049
1173.1	280.615
1177.45	84.0293
1181.79	394.842
1186.13	454.269
1190.47	399.711
1194.8	351.172
1199.14	566.644
1203.46	572.125
1207.79	707.613
1212.12	751.107
1216.44	660.604
1220.76	564.102
1225.08	948.588
1229.39	622.066
1233.7	696.519
1238.01	534.941
1242.32	611.326
1246.62	683.678
1250.92	789.131
1255.22	947.264
1259.51	674.498
1263.81	823.699
1268.1	590.754
1272.38	357.103
1276.67	268.209
1280.95	205.576
1285.23	190.562
1289.51	318.227
1293.79	320.199
1298.06	173.432
1302.33	133.365
1306.6	275.506
1310.86	319.293
1315.12	507.139
1319.38	336.084
1323.64	157.086
1327.89	510.065
1332.14	591.021
1336.39	343.959
1340.64	405.887
1344.88	408.797
1349.12	479.697
1353.36	325.584
1357.6	331.471
1361.83	260.359
1366.06	467.246
1370.29	459.133
1374.52	258.062
1378.74	544.096
1382.96	649.254
1387.18	529.531
1391.39	518.951
1395.61	365.533
1399.82	561.35
1404.02	296.428
1408.23	263.82
1412.43	430.56
1416.63	610.746
1420.83	683.418
1425.02	532.891
1429.21	390.022
1433.4	454.688
1437.59	394.93
1441.77	476.65
1445.95	330.81
1450.13	456.324
1454.31	392.506
1458.48	228.772
1462.65	378.451
1466.82	312.617
1470.99	504.209
1475.15	425.924
1479.31	487.764
1483.47	117.709
1487.63	110.736
1491.78	294.791
1495.93	237.254
1500.08	267.408
1504.22	395.861
1508.37	315.492
1512.51	148.498
1516.64	219.58
1520.78	206.955
1524.91	343.914
1529.04	69.8496
1533.17	64.3535
1537.29	278.697
1541.41	227.912
1545.53	272.006
1549.65	179.115
1553.77	380.752
1557.88	374.25
1561.99	470.701
1566.09	5.72656
1570.2	0
