Measurement: Raman, 514 nm, depolarized, Raman Data Processed
Mineral: Inyoite
Rruff sample: R040161
Ideal chemistry: CaB_3_O_3_(OH)_5_4H_2_O
Locality: Kramer deposit, Boron, Kern County, California, USA
Source: University of Arizona Mineral Museum
Description: Group of colorless indistinct rounded crystals
Measured chemistry: Ca_1.00_B_3.00_O_3_(OH)_5_Â·4H_2_O
Pin_id: L00113
Orientation: Laser parallel to b* (0 1 0). Fiducial mark perpendicular to laser is parallel to c [0 0 1]
Raman shift (cm-1)	intensity
99.344	0
104.293	382.503
109.239	735.688
114.182	1136.14
119.123	1579.74
124.061	1955.3
128.997	1624.78
133.93	1332.03
138.86	1430.3
143.788	2360.65
148.713	5118.89
153.636	5333.16
158.556	3908.76
163.473	3078.33
168.388	4200.89
173.3	7006.41
178.21	9689.75
183.117	9313.48
188.021	5937.06
192.923	4461.79
197.822	2877.98
202.718	1709.34
207.612	983.215
212.504	682.606
217.392	331.402
222.279	55.5059
227.162	201.856
232.043	233.32
236.921	146.688
241.797	170.848
246.67	65.2402
251.54	343.625
256.408	579.365
261.274	1047.51
266.136	572.193
270.996	325.316
275.854	230.742
280.709	153.613
285.561	90.6992
290.41	87.7402
295.257	130.484
300.102	37.9668
304.944	339.486
309.783	254.037
314.619	806.676
319.453	1422.44
324.285	1802.36
329.113	2185.89
333.939	1436.63
338.763	1181.85
343.584	1232.62
348.402	1905.59
353.218	2068.25
358.031	1486.19
362.841	849.793
367.649	421.039
372.454	598.887
377.257	974.297
382.057	1241.23
386.854	1870.16
391.649	1481.49
396.441	926.303
401.231	686.619
406.018	974.606
410.802	885.398
415.584	169.957
420.363	54.4121
425.139	152.893
429.913	109.397
434.684	299.865
439.453	29.8516
444.219	87.1582
448.982	73.6406
453.743	538.492
458.501	2045.87
463.257	3860.49
468.01	3715.31
472.76	1627.32
477.508	811.508
482.253	376.846
486.996	272.363
491.736	101.019
496.473	223.666
501.207	597.416
505.94	621.541
510.669	589.941
515.396	620.537
520.12	944.24
524.842	576.971
529.561	816.742
534.277	1012.52
538.991	529.273
543.702	444.994
548.41	112.641
553.116	103.633
557.819	358.975
562.52	231.982
567.218	243.387
571.913	416.301
576.606	292.627
581.296	540.406
585.984	815.992
590.669	1429.8
595.351	2020.27
600.031	3055.8
604.708	5992.31
609.383	11724.9
614.055	19470.4
618.724	17266.1
623.391	8049.79
628.055	3861.5
632.716	1966.88
637.375	1251.45
642.031	1060.54
646.685	1103.29
651.335	611.523
655.984	832.891
660.63	753.473
665.273	686.176
669.913	835.086
674.551	616.754
679.186	588.652
683.819	754.328
688.449	662.156
693.076	743.609
697.701	557.223
702.323	994.371
706.943	777.133
711.56	608.188
716.174	754.207
720.786	996.652
725.395	2086.25
730.001	3267.8
734.605	2622.22
739.206	1330.78
743.805	873.672
748.401	430.481
752.995	262.602
757.585	146.336
762.173	490.289
766.759	204.324
771.342	121.996
775.922	50.3398
780.5	148.738
785.075	68.0391
789.648	42.2148
794.217	118.727
798.785	86.8125
803.349	286.527
807.911	601.894
812.471	285.922
817.027	67.6055
821.582	49.125
826.133	9.46875
830.682	86.9648
835.228	106.043
839.772	133.484
844.313	37.3633
848.852	2.54688
853.387	205.742
857.921	310.039
862.451	287.969
866.979	182.539
871.505	267.723
876.028	142.418
880.548	242.731
885.065	57.1641
889.58	84.7461
894.093	161.656
898.602	268.312
903.109	461.465
907.614	979.508
912.116	1074.32
916.615	1164.92
921.112	1382.38
925.606	1649.64
930.097	1671.86
934.586	1401.12
939.072	850.797
943.556	724.312
948.037	788.691
952.515	891.703
956.991	944.012
961.464	548.598
965.934	570.402
970.402	615.621
974.867	433.113
979.33	337.516
983.79	192.035
988.248	140.644
992.702	228.461
997.155	117.004
1001.6	671.566
1006.05	240.762
1010.5	260.648
1014.94	33.3945
1019.38	205.856
1023.81	291.297
1028.25	183.832
1032.68	227.449
1037.11	217.789
1041.53	321.914
1045.96	402.16
1050.38	275.609
1054.8	361.566
1059.21	413.742
1063.62	761.188
1068.04	637.781
1072.44	411.516
1076.85	478.383
1081.25	604.391
1085.65	409.559
1090.05	536.934
1094.44	426.707
1098.84	182.887
1103.22	460.551
1107.61	304.531
1112	361.82
1116.38	385.477
1120.76	375.812
1125.13	408.859
1129.51	463.09
1133.88	455.5
1138.25	50.918
1142.61	259.723
1146.98	262.934
1151.34	23.3516
1155.7	128.648
1160.05	128.398
1164.4	305.059
1168.76	322.797
1173.1	207.102
1177.45	174.356
1181.79	657.703
1186.13	260.133
1190.47	112.66
1194.8	344.269
1199.14	559.973
1203.46	547.769
1207.79	362.652
1212.12	323.617
1216.44	497.633
1220.76	417.746
1225.08	78.9453
1229.39	415.215
1233.7	722.574
1238.01	325.996
1242.32	619.496
1246.62	627.066
1250.92	661.742
1255.22	338.508
1259.51	786.356
1263.81	846.269
1268.1	525.457
1272.38	546.922
1276.67	790.68
1280.95	294.527
1285.23	158.234
1289.51	280.664
1293.79	659.246
1298.06	1.70703
1302.33	437.312
1306.6	517.504
1310.86	942.891
1315.12	1080.53
1319.38	1416.47
1323.64	980.613
1327.89	1348.84
1332.14	813.172
1336.39	610.602
1340.64	842.148
1344.88	790.797
1349.12	487.578
1353.36	630.477
1357.6	608.516
1361.83	600.684
1366.06	705.121
1370.29	604.461
1374.52	347.109
1378.74	939.031
1382.96	948.223
1387.18	621.688
1391.39	533.449
1395.61	539.59
1399.82	607.188
1404.02	432.234
1408.23	517.481
1412.43	446.25
1416.63	760.914
1420.83	595.449
1425.02	517.156
1429.21	436.762
1433.4	517.156
1437.59	799.832
1441.77	894.289
1445.95	1111.21
1450.13	985.231
1454.31	1183.88
1458.48	1025.04
1462.65	1194.54
1466.82	817.371
1470.99	599.562
1475.15	711.113
1479.31	526.019
1483.47	415.262
1487.63	357.828
1491.78	541.629
1495.93	206.973
1500.08	423.68
1504.22	545.508
1508.37	285.922
1512.51	401.84
1516.64	527.258
1520.78	83.4023
1524.91	348.598
1529.04	254.25
1533.17	179.008
1537.29	256.008
1541.41	202.793
1545.53	154.156
1549.65	173.516
1553.77	578.586
1557.88	182.078
1561.99	50.8867
1566.09	238.703
1570.2	0
