Measurement: Raman, 514 nm, ccw, Raman Data Processed
Mineral: Jacobsite
Rruff sample: R060780
Ideal chemistry: Mn^2+^Fe^3+^_2_O_4_
Locality: Jakobsberg, Sweden
Source: Michael Scott
Description: Black grains
Measured chemistry: (Mn^2+^_0.75_Mg_0.25_)_Σ=1_(Fe^3+^_1.92_Mn^3+^_0.08_)_Σ=2_O_4_
Pin_id: M01488
Orientation: Laser parallel to a* (1 0 0). Fiducial mark perpendicular to laser is parallel to c [0 0 1]
Raman shift (cm-1)	intensity
200.269	0
203.936	172.047
207.602	716.172
211.267	149.664
214.93	941.672
218.592	968.938
222.252	928.797
225.911	574.352
229.568	862.695
233.224	438.133
236.878	423.703
240.531	660.805
244.183	458.781
247.833	238.398
251.482	828.133
255.129	140.148
258.775	237.18
262.419	413.188
266.062	521.742
269.703	524.961
273.343	191.859
276.982	447.734
280.619	328.203
284.255	192.664
287.889	801.18
291.521	914.977
295.153	1867.23
298.783	1941.04
302.411	2757.16
306.038	4220.73
309.663	3237.15
313.288	3633.47
316.91	4153.22
320.531	4393.02
324.151	5019.71
327.769	4845.16
331.386	4725.78
335.001	4846.74
338.615	4639.19
342.228	4570.84
345.839	4328.55
349.448	3559.38
353.056	2758.9
356.663	2170.45
360.268	1906.16
363.872	1442.83
367.474	1475.5
371.075	963.883
374.674	106.172
378.272	123.969
381.869	295.211
385.464	565.242
389.057	1034.62
392.649	380.93
396.24	212.445
399.829	350.039
403.417	486.484
407.003	690.844
410.588	232.117
414.172	69.7031
417.753	38.6953
421.334	455.422
424.913	736.703
428.49	1121.19
432.067	1652.65
435.641	2233.7
439.214	2328.27
442.786	3147.58
446.356	2974.73
449.925	3435.45
453.493	2825.12
457.059	3116.21
460.623	3120.77
464.186	3100.8
467.747	2944.31
471.308	3015.34
474.866	2899.77
478.423	3579.9
481.979	3799.45
485.533	3964.6
489.086	4227.19
492.637	5112.91
496.187	4542.66
499.736	4951.02
503.283	5547.34
506.828	4699.62
510.372	5861.16
513.915	6062.38
517.456	6173.27
520.995	7094.3
524.534	7577.09
528.07	7944.63
531.606	8368.34
535.139	8975.79
538.672	8873.48
542.203	9491.34
545.732	10889.4
549.26	11718.2
552.786	12763.9
556.311	13831.7
559.835	15044
563.357	16829
566.878	17913.7
570.397	20083.7
573.915	21647.5
577.431	23590.8
580.946	26261.5
584.459	28727.7
587.971	31216.4
591.481	35606
594.99	40580.6
598.498	44884.9
602.004	49813.9
605.508	54168.7
609.012	57919.8
612.513	61484.4
616.013	62084.4
619.512	62356
623.009	61688.5
626.505	59523
629.999	56356
633.492	52776.9
636.984	49770.5
640.473	43702.1
643.962	39981.4
647.449	35861
650.934	33009.5
654.418	30095.4
657.901	27785.9
661.382	25636.5
664.862	24376.5
668.34	22542.6
671.817	21186.9
675.292	19156.8
678.766	17498.1
682.238	16692.4
685.709	14774.7
689.178	13961.9
692.646	12155.1
696.113	10484.8
699.578	8914.48
703.041	7443.51
706.503	6009.48
709.964	4804.39
713.423	4494.89
716.881	3490.2
720.337	2936.48
723.792	2466.05
727.245	1811.91
730.697	1531.23
734.147	1019.98
737.596	949.117
741.043	1029.66
744.489	591.773
747.933	169.398
751.376	122.344
754.818	142.742
758.258	384.461
761.697	44.2656
765.134	407.758
768.569	213.914
772.003	92.8516
775.436	265.758
778.867	131.484
782.297	20.9297
785.725	311.992
789.152	123.664
792.578	28.0859
796.001	480.203
799.424	405.375
802.845	126.164
806.264	119.445
809.682	222.242
813.099	469.656
816.514	223.812
819.927	256.133
823.339	215.062
826.75	57.2188
830.159	345.164
833.567	232.289
836.973	101.727
840.378	579.68
843.781	2.46094
847.183	131.133
850.583	368.102
853.982	132.859
857.38	511.828
860.776	14.8594
864.17	477.242
867.563	542.055
870.954	537.359
874.345	1126.41
877.733	1154.31
881.12	1067.07
884.506	464.258
887.89	1739.34
891.273	976.258
894.654	577.75
898.034	1478.62
901.412	872.398
904.789	943.93
908.164	1325.33
911.538	1319.46
914.91	1824.87
918.281	807.781
921.651	1035.3
925.018	1239.52
928.385	906.578
931.75	876.07
935.113	581.828
938.476	1057.35
941.836	1674.17
945.195	1255.32
948.553	1680.06
951.909	1368.54
955.264	1193.52
958.617	1271.42
961.969	1064.37
965.319	671.445
968.668	751.984
972.015	1058.4
975.361	1124.75
978.705	1006.21
982.048	618.734
985.39	452.148
988.73	663.539
992.068	283.977
995.405	466.297
998.741	307.18
1002.08	220.398
1005.41	418.07
1008.74	809.156
1012.07	825.727
1015.4	686.266
1018.72	579.867
1022.05	839.508
1025.37	643.25
1028.69	906.789
1032.02	785.906
1035.33	879.273
1038.65	901.93
1041.97	639.945
1045.28	911.492
1048.6	1525.88
1051.91	1219.9
1055.22	1306.47
1058.53	1265.21
1061.84	1438.76
1065.14	1531.29
1068.45	1378.58
1071.75	1272.31
1075.05	1675.04
1078.35	1768.73
1081.65	1530.85
1084.95	1453.38
1088.24	1750.09
1091.54	1238.16
1094.83	1380.1
1098.12	1442.23
1101.41	1621.8
1104.7	1462.52
1107.99	1017.24
1111.27	1026.6
1114.56	1247.29
1117.84	1221.01
1121.12	1543.31
1124.4	839.031
1127.68	1121.12
1130.95	754.242
1134.23	635.086
1137.5	175.383
1140.77	269.125
1144.04	508.477
1147.31	968.148
1150.58	434.406
1153.85	1201.7
1157.11	612.797
1160.38	269.617
1163.64	888.93
1166.9	899.445
1170.16	932.789
1173.41	823.148
1176.67	452.578
1179.92	847.008
1183.18	636.484
1186.43	291.844
1189.68	1137.72
1192.93	629.359
1196.17	364.281
1199.42	1073.58
1202.66	598.133
1205.9	581.875
1209.15	1292.4
1212.39	886.258
1215.62	1046.82
1218.86	844.25
1222.1	774.945
1225.33	1211.29
1228.56	886.445
1231.79	1116.46
1235.02	990.125
1238.25	961.445
1241.48	893.586
1244.7	775.984
1247.92	785.031
1251.15	706.672
1254.37	753.469
1257.59	814.117
1260.8	386.094
1264.02	1161.68
1267.23	581.445
1270.45	261.562
1273.66	886.094
1276.87	901.133
1280.08	940.633
1283.28	831.805
1286.49	847.773
1289.69	773.812
1292.9	269.75
1296.1	211.727
1299.3	322.688
1302.5	341.195
1305.69	524.328
1308.89	219.805
1312.08	389.766
1315.27	27.0547
1318.46	260.375
1321.65	170.336
1324.84	242.047
1328.03	143.625
1331.21	399.336
1334.4	317.531
1337.58	198.984
1340.76	416.891
1343.94	256.766
1347.12	109.93
1350.29	215.805
1353.47	106.602
1356.64	18.75
1359.81	142.141
1362.98	451.703
1366.15	312.531
1369.32	341.445
1372.48	414.758
1375.65	169.148
1378.81	352.516
1381.97	180.992
1385.13	80.0547
1388.29	113.227
1391.45	397.82
1394.6	139.641
1397.76	257.82
1400.91	364.969
1404.06	566.328
1407.21	186.32
1410.36	82.9922
1413.51	193.445
1416.65	125.633
1419.79	582.547
1422.94	9.42188
1426.08	461.773
1429.22	32.5625
1432.35	61.375
1435.49	296.914
1438.62	266.945
1441.76	259.352
1444.89	627.523
1448.02	156.961
1451.15	97.2969
1454.28	626.898
1457.4	775.711
1460.53	727.727
1463.65	367.266
1466.77	763.82
1469.89	472.375
1473.01	591.219
1476.13	639.789
1479.24	887.82
1482.36	770.969
1485.47	430.148
1488.58	310.273
1491.69	737.297
1494.8	616.68
1497.91	393.133
1501.01	465.43
1504.12	654.18
1507.22	753.273
1510.32	552.008
1513.42	488.602
1516.52	966.875
1519.61	535.273
1522.71	32.8203
1525.8	570.078
1528.89	583.008
1531.98	420.836
1535.07	469.766
1538.16	975.656
1541.25	343.523
1544.33	0
