Measurement: Raman, 514 nm, ccw, Raman Data Processed
Mineral: Jacobsite
Rruff sample: R060780
Ideal chemistry: Mn^2+^Fe^3+^_2_O_4_
Locality: Jakobsberg, Sweden
Source: Michael Scott
Description: Black grains
Measured chemistry: (Mn^2+^_0.75_Mg_0.25_)_Σ=1_(Fe^3+^_1.92_Mn^3+^_0.08_)_Σ=2_O_4_
Pin_id: M01488
Orientation: Laser parallel to a* (1 0 0). Fiducial mark perpendicular to laser is parallel to c [0 0 1]
Raman shift (cm-1)	intensity
200.269	0
203.936	681.43
207.602	1045.18
211.267	816.086
214.93	187.406
218.592	1121.57
222.252	840.289
225.911	1016.38
229.568	1367.92
233.224	2004.81
236.878	2211.5
240.531	867.477
244.183	461.695
247.833	92.4531
251.482	561.148
255.129	9.36719
258.775	304.023
262.419	271.633
266.062	409.914
269.703	763.836
273.343	483.922
276.982	283.148
280.619	1426.59
284.255	654.461
287.889	878.164
291.521	1229.28
295.153	1751.61
298.783	2099.73
302.411	2738.38
306.038	3173.51
309.663	3589.69
313.288	3743.18
316.91	4319.88
320.531	4385.84
324.151	4930.02
327.769	4839.24
331.386	5010.52
335.001	4648.99
338.615	5089.78
342.228	4722.06
345.839	3943.54
349.448	3745.88
353.056	3283.51
356.663	2153.83
360.268	2051.13
363.872	1358.29
367.474	1555.06
371.075	791.734
374.674	917.922
378.272	292.82
381.869	265.359
385.464	455.852
389.057	58.4688
392.649	60.0078
396.24	380.523
399.829	39.2266
403.417	569.82
407.003	337.711
410.588	353.797
414.172	248.539
417.753	341.68
421.334	175.297
424.913	696.023
428.49	1281.34
432.067	1667.71
435.641	1778.75
439.214	2178.88
442.786	2121.3
446.356	3347.13
449.925	3029.7
453.493	3751.47
457.059	3181.94
460.623	3746.52
464.186	3521.72
467.747	3414.52
471.308	2918.97
474.866	3034.05
478.423	3485.79
481.979	3324.02
485.533	3777.17
489.086	4256.7
492.637	4125.02
496.187	4262.5
499.736	4593.27
503.283	5096.68
506.828	4901.09
510.372	5095.4
513.915	5481.83
517.456	6017.01
520.995	6603.73
524.534	7334.53
528.07	6927.06
531.606	8135.22
535.139	8190.35
538.672	8320.41
542.203	9040.36
545.732	10202
549.26	10530.9
552.786	12094.8
556.311	13145
559.835	14512.8
563.357	16187.7
566.878	17532.8
570.397	19694.4
573.915	22440.5
577.431	24014.5
580.946	26602.7
584.459	29683.7
587.971	32531.5
591.481	36918.1
594.99	41881.7
598.498	46863.9
602.004	51598.4
605.508	56659.5
609.012	59871.2
612.513	63171.6
616.013	64569.4
619.512	65240.2
623.009	64557.1
626.505	62132.9
629.999	59419
633.492	54969
636.984	50593.4
640.473	45811.8
643.962	42172
647.449	37484.7
650.934	34392.2
654.418	31536.4
657.901	28978.8
661.382	26784.1
664.862	25138.3
668.34	23741.5
671.817	21985.6
675.292	21104
678.766	19401.3
682.238	18114.6
685.709	15820.5
689.178	14135.1
692.646	12631.2
696.113	11515.2
699.578	9920.43
703.041	8279.53
706.503	6765.98
709.964	6114.97
713.423	5328.5
716.881	4092.67
720.337	3462.31
723.792	2766.58
727.245	2039.81
730.697	1497.17
734.147	1802.44
737.596	1187.89
741.043	766.938
744.489	578.227
747.933	407.164
751.376	1014.35
754.818	528.492
758.258	326.336
761.697	331.414
765.134	319.938
768.569	85.4688
772.003	211.07
775.436	70.1641
778.867	60.3594
782.297	225.805
785.725	426.477
789.152	18.4453
792.578	250.219
796.001	141.586
799.424	75.4688
802.845	32.625
806.264	116.875
809.682	63.7812
813.099	1.83594
816.514	121.766
819.927	209.461
823.339	645.062
826.75	354.016
830.159	221.008
833.567	298.117
836.973	266.32
840.378	119.945
843.781	203.141
847.183	397.953
850.583	505.266
853.982	198.117
857.38	707.156
860.776	225.086
864.17	257.727
867.563	392.031
870.954	228
874.345	434.453
877.733	395.414
881.12	353.156
884.506	462.711
887.89	419.055
891.273	643.297
894.654	434.578
898.034	775.883
901.412	671.266
904.789	389.781
908.164	1130.62
911.538	745.414
914.91	718.219
918.281	851.219
921.651	1164.34
925.018	723.906
928.385	922.242
931.75	862.781
935.113	986.43
938.476	1097.84
941.836	555.133
945.195	1048.84
948.553	773.281
951.909	642.766
955.264	994.656
958.617	1064.21
961.969	1032.07
965.319	1040.32
968.668	806.711
972.015	518.102
975.361	703.352
978.705	568.859
982.048	361.898
985.39	442.586
988.73	836.531
992.068	236.734
995.405	678.281
998.741	544.312
1002.08	490.211
1005.41	292.148
1008.74	329.305
1012.07	500.773
1015.4	535.195
1018.72	761.695
1022.05	418.57
1025.37	297.703
1028.69	506.398
1032.02	705.07
1035.33	435.023
1038.65	668.156
1041.97	689.875
1045.28	456.203
1048.6	607.297
1051.91	1334.76
1055.22	1258.43
1058.53	1043.59
1061.84	1372.25
1065.14	1509.81
1068.45	1519.46
1071.75	911.359
1075.05	1113.45
1078.35	1546.69
1081.65	1227.24
1084.95	1044.89
1088.24	1398.24
1091.54	1414.11
1094.83	1488.8
1098.12	1099.65
1101.41	1241.19
1104.7	1178.98
1107.99	960.828
1111.27	1058.66
1114.56	956.211
1117.84	902.273
1121.12	997.914
1124.4	628.844
1127.68	569.172
1130.95	352.93
1134.23	465.273
1137.5	752.07
1140.77	485.477
1144.04	472.219
1147.31	576.938
1150.58	521.203
1153.85	670.125
1157.11	563.812
1160.38	549.93
1163.64	431.75
1166.9	402.023
1170.16	640.875
1173.41	656.172
1176.67	28.3125
1179.92	564.945
1183.18	348.648
1186.43	269.383
1189.68	400.141
1192.93	456.758
1196.17	1113.09
1199.42	609.305
1202.66	649.789
1205.9	829.852
1209.15	489.445
1212.39	860.047
1215.62	1200.62
1218.86	1048.61
1222.1	1079.93
1225.33	1136.05
1228.56	901.969
1231.79	997.617
1235.02	1035.81
1238.25	900.852
1241.48	925.438
1244.7	982.172
1247.92	761.211
1251.15	412.188
1254.37	424.797
1257.59	972.227
1260.8	655.305
1264.02	646.508
1267.23	484.727
1270.45	257.68
1273.66	293.961
1276.87	427.398
1280.08	423.445
1283.28	641.008
1286.49	266.734
1289.69	441.359
1292.9	672.781
1296.1	234.742
1299.3	530.758
1302.5	577.922
1305.69	567.32
1308.89	725.961
1312.08	552.938
1315.27	228.453
1318.46	357.445
1321.65	316.023
1324.84	72.9219
1328.03	376.469
1331.21	646.883
1334.4	153.023
1337.58	520.664
1340.76	184.836
1343.94	208.344
1347.12	151.859
1350.29	1037.66
1353.47	104.562
1356.64	182.164
1359.81	554.812
1362.98	560.914
1366.15	9.28125
1369.32	500.336
1372.48	148.383
1375.65	62.3984
1378.81	547.352
1381.97	357.836
1385.13	85.875
1388.29	88.5547
1391.45	292.539
1394.6	98.0234
1397.76	195.156
1400.91	200.906
1404.06	486.523
1407.21	508.914
1410.36	37.2734
1413.51	1083.94
1416.65	261.055
1419.79	45.0938
1422.94	219.062
1426.08	319.531
1429.22	415.352
1432.35	399.672
1435.49	423.594
1438.62	657.992
1441.76	566.523
1444.89	411.398
1448.02	278.133
1451.15	648.344
1454.28	466.117
1457.4	540.422
1460.53	271.18
1463.65	323.445
1466.77	905.93
1469.89	715.344
1473.01	352.961
1476.13	399.406
1479.24	763.234
1482.36	687.172
1485.47	307.75
1488.58	498.805
1491.69	377.305
1494.8	168.953
1497.91	344.43
1501.01	648.414
1504.12	625.906
1507.22	698.867
1510.32	478.875
1513.42	427.891
1516.52	765.688
1519.61	361.578
1522.71	419.32
1525.8	240.836
1528.89	89.2344
1531.98	201.25
1535.07	9.96094
1538.16	291.945
1541.25	553.531
1544.33	0
