Measurement: Raman, 514 nm, ccw, Raman Data Processed
Mineral: Jacobsite
Rruff sample: R060780
Ideal chemistry: Mn^2+^Fe^3+^_2_O_4_
Locality: Jakobsberg, Sweden
Source: Michael Scott
Description: Black grains
Measured chemistry: (Mn^2+^_0.75_Mg_0.25_)_Σ=1_(Fe^3+^_1.92_Mn^3+^_0.08_)_Σ=2_O_4_
Pin_id: M01488
Orientation: Laser parallel to a* (1 0 0). Fiducial mark perpendicular to laser is parallel to c [0 0 1]
Raman shift (cm-1)	intensity
200.269	0
203.936	1121.62
207.602	518.734
211.267	711.766
214.93	17.3516
218.592	1475.81
222.252	1562.05
225.911	898.664
229.568	776.586
233.224	2013.03
236.878	2179.91
240.531	549.547
244.183	1212.66
247.833	512.688
251.482	677.742
255.129	301.531
258.775	484.516
262.419	296.398
266.062	205.055
269.703	677.484
273.343	200.008
276.982	29.6797
280.619	704.148
284.255	383.414
287.889	334.227
291.521	588.469
295.153	941.688
298.783	1754.25
302.411	1179.95
306.038	1996.56
309.663	1675.31
313.288	2208.23
316.91	2224
320.531	2099.91
324.151	2305.88
327.769	2335.78
331.386	2417.7
335.001	1679.81
338.615	2161.21
342.228	1407.74
345.839	2090.3
349.448	1458.29
353.056	1048.42
356.663	595.961
360.268	1233.17
363.872	519.258
367.474	44.3047
371.075	525.32
374.674	390.414
378.272	276.062
381.869	405.844
385.464	224.211
389.057	516.672
392.649	783.469
396.24	372.883
399.829	217.5
403.417	493.445
407.003	371.062
410.588	480.062
414.172	35.2344
417.753	447.25
421.334	470.703
424.913	916.477
428.49	1188.84
432.067	1731.21
435.641	1692.25
439.214	2729.98
442.786	2635.59
446.356	2744.57
449.925	3461.38
453.493	3604.97
457.059	3686.16
460.623	3877.98
464.186	3685.41
467.747	3770.48
471.308	3814.2
474.866	4055.57
478.423	3840.61
481.979	4427.33
485.533	4605.73
489.086	4511.69
492.637	4377.68
496.187	4623.16
499.736	5045.28
503.283	5262.9
506.828	5161.19
510.372	5279.72
513.915	5774.62
517.456	6292.78
520.995	6668.68
524.534	7526.56
528.07	7742.09
531.606	7367.28
535.139	8185.91
538.672	9045.31
542.203	9355.89
545.732	10395.2
549.26	11331.1
552.786	12192.6
556.311	13803.5
559.835	15058.4
563.357	16054.8
566.878	17542
570.397	20146.4
573.915	21777.7
577.431	24265.8
580.946	25765.2
584.459	28308.8
587.971	31292.5
591.481	35902.6
594.99	39921.7
598.498	44762.7
602.004	49567.6
605.508	55153.2
609.012	58462.5
612.513	61368.4
616.013	63484.9
619.512	64966.6
623.009	64094.3
626.505	62054.2
629.999	59050.9
633.492	54881
636.984	50467.5
640.473	46840.8
643.962	41881.7
647.449	37603.1
650.934	34705.8
654.418	31586.5
657.901	28492.7
661.382	26875.8
664.862	24894.5
668.34	22990.3
671.817	21936.2
675.292	20543
678.766	19219.1
682.238	17679.3
685.709	15689.8
689.178	14089.2
692.646	12404.5
696.113	10709.3
699.578	9277.76
703.041	8604.45
706.503	7024.61
709.964	6469.74
713.423	4894.59
716.881	3880.48
720.337	2944.39
723.792	2989.43
727.245	1937.55
730.697	1547.27
734.147	1361.83
737.596	1101.03
741.043	1146.88
744.489	370.445
747.933	346.445
751.376	439.625
754.818	49.9766
758.258	256
761.697	9.75781
765.134	310.852
768.569	237.125
772.003	517.961
775.436	167.883
778.867	413.609
782.297	185.422
785.725	461.258
789.152	166.117
792.578	174.773
796.001	96.6016
799.424	238.203
802.845	149.969
806.264	310.031
809.682	720.188
813.099	151.68
816.514	331.352
819.927	11.3359
823.339	188.711
826.75	22.8984
830.159	406.57
833.567	239.797
836.973	202.477
840.378	517.57
843.781	343.133
847.183	156.898
850.583	416.727
853.982	280.414
857.38	364.484
860.776	467.297
864.17	420.422
867.563	247.75
870.954	349.336
874.345	481.984
877.733	532.516
881.12	591.367
884.506	353.445
887.89	493.68
891.273	572.297
894.654	440.781
898.034	506.039
901.412	796.289
904.789	685.234
908.164	787.625
911.538	1099.09
914.91	983.32
918.281	988.234
921.651	971.984
925.018	880.914
928.385	1232.2
931.75	1353.01
935.113	1410.59
938.476	1740.83
941.836	861.914
945.195	915.398
948.553	909.766
951.909	1083.22
955.264	916.57
958.617	1025.84
961.969	1062.31
965.319	881.492
968.668	1355.6
972.015	778.523
975.361	895.477
978.705	701.43
982.048	1686.91
985.39	631.352
988.73	684.18
992.068	875.195
995.405	640.539
998.741	1056.8
1002.08	444.781
1005.41	784.055
1008.74	663.836
1012.07	645.75
1015.4	621.328
1018.72	624.094
1022.05	858.617
1025.37	707.852
1028.69	357.594
1032.02	608.562
1035.33	295.586
1038.65	546.594
1041.97	407.609
1045.28	1272.68
1048.6	780.945
1051.91	534.445
1055.22	1249.79
1058.53	1120.33
1061.84	1137.48
1065.14	1239.52
1068.45	1331.09
1071.75	972.727
1075.05	993.117
1078.35	1189.34
1081.65	1004.79
1084.95	1777.41
1088.24	1194.36
1091.54	857.141
1094.83	1482.07
1098.12	1353.99
1101.41	1278.27
1104.7	1079.65
1107.99	1344.06
1111.27	1192.13
1114.56	1166.12
1117.84	1049.87
1121.12	1254.58
1124.4	1099.19
1127.68	718.32
1130.95	583.398
1134.23	335.438
1137.5	700.094
1140.77	175.328
1144.04	555.109
1147.31	645.195
1150.58	741.969
1153.85	164.883
1157.11	834.367
1160.38	374.086
1163.64	118.938
1166.9	666.055
1170.16	706.125
1173.41	725.648
1176.67	770.062
1179.92	1104.83
1183.18	1407.34
1186.43	765.477
1189.68	1157.18
1192.93	912.891
1196.17	499.945
1199.42	404.336
1202.66	443.156
1205.9	736.195
1209.15	713.242
1212.39	941.984
1215.62	1700.68
1218.86	1037.1
1222.1	794.617
1225.33	518.234
1228.56	445.68
1231.79	456.633
1235.02	470.031
1238.25	675.289
1241.48	623.297
1244.7	445.102
1247.92	821.562
1251.15	629.828
1254.37	437.344
1257.59	669.383
1260.8	263.945
1264.02	432.82
1267.23	915.172
1270.45	433.18
1273.66	79.4609
1276.87	388.578
1280.08	553.07
1283.28	595.695
1286.49	724.664
1289.69	1013.84
1292.9	863.141
1296.1	398.68
1299.3	799.945
1302.5	320.797
1305.69	417.75
1308.89	253.586
1312.08	73.2031
1315.27	24.0156
1318.46	192.039
1321.65	201.461
1324.84	503.242
1328.03	54.3047
1331.21	210.828
1334.4	182.922
1337.58	227.375
1340.76	532
1343.94	18.9609
1347.12	46.6484
1350.29	409.68
1353.47	89.5703
1356.64	772.188
1359.81	145.102
1362.98	218.648
1366.15	113.188
1369.32	34.9531
1372.48	236.523
1375.65	10.2812
1378.81	302.812
1381.97	28.6328
1385.13	238.719
1388.29	215.617
1391.45	310.539
1394.6	186.523
1397.76	349.984
1400.91	247.719
1404.06	14.6094
1407.21	185.891
1410.36	286.25
1413.51	183.531
1416.65	481.555
1419.79	450.312
1422.94	874.234
1426.08	196.383
1429.22	238.148
1432.35	481.578
1435.49	11.0156
1438.62	100.219
1441.76	785.641
1444.89	783.852
1448.02	193.438
1451.15	487.234
1454.28	363.859
1457.4	430.719
1460.53	446.031
1463.65	272.609
1466.77	435.453
1469.89	838.789
1473.01	140.984
1476.13	831.484
1479.24	513.242
1482.36	647.312
1485.47	1037.29
1488.58	645.805
1491.69	485.25
1494.8	907.289
1497.91	151.367
1501.01	449.258
1504.12	578.672
1507.22	276.992
1510.32	588.219
1513.42	1090.52
1516.52	352.492
1519.61	259.797
1522.71	393.102
1525.8	900.562
1528.89	1166.16
1531.98	453.133
1535.07	401.695
1538.16	462.648
1541.25	199.969
1544.33	0
