Measurement: Raman, 514 nm, depolarized, Raman Data Processed
Mineral: Jacobsite
Rruff sample: R060780
Ideal chemistry: Mn^2+^Fe^3+^_2_O_4_
Locality: Jakobsberg, Sweden
Source: Michael Scott
Description: Black grains
Measured chemistry: (Mn^2+^_0.75_Mg_0.25_)_Σ=1_(Fe^3+^_1.92_Mn^3+^_0.08_)_Σ=2_O_4_
Pin_id: M01488
Orientation: Laser parallel to a* (1 0 0). Fiducial mark perpendicular to laser is parallel to c [0 0 1]
Raman shift (cm-1)	intensity
200.269	0
203.936	365.133
207.602	392.062
211.267	447.352
214.93	83.9609
218.592	1148.56
222.252	276.875
225.911	531.664
229.568	522.172
233.224	871.625
236.878	432.875
240.531	351.172
244.183	223.766
247.833	254.352
251.482	23.3594
255.129	110.727
258.775	367.781
262.419	540.172
266.062	394.852
269.703	313.648
273.343	518.273
276.982	28.3203
280.619	2.89844
284.255	90.6641
287.889	403.32
291.521	653.258
295.153	1261.54
298.783	1188.98
302.411	1540.22
306.038	2707.31
309.663	2789.5
313.288	2856.48
316.91	3472.22
320.531	3472.96
324.151	3342.58
327.769	3386.64
331.386	3371.18
335.001	3288.29
338.615	3118.82
342.228	3123.39
345.839	3109.48
349.448	2701.03
353.056	2204.65
356.663	1975.28
360.268	1572.41
363.872	1429.62
367.474	846.648
371.075	512.234
374.674	291.172
378.272	39.9531
381.869	549.117
385.464	293.57
389.057	273.641
392.649	547.844
396.24	484.75
399.829	436.477
403.417	286.508
407.003	275.617
410.588	65.5625
414.172	30.1875
417.753	334.68
421.334	1027.78
424.913	1281.1
428.49	1216.28
432.067	1409.28
435.641	1719.54
439.214	2327.38
442.786	2570.84
446.356	2636.73
449.925	3083.85
453.493	3230.09
457.059	3451.67
460.623	3415.78
464.186	3817.03
467.747	3982.63
471.308	3787.19
474.866	3764.73
478.423	3934.65
481.979	4348.15
485.533	4223.26
489.086	4306.31
492.637	4467.06
496.187	4623.25
499.736	5139.89
503.283	5950.46
506.828	5683.8
510.372	5935.94
513.915	6070.75
517.456	6396.25
520.995	6896.17
524.534	7996.25
528.07	7852.28
531.606	8124.34
535.139	8646.47
538.672	9240.84
542.203	9853.13
545.732	11008.7
549.26	11586.3
552.786	13196.6
556.311	13910.3
559.835	15227.5
563.357	16717.5
566.878	18081.3
570.397	19945.4
573.915	22988.1
577.431	24296.1
580.946	26338.2
584.459	29297.8
587.971	32024.4
591.481	36099
594.99	40651.7
598.498	45630.4
602.004	50720.2
605.508	54888.8
609.012	58821.1
612.513	62440.3
616.013	64379.9
619.512	65347.3
623.009	64421.5
626.505	62472.1
629.999	59343.1
633.492	55662.7
636.984	51233.3
640.473	46277.1
643.962	42001.7
647.449	38859.8
650.934	35835.5
654.418	32045.3
657.901	28751.1
661.382	27086.5
664.862	24728.3
668.34	23424.7
671.817	22002.1
675.292	20541.4
678.766	18990.7
682.238	17704.7
685.709	15982.8
689.178	14096.7
692.646	12677.9
696.113	10904
699.578	9250.34
703.041	8082.67
706.503	6902.59
709.964	5662.17
713.423	4929.92
716.881	3908.66
720.337	3128.85
723.792	2553.16
727.245	2207.88
730.697	1817.94
734.147	1187.34
737.596	817.203
741.043	867.016
744.489	404.141
747.933	113.648
751.376	211.453
754.818	101.734
758.258	283.336
761.697	354.703
765.134	81.8906
768.569	280.203
772.003	222.539
775.436	118.617
778.867	268.781
782.297	205.266
785.725	178.641
789.152	0.046875
792.578	103.289
796.001	24.2031
799.424	230.844
802.845	301.812
806.264	15.2578
809.682	40.5859
813.099	518.078
816.514	2.48438
819.927	310.977
823.339	205.938
826.75	352.641
830.159	235.875
833.567	18.2812
836.973	242.406
840.378	165.938
843.781	11.3828
847.183	251.711
850.583	87.3516
853.982	16.875
857.38	44.4453
860.776	127.922
864.17	331.766
867.563	536.141
870.954	239.961
874.345	459.344
877.733	341.969
881.12	399.961
884.506	432.484
887.89	420.898
891.273	268.281
894.654	748.508
898.034	732.711
901.412	785.961
904.789	776.297
908.164	971.141
911.538	820.68
914.91	1285.48
918.281	1153.31
921.651	548.844
925.018	1028.05
928.385	755.922
931.75	1119.43
935.113	1036.44
938.476	1286.38
941.836	1302.32
945.195	1247.6
948.553	951.695
951.909	1133.34
955.264	1313.6
958.617	751.461
961.969	571.164
965.319	718.875
968.668	1583.84
972.015	642.93
975.361	669.352
978.705	995.727
982.048	865.117
985.39	977.891
988.73	1029.61
992.068	896.461
995.405	613.57
998.741	913.195
1002.08	582.766
1005.41	777.656
1008.74	639.188
1012.07	710.031
1015.4	437.93
1018.72	853.453
1022.05	564.93
1025.37	791
1028.69	685.414
1032.02	659.781
1035.33	879.789
1038.65	621.617
1041.97	688.758
1045.28	1448.62
1048.6	1126.99
1051.91	1324.6
1055.22	1189.18
1058.53	1331.71
1061.84	1141.02
1065.14	1615.38
1068.45	1520.93
1071.75	1179.51
1075.05	1019.99
1078.35	966.734
1081.65	1369.04
1084.95	1292.35
1088.24	1163.03
1091.54	1103.64
1094.83	1554.34
1098.12	1469.18
1101.41	1342.59
1104.7	1208.88
1107.99	1492.93
1111.27	1171.42
1114.56	1124.67
1117.84	952.836
1121.12	1260.68
1124.4	919.344
1127.68	635.758
1130.95	375.953
1134.23	510.125
1137.5	638.297
1140.77	891.625
1144.04	1060.88
1147.31	475.625
1150.58	467.852
1153.85	540.664
1157.11	161.969
1160.38	1493.72
1163.64	366.102
1166.9	530.984
1170.16	312.242
1173.41	627.023
1176.67	796.914
1179.92	823.469
1183.18	822.875
1186.43	989.977
1189.68	920.664
1192.93	1160.34
1196.17	740.055
1199.42	877.977
1202.66	1038.27
1205.9	910.883
1209.15	900.82
1212.39	1263.09
1215.62	608.656
1218.86	1240.46
1222.1	1030.47
1225.33	437.438
1228.56	738.016
1231.79	885.531
1235.02	722.602
1238.25	812.258
1241.48	420.961
1244.7	450.578
1247.92	670.273
1251.15	661.688
1254.37	979.203
1257.59	340.281
1260.8	527.414
1264.02	407.234
1267.23	599.008
1270.45	214.672
1273.66	488.797
1276.87	449.148
1280.08	481.242
1283.28	478.359
1286.49	456.609
1289.69	624.656
1292.9	374.695
1296.1	420.891
1299.3	494.336
1302.5	281.492
1305.69	499.312
1308.89	619.672
1312.08	202.836
1315.27	287.672
1318.46	119.094
1321.65	5.92188
1324.84	74.9375
1328.03	295.508
1331.21	400.836
1334.4	275.141
1337.58	281.102
1340.76	508.664
1343.94	134.789
1347.12	1226.1
1350.29	18.6016
1353.47	171.266
1356.64	209.93
1359.81	53.8594
1362.98	228.531
1366.15	182.516
1369.32	101.141
1372.48	601.562
1375.65	268.867
1378.81	454.188
1381.97	305.172
1385.13	477.586
1388.29	297.117
1391.45	173.953
1394.6	421.945
1397.76	210.102
1400.91	294.242
1404.06	385.648
1407.21	341.57
1410.36	349.156
1413.51	565.531
1416.65	312.555
1419.79	70.6875
1422.94	273.172
1426.08	723.156
1429.22	644.984
1432.35	293.031
1435.49	102.688
1438.62	287.555
1441.76	428.609
1444.89	432.516
1448.02	650.375
1451.15	1457.33
1454.28	434.5
1457.4	809.945
1460.53	883.531
1463.65	281.234
1466.77	886.242
1469.89	1403.85
1473.01	336.898
1476.13	426.039
1479.24	557.992
1482.36	180.133
1485.47	455.398
1488.58	383.055
1491.69	395.484
1494.8	293.289
1497.91	476.883
1501.01	510.742
1504.12	787.188
1507.22	633.391
1510.32	197.258
1513.42	1269.37
1516.52	300.867
1519.61	512.875
1522.71	1051.29
1525.8	663.438
1528.89	307.141
1531.98	519
1535.07	334.359
1538.16	464.336
1541.25	78.1406
1544.33	0
