Measurement: Raman, 514 nm, depolarized, Raman Data Processed
Mineral: Jadeite
Rruff sample: R050220
Ideal chemistry: NaAlSi_2_O_6_
Locality: Clear Creek, San Benito County, California, USA
Source: Hatt Yoder
Description: Aggregate of colorless bladed crystals
Measured chemistry: Na_1.00_Al_1.00_(Si_0.99_Al_0.01_)_2_O_6_
Pin_id: L00822
Orientation: Laser parallel to (1 0 1). Fiducial mark perpendicular to laser is parallel to -b [0 -1 0]
Raman shift (cm-1)	intensity
112.946	0
117.888	121.309
122.827	215.398
127.763	636.536
132.697	1581.17
137.628	3796.87
142.556	10439.9
147.482	7780.21
152.405	2793.51
157.326	1080.37
162.244	712.502
167.159	632.602
172.072	281.787
176.982	386.602
181.89	253.705
186.795	416.826
191.697	1004.65
196.597	1468.8
201.494	3340.88
206.389	5057.63
211.281	786.019
216.17	89.8555
221.057	242.025
225.941	291.365
230.823	140.393
235.702	23.8926
240.578	30.6816
245.452	109.33
250.323	415.74
255.192	1755.25
260.058	891.523
264.921	165.791
269.782	114.508
274.64	203.916
279.495	180.185
284.348	296.25
289.198	536.846
294.046	904.658
298.891	884.434
303.733	1200.98
308.573	2548.21
313.41	2626.52
318.245	1332.6
323.077	1749.48
327.906	5076.84
332.733	3433.79
337.557	756.439
342.379	338.94
347.198	353.885
352.014	423.914
356.828	516.479
361.639	1426.18
366.447	3534
371.253	8964.96
376.056	15743
380.857	8410.13
385.655	6992.73
390.451	4263.54
395.243	1748.8
400.034	1184.05
404.821	824.857
409.606	640.604
414.389	498.121
419.168	801.582
423.945	972.66
428.72	1676.79
433.492	2678.93
438.261	1664.06
443.028	889.16
447.792	183.193
452.553	120.488
457.312	117.547
462.068	114.588
466.822	72.9141
471.573	33.5879
476.321	14.3301
481.067	200.316
485.81	69.2754
490.551	216.17
495.289	725.168
500.024	112.656
504.757	400.836
509.487	650.127
514.214	994.518
518.939	1479.12
523.661	2641.67
528.381	1834.91
533.098	535.309
537.812	438.504
542.524	193.432
547.233	250.152
551.94	292.471
556.644	284.621
561.345	300.717
566.044	336.676
570.74	676.371
575.433	1043.74
580.124	815.775
584.812	488.481
589.498	149.842
594.181	175.219
598.861	149.018
603.539	73.9102
608.214	8.33398
612.887	25.8867
617.557	296.4
622.224	335.82
626.889	630.674
631.551	1077.2
636.21	897.318
640.867	1030.34
645.521	1019.33
650.173	407.35
654.822	570.443
659.468	306.482
664.112	187.315
668.753	266.769
673.392	573.426
678.028	350.443
682.661	615.135
687.292	1358.94
691.92	3083.07
696.545	7747.45
701.168	11447.6
705.788	5259.73
710.406	2223.15
715.021	1206.87
719.633	682.613
724.243	523.609
728.85	210.973
733.455	250.147
738.056	205.879
742.656	46.4023
747.252	257.205
751.846	47.6699
756.438	305.334
761.027	69.5566
765.613	157.098
770.196	63.6406
774.777	484.111
779.356	1337.51
783.932	592.014
788.505	53.6797
793.075	13.6094
797.643	211.818
802.208	80.1289
806.771	117.727
811.331	243.805
815.888	79.0078
820.443	158.598
824.995	286.731
829.545	47.9023
834.092	96.1992
838.636	322.637
843.178	137.07
847.717	339.156
852.254	186.961
856.788	335.43
861.319	499.566
865.848	357.418
870.374	296.793
874.897	423.789
879.418	175.148
883.936	395.059
888.452	263.719
892.965	157.031
897.475	83.1602
901.983	229.824
906.488	194.023
910.99	176.309
915.49	360.215
919.988	200.785
924.482	57.043
928.974	101.856
933.464	248.637
937.951	129.371
942.435	63.4453
946.917	158.891
951.396	151.402
955.872	28.5391
960.346	21.9336
964.817	162.273
969.285	427.023
973.751	210.641
978.215	483.324
982.675	1694.86
987.134	2547.32
991.589	1175.16
996.042	570.109
1000.49	536.418
1004.94	527.922
1009.38	412.66
1013.83	377.625
1018.27	546.316
1022.7	971.508
1027.14	1413.46
1031.57	2835.63
1036	6671.23
1040.43	10107.4
1044.85	5111.39
1049.27	2314.29
1053.69	1239.53
1058.11	780.535
1062.52	622.559
1066.93	623.82
1071.34	389.402
1075.75	326.91
1080.15	554.481
1084.55	913.949
1088.95	1486.9
1093.35	250.34
1097.74	296.934
1102.13	118.32
1106.52	301.965
1110.9	4.10547
1115.28	440.797
1119.66	325.766
1124.04	297.883
1128.41	23.9062
1132.79	385.387
1137.16	334.133
1141.52	346.574
1145.89	198.781
1150.25	177.707
1154.61	289.441
1158.96	259.957
1163.32	92.418
1167.67	52.0977
1172.02	319.144
1176.36	266.262
1180.71	130.25
1185.05	52.1211
1189.38	269.879
1193.72	107.504
1198.05	82.9219
1202.38	149.309
1206.71	230.637
1211.04	70.9492
1215.36	40.5273
1219.68	386.18
1224	284.273
1228.31	307.598
1232.62	198.227
1236.93	185.824
1241.24	32.375
1245.54	204.641
1249.84	502.191
1254.14	257.898
1258.44	429.305
1262.73	485.566
1267.03	163.047
1271.31	299.856
1275.6	119.258
1279.88	313.125
1284.16	137.898
1288.44	279.992
1292.72	23.1758
1296.99	241.863
1301.26	545.879
1305.53	287.004
1309.79	263.133
1314.06	208.031
1318.32	594.57
1322.57	305.891
1326.83	324.227
1331.08	542.977
1335.33	125.805
1339.58	484.609
1343.82	377.094
1348.06	576.207
1352.3	326.426
1356.54	243.781
1360.77	382.16
1365.01	54.3281
1369.23	636.488
1373.46	346.035
1377.68	249.75
1381.9	232.633
1386.12	259.828
1390.34	15.8008
1394.55	221.945
1398.76	202.918
1402.97	231.414
1407.18	328.856
1411.38	55.6094
1415.58	383.848
1419.78	119.269
1423.97	157.258
1428.17	444.633
1432.36	530.738
1436.54	580.516
1440.73	552.781
1444.91	895.691
1449.09	990.106
1453.27	375.789
1457.44	383.785
1461.61	517.309
1465.78	450.168
1469.95	449.406
1474.11	448.07
1478.27	392.242
1482.43	562.481
1486.59	254.566
1490.74	269.473
1494.89	307.828
1499.04	204.812
1503.19	170.894
1507.33	319.609
1511.47	244.102
1515.61	228.269
1519.75	342.106
1523.88	255.648
1528.01	132.926
1532.14	390.918
1536.26	349.84
1540.38	322.824
1544.51	266.695
1548.62	304.258
1552.74	242.402
1556.85	296.281
1560.96	479.621
1565.07	477.863
1569.17	141.801
