Measurement: Raman, 514 nm, depolarized, Raman Data Processed
Mineral: Jadeite
Rruff sample: R050220
Ideal chemistry: NaAlSi_2_O_6_
Locality: Clear Creek, San Benito County, California, USA
Source: Hatt Yoder
Description: Aggregate of colorless bladed crystals
Measured chemistry: Na_1.00_Al_1.00_(Si_0.99_Al_0.01_)_2_O_6_
Pin_id: L00896
Orientation: Laser parallel to a* (1 0 0). Fiducial mark perpendicular to laser is parallel to b [0 1 0]
Raman shift (cm-1)	intensity
112.946	0
117.888	78.6885
122.827	161.795
127.763	502.073
132.697	337.927
137.628	435.856
142.556	1500.95
147.482	1337.94
152.405	242.887
157.326	155.06
162.244	43.832
167.159	115.945
172.072	146.497
176.982	194.013
181.89	236.644
186.795	688.059
191.697	2689.44
196.597	4124.94
201.494	10421.2
206.389	11692.5
211.281	2617.57
216.17	615.495
221.057	782.506
225.941	672.965
230.823	105.082
235.702	90.7842
240.578	54.457
245.452	510.096
250.323	1697.06
255.192	4117.4
260.058	1857.35
264.921	8.69824
269.782	31.207
274.64	62.5371
279.495	308.219
284.348	983.797
289.198	2149.08
294.046	3478.03
298.891	3372.61
303.733	5055.74
308.573	9403.95
313.41	8409.07
318.245	4892.27
323.077	7480.69
327.906	14162
332.733	8563.33
337.557	2134.39
342.379	1070.41
347.198	874.573
352.014	1060.91
356.828	2129.83
361.639	5997.07
366.447	15831.6
371.253	34548.4
376.056	45178.5
380.857	27574.8
385.655	21421.9
390.451	11907.8
395.243	4106.58
400.034	1794.55
404.821	1239.69
409.606	1170.23
414.389	1208.85
419.168	1991.05
423.945	3144.48
428.72	5668.87
433.492	7821.44
438.261	5498.19
443.028	2258.1
447.792	863.148
452.553	309.362
457.312	156.845
462.068	21.709
466.822	8.77734
471.573	12.1367
476.321	27.4004
481.067	2.05762
485.81	141.453
490.551	127.347
495.289	94.6689
500.024	214.312
504.757	242.139
509.487	443.928
514.214	1780.69
518.939	4255.41
523.661	7910.22
528.381	4889.1
533.098	1340.97
537.812	665.809
542.524	172.649
547.233	238.55
551.94	323.383
556.644	688.21
561.345	1044.05
566.044	856.905
570.74	1235.7
575.433	2038.39
580.124	1101.96
584.812	576.407
589.498	975.727
594.181	292.742
598.861	69.957
603.539	3.4082
608.214	62.9395
612.887	181.501
617.557	4.28613
622.224	96.2061
626.889	83.8897
631.551	8.41016
636.21	31.3135
640.867	91.3818
645.521	140.195
650.173	198.935
654.822	144.71
659.468	193.913
664.112	306.649
668.753	439.268
673.392	754.826
678.028	1130.52
682.661	2531.89
687.292	4979.57
691.92	12734.1
696.545	28597
701.168	36872.5
705.788	17225.6
710.406	6564.08
715.021	3006.41
719.633	1725.6
724.243	961.654
728.85	695.568
733.455	624.347
738.056	461.697
742.656	292.405
747.252	384.769
751.846	332.276
756.438	228.235
761.027	316.739
765.613	491.454
770.196	849.217
774.777	1999.82
779.356	3743.36
783.932	2032.17
788.505	407.932
793.075	122.926
797.643	37.5273
802.208	97.334
806.771	69.8789
811.331	26.8281
815.888	7.69922
820.443	0.208984
824.995	7.875
829.545	64.4688
834.092	140.945
838.636	41.3145
843.178	132.603
847.717	370.793
852.254	211.955
856.788	335.096
861.319	394.215
865.848	310.324
870.374	230.422
874.897	61.5137
879.418	283.711
883.936	196.244
888.452	415.141
892.965	100.412
897.475	112.734
901.983	157.053
906.488	122.383
910.99	75.7637
915.49	112.971
919.988	40.0996
924.482	120.647
928.974	51.0156
933.464	15.8926
937.951	1.77539
942.435	93.6641
946.917	117.988
951.396	172.394
955.872	105.275
960.346	330.717
964.817	341.234
969.285	557.318
973.751	749.809
978.215	2100.38
982.675	5137.49
987.134	6170.64
991.589	2657.88
996.042	1547.22
1000.49	1151.6
1004.94	1148.03
1009.38	850.498
1013.83	1170.57
1018.27	1919.18
1022.7	2889.13
1027.14	5227.79
1031.57	10974.4
1036	24626
1040.43	34504.6
1044.85	17638
1049.27	6732.3
1053.69	3435.57
1058.11	1894.67
1062.52	1508.65
1066.93	1000.6
1071.34	989.99
1075.75	772.393
1080.15	972.391
1084.55	838.402
1088.95	401.699
1093.35	268.574
1097.74	301.027
1102.13	173.238
1106.52	201.545
1110.9	343.873
1115.28	270.221
1119.66	571.568
1124.04	516.133
1128.41	284.533
1132.79	207.295
1137.16	77.3086
1141.52	85.6797
1145.89	29.0527
1150.25	138.033
1154.61	152.065
1158.96	182.934
1163.32	106.764
1167.67	216.584
1172.02	264.398
1176.36	227.207
1180.71	153.129
1185.05	94.1504
1189.38	100.238
1193.72	44.4531
1198.05	96.6406
1202.38	113.498
1206.71	55.7891
1211.04	75.8086
1215.36	73.4062
1219.68	193.062
1224	261.881
1228.31	36.6934
1232.62	284.377
1236.93	235.824
1241.24	254.506
1245.54	197.191
1249.84	276.885
1254.14	209.565
1258.44	97.0527
1262.73	136.596
1267.03	225.217
1271.31	170.852
1275.6	399.545
1279.88	253.471
1284.16	111.814
1288.44	173.504
1292.72	151.316
1296.99	184.184
1301.26	233.143
1305.53	163.139
1309.79	303.809
1314.06	453.969
1318.32	502.18
1322.57	350.549
1326.83	208.018
1331.08	158.732
1335.33	238.049
1339.58	133.496
1343.82	253.035
1348.06	246.848
1352.3	53.5293
1356.54	143.143
1360.77	178.014
1365.01	52.9336
1369.23	214.994
1373.46	230.176
1377.68	231.467
1381.9	278.654
1386.12	62.1562
1390.34	243.928
1394.55	72.7519
1398.76	60.9004
1402.97	142.152
1407.18	90.6562
1411.38	223.445
1415.58	72.5176
1419.78	159.019
1423.97	187.195
1428.17	212.512
1432.36	188.051
1436.54	301.619
1440.73	664.168
1444.91	646.676
1449.09	650.07
1453.27	797.939
1457.44	634.256
1461.61	559.076
1465.78	719.744
1469.95	387.801
1474.11	276.162
1478.27	394.531
1482.43	334.424
1486.59	206.535
1490.74	367.949
1494.89	150.383
1499.04	136.051
1503.19	360.935
1507.33	144.012
1511.47	69.4492
1515.61	112.688
1519.75	73.3613
1523.88	229.572
1528.01	193.748
1532.14	281.068
1536.26	107.231
1540.38	216.775
1544.51	433.16
1548.62	143.846
1552.74	423.008
1556.85	180.209
1560.96	325.977
1565.07	109.289
1569.17	231.26
