Measurement: Raman, 514 nm, depolarized, Raman Data Processed
Mineral: Jadeite
Rruff sample: R050220
Ideal chemistry: NaAlSi_2_O_6_
Locality: Clear Creek, San Benito County, California, USA
Source: Hatt Yoder
Description: Aggregate of colorless bladed crystals
Measured chemistry: Na_1.00_Al_1.00_(Si_0.99_Al_0.01_)_2_O_6_
Pin_id: L00826
Orientation: Laser parallel to c* (0 0 1). Fiducial mark perpendicular to laser is parallel to a [1 0 0]
Raman shift (cm-1)	intensity
112.946	0
117.888	138.147
122.827	153.838
127.763	569.014
132.697	2034.81
137.628	5726.39
142.556	11206.8
147.482	7294.33
152.405	1942.84
157.326	711.627
162.244	98.5703
167.159	61.2031
172.072	30.4253
176.982	98.3062
181.89	114.939
186.795	473.885
191.697	2280.25
196.597	6360.32
201.494	18162.8
206.389	17299.5
211.281	3696.96
216.17	1511.26
221.057	3649.13
225.941	3243.47
230.823	251.15
235.702	79.8496
240.578	80.3384
245.452	580.101
250.323	1938.15
255.192	5301.47
260.058	2616.86
264.921	15.4766
269.782	201.125
274.64	51.9556
279.495	575.438
284.348	1448.12
289.198	3476.89
294.046	4399.19
298.891	2733.35
303.733	1823.35
308.573	2182.21
313.41	1961.02
318.245	2218.4
323.077	4985.39
327.906	10785.8
332.733	6987.3
337.557	1589.63
342.379	516.215
347.198	448.007
352.014	626.044
356.828	1207.31
361.639	3691.79
366.447	11451.5
371.253	26974.4
376.056	35948.4
380.857	22400.4
385.655	16662.5
390.451	8516.46
395.243	3363.34
400.034	2059.45
404.821	1597.67
409.606	1828.74
414.389	2922.94
419.168	3793.15
423.945	3793.1
428.72	5266.17
433.492	6785.65
438.261	4812.67
443.028	1931.11
447.792	745.68
452.553	316.381
457.312	75.2158
462.068	25.022
466.822	5.68164
471.573	89.8501
476.321	269.109
481.067	333.5
485.81	337.037
490.551	160.723
495.289	84.5478
500.024	15.5068
504.757	257.594
509.487	760.805
514.214	1472.16
518.939	3032.74
523.661	5179.6
528.381	3266.2
533.098	841.464
537.812	153.03
542.524	42.9976
547.233	48.0469
551.94	21.5855
556.644	207.105
561.345	604.236
566.044	1368.56
570.74	3510.95
575.433	5770.43
580.124	3086.93
584.812	1222.47
589.498	1029.02
594.181	551.58
598.861	164.147
603.539	79.793
608.214	104.307
612.887	113.313
617.557	58.6816
622.224	196.069
626.889	416.69
631.551	652.975
636.21	933.22
640.867	909.418
645.521	670.564
650.173	602.652
654.822	460.619
659.468	418.664
664.112	619.824
668.753	796.12
673.392	1131.74
678.028	1803.73
682.661	2983.81
687.292	6143.02
691.92	15322.9
696.545	34898.1
701.168	43940.9
705.788	20819.9
710.406	7757.65
715.021	3609.8
719.633	2114.6
724.243	1329.17
728.85	934.53
733.455	572.668
738.056	561.584
742.656	301.741
747.252	345.447
751.846	203.701
756.438	168.896
761.027	116.897
765.613	204.696
770.196	224.299
774.777	446.708
779.356	718.924
783.932	393.009
788.505	101.84
793.075	18.583
797.643	48.5508
802.208	2.54102
806.771	89.0381
811.331	2.37207
815.888	116.309
820.443	97.9922
824.995	36.0205
829.545	25.8584
834.092	52.4697
838.636	101.894
843.178	22.0566
847.717	51.0156
852.254	190.78
856.788	60.4219
861.319	146.96
865.848	206.387
870.374	275.705
874.897	445.941
879.418	848.226
883.936	1169.63
888.452	1571.27
892.965	952.923
897.475	494.478
901.983	311.701
906.488	233.163
910.99	209.569
915.49	0.921875
919.988	98.2256
924.482	64.5166
928.974	138.276
933.464	178.911
937.951	112.772
942.435	140.555
946.917	142.863
951.396	287.753
955.872	326.135
960.346	584.023
964.817	769.729
969.285	1242.81
973.751	2025.12
978.215	4200.88
982.675	9632.03
987.134	16136.6
991.589	15777.5
996.042	10132.4
1000.49	4172.43
1004.94	2191.56
1009.38	1614.28
1013.83	1552.63
1018.27	1898.91
1022.7	3010.85
1027.14	5456.17
1031.57	11692.9
1036	27518.6
1040.43	40301.7
1044.85	20647.7
1049.27	7528.71
1053.69	3452.73
1058.11	2068.12
1062.52	1467.94
1066.93	1056.33
1071.34	940.032
1075.75	1183.18
1080.15	2050.39
1084.55	1961.7
1088.95	867.184
1093.35	301.891
1097.74	272.96
1102.13	164.314
1106.52	174.34
1110.9	212.639
1115.28	74.125
1119.66	253.92
1124.04	60.002
1128.41	38.2139
1132.79	68.4141
1137.16	165.401
1141.52	123.276
1145.89	7.00195
1150.25	37.3897
1154.61	138.039
1158.96	36.4053
1163.32	95.8955
1167.67	128.138
1172.02	39.3115
1176.36	122.423
1180.71	109.463
1185.05	31.5703
1189.38	34.2168
1193.72	24.834
1198.05	64.7041
1202.38	13.8965
1206.71	16.6396
1211.04	117.805
1215.36	80.6416
1219.68	77.2715
1224	177.602
1228.31	104.763
1232.62	124.823
1236.93	153.098
1241.24	77.6514
1245.54	188.419
1249.84	191.016
1254.14	57.4502
1258.44	52.7705
1262.73	133.898
1267.03	87.9141
1271.31	172.658
1275.6	188.126
1279.88	124.833
1284.16	291.463
1288.44	192.243
1292.72	208.596
1296.99	121.926
1301.26	300.931
1305.53	269.987
1309.79	381.88
1314.06	318.427
1318.32	432.385
1322.57	397.501
1326.83	318.553
1331.08	267.054
1335.33	315.594
1339.58	335.111
1343.82	132.608
1348.06	282.162
1352.3	226.664
1356.54	216.971
1360.77	268.996
1365.01	290.41
1369.23	212.325
1373.46	388.653
1377.68	98.3232
1381.9	280.002
1386.12	56.3027
1390.34	108.914
1394.55	11.3574
1398.76	206.327
1402.97	147.109
1407.18	198.041
1411.38	264.688
1415.58	246.482
1419.78	177.016
1423.97	250.717
1428.17	154.759
1432.36	258.167
1436.54	344.533
1440.73	422.089
1444.91	469.61
1449.09	376.296
1453.27	302.023
1457.44	314.353
1461.61	237.079
1465.78	198.099
1469.95	141.136
1474.11	175.185
1478.27	166.367
1482.43	205.822
1486.59	88.9268
1490.74	34.4228
1494.89	19.3428
1499.04	19.291
1503.19	3.39453
1507.33	67.7441
1511.47	44.5322
1515.61	45.7383
1519.75	156.264
1523.88	104.133
1528.01	121.752
1532.14	3.06543
1536.26	35.3643
1540.38	130.401
1544.51	91.46
1548.62	106.989
1552.74	243.629
1556.85	158.817
1560.96	83.3955
1565.07	168.09
1569.17	58.832
