Measurement: Raman, 514 nm, depolarized, Raman Data Processed
Mineral: Jadeite
Rruff sample: R050220
Ideal chemistry: NaAlSi_2_O_6_
Locality: Clear Creek, San Benito County, California, USA
Source: Hatt Yoder
Description: Aggregate of colorless bladed crystals
Measured chemistry: Na_1.00_Al_1.00_(Si_0.99_Al_0.01_)_2_O_6_
Pin_id: L01047
Orientation: Laser parallel to b* (0 1 0). Fiducial mark perpendicular to laser is parallel to c [0 0 1]
Raman shift (cm-1)	intensity
105.529	0
110.475	152.374
115.417	563.918
120.358	22.1152
125.295	132.38
130.23	274.789
135.163	478.475
140.092	1413.77
145.019	3746.11
149.944	1091.01
154.866	280.445
159.785	151.665
164.702	440.481
169.616	403.719
174.528	515.328
179.437	357.942
184.343	571.512
189.247	939.212
194.148	2963.79
199.046	6261.86
203.942	21730.7
208.835	7089.17
213.726	1252.73
218.614	971.572
223.5	1951.86
228.382	521.546
233.263	71.7246
238.14	66.708
243.015	177.871
247.888	229.009
252.758	1106.31
257.625	1890.88
262.49	89.751
267.352	76.1699
272.211	125.342
277.068	50.4287
281.922	687.305
286.773	1480.72
291.622	3575.46
296.469	2918.39
301.312	1506.42
306.154	1795.47
310.992	2820.49
315.828	1253.26
320.661	963.697
325.492	1679.28
330.32	2841.88
335.145	746.201
339.968	117.173
344.789	159.094
349.606	290.353
354.421	337.356
359.234	820.135
364.043	3196.59
368.851	7393.61
373.655	17741.2
378.457	14650.8
383.256	7717.9
388.053	5452.79
392.847	2178.19
397.639	615.933
402.428	459.795
407.214	339.295
411.998	547.831
416.779	1120.7
421.557	1621.44
426.333	2597.76
431.106	4550.52
435.877	5217.67
440.645	2523.21
445.41	894.108
450.173	360.336
454.933	184.872
459.691	11.1387
464.446	12.4375
469.198	114.123
473.948	104.924
478.695	64.0371
483.439	72.4219
488.181	390.293
492.92	126.762
497.657	26.0781
502.391	207.781
507.122	161.68
511.851	600.939
516.577	1614.68
521.301	4371.12
526.022	6131.57
530.74	2225.07
535.456	607.641
540.169	75.5117
544.879	122.148
549.587	71.4277
554.292	285.887
558.995	474.287
563.695	710.611
568.392	1317.79
573.087	3887.8
577.779	4557.65
582.469	1632.29
587.156	978.713
591.84	566.918
596.522	284.889
601.201	157.67
605.877	103.022
610.551	70.2519
615.222	38.8086
619.891	141.732
624.557	20.1914
629.22	14.3457
633.881	75.3535
638.539	18.7891
643.195	181.584
647.848	146.086
652.498	117.371
657.145	329.5
661.791	245.389
666.433	686.502
671.073	620.734
675.71	1359.74
680.345	1725.47
684.977	3485.8
689.606	7402.83
694.233	18094
698.857	39015.6
703.478	32408.4
708.097	11928.7
712.714	4986.12
717.327	2835.9
721.938	1507.4
726.547	1091.63
731.153	977.584
735.756	814.275
740.356	706.506
744.954	504.285
749.55	601.379
754.142	411.406
758.733	604.545
763.32	536.35
767.905	494.576
772.487	744.305
777.067	1132.86
781.644	1250.48
786.218	458.678
790.79	360.773
795.359	144.57
799.926	106.893
804.49	39.5605
809.051	24.7695
813.61	261.922
818.166	43.2852
822.72	288.555
827.271	255.545
831.819	153.397
836.365	44.8281
840.908	186.754
845.448	273.344
849.986	148.924
854.521	295.445
859.054	154.935
863.584	378.394
868.111	463.834
872.636	318.272
877.158	305.742
881.677	484.318
886.194	701.066
890.709	616.062
895.22	290.34
899.729	3.90039
904.236	110.82
908.74	239.945
913.241	55.5781
917.739	229.963
922.235	39.5605
926.729	67.5176
931.219	245.217
935.708	211.463
940.193	45.4707
944.676	91.0332
949.156	141.678
953.634	189.527
958.109	130.053
962.582	386.693
967.051	794.85
971.519	914.242
975.983	1780.61
980.445	3796.43
984.905	8179.64
989.362	11691.3
993.816	11174
998.267	5133.07
1002.72	1914.6
1007.16	1141.79
1011.61	817.223
1016.05	568.082
1020.49	899.334
1024.92	1225.81
1029.36	2264.57
1033.79	4922.64
1038.21	10988.5
1042.64	10480.3
1047.06	3888.55
1051.48	1670.74
1055.9	811.922
1060.32	461.682
1064.73	303.654
1069.14	345.553
1073.55	173.019
1077.95	468.514
1082.35	644.908
1086.75	242.205
1091.15	145.525
1095.54	103.16
1099.93	205.81
1104.32	105.564
1108.71	24.3438
1113.09	78.7012
1117.47	391.117
1121.85	76.3203
1126.23	24.7793
1130.6	287.5
1134.97	181.824
1139.34	3.95312
1143.7	103.137
1148.07	135.647
1152.43	11.793
1156.79	203.801
1161.14	144.174
1165.49	165.685
1169.84	296.688
1174.19	19.707
1178.54	128.65
1182.88	15.4902
1187.22	206.24
1191.55	12.9531
1195.89	246.098
1200.22	184.914
1204.55	176.506
1208.87	125.713
1213.2	312.853
1217.52	133.387
1221.84	128.678
1226.15	191.824
1230.47	71.9121
1234.78	140.182
1239.09	87.2754
1243.39	320.422
1247.69	19.2266
1251.99	166.898
1256.29	126.756
1260.59	72.1387
1264.88	170.951
1269.17	182.889
1273.46	62.1406
1277.74	258.414
1282.02	88.793
1286.3	61.2012
1290.58	97.7227
1294.86	109.26
1299.13	172.832
1303.39	182.027
1307.66	177.381
1311.93	171.109
1316.19	181.287
1320.45	242.432
1324.7	262.422
1328.96	297.309
1333.21	334.074
1337.45	375.617
1341.7	269.016
1345.94	277.389
1350.18	129.107
1354.42	289.252
1358.66	343.033
1362.89	194.898
1367.12	136.504
1371.35	454.549
1375.57	350.625
1379.8	373.272
1384.02	144.891
1388.23	166.049
1392.45	321.805
1396.66	2.44336
1400.87	386.65
1405.08	204.223
1409.28	250.615
1413.48	156.527
1417.68	335.356
1421.88	450.08
1426.07	137.309
1430.26	382.736
1434.45	303.816
1438.64	116.18
1442.82	320.565
1447	217.586
1451.18	266.891
1455.35	188.398
1459.53	312.893
1463.7	257.836
1467.87	83.2324
1472.03	2.42773
1476.19	2.21484
1480.35	337.637
1484.51	243.324
1488.67	258.391
1492.82	245.512
1496.97	179.473
1501.12	174.731
1505.26	128.059
1509.4	209.387
1513.54	257.93
1517.68	254.809
1521.81	103.871
1525.94	266.129
1530.07	82.0781
1534.2	20.5312
1538.32	90.418
1542.44	107.844
1546.56	197.941
1550.68	191.859
1554.79	314.941
1558.9	89.207
1563.01	118.199
1567.12	107.703
