Measurement: Raman, 514 nm, depolarized, Raman Data Processed
Mineral: Kanoite
Rruff sample: R061134
Ideal chemistry: Mn^2+^MgSi_2_O_6_
Locality: Balmat, St. Lawrence County, New York, USA
Source: Michael Scott
Description: Yellowish brown granular aggregate
Measured chemistry: (Mn^2+^_0.88_Ca_0.12_)_Σ=1_(Mg_0.98_Fe^3+^_0.02_)_Σ=1_(Si_0.98_Al_0.02_)_2_O_6_
Pin_id: L00480
Orientation: Laser parallel to -c* (0 0 -1). Fiducial mark perpendicular to laser is parallel to a [1 0 0]
Raman shift (cm-1)	intensity
127.596	0
132.542	191.728
137.485	930.115
142.425	592.885
147.362	673.959
152.296	268.783
157.228	164.994
162.156	314.137
167.082	204.947
172.005	215.231
176.925	183.621
181.842	176.33
186.757	580.76
191.668	199.432
196.577	424.94
201.483	480.92
206.386	507.891
211.286	829.824
216.183	964.572
221.078	1079.65
225.969	1056.91
230.858	948.461
235.744	598.26
240.628	641.404
245.508	421.598
250.386	674.766
255.26	476.859
260.132	344.826
265.001	452.611
269.868	408.166
274.731	602.004
279.592	375.49
284.45	764.586
289.305	778.734
294.157	798.41
299.007	982.594
303.854	1326.09
308.698	1971.04
313.539	2820.26
318.377	4542.84
323.213	4912.7
328.046	4072.99
332.876	2923.17
337.703	2234.83
342.527	1667.55
347.349	1518.32
352.168	1563.51
356.984	1294.15
361.797	1187.27
366.608	1416.42
371.415	1383.96
376.22	1421.3
381.023	1416.95
385.822	1897.89
390.619	2525.1
395.413	1707.56
400.204	1104.19
404.992	543.127
409.778	351.199
414.561	580.438
419.341	461.846
424.118	144.609
428.893	234.701
433.665	4.9375
438.434	87.7422
443.201	169.531
447.964	201.906
452.725	46.7148
457.483	206.703
462.239	110.356
466.991	222.93
471.741	229.699
476.489	66.9414
481.233	184.539
485.975	122.609
490.714	12.7031
495.45	117.047
500.184	584.066
504.915	554.055
509.643	575.902
514.368	700.644
519.091	859.336
523.811	893.922
528.528	509.324
533.243	524.508
537.955	898.461
542.664	793.305
547.37	745.902
552.074	906.231
556.775	805.332
561.473	470.203
566.169	502.336
570.862	203.191
575.552	340.871
580.24	105.59
584.925	59.9102
589.607	46.9531
594.286	145.277
598.963	174.273
603.637	218.398
608.309	216.465
612.977	203.883
617.643	157.461
622.307	272.359
626.967	175.871
631.625	253.715
636.281	445.141
640.933	883.742
645.583	1522.38
650.231	2623.15
654.875	4365.25
659.517	6081.01
664.157	7849.67
668.793	7146.65
673.427	5033.08
678.059	2556.73
682.687	1724.57
687.313	945.867
691.937	730.519
696.557	456.531
701.175	332.848
705.791	687.344
710.403	444.805
715.014	170.602
719.621	464.812
724.226	329.078
728.828	297.172
733.428	79.9141
738.025	275.383
742.619	265.746
747.21	195.871
751.799	71.125
756.386	154.09
760.969	355.477
765.551	145.492
770.129	73.3438
774.705	243.688
779.278	388.613
783.849	205.008
788.417	66.9766
792.982	19.6133
797.545	5.125
802.105	282.348
806.663	243.184
811.217	142.641
815.77	11.2969
820.319	77.1758
824.867	148.305
829.411	53.1328
833.953	83.4727
838.492	127.438
843.029	223.512
847.563	324.258
852.094	30.8164
856.623	159.519
861.15	295.082
865.673	47.7891
870.194	75.3203
874.713	246.309
879.229	42.8789
883.742	123.555
888.253	161.719
892.761	229.023
897.267	55.9414
901.77	97.7539
906.27	99.8828
910.768	7.30859
915.263	110.133
919.756	309.43
924.246	584.391
928.734	462.418
933.219	231.914
937.701	594.281
942.181	437.129
946.658	274.875
951.133	276.949
955.605	319.816
960.075	219.356
964.542	319.297
969.006	345.902
973.468	618.676
977.928	993.285
982.385	1636.17
986.839	2650.32
991.291	5427.64
995.74	10147.4
1000.19	14099.5
1004.63	13415.6
1009.07	9527.19
1013.51	5973.69
1017.95	3638.23
1022.38	2180.08
1026.81	1500.38
1031.24	1100.07
1035.67	636.227
1040.09	492.539
1044.51	661.773
1048.93	702.492
1053.35	214.508
1057.76	207.844
1062.17	43.5781
1066.58	258.734
1070.99	346.234
1075.39	103.055
1079.79	307.883
1084.19	176.371
1088.59	368.25
1092.98	340.426
1097.37	65.8867
1101.76	2.77344
1106.15	324.981
1110.53	68.5117
1114.91	4.35156
1119.29	475.484
1123.67	362.019
1128.04	68.7266
1132.41	37.7031
1136.78	267.867
1141.15	154.801
1145.51	258.516
1149.87	44.1953
1154.23	175.336
1158.59	348.062
1162.94	136.203
1167.29	355.766
1171.64	436.5
1175.98	206.191
1180.33	137.094
1184.67	302.203
1189.01	201.516
1193.34	286.031
1197.68	235.746
1202.01	463.641
1206.34	253.734
1210.66	288.734
1214.99	472.824
1219.31	215.09
1223.63	233.07
1227.94	186.688
1232.26	405.465
1236.57	325.418
1240.88	241.129
1245.19	167.41
1249.49	295.844
1253.79	312.367
1258.09	149.992
1262.39	401.922
1266.68	111.977
1270.97	29.3828
1275.26	162.598
1279.55	34.4609
1283.84	82.3633
1288.12	136.769
1292.4	117.953
1296.67	107.809
1300.95	174.508
1305.22	246.699
1309.49	320.074
1313.76	434.5
1318.03	584.422
1322.29	322.359
1326.55	172.422
1330.81	385.613
1335.06	487.949
1339.31	438.727
1343.56	472.352
1347.81	493.125
1352.06	426.07
1356.3	438.164
1360.54	379.418
1364.78	316.824
1369.02	110.414
1373.25	475.176
1377.48	318.492
1381.71	378.16
1385.94	390.691
1390.16	251.086
1394.38	327.961
1398.6	146.57
1402.82	405.641
1407.03	146.715
1411.24	79.5156
1415.45	291.871
1419.66	625.203
1423.87	15.7695
1428.07	491.695
1432.27	556.008
1436.46	435.418
1440.66	395.281
1444.85	315.254
1449.04	303.133
1453.23	401.144
1457.42	216.68
1461.6	193.57
1465.78	67.707
1469.96	286.113
1474.14	89.7656
1478.31	283.66
1482.48	92.8594
1486.65	474.762
1490.82	151.481
1494.98	256.273
1499.14	143.555
1503.3	276.008
1507.46	239.648
1511.61	207.684
1515.77	132.469
1519.92	532.039
1524.06	339.5
1528.21	114.992
1532.35	5.30859
1536.49	66.7266
1540.63	320.906
1544.77	163.762
1548.9	343.176
1553.03	513.949
1557.16	388.231
1561.29	56.8516
1565.41	348.668
1569.53	111.562
