Measurement: Raman, 514 nm, depolarized, Raman Data Processed
Mineral: Kanoite
Rruff sample: R061134
Ideal chemistry: Mn^2+^MgSi_2_O_6_
Locality: Balmat, St. Lawrence County, New York, USA
Source: Michael Scott
Description: Yellowish brown granular aggregate
Measured chemistry: (Mn^2+^_0.88_Ca_0.12_)_Σ=1_(Mg_0.98_Fe^3+^_0.02_)_Σ=1_(Si_0.98_Al_0.02_)_2_O_6_
Pin_id: M00204
Orientation: Laser parallel to (-1 0 -1). Fiducial mark perpendicular to laser is parallel to -b [0 -1 0]
Raman shift (cm-1)	intensity
111.503	0
116.458	196.931
121.41	207.119
126.36	771.631
131.306	1724.12
136.25	2456.91
141.19	2464.03
146.128	1711.81
151.063	977.247
155.995	390.663
160.925	43.1855
165.851	62.1836
170.775	135.919
175.695	225.745
180.613	204.082
185.528	223.389
190.44	294.767
195.35	386.124
200.256	391.158
205.16	803.486
210.061	1284.62
214.959	2233.28
219.854	2369.96
224.747	1995.5
229.636	2001.33
234.523	1526.84
239.407	995.92
244.288	928.495
249.166	717.506
254.042	614.891
258.915	603.341
263.784	537.485
268.651	178.452
273.516	221.89
278.377	718.736
283.236	566.352
288.092	768.31
292.945	1117.09
297.795	1857.19
302.642	2725.68
307.487	3894.68
312.329	6443.35
317.168	10569.2
322.004	14129.7
326.838	13166.3
331.668	9348.03
336.496	6294.79
341.321	4245.02
346.144	3602.46
350.963	3359.76
355.78	3338.84
360.594	3107.66
365.405	2883.17
370.214	3400.34
375.019	3618.14
379.822	3335.52
384.622	4345.48
389.42	6039.96
394.215	5890.95
399.006	3011.42
403.795	1520.39
408.582	1235.25
413.365	976.974
418.146	960.456
422.924	603.628
427.7	379.431
432.472	108.814
437.242	30.3271
442.009	127.097
446.774	44.916
451.535	134.367
456.294	81.0303
461.05	50.8135
465.804	247.072
470.554	142.266
475.302	55.4326
480.047	178.227
484.79	81.7324
489.529	177.423
494.266	262.353
499.001	940.491
503.732	1304.07
508.461	1323.88
513.187	1496.91
517.911	1651.16
522.631	1488.54
527.349	1258.9
532.065	1532.38
536.777	1987.84
541.487	2192.36
546.194	1833.06
550.898	1974.72
555.6	2543.26
560.299	1535.69
564.995	645.064
569.689	547.292
574.38	511.326
579.068	377.918
583.754	309.587
588.437	75.6748
593.117	58.7685
597.794	58.6299
602.469	122.914
607.141	171.227
611.81	140.115
616.477	144.17
621.141	378.678
625.802	548.657
630.461	584.177
635.117	1125.76
639.77	1806.17
644.421	3287.95
649.069	5681.74
653.714	10331.4
658.357	15954
662.997	21345.2
667.634	24231.8
672.269	17006.3
676.901	9156.92
681.53	5241.88
686.157	3192.7
690.781	2229.94
695.402	1528.28
700.021	1282.03
704.637	1119.43
709.251	703.044
713.861	672.991
718.469	749.422
723.075	542.276
727.678	499.604
732.278	342.933
736.876	339.149
741.47	382.933
746.063	188.809
750.652	222.277
755.239	171.245
759.824	125.41
764.406	53.0635
768.985	112.016
773.561	13.3389
778.135	86.1123
782.706	13.3477
787.275	0.078125
791.841	101.889
796.404	80.293
800.965	136.982
805.523	180.252
810.079	91.9238
814.632	42.8047
819.182	68.7891
823.73	44.6289
828.275	20.8984
832.818	30.7383
837.358	47.9883
841.895	51.7051
846.43	99.2363
850.962	15.9395
855.491	59.4668
860.018	119.83
864.543	185.109
869.064	231.467
873.583	309.141
878.1	348.652
882.614	451.215
887.125	423.748
891.634	405.121
896.14	432.488
900.644	447.152
905.145	455.467
909.644	621.91
914.14	707.053
918.633	878.127
923.124	1264.17
927.612	1506.53
932.098	1491.09
936.581	1740.87
941.061	1752.92
945.539	1353.78
950.015	877.231
954.487	826.396
958.958	810.17
963.425	1263.35
967.89	1650.9
972.353	2057.47
976.813	2788.83
981.271	3911.67
985.726	6811.03
990.178	12674.7
994.628	25088.8
999.075	40305.1
1003.52	43393.9
1007.96	33209
1012.4	21272.4
1016.84	13291.1
1021.27	8462.58
1025.71	5537.97
1030.13	3821.21
1034.56	2540.8
1038.99	2070.52
1043.41	1629.84
1047.83	1335.34
1052.24	1274.86
1056.66	922.557
1061.07	720.916
1065.48	694.277
1069.89	522.498
1074.29	631.887
1078.69	823.195
1083.09	953.805
1087.49	783.84
1091.88	663.291
1096.28	555.916
1100.66	319.297
1105.05	332.769
1109.43	313.25
1113.82	546.432
1118.2	704.305
1122.57	743.316
1126.95	634.455
1131.32	303.934
1135.69	31.334
1140.05	151.834
1144.42	56.3965
1148.78	21.373
1153.14	124.986
1157.5	231.625
1161.85	43.7227
1166.2	45.9785
1170.55	71.7793
1174.9	262.228
1179.24	142.088
1183.58	70.3769
1187.92	92.5527
1192.26	39.873
1196.6	200.805
1200.93	69.25
1205.26	182.195
1209.58	96.332
1213.91	206.197
1218.23	154.959
1222.55	219.602
1226.87	125.049
1231.18	5.35352
1235.49	83.2734
1239.8	179.1
1244.11	169.746
1248.41	171.111
1252.72	273.318
1257.02	359.6
1261.32	164.096
1265.61	363.523
1269.9	283.223
1274.19	399.9
1278.48	88.1641
1282.77	200.648
1287.05	214.894
1291.33	234.002
1295.61	147.33
1299.88	221.103
1304.15	171.094
1308.42	184.023
1312.69	323.272
1316.96	64.1504
1321.22	192.978
1325.48	149.127
1329.74	156.201
1334	268.109
1338.25	292.99
1342.5	296.719
1346.75	431.338
1351	242.988
1355.24	112.332
1359.48	49.0898
1363.72	315.545
1367.96	224.789
1372.19	123.758
1376.42	154.938
1380.65	247.103
1384.88	163.33
1389.11	160.496
1393.33	170.652
1397.55	91.3438
1401.76	173.074
1405.98	75.7695
1410.19	118.18
1414.4	305.42
1418.61	266.756
1422.82	238.115
1427.02	197.541
1431.22	208.51
1435.42	28.2832
1439.61	171.266
1443.81	31.5234
1448	68.0781
1452.18	308.668
1456.37	265.262
1460.56	82.0469
1464.74	128.932
1468.92	170.422
1473.09	9.54102
1477.27	24.3906
1481.44	175.891
1485.61	120.522
1489.78	96.3574
1493.94	238.147
1498.1	393.147
1502.26	99.9219
1506.42	256.135
1510.58	124.606
1514.73	163.607
1518.88	248.971
1523.03	221.926
1527.17	148.451
1531.32	159.783
1535.46	253.928
1539.6	114.443
1543.73	208.332
1547.87	226.127
1552	72.1231
1556.13	278.248
1560.26	125.238
1564.38	226.609
1568.5	145.051
