Measurement: Raman, 514 nm, depolarized, Raman Data Processed
Mineral: Kanoite
Rruff sample: R061134
Ideal chemistry: Mn^2+^MgSi_2_O_6_
Locality: Balmat, St. Lawrence County, New York, USA
Source: Michael Scott
Description: Yellowish brown granular aggregate
Measured chemistry: (Mn^2+^_0.88_Ca_0.12_)_Σ=1_(Mg_0.98_Fe^3+^_0.02_)_Σ=1_(Si_0.98_Al_0.02_)_2_O_6_
Pin_id: M00160
Orientation: Laser parallel to c* (0 0 1). Fiducial mark perpendicular to laser is parallel to a [1 0 0]
Raman shift (cm-1)	intensity
109.025	0
113.981	284.384
118.935	350.623
123.885	589.321
128.833	1588.88
133.778	1700.19
138.72	2029.43
143.66	1484.1
148.596	1148.15
153.53	616.703
158.46	206.19
163.388	251.115
168.313	152.582
173.235	322.699
178.155	357.502
183.071	491.935
187.985	651.467
192.896	1193.88
197.803	1442.23
202.709	1785.49
207.611	1809.66
212.51	2367.16
217.407	2909.29
222.301	2168.09
227.192	1561.73
232.08	1333.62
236.965	1089.26
241.848	717.4
246.728	652.988
251.604	851.959
256.479	413.846
261.35	382.867
266.218	355.103
271.084	165.549
275.947	375.268
280.807	318.676
285.664	552.619
290.518	485.703
295.37	763.875
300.219	1330.6
305.065	1970.59
309.908	2889.72
314.749	4566.32
319.586	7259.18
324.421	8203.32
329.253	6537.65
334.083	4625.08
338.909	3226.52
343.733	2455.86
348.554	2487.07
353.372	2830.05
358.187	2818.75
363	2453.13
367.81	2415.18
372.617	3405.85
377.421	2645.13
382.223	2431.98
387.022	3338.39
391.818	4390.3
396.611	2951.72
401.401	1324.63
406.189	531.402
410.974	432.045
415.756	441.445
420.536	247.547
425.312	66.709
430.086	70.5
434.858	266.978
439.626	183.223
444.392	27.4395
449.155	168.391
453.915	389.176
458.672	1024.86
463.427	3178.26
468.179	3181.54
472.928	1188.55
477.675	727.963
482.419	373.09
487.16	246.961
491.898	204.09
496.634	297.371
501.367	582.773
506.097	681.264
510.825	869.856
515.549	1194.77
520.271	1413.79
524.991	1254.86
529.707	928.988
534.421	1182.14
539.132	1396.27
543.841	1352.35
548.547	1519.46
553.25	1870.63
557.95	1655.84
562.648	706.932
567.343	634.59
572.035	228.857
576.724	294.125
581.411	219.303
586.095	267.609
590.777	77.6152
595.456	85.1816
600.132	97.5
604.805	127.689
609.476	30.3301
614.144	86.957
618.809	358.906
623.472	183.945
628.132	567.234
632.789	554.951
637.444	861.715
642.096	1577.1
646.745	2605.09
651.392	4707.4
656.036	7853.95
660.677	10649.6
665.316	13691.5
669.952	13281.2
674.585	8360.38
679.216	4776.49
683.844	3140.88
688.469	2154.53
693.092	1625.4
697.712	1090.52
702.329	829.025
706.944	931.092
711.556	742.32
716.166	625.973
720.773	624.828
725.377	627.445
729.978	687.555
734.577	244.588
739.173	522.176
743.767	248.871
748.358	29.4062
752.946	6.53125
757.532	212.295
762.115	284.047
766.695	76.6973
771.273	95.3164
775.848	131.744
780.421	224.519
784.991	79.7344
789.558	49.625
794.123	222.758
798.685	210.918
803.245	124.686
807.802	22.0215
812.356	174.975
816.907	118.643
821.456	193.953
826.003	151.164
830.547	57.0137
835.088	101.723
839.627	84.1269
844.163	136.076
848.696	216.225
853.227	44.0605
857.755	90.7246
862.281	218.285
866.804	161.838
871.324	249.531
875.842	434.334
880.357	399.707
884.87	443.633
889.38	236.957
893.888	288.844
898.393	431.303
902.895	194.494
907.395	257.885
911.892	326.025
916.387	559.035
920.879	631.68
925.368	951.231
929.855	1037.41
934.339	1044.05
938.821	1039.29
943.301	1032.6
947.777	546.75
952.251	353.836
956.723	458.336
961.192	702.193
965.658	994.561
970.122	1257.57
974.583	1381.29
979.042	2030.37
983.498	2697.84
987.952	4850.97
992.403	10231.4
996.852	18935.8
1001.3	25866.9
1005.74	23444.3
1010.18	15886.2
1014.62	9916.38
1019.06	6447.28
1023.49	4647.76
1027.92	3072.41
1032.35	2030.71
1036.78	1438.34
1041.2	1536.36
1045.62	1196.24
1050.04	642.769
1054.45	808.789
1058.87	587.769
1063.28	533.508
1067.68	536.742
1072.09	422.805
1076.49	572.711
1080.89	195.789
1085.29	381.996
1089.69	692.41
1094.08	474.051
1098.47	384.023
1102.86	354.285
1107.24	29.6211
1111.63	367.641
1116.01	362.562
1120.38	633.973
1124.76	527.039
1129.13	330.394
1133.5	72.7969
1137.87	217.945
1142.24	91.2305
1146.6	161.281
1150.96	19.0664
1155.32	329.519
1159.67	200.527
1164.03	236.461
1168.38	16.3477
1172.72	42.3906
1177.07	6.93359
1181.41	70.625
1185.75	337.824
1190.09	22.8945
1194.43	69.8281
1198.76	4.47266
1203.09	231.586
1207.42	218.531
1211.75	149.152
1216.07	218.059
1220.39	198.723
1224.71	315.164
1229.02	204.477
1233.34	41.8789
1237.65	379.465
1241.96	137.852
1246.26	52.9609
1250.57	249.383
1254.87	281.562
1259.17	64.4219
1263.46	697.859
1267.76	122.207
1272.05	79.0859
1276.34	121.406
1280.62	234.695
1284.91	301.258
1289.19	218.195
1293.47	155.664
1297.74	265.965
1302.02	336.562
1306.29	586.613
1310.56	291.457
1314.83	327.644
1319.09	497.965
1323.35	230.734
1327.61	437.445
1331.87	561.57
1336.12	450.594
1340.38	420.527
1344.63	460.582
1348.87	66.332
1353.12	252.269
1357.36	185.898
1361.6	509.559
1365.84	0.34375
1370.08	239.805
1374.31	331.488
1378.54	201.004
1382.77	291.734
1386.99	159.68
1391.22	163.633
1395.44	218.769
1399.66	213.027
1403.87	185.812
1408.09	336.816
1412.3	334.832
1416.51	147.434
1420.71	280.379
1424.92	300.125
1429.12	247.481
1433.32	311.055
1437.51	311.992
1441.71	341.508
1445.9	500.715
1450.09	32.6797
1454.28	469.984
1458.46	466.258
1462.65	246.418
1466.83	205.695
1471	931.027
1475.18	304.348
1479.35	570.242
1483.52	54.6445
1487.69	151.219
1491.86	303.836
1496.02	631.254
1500.18	98.1445
1504.34	293.188
1508.5	233.66
1512.65	152.055
1516.8	371.594
1520.95	300.18
1525.1	182.242
1529.24	538.285
1533.39	239.871
1537.53	209.801
1541.66	404.688
1545.8	282.008
1549.93	343.492
1554.06	214.715
1558.19	355.086
1562.32	1.67188
1566.44	300.215
1570.56	0
