Measurement: Raman, 514 nm, depolarized, Raman Data Processed
Mineral: Kanoite
Rruff sample: R061134
Ideal chemistry: Mn^2+^MgSi_2_O_6_
Locality: Balmat, St. Lawrence County, New York, USA
Source: Michael Scott
Description: Yellowish brown granular aggregate
Measured chemistry: (Mn^2+^_0.88_Ca_0.12_)_Σ=1_(Mg_0.98_Fe^3+^_0.02_)_Σ=1_(Si_0.98_Al_0.02_)_2_O_6_
Pin_id: M00188
Orientation: Laser parallel to b* (0 1 0). Fiducial mark perpendicular to laser is parallel to c [0 0 1]
Raman shift (cm-1)	intensity
97.862	0
102.825	402.598
107.785	1335.4
112.742	1230.66
117.697	867.241
122.648	420.578
127.596	723.754
132.542	860.38
137.485	612.965
142.425	514.746
147.362	525.984
152.296	437.262
157.228	91.5029
162.156	66.2002
167.082	34.3047
172.005	77.9541
176.925	24.273
181.842	113.138
186.757	419.102
191.668	501.023
196.577	289.877
201.483	369.277
206.386	416.115
211.286	654.942
216.183	671.987
221.078	493.465
225.969	496.601
230.858	534.245
235.744	304.194
240.628	232.431
245.508	213.577
250.386	248.95
255.26	36.2734
260.132	2.83643
265.001	38.3223
269.868	10.6909
274.731	19.8018
279.592	19.5605
284.45	158.13
289.305	199.111
294.157	362.754
299.007	488.567
303.854	709.569
308.698	990.236
313.539	1920.56
318.377	2702.59
323.213	2771.31
328.046	2442.72
332.876	1543.67
337.703	1020.33
342.527	586.717
347.349	557.56
352.168	562.701
356.984	551.813
361.797	493.445
366.608	585.85
371.415	671.372
376.22	569.999
381.023	704.729
385.822	1102.56
390.619	1329.48
395.413	976.592
400.204	607.799
404.992	186.812
409.778	43.4522
414.561	17.3887
419.341	83.9805
424.118	117.981
428.893	78.833
433.665	155.999
438.434	309.712
443.201	1083.37
447.964	2259.79
452.725	3862.42
457.483	5217.41
462.239	6346.44
466.991	2443.64
471.741	735.944
476.489	224.322
481.233	81.7617
485.975	30.7148
490.714	25.7705
495.45	31.8076
500.184	159.67
504.915	135.28
509.643	117.957
514.368	223.667
519.091	245.417
523.811	198.276
528.528	175.205
533.243	155.195
537.955	161.221
542.664	215.303
547.37	216.587
552.074	187.123
556.775	211.666
561.473	379.398
566.169	60.3643
570.862	54.3603
575.552	54.2393
580.24	95.4062
584.925	22.9346
589.607	6.87598
594.286	11.9707
598.963	65.4356
603.637	170.637
608.309	631.302
612.977	1842.4
617.643	2780.65
622.307	1732.95
626.967	1406.24
631.625	1459.77
636.281	1133.96
640.933	1502.02
645.583	2747.68
650.231	3673.12
654.875	5141.21
659.517	6929.5
664.157	8480.4
668.793	7899.59
673.427	4827.19
678.059	2579.67
682.687	1467.23
687.313	841.545
691.937	683.584
696.557	496.228
701.175	287.839
705.791	368.205
710.403	184.626
715.014	296.858
719.621	235.995
724.226	197.534
728.828	106.215
733.428	22.7959
738.025	139.693
742.619	164.364
747.21	87.6494
751.799	35.5762
756.386	90.1436
760.969	90.3867
765.551	10.1816
770.129	38.623
774.705	119.191
779.278	0.370117
783.849	3.48926
788.417	108.268
792.982	77.7207
797.545	130.799
802.105	2.45215
806.663	49.626
811.217	89.4561
815.77	92.9424
820.319	22.9863
824.867	36.5801
829.411	26.7354
833.953	82.7441
838.492	23.415
843.029	10.0791
847.563	0.775391
852.094	80.3682
856.623	2.52246
861.15	69.4033
865.673	115.286
870.194	131.038
874.713	39.2471
879.229	161.31
883.742	298.629
888.253	252.752
892.761	283.769
897.267	262.957
901.77	204.817
906.27	231.497
910.768	157.095
915.263	155.923
919.756	172.215
924.246	408.114
928.734	540.508
933.219	376.756
937.701	324.213
942.181	270.194
946.658	197.107
951.133	163.959
955.605	240.587
960.075	231.375
964.542	416.356
969.006	806.745
973.468	1300.89
977.928	3183.83
982.385	14228.4
986.839	48662.7
991.291	26902.9
995.74	10868.5
1000.19	12012.3
1004.63	10531.3
1009.07	7088.56
1013.51	4525.98
1017.95	2725.85
1022.38	1658
1026.81	1044.45
1031.24	761.232
1035.67	491.43
1040.09	368.912
1044.51	368.712
1048.93	262.945
1053.35	52.4824
1057.76	50.6065
1062.17	74.5684
1066.58	283.95
1070.99	148.493
1075.39	195.041
1079.79	431.66
1084.19	529.352
1088.59	294.192
1092.98	66.0801
1097.37	231.958
1101.76	327.248
1106.15	139.381
1110.53	38.8701
1114.91	305.059
1119.29	325.43
1123.67	240.52
1128.04	311.245
1132.41	706.118
1136.78	1911.96
1141.15	2214.09
1145.51	1695.42
1149.87	917.477
1154.23	457.961
1158.59	483.373
1162.94	605.376
1167.29	781.186
1171.64	481.897
1175.98	221.513
1180.33	236.487
1184.67	113.492
1189.01	211.277
1193.34	85.7676
1197.68	26.6699
1202.01	24.7207
1206.34	125.097
1210.66	78.6309
1214.99	23.2324
1219.31	55.7471
1223.63	182.215
1227.94	153.682
1232.26	12.3154
1236.57	116.781
1240.88	129.077
1245.19	70.501
1249.49	82.2725
1253.79	31.5264
1258.09	158.434
1262.39	26.833
1266.68	94.6631
1270.97	49.1514
1275.26	136.725
1279.55	217.744
1283.84	69.6279
1288.12	186.523
1292.4	110.933
1296.67	66.3272
1300.95	72.3115
1305.22	121.2
1309.49	169.93
1313.76	133.524
1318.03	152.728
1322.29	105.134
1326.55	259.074
1330.81	179.826
1335.06	131.679
1339.31	104.877
1343.56	175.531
1347.81	109.251
1352.06	378.144
1356.3	199.216
1360.54	157.909
1364.78	47.1065
1369.02	57.6914
1373.25	95.6602
1377.48	86.5088
1381.71	50.3398
1385.94	82.416
1390.16	240.08
1394.38	271.893
1398.6	116.408
1402.82	252.611
1407.03	291.16
1411.24	320.343
1415.45	320.13
1419.66	203.739
1423.87	247.297
1428.07	65.8711
1432.27	308.394
1436.46	305.619
1440.66	205.35
1444.85	239.809
1449.04	246.504
1453.23	133.82
1457.42	304.576
1461.6	216.408
1465.78	203.977
1469.96	182.029
1474.14	93.3301
1478.31	221.34
1482.48	91.9004
1486.65	85.2988
1490.82	164.853
1494.98	176.859
1499.14	280.654
1503.3	198.424
1507.46	182.367
1511.61	233.508
1515.77	66.4434
1519.92	183.088
1524.06	118.768
1528.21	239.742
1532.35	88.2422
1536.49	16.3418
1540.63	39.8066
1544.77	137.555
1548.9	239.668
1553.03	95.5078
1557.16	207.397
1561.29	78.0117
1565.41	5.24023
1569.53	34.1934
