Measurement: Raman, 514 nm, depolarized, Raman Data Processed
Mineral: Kornerupine
Rruff sample: R050214
Ideal chemistry: (Mg,Fe^2+^,Al,[box])_10_(Si,Al,B)_5_O_21_(OH,F)_2_
Locality: Sri Lanka
Source: Jibamitra Ganguly
Description: Water-worn single crystal fragment
Measured chemistry: (Mg_3.63_[box]_0.21_Fe^2+^_0.14_Na_0.02_)_4_Al_6.00_(Si_2.44_Al_1.97_B_0.59_)_5_O_21_(OH) ;   B and Li not measured; B estimated by charge balance
Pin_id: L00056
Orientation: Laser parallel to -c* (0 0 -1). Fiducial mark perpendicular to laser is parallel to -a [-1 0 0]
Raman shift (cm-1)	intensity
100.34	0
104.516	165.926
108.691	260.822
112.864	296.184
117.034	585.508
121.203	349.588
125.369	56.557
129.534	46.996
133.696	48.064
137.857	370.588
142.016	54.723
146.172	121.99
150.327	244.889
154.48	480.473
158.63	698.115
162.779	1084.69
166.926	826.484
171.07	1121.15
175.213	1209.65
179.354	1683.65
183.493	1873.62
187.63	1642.34
191.765	1514.41
195.898	1397.3
200.029	1378.17
204.158	1512.12
208.285	1803.22
212.41	2053.47
216.533	2578.9
220.654	2756.22
224.773	3013.52
228.891	2852.51
233.006	2541.87
237.119	2265.06
241.231	2673.24
245.34	3162.48
249.448	4036.78
253.553	4673.4
257.657	5330.89
261.758	4940.1
265.858	4771.57
269.956	4530.62
274.052	3395.52
278.146	2334.51
282.237	2290.31
286.327	3161.98
290.416	4866.28
294.502	5494.27
298.586	4967.7
302.668	3908.71
306.749	3644.18
310.827	3641.45
314.903	4446.97
318.978	5349.15
323.051	6429.94
327.121	6543.25
331.19	6236.4
335.257	4714.23
339.322	3347.39
343.385	2449.55
347.446	1765.11
351.505	1837.98
355.563	1972.16
359.618	2520.48
363.672	3134.34
367.723	3961.88
371.773	4413.56
375.821	5160.67
379.866	5593.12
383.91	5825.84
387.952	6399.12
391.992	7307.21
396.031	8517.2
400.067	8000.1
404.101	6555.26
408.134	4707.05
412.165	3340.41
416.193	2601.33
420.22	2245.77
424.245	1987.75
428.268	1707.3
432.289	1727.67
436.309	1227.86
440.326	1019.85
444.342	1040.58
448.355	1092
452.367	1079.72
456.377	1307.83
460.385	1609.19
464.391	1928.15
468.395	2134.68
472.398	2101.75
476.398	1542.37
480.397	1071.49
484.394	536.123
488.389	377.244
492.382	131.238
496.373	372.234
500.362	327.789
504.349	177.512
508.335	137.646
512.319	555.031
516.3	948.896
520.28	480.879
524.259	219.893
528.235	113.016
532.209	377.959
536.182	36.504
540.152	54.336
544.121	290.24
548.088	174.344
552.053	1.293
556.017	131.141
559.978	114.951
563.938	570.201
567.895	868.848
571.851	852.908
575.805	1103.39
579.758	1253.29
583.708	1335.63
587.657	1531.42
591.603	1570
595.548	1607.35
599.491	1635.5
603.432	1625.12
607.372	1433.2
611.309	1532.78
615.245	1214.84
619.179	1107.41
623.111	899.488
627.041	1213.09
630.97	1018.23
634.896	558.914
638.821	995.166
642.744	1298.18
646.665	1658.41
650.584	2010.32
654.502	2465.89
658.418	2092.57
662.331	1895.59
666.244	1865.52
670.154	1769.28
674.062	1875.62
677.969	2312.29
681.874	3136.72
685.777	3991.22
689.678	5563.35
693.577	8028.31
697.475	10850.9
701.371	13347.4
705.265	14215.1
709.157	11021.9
713.047	7019.75
716.936	4158.2
720.823	2270.08
724.708	1225.49
728.591	1232.97
732.472	1961.55
736.352	3572.24
740.23	5662.08
744.106	9027.08
747.98	11338.3
751.853	12423.7
755.723	11321.4
759.592	8844.37
763.459	5865.65
767.325	3471.26
771.188	1734.24
775.05	1527.62
778.91	1046.41
782.768	1145.65
786.625	1653.36
790.479	2063.56
794.332	2358.28
798.183	1816.54
802.033	1001.35
805.88	603.875
809.726	123.297
813.57	137.219
817.413	429.723
821.253	676.889
825.092	556.629
828.929	149.621
832.764	305.068
836.598	16.125
840.429	342.393
844.259	788.303
848.088	958.887
851.914	1707.58
855.739	3133.27
859.562	4265.91
863.383	6005.77
867.203	7560.94
871.02	9987.31
874.836	12424.7
878.65	13803.9
882.463	13426.1
886.274	11327.3
890.083	8951.67
893.89	6987.36
897.695	5429.69
901.499	4563.42
905.301	3767.56
909.102	3478.08
912.9	3136.1
916.697	2981.66
920.492	3508.78
924.285	3688.24
928.077	4065.19
931.867	4272.45
935.655	5131.99
939.442	6268.85
943.226	8539.19
947.009	10976.9
950.791	14580.1
954.57	18560.4
958.348	21908.6
962.124	24153.6
965.899	25076.6
969.671	23715
973.442	21425.2
977.211	18733.7
980.979	16336.5
984.745	15160.5
988.509	14147.7
992.271	13904.7
996.032	13891.7
999.791	15179.8
1003.55	15839.9
1007.3	16141.1
1011.06	16743.2
1014.81	16947.3
1018.56	16498.4
1022.31	16086.4
1026.06	15404.2
1029.8	13936.5
1033.55	12748.4
1037.29	10865.9
1041.03	8998.7
1044.77	7534.65
1048.5	6895.43
1052.24	6412.55
1055.97	5732.26
1059.7	5124.34
1063.43	4756.22
1067.16	4560.49
1070.89	4186.93
1074.61	3785.26
1078.34	3445.45
1082.06	2574.8
1085.78	2360.35
1089.5	1973.49
1093.21	1687.51
1096.93	1805.42
1100.64	1477.14
1104.35	2027.54
1108.06	2204.93
1111.77	2310.69
1115.48	2899.98
1119.18	2518.87
1122.89	2313.81
1126.59	2789.32
1130.29	2576.18
1133.99	2042.31
1137.68	2141.49
1141.38	1317.93
1145.07	1315.74
1148.76	1093.33
1152.45	982.602
1156.14	583.113
1159.83	609.215
1163.51	507.033
1167.19	571.529
1170.88	263.746
1174.56	474.236
1178.23	268.832
1181.91	26.635
1185.59	201.699
1189.26	63.795
1192.93	330.4
1196.6	121.732
1200.27	4.465
1203.94	17.842
1207.6	354.922
1211.27	102.66
1214.93	68.107
1218.59	70.568
1222.25	180.77
1225.9	61.934
1229.56	11.961
1233.21	159.23
1236.86	374.619
1240.51	414.895
1244.16	49.883
1247.81	123.312
1251.45	160.066
1255.1	125.254
1258.74	206.916
1262.38	238.48
1266.02	248.492
1269.66	282.469
1273.29	280.016
1276.93	326.93
1280.56	422.08
1284.19	427.051
1287.82	421.607
1291.45	391.934
1295.07	504.002
1298.7	523.639
1302.32	495.846
1305.94	483.725
1309.56	762.217
1313.18	622.963
1316.8	860.484
1320.41	574.008
1324.02	562.848
1327.63	545.879
1331.24	420.93
1334.85	376.082
1338.46	174.113
1342.06	37.133
1345.67	112.5
1349.27	240.215
1352.87	334.367
1356.47	664.16
1360.07	582.684
1363.66	584.48
1367.25	595.809
1370.85	553.691
1374.44	510.191
1378.03	135.828
1381.61	415.652
1385.2	544.906
1388.78	271.641
1392.37	156.828
1395.95	424.461
1399.53	334.316
1403.1	99.191
1406.68	55.812
1410.26	36.527
1413.83	356.883
1417.4	91.695
1420.97	301.316
1424.54	294.074
1428.1	12.613
1431.67	15.691
