Measurement: Raman, 514 nm, depolarized, Raman Data Processed
Mineral: Kornerupine
Rruff sample: R050214
Ideal chemistry: (Mg,Fe^2+^,Al,[box])_10_(Si,Al,B)_5_O_21_(OH,F)_2_
Locality: Sri Lanka
Source: Jibamitra Ganguly
Description: Water-worn single crystal fragment
Measured chemistry: (Mg_3.63_[box]_0.21_Fe^2+^_0.14_Na_0.02_)_4_Al_6.00_(Si_2.44_Al_1.97_B_0.59_)_5_O_21_(OH) ;   B and Li not measured; B estimated by charge balance
Pin_id: L00317
Orientation: Laser parallel to a* (1 0 0). Fiducial mark perpendicular to laser is parallel to b [0 1 0]
Raman shift (cm-1)	intensity
93.375	0
97.554	120.956
101.732	239.74
105.908	437.713
110.082	28.822
114.254	484.45
118.424	494.373
122.592	328.492
126.758	134.826
130.922	268.771
135.083	523.77
139.243	529.648
143.401	365.703
147.557	348.293
151.711	567.574
155.863	977.52
160.013	1677.06
164.161	1613.42
168.308	312.043
172.452	115.398
176.594	22.238
180.734	123.066
184.872	263.861
189.008	223.619
193.143	188.623
197.275	51.023
201.405	258.891
205.534	714.238
209.66	954.061
213.784	1233.37
217.907	1899.43
222.027	2424.69
226.146	2821.06
230.263	3226.99
234.377	3681.14
238.49	4317.7
242.601	5134.21
246.709	6534.32
250.816	9027.95
254.921	12286
259.024	12420.9
263.125	8826.61
267.224	5905.93
271.321	4213.34
275.416	3340.86
279.51	3047.06
283.601	3479.37
287.69	5358.53
291.778	7410.45
295.863	7928.78
299.947	6898.47
304.029	5704.34
308.108	5662.26
312.186	5799.11
316.262	6634.92
320.336	8088.52
324.408	8694.8
328.478	9344.65
332.546	7955.53
336.612	6420.56
340.677	4592.57
344.739	3292.26
348.799	2708.19
352.858	3330.44
356.915	4744.01
360.969	7051.17
365.022	8335.3
369.073	8187.89
373.122	7791.85
377.169	8112.29
381.215	8211.48
385.258	8663.85
389.299	10168.7
393.339	11271.4
397.376	11918.9
401.412	11011.2
405.446	8302.49
409.478	6347.91
413.508	4740.08
417.536	3848.99
421.562	3748.86
425.586	3827.35
429.609	3275.05
433.629	2799.4
437.648	2237.18
441.665	1685.04
445.68	1614.24
449.693	1686.52
453.704	1907.19
457.713	2156.8
461.721	2882.98
465.726	3089.01
469.73	3161.28
473.731	2299.88
477.731	1885.7
481.729	1142.31
485.725	433.586
489.72	41.314
493.712	113.613
497.703	133.729
501.691	82.797
505.678	433.402
509.663	1209.74
513.646	2186.1
517.627	2063.39
521.607	1186.7
525.584	422.76
529.56	7.818
533.534	150.652
537.506	91.17
541.476	25.816
545.444	15.32
549.41	247.74
553.375	214.885
557.337	142.164
561.298	370.088
565.257	661.207
569.214	920.609
573.17	795.312
577.123	393.314
581.075	333.621
585.024	358.232
588.972	431.148
592.918	5.281
596.863	50.158
600.805	79.309
604.746	58.322
608.685	174.148
612.621	4.672
616.557	92.283
620.49	99.859
624.421	182.834
628.351	33.719
632.279	62.549
636.205	338.477
640.129	711.658
644.051	1066.25
647.972	1592.23
651.89	2039.04
655.807	2311.7
659.722	2313.94
663.636	1987.45
667.547	1373.89
671.457	907.338
675.365	622.855
679.271	682.654
683.175	1144.62
687.077	1842.58
690.978	3541.07
694.877	5756.62
698.774	9022.74
702.669	11119.9
706.562	11676.1
710.454	8704.15
714.344	6067.65
718.232	3836.32
722.118	1938.21
726.002	1472.71
729.885	1693.19
733.766	2708.7
737.645	4920.24
741.522	7643.87
745.397	11267.6
749.271	14162.6
753.143	15821.9
757.013	14388.1
760.881	10626.2
764.748	6861.15
768.613	4217.98
772.476	2694.25
776.337	1929.89
780.196	1870.16
784.054	1999
787.91	2834.53
791.764	3493.79
795.616	3637.14
799.467	2986.99
803.316	2104.57
807.163	1156.99
811.008	339.559
814.851	45.252
818.693	182.398
822.533	371.182
826.371	498.309
830.208	319.848
834.042	187.609
837.875	29.037
841.706	281.678
845.536	583.721
849.363	1457.31
853.189	2439.25
857.013	4114.54
860.836	5646.2
864.656	7709.55
868.475	10642.5
872.292	13958.8
876.108	16354.2
879.922	18079.9
883.733	16462.8
887.544	14192.2
891.352	10407.3
895.159	7670.14
898.964	5927.73
902.767	4802.25
906.568	4005.7
910.368	3024.08
914.166	3099.63
917.962	2757.29
921.757	2840.86
925.55	3266.34
929.341	3419.52
933.13	3938.36
936.918	5209.84
940.703	6320.03
944.488	7962.73
948.27	10888.9
952.051	14751.6
955.83	19153.6
959.607	23094
963.383	25372.8
967.156	25780.1
970.928	24602
974.699	22780.7
978.468	20313.4
982.234	18380.8
986	16071.1
989.763	15366.4
993.525	15484.3
997.285	16795.6
1001.04	18012.2
1004.8	19706.1
1008.55	20779.4
1012.31	21010.9
1016.06	20199.6
1019.81	19463.5
1023.56	18666.6
1027.31	16917.7
1031.05	14892.9
1034.79	12814.7
1038.53	10488.3
1042.27	8306.71
1046.01	6241.92
1049.75	4748.9
1053.48	3801.31
1057.22	3056.89
1060.95	2661.26
1064.68	2156.56
1068.4	1682.53
1072.13	1523.68
1075.86	1256.08
1079.58	1123.13
1083.3	1141.32
1087.02	1066.5
1090.74	924.773
1094.45	744.471
1098.17	1031.9
1101.88	1129.61
1105.59	1059.27
1109.3	1688.52
1113.01	1835.31
1116.71	2086.52
1120.42	2000.86
1124.12	1731.44
1127.82	1814.1
1131.52	1799.3
1135.22	1583.86
1138.91	922.898
1142.61	833.111
1146.3	707.176
1149.99	424.002
1153.68	316.09
1157.37	261.783
1161.06	232.592
1164.74	391.809
1168.42	277.076
1172.1	197.811
1175.78	29.039
1179.46	34.348
1183.14	72.666
1186.81	104.848
1190.48	248.309
1194.15	140.951
1197.83	277.586
1201.49	14.711
1205.16	99.355
1208.82	164.969
1212.49	44.771
1216.15	94.604
1219.81	12.459
1223.46	427.818
1227.12	138.668
1230.78	70.812
1234.43	185.83
1238.08	41.686
1241.73	29.697
1245.38	374.035
1249.03	362.33
1252.67	268.852
1256.31	245.424
1259.95	94.354
1263.6	189.848
1267.23	341.178
1270.87	279.496
1274.51	233.92
1278.14	367.293
1281.77	270.824
1285.4	301.746
1289.03	344.152
1292.66	339.768
1296.28	214.766
1299.91	356.127
1303.53	594.734
1307.15	570.352
1310.77	374.131
1314.38	607.391
1318	554.109
1321.61	197.076
1325.23	618.908
1328.84	924.979
1332.45	362.346
1336.06	348.611
1339.66	304.018
1343.27	377.203
1346.87	632.672
1350.47	669.682
1354.07	700.945
1357.67	659.957
1361.26	459.977
1364.86	341.105
1368.45	530.254
1372.04	321.102
1375.63	365.312
1379.22	555.115
1382.81	463.594
1386.39	195.258
1389.98	336.746
1393.56	313.176
1397.14	22.322
1400.72	908.896
1404.3	203.605
1407.87	396.141
1411.45	482.844
1415.02	291.676
1418.59	511.66
1422.16	2.699
1425.73	0
