Measurement: Raman, 514 nm, depolarized, Raman Data Processed
Mineral: Kornerupine
Rruff sample: R050214
Ideal chemistry: (Mg,Fe^2+^,Al,[box])_10_(Si,Al,B)_5_O_21_(OH,F)_2_
Locality: Sri Lanka
Source: Jibamitra Ganguly
Description: Water-worn single crystal fragment
Measured chemistry: (Mg_3.63_[box]_0.21_Fe^2+^_0.14_Na_0.02_)_4_Al_6.00_(Si_2.44_Al_1.97_B_0.59_)_5_O_21_(OH) ;   B and Li not measured; B estimated by charge balance
Pin_id: L00479
Orientation: Laser parallel to b* (0 1 0). Fiducial mark perpendicular to laser is parallel to c [0 0 1]
Raman shift (cm-1)	intensity
101.732	0
105.908	174.16
110.082	21.777
114.254	602.347
118.424	568.823
122.592	325.807
126.758	58.131
130.922	106.07
135.083	219.998
139.243	276.366
143.401	64.525
147.557	27.197
151.711	37.327
155.863	314.929
160.013	747.812
164.161	681.756
168.308	434.61
172.452	315.965
176.594	407.009
180.734	622.703
184.872	858.373
189.008	674.058
193.143	618.431
197.275	536.996
201.405	604.98
205.534	1107.5
209.66	1662.56
213.784	2039.16
217.907	2841.67
222.027	3509.92
226.146	3721.74
230.263	3727.6
234.377	3738.41
238.49	3795.5
242.601	4065.89
246.709	4944.85
250.816	6342.88
254.921	8185.54
259.024	8104.23
263.125	6578.78
267.224	5210.6
271.321	4251.42
275.416	3155.69
279.51	2527.26
283.601	2533.79
287.69	4129.79
291.778	5954.77
295.863	6356.57
299.947	5467.85
304.029	4696.74
308.108	4621.9
312.186	4915.58
316.262	5893.61
320.336	7464.92
324.408	8002.08
328.478	8139.29
332.546	7083.61
336.612	5437.8
340.677	3630.75
344.739	2560.11
348.799	2059.68
352.858	2201.6
356.915	2522.86
360.969	3819.45
365.022	4564.36
369.073	5155.69
373.122	5570.88
377.169	6196.13
381.215	6438.71
385.258	7006.9
389.299	8146.45
393.339	9563.8
397.376	10470.1
401.412	9720.89
405.446	7741.65
409.478	5777.52
413.508	4265
417.536	3421.05
421.562	3308.73
425.586	3188.35
429.609	2945.54
433.629	2460.23
437.648	2122.85
441.665	1682.34
445.68	1518.64
449.693	1597.7
453.704	1605.49
457.713	2084.97
461.721	2498.11
465.726	2730.88
469.73	2650.26
473.731	2162.23
477.731	1772.78
481.729	997.867
485.725	450.472
489.72	29.572
493.712	147.324
497.703	159.161
501.691	61.938
505.678	362.295
509.663	1100.82
513.646	1852.81
517.627	1755.43
521.607	974.357
525.584	156.273
529.56	86.593
533.534	192.759
537.506	221.086
541.476	35.925
545.444	120.087
549.41	150.982
553.375	236.975
557.337	75.447
561.298	448.121
565.257	739.953
569.214	965.133
573.17	1124.68
577.123	859.598
581.075	975.896
585.024	1106.58
588.972	1353.66
592.918	1149.15
596.863	1179.03
600.805	1242.33
604.746	1321.04
608.685	1232.67
612.621	1163.74
616.557	1145.75
620.49	972.209
624.421	1201.13
628.351	811.523
632.279	874.404
636.205	984.062
640.129	1365.67
644.051	1741.09
647.972	2405.51
651.89	3066.93
655.807	2952.95
659.722	2906.15
663.636	2745.63
667.547	2288.59
671.457	1878.2
675.365	1729.44
679.271	1977.74
683.175	2633.96
687.077	3387.77
690.978	5189.71
694.877	7639.54
698.774	11563.6
702.669	12905.3
706.562	12920.3
710.454	9399.89
714.344	6141.82
718.232	3502.36
722.118	1719.58
726.002	1020.44
729.885	1312.39
733.766	2120.47
737.645	4237.69
741.522	6752.08
745.397	10175.7
749.271	12955.5
753.143	14202.6
757.013	12858
760.881	9662.68
764.748	6000.74
768.613	3561.17
772.476	2304.02
776.337	1412.31
780.196	1482.06
784.054	1695.3
787.91	2419.07
791.764	2996.38
795.616	3159.27
799.467	2538.76
803.316	1730.89
807.163	638.084
811.008	0.277
814.851	311.701
818.693	454.527
822.533	489.609
826.371	549.133
830.208	235.23
834.042	277.043
837.875	119.016
841.706	405.15
845.536	732.234
849.363	1621.3
853.189	2484.9
857.013	3782.06
860.836	5612.82
864.656	7526.38
868.475	10347.9
872.292	13647.8
876.108	16329.7
879.922	17930.8
883.733	16716.9
887.544	13984.2
891.352	10864.9
895.159	8137.05
898.964	6331.69
902.767	5235.88
906.568	4388.57
910.368	3704.79
914.166	3881.56
917.962	3887.86
921.757	3689.73
925.55	3998.06
929.341	4274.85
933.13	4957.1
936.918	6148.81
940.703	7266.95
944.488	8953.41
948.27	12159.1
952.051	16192.1
955.83	20620.2
959.607	24718.6
963.383	26958.9
967.156	27310.6
970.928	25795.6
974.699	23802.8
978.468	20812.2
982.234	18731.3
986	16813
989.763	15996.8
993.525	16097.3
997.285	17560.2
1001.04	18777.4
1004.8	20540
1008.55	21553.9
1012.31	22018
1016.06	22083.4
1019.81	20856.9
1023.56	20310.6
1027.31	18612.3
1031.05	16626.7
1034.79	14351.5
1038.53	12063.5
1042.27	9571.81
1046.01	7731.64
1049.75	6054.93
1053.48	4985.59
1057.22	4420.5
1060.95	3921.33
1064.68	3309.85
1068.4	2923.47
1072.13	2552.26
1075.86	2160.27
1079.58	1900.96
1083.3	1813.79
1087.02	1308.17
1090.74	1356.17
1094.45	1446.71
1098.17	1481.19
1101.88	1608.28
1105.59	1782.36
1109.3	2144.94
1113.01	2512.15
1116.71	2829.1
1120.42	2329.89
1124.12	2790.73
1127.82	2465.22
1131.52	2231.43
1135.22	1978.81
1138.91	1210.79
1142.61	1044.57
1146.3	923.873
1149.99	681.453
1153.68	544.695
1157.37	550.109
1161.06	533.992
1164.74	461.08
1168.42	408.494
1172.1	197.047
1175.78	278.32
1179.46	66.912
1183.14	35.104
1186.81	140.863
1190.48	204.531
1194.15	201.494
1197.83	281.752
1201.49	8.217
1205.16	104.193
1208.82	71.889
1212.49	120.184
1216.15	209.795
1219.81	99.066
1223.46	29.879
1227.12	125.658
1230.78	59.957
1234.43	31.395
1238.08	62.127
1241.73	147.213
1245.38	267.658
1249.03	304.863
1252.67	39.125
1256.31	24.779
1259.95	18.352
1263.6	147.662
1267.23	10.789
1270.87	176.234
1274.51	241.703
1278.14	259.133
1281.77	210.635
1285.4	310.367
1289.03	72.213
1292.66	219.387
1296.28	276.117
1299.91	322.283
1303.53	326.049
1307.15	427.705
1310.77	459.754
1314.38	610.754
1318	397.104
1321.61	235.951
1325.23	674.783
1328.84	319.645
1332.45	298.918
1336.06	337.607
1339.66	398.67
1343.27	495.15
1346.87	426.027
1350.47	644.92
1354.07	512.76
1357.67	421.512
1361.26	253.982
1364.86	311.736
1368.45	385.246
1372.04	216.904
1375.63	455.16
1379.22	375.15
1382.81	448.969
1386.39	202.488
1389.98	306.092
1393.56	270.34
1397.14	75.18
1400.72	74.938
1404.3	52.275
1407.87	169.533
1411.45	441.441
1415.02	197.881
1418.59	287.691
1422.16	48.707
1425.73	2.082
1429.29	0
