Measurement: Raman, 514 nm, depolarized, Raman Data Processed
Mineral: Kurnakovite
Rruff sample: R050105
Ideal chemistry: MgB_3_O_3_(OH)_5_5H_2_O
Locality: Kramer deposit, Boron, Kern County, California, USA
Source: Rock Currier
Description: Tabular single crystal
Measured chemistry: MgB_3_O_3_(OH)_5_Â·5H_2_O
Pin_id: L00338
Orientation: Laser parallel to a* (1 0 0). Fiducial mark perpendicular to laser is parallel to b [0 1 0]
Raman shift (cm-1)	intensity
109.387	0
113.559	923.734
117.729	3154.26
121.897	7665.88
126.063	5409.83
130.228	4425.05
134.39	3502.81
138.55	489.979
142.709	37.9
146.865	2438.76
151.019	5561.71
155.171	4774.51
159.322	3925.41
163.47	5040.16
167.617	7461.62
171.761	5975.43
175.904	6522.96
180.044	4982.4
184.183	2869.45
188.319	3440.32
192.454	3368.8
196.586	2262.53
200.717	1177.77
204.846	411.968
208.972	436.969
213.097	1341.67
217.22	1946.93
221.341	1480.74
225.46	2351.8
229.577	5102.99
233.692	6209.87
237.805	3138.9
241.916	1637.44
246.025	1568.05
250.132	1824.17
254.237	2337.31
258.34	2435.64
262.442	1244.1
266.541	73.1
270.639	733.096
274.734	23.773
278.828	559.039
282.919	798.949
287.009	597.137
291.097	441.028
295.183	58.567
299.266	346.706
303.348	321.109
307.428	96.666
311.507	221.974
315.583	47.761
319.657	769.585
323.729	2149.53
327.8	2519.97
331.868	1870.91
335.935	1250.79
339.999	1391.99
344.062	1810.35
348.123	1644.35
352.182	1889.91
356.239	2671.53
360.294	2353.37
364.347	1347.02
368.398	1472.8
372.448	2064.8
376.495	2352.36
380.54	2234.93
384.584	2265.49
388.626	2310.55
392.666	2559.84
396.704	2967.33
400.74	3846.05
404.774	4023.09
408.806	3925.52
412.836	4679.03
416.865	8057.16
420.891	11129
424.916	7894.29
428.939	3614.86
432.959	1152.49
436.978	608.291
440.996	441.008
445.011	109.285
449.024	324.689
453.036	1514.33
457.045	4295.98
461.053	9135.57
465.059	18059.1
469.063	24391.2
473.065	19045
477.065	10096.2
481.063	4613.93
485.06	1981.85
489.054	1226.31
493.047	532.346
497.038	192.93
501.027	321.594
505.014	400.299
508.999	1370.93
512.982	1571.38
516.964	1473.87
520.944	2060.66
524.921	3077.06
528.897	3897.5
532.871	3820.25
536.844	4182.19
540.814	4395.2
544.783	4676.1
548.749	4499.89
552.714	4900.38
556.677	6257.56
560.638	6407.33
564.597	3800.62
568.555	1256.27
572.511	271.244
576.464	197.334
580.416	429.514
584.366	662.785
588.315	586.412
592.261	1140.59
596.206	1804.47
600.148	2298.27
604.089	2763.22
608.028	3302.51
611.965	5488
615.901	9395.92
619.834	14909.9
623.766	22332.2
627.696	30849.5
631.624	33238.9
635.551	27681.8
639.475	18295.8
643.398	11754.9
647.318	7515.03
651.237	5057.11
655.155	3970.61
659.07	2669.83
662.984	1587.77
666.895	899.996
670.805	1011.22
674.713	1189.81
678.62	908.975
682.524	232.367
686.427	484.744
690.328	1105.96
694.227	1560.46
698.124	1750.16
702.02	1538.56
705.913	1617.02
709.805	2727.78
713.695	3386.29
717.584	3219.26
721.47	3510.16
725.355	4371.57
729.238	6370.82
733.119	9318.89
736.998	11000.1
740.876	9835.39
744.752	7485.94
748.626	5701.47
752.498	4707.05
756.368	4006.64
760.237	2848.31
764.104	1778.95
767.969	1265.53
771.832	1543.02
775.693	1297.4
779.553	683.621
783.411	181.652
787.267	32.455
791.122	384.982
794.974	904.223
798.825	699.15
802.674	135.736
806.522	142.039
810.367	296.551
814.211	1031.79
818.053	781.643
821.893	152.969
825.732	213.352
829.568	491.738
833.403	160.07
837.236	246.225
841.068	266.254
844.898	305.65
848.726	605.869
852.552	207.465
856.376	499.893
860.199	537.479
864.02	191.115
867.839	120.047
871.656	391.703
875.472	167.016
879.286	849.816
883.098	1393.87
886.909	990.348
890.717	633.289
894.524	594.93
898.33	1294.3
902.133	2207.49
905.935	2437.21
909.735	2396.29
913.533	2627.88
917.33	2955
921.124	3571.49
924.918	4021.53
928.709	3538.06
932.499	2839.87
936.286	2284.97
940.073	2284.34
943.857	2962.01
947.64	3666.11
951.421	3800.57
955.2	3426.34
958.978	2992.36
962.753	2111.76
966.527	2455.46
970.3	2710.46
974.071	2546.04
977.84	2216.62
981.607	1354.31
985.372	1219.44
989.136	1282.24
992.898	1999.95
996.659	2528.07
1000.42	2931.53
1004.17	2574.8
1007.93	1966.38
1011.68	1358.56
1015.43	1452.71
1019.18	2007.13
1022.93	2271.78
1026.68	2113.75
1030.42	1657.82
1034.17	1310.25
1037.91	1362.32
1041.65	2122.24
1045.39	3183.74
1049.12	3540.64
1052.86	2879.58
1056.59	1661.62
1060.33	1058.46
1064.06	1489.47
1067.78	2060.99
1071.51	2428.56
1075.23	2522.07
1078.96	1674.85
1082.68	1178.78
1086.4	508.191
1090.12	828.471
1093.83	1392.37
1097.55	2082.28
1101.26	2353.17
1104.97	2478.22
1108.68	1661.81
1112.39	1239.91
1116.1	1399.69
1119.8	2164.42
1123.5	2799.02
1127.2	2927.71
1130.9	2517.51
1134.6	1948.85
1138.3	1404.79
1141.99	1256.35
1145.69	1432.53
1149.38	2303.55
1153.07	2787.18
1156.76	3059.41
1160.44	2070.03
1164.13	1121.39
1167.81	283.242
1171.49	189.303
1175.17	393.562
1178.85	905.727
1182.52	1293.56
1186.2	1174.71
1189.87	487.602
1193.54	50.344
1197.21	490.09
1200.88	129.914
1204.55	101.809
1208.21	887.41
1211.88	1735.51
1215.54	1906.69
1219.2	1131.21
1222.86	463.408
1226.51	213.289
1230.17	198.508
1233.82	425.152
1237.47	981.707
1241.12	1768.53
1244.77	1826.71
1248.42	1844.73
1252.06	1150.59
1255.71	488.334
1259.35	192.033
1262.99	432.729
1266.63	901.809
1270.26	1925.62
1273.9	2443.53
1277.53	2550.99
1281.16	2253.44
1284.8	1488.84
1288.42	1068.25
1292.05	749.707
1295.68	904.492
1299.3	1453.98
1302.92	2275.14
1306.55	3086.17
1310.16	3320.43
1313.78	3168.29
1317.4	2799.19
1321.01	2122.05
1324.62	1576.65
1328.24	2161.58
1331.85	2486.78
1335.45	3333.35
1339.06	3590.88
1342.66	3568.83
1346.27	2901.8
1349.87	1997.15
1353.47	1055.02
1357.07	89.115
1360.66	176.521
1364.26	161.709
1367.85	600.773
1371.44	902.387
1375.04	2005.46
1378.62	2635.89
1382.21	2793.79
1385.8	1845.13
1389.38	1298.54
1392.96	531.332
1396.54	272.02
1400.12	310.402
1403.7	783.223
1407.28	1551.51
1410.85	2503.34
1414.42	2707.94
1417.99	2611.13
1421.56	2451.89
1425.13	1529.22
1428.7	919.648
1432.26	181.387
1435.83	9.84
1439.39	322.703
1442.95	669.898
1446.51	1310.76
1450.06	2610.42
1453.62	2985.27
1457.17	3310.76
1460.73	2724.07
1464.28	2205.34
