Measurement: Raman, 514 nm, depolarized, Raman Data Processed
Mineral: Kurnakovite
Rruff sample: R050105
Ideal chemistry: MgB_3_O_3_(OH)_5_5H_2_O
Locality: Kramer deposit, Boron, Kern County, California, USA
Source: Rock Currier
Description: Tabular single crystal
Measured chemistry: MgB_3_O_3_(OH)_5_Â·5H_2_O
Pin_id: L00495
Orientation: Laser parallel to (1 0 1). Fiducial mark perpendicular to laser is parallel to b [0 1 0]
Raman shift (cm-1)	intensity
91.284	0
95.465	62.505
99.644	1059.42
103.82	1966.89
107.995	2671.8
112.168	5138.18
116.339	8931.25
120.508	12253.7
124.675	10701.7
128.84	11735.1
133.003	13440.8
137.164	11632.3
141.323	12261
145.48	15015.8
149.635	15029.3
153.788	9452.51
157.939	6219.02
162.088	6184.19
166.235	6562.39
170.38	7407.75
174.523	8999.27
178.664	7183.72
182.803	4183.56
186.94	3071.76
191.076	2537
195.209	2340.37
199.34	1745.35
203.47	973.889
207.597	1360.97
211.722	1761.38
215.846	2050.68
219.967	1091.69
224.087	828.539
228.204	1788.84
232.32	2222.82
236.434	1403.36
240.545	822.484
244.655	1621.17
248.763	4016.42
252.869	7391.2
256.973	8825.72
261.075	5383.56
265.175	1579.31
269.273	165.24
273.369	55.106
277.463	399.78
281.556	1290.23
285.646	1155.2
289.734	59.245
293.821	712.314
297.905	888.952
301.988	668.289
306.069	92.999
310.147	607.598
314.224	2021.43
318.299	4452.53
322.372	7632.9
326.443	9829.57
330.512	8375.52
334.579	5449
338.645	3283.53
342.708	2598.12
346.769	3109.11
350.829	4734.24
354.887	6812.34
358.942	6565.41
362.996	4546.5
367.048	3515.31
371.098	3734.58
375.146	4395.31
379.192	5124.48
383.236	4812.01
387.279	3891.87
391.319	3594
395.358	4352.41
399.394	5329.09
403.429	5317.03
407.462	5405.25
411.493	7429.74
415.522	11114.5
419.549	13403.6
423.575	10218.3
427.598	5541.7
431.619	2469.55
435.639	1140.85
439.657	361.395
443.673	423.153
447.687	810.104
451.699	2001.24
455.709	4818.65
459.717	10245.5
463.724	20109
467.728	26650.5
471.731	21815.7
475.732	13114.2
479.731	6443.89
483.728	3106.83
487.723	1351.02
491.716	331.451
495.708	220.943
499.697	381.102
503.685	291.754
507.671	212.61
511.655	267.562
515.637	19.491
519.617	252.431
523.596	563.856
527.572	997.188
531.547	1530.57
535.52	1879.97
539.491	2036.36
543.46	2178.82
547.427	2494.35
551.393	3438.61
555.356	4740.43
559.318	5338.85
563.278	5488.81
567.236	2412.32
571.192	1483.22
575.147	911.478
579.099	941.051
583.05	1522.92
586.999	2720.05
590.946	3724.44
594.891	3518.15
598.834	3281.77
602.776	3524.21
606.715	4326.66
610.653	6156.36
614.589	9408.97
618.523	14770.5
622.456	22868.1
626.386	32276
630.315	37049.2
634.242	32032.6
638.167	22972.2
642.09	16223
646.012	11343.9
649.931	8159.03
653.849	6012.46
657.765	4666.25
661.679	3474.71
665.592	2690.18
669.502	2088.23
673.411	1690.14
677.318	1354.45
681.223	1108.44
685.126	1160.86
689.028	1079.7
692.927	1218.58
696.825	1379.64
700.721	1343.48
704.616	1531.96
708.508	1822.95
712.399	2203.47
716.288	2773.57
720.175	3738.87
724.06	5342.81
727.944	7397.25
731.825	10979.2
735.705	13434
739.584	13783.7
743.46	11174
747.334	8578.57
751.207	6653.19
755.078	5114.99
758.947	4071.64
762.815	3357.09
766.68	2695.34
770.544	2078.36
774.406	1738.14
778.267	1506.62
782.125	1270.8
785.982	1331.65
789.837	1408.16
793.69	1651.33
797.542	1802.14
801.391	1643.59
805.239	1613.67
809.085	1615.51
812.93	1310.63
816.772	974.216
820.613	577.064
824.452	296.188
828.29	50.356
832.125	89.577
835.959	178.573
839.791	191.846
843.621	198.98
847.45	155.935
851.277	249.673
855.102	143.469
858.925	1.967
862.746	17.71
866.566	53.599
870.384	2.917
874.2	5.262
878.015	131.698
881.828	291.485
885.639	363.781
889.448	401.692
893.256	659.357
897.061	826.897
900.865	1178.34
904.668	1643.57
908.468	2287.45
912.267	2938.85
916.064	3492.76
919.86	3608.18
923.653	3479.12
927.445	3269.56
931.236	3013.52
935.024	3114
938.811	3429
942.596	3973.52
946.379	4298.56
950.161	4348.14
953.94	4366.25
957.719	4570.89
961.495	3922.08
965.27	3317.81
969.043	2775.06
972.814	2347.85
976.583	2004.02
980.351	1832.98
984.117	1730.75
987.882	1808.49
991.644	1884.38
995.405	2126.03
999.165	2551.59
1002.92	3266.19
1006.68	2635.35
1010.43	2327.13
1014.18	1993.79
1017.93	1532.06
1021.68	1426.5
1025.43	1263.67
1029.18	1331.36
1032.92	1491.54
1036.66	1745.64
1040.4	1784.27
1044.14	1766.13
1047.88	2002.07
1051.62	2066.78
1055.35	1887.29
1059.08	1710.86
1062.81	1498.44
1066.54	1182.79
1070.27	1115.99
1073.99	1052.07
1077.72	1075.02
1081.44	1012.85
1085.16	987.574
1088.88	969.2
1092.59	1054.73
1096.31	1146.18
1100.02	1404.56
1103.73	1555.86
1107.44	1861.11
1111.15	1951.3
1114.86	2065.44
1118.57	2051.55
1122.27	1942.62
1125.97	1965.67
1129.67	1674.74
1133.37	1545.01
1137.07	1325.75
1140.76	1345.18
1144.45	1217.31
1148.15	1252.12
1151.84	1161.65
1155.53	1073.99
1159.21	842.902
1162.9	673.117
1166.58	457.635
1170.26	256.442
1173.94	150.548
1177.62	27.641
1181.3	42.742
1184.97	54.478
1188.65	163.474
1192.32	129.045
1195.99	175.299
1199.66	30.221
1203.33	48.517
1206.99	8.081
1210.65	55.757
1214.32	166.525
1217.98	357.409
1221.64	403.416
1225.29	382.54
1228.95	456.784
1232.6	371.147
1236.26	250.636
1239.91	282.246
1243.56	304.963
1247.2	44.769
1250.85	108.663
1254.49	260.648
1258.13	283.725
1261.78	335.892
1265.41	550.15
1269.05	636.662
1272.69	735.104
1276.32	1050.89
1279.95	1198.51
1283.59	1293.21
1287.21	1416.99
1290.84	1405.84
1294.47	1374.78
1298.09	1425.83
1301.72	1253.99
1305.34	1224.24
1308.96	1358.59
1312.58	1583.03
1316.19	1683.55
1319.81	1925.15
1323.42	2089.85
1327.03	2055.95
1330.64	2025.78
1334.25	2009.78
1337.86	1781.43
1341.46	1270.98
1345.07	959.424
1348.67	720.123
1352.27	447.913
1355.87	418.02
1359.46	361.413
1363.06	304.537
1366.65	201.583
1370.25	265.65
1373.84	320.145
1377.43	208.554
1381.02	242.707
1384.6	307.404
1388.18	279.567
1391.77	228.423
1395.35	114.305
1398.93	230.203
1402.51	198.103
1406.08	43.992
1409.66	41.87
1413.23	37.721
1416.8	21.468
1420.37	33.283
1423.94	44.953
1427.51	48.107
1431.08	99.63
1434.64	242.417
1438.2	246.324
1441.76	458.062
1445.32	527.954
1448.88	599.873
1452.43	655.855
1455.99	649.899
1459.54	609.177
1463.09	795.888
1466.64	584.109
1470.19	330.538
1473.74	379.408
1477.28	331.812
1480.83	317.295
1484.37	329.808
1487.91	228.71
1491.45	186.595
1494.98	263.536
1498.52	29.728
1502.05	18.51
1505.59	0.853
1509.12	2.062
1512.65	86.102
1516.17	118.479
1519.7	1.98
1523.23	129.38
1526.75	0
