Measurement: Raman, 514 nm, depolarized, Raman Data Processed
Mineral: Kurnakovite
Rruff sample: R050105
Ideal chemistry: MgB_3_O_3_(OH)_5_5H_2_O
Locality: Kramer deposit, Boron, Kern County, California, USA
Source: Rock Currier
Description: Tabular single crystal
Measured chemistry: MgB_3_O_3_(OH)_5_Â·5H_2_O
Pin_id: L00269
Orientation: Laser parallel to (-1 -1 0). Fiducial mark perpendicular to laser is parallel to -c [0 0 -1]
Raman shift (cm-1)	intensity
110.777	0
114.949	2056.73
119.119	4904.32
123.286	2745.28
127.452	1711.82
131.615	2991.92
135.777	2108.95
139.937	54.392
144.094	453.721
148.25	1536.56
152.403	1938.19
156.555	2388.33
160.705	4019.02
164.853	6640.56
168.998	8644.96
173.142	8281.58
177.284	6504.59
181.424	4270.5
185.562	3935.03
189.698	4793.76
193.831	3024.36
197.963	839.339
202.093	182.354
206.221	605.169
210.347	600.098
214.472	130.272
218.594	993.16
222.714	2975.58
226.832	6493.95
230.948	8977.42
235.063	6452.11
239.175	2970.95
243.286	1789.83
247.394	2894.18
251.501	5393.24
255.605	7267.17
259.708	5280.99
263.808	2244.7
267.907	712.29
272.004	387.793
276.099	1184.42
280.192	2461.09
284.283	2966.74
288.372	1901
292.459	1017.91
296.544	1008.66
300.627	1579.35
304.709	2294.82
308.788	2311.21
312.865	1996.84
316.941	2206.9
321.015	3310.19
325.086	4638.56
329.156	5281.26
333.224	4700.23
337.29	4913.49
341.354	5935.99
345.416	8374.66
349.476	11522.5
353.534	16276.4
357.591	17530.3
361.645	13312.3
365.698	9092.29
369.748	7241.25
373.797	6655.16
377.844	6982.1
381.889	6141.49
385.932	4365.63
389.973	2557.8
394.012	1403.27
398.049	978.796
402.084	757.151
406.118	1018.38
410.15	2293.55
414.179	4998.7
418.207	7304.81
422.233	6291.9
426.257	2946.98
430.279	1006.03
434.299	8.017
438.318	564.05
442.334	768.608
446.349	734.872
450.361	477.75
454.372	25.989
458.381	1203.47
462.388	2756.75
466.394	3871.86
470.397	3274.81
474.398	1797.62
478.398	1009.32
482.396	592.912
486.391	843.47
490.385	1126.09
494.377	1523.78
498.368	2183.56
502.356	3102.42
506.342	3580.38
510.327	4107.43
514.31	4583.59
518.291	5042.97
522.27	5541.06
526.247	6501.27
530.222	7843.81
534.196	8782.89
538.167	9335.07
542.137	9898.58
546.105	10625
550.071	12219.3
554.035	14323.9
557.998	14780.7
561.958	12008.6
565.917	8164.82
569.874	5859.2
573.829	5046.77
577.782	4663.55
581.733	4959.52
585.683	6038.71
589.63	6963.1
593.576	6780.9
597.52	5951.79
601.462	5966.95
605.402	6845.65
609.341	8816.31
613.277	12102.7
617.212	17714.7
621.145	26704.4
625.076	37973.6
629.006	43538.4
632.933	40004.8
636.859	28907.8
640.783	18646.3
644.705	12297.5
648.625	8167.28
652.543	5281.63
656.46	3596.56
660.375	2535.07
664.288	1867.17
668.199	1276.83
672.108	1160.62
676.016	1020.7
679.921	873.51
683.825	867.62
687.727	1174.46
691.628	1493.69
695.526	1799.48
699.423	2030.35
703.318	2451.57
707.211	2552.15
711.102	2618.6
714.992	2964.76
718.879	3155.81
722.765	3672.13
726.649	4381.59
730.532	5563.18
734.412	7081.89
738.291	7583.73
742.168	6529.69
746.043	4971.76
749.916	3879.11
753.788	3451.44
757.658	2762.96
761.526	2227.97
765.392	1998.09
769.257	1993.6
773.119	1603.38
776.98	1239.2
780.839	1366.04
784.697	1362.9
788.552	1593.75
792.406	1636.58
796.258	1750.37
800.108	1992.12
803.957	1746.79
807.804	1353.39
811.649	1118.88
815.492	898.271
819.333	503.527
823.173	193.642
827.011	70.413
830.847	208.185
834.681	423.402
838.514	448.615
842.345	424.867
846.174	328.721
850.001	368.206
853.827	92.921
857.651	96.261
861.473	123.169
865.293	342.025
869.112	487.904
872.928	626.356
876.744	562.533
880.557	607.479
884.369	466.275
888.178	501.064
891.987	554.809
895.793	583.712
899.598	623.718
903.401	931.887
907.202	1174.03
911.001	1660.88
914.799	2116.37
918.595	2210.43
922.389	2238.04
926.182	2041.17
929.972	1856.83
933.761	1717.01
937.549	1966.71
941.334	1856.93
945.118	2136.65
948.9	2206.89
952.681	2154.63
956.459	2202.88
960.236	2168.39
964.012	1622.88
967.785	1114.63
971.557	924.875
975.327	700.621
979.095	525.477
982.862	546.697
986.627	191.421
990.39	102.876
994.152	123.772
997.912	421.905
1001.67	692.465
1005.43	672.882
1009.18	560.939
1012.93	445.842
1016.68	585.11
1020.43	656.728
1024.18	869.351
1027.93	827.848
1031.67	1480.2
1035.42	1963.26
1039.16	2283.61
1042.9	2742.55
1046.63	2802.01
1050.37	2716.29
1054.11	2788.9
1057.84	2427.77
1061.57	2158.32
1065.3	1939.52
1069.03	1582.28
1072.75	1484.79
1076.47	1456.07
1080.2	1484.11
1083.92	1663.93
1087.64	1718.53
1091.36	2082.91
1095.07	2164.09
1098.79	2524.06
1102.5	3436.08
1106.21	3590.67
1109.92	4137.07
1113.62	4462.3
1117.33	4417.35
1121.04	4134.24
1124.74	3937.97
1128.44	3414.59
1132.14	3266.5
1135.83	2483.86
1139.53	2059.97
1143.22	1866.33
1146.92	1562.7
1150.61	1425.91
1154.3	1293.9
1157.98	872.456
1161.67	649.203
1165.35	374.877
1169.04	86.445
1172.72	200.903
1176.4	48.767
1180.07	71.717
1183.75	100.814
1187.42	234.17
1191.1	183.036
1194.77	162.866
1198.44	349.599
1202.1	88.57
1205.77	66.619
1209.43	181.936
1213.1	284.42
1216.76	285.878
1220.42	579.355
1224.07	525.808
1227.73	540.235
1231.38	481.64
1235.04	421.747
1238.69	386.363
1242.34	187.666
1245.99	179.912
1249.63	377.105
1253.28	320.244
1256.92	314.332
1260.56	350.83
1264.2	521.354
1267.84	741.285
1271.48	1024.17
1275.11	1430.99
1278.74	1889.76
1282.38	2018.46
1286.01	2150.11
1289.63	2175.72
1293.26	2342.28
1296.89	1996.82
1300.51	2213.33
1304.13	2405.8
1307.75	2400.22
1311.37	2763.6
1314.99	3123.75
1318.6	3424.05
1322.22	3703.02
1325.83	3616.45
1329.44	3796
1333.05	3831.83
1336.66	3521.89
1340.26	2936.41
1343.87	2240.04
1347.47	1608.1
1351.07	1104.41
1354.67	895.838
1358.27	513.074
1361.86	526.105
1365.46	536.885
1369.05	450.324
1372.64	384.959
1376.23	300.725
1379.82	364.1
1383.41	299.822
1386.99	347.016
1390.57	450.287
1394.16	221.385
1397.74	271.303
1401.32	458.031
1404.89	492.562
1408.47	643.879
1412.04	716.977
1415.61	370.834
1419.18	446.783
1422.75	443.75
1426.32	322.145
1429.89	327.701
1433.45	109.512
1437.01	295.967
1440.58	543.348
1444.13	396.799
1447.69	477.133
1451.25	468.51
1454.81	672.031
1458.36	489.949
1461.91	420.396
1465.46	318.514
1469.01	487.488
1472.56	217.561
1476.1	239.043
1479.64	76.012
1483.19	432.094
1486.73	303.305
1490.27	297.012
1493.81	124.59
1497.34	330.43
1500.88	199.898
1504.41	12.65
1507.94	83.568
1511.47	84.352
1515	138.357
1518.53	129.115
1522.05	28.49
