Measurement: Raman, 514 nm, depolarized, Raman Data Processed
Mineral: Kurnakovite
Rruff sample: R050105
Ideal chemistry: MgB_3_O_3_(OH)_5_5H_2_O
Locality: Kramer deposit, Boron, Kern County, California, USA
Source: Rock Currier
Description: Tabular single crystal
Measured chemistry: MgB_3_O_3_(OH)_5_Â·5H_2_O
Pin_id: L00484
Orientation: Laser parallel to b* (0 1 0). Fiducial mark perpendicular to laser is parallel to c [0 0 1]
Raman shift (cm-1)	intensity
107.995	0
112.168	543.756
116.339	2667.16
120.508	4266.35
124.675	3888.02
128.84	7847.05
133.003	12411.7
137.164	8305.69
141.323	6151.08
145.48	7977.15
149.635	8474.55
153.788	6182.59
157.939	5797.07
162.088	8486.02
166.235	10871.8
170.38	8612.81
174.523	5913.16
178.664	3637.38
182.803	2566.62
186.94	3373.87
191.076	4013.39
195.209	2070.75
199.34	346.78
203.47	253.313
207.597	190.764
211.722	138.205
215.846	144.9
219.967	189.138
224.087	1108.19
228.204	3092.94
232.32	3607.26
236.434	1792.95
240.545	317.74
244.655	128.273
248.763	522.543
252.869	1166.98
256.973	1460.64
261.075	698.477
265.175	257.388
269.273	313.007
273.369	226.285
277.463	1331.47
281.556	2600.89
285.646	2496.88
289.734	1006.32
293.821	1.518
297.905	389.66
301.988	340.03
306.069	33.164
310.147	521.713
314.224	1560.18
318.299	3446.46
322.372	5870.65
326.443	7570.68
330.512	6821.19
334.579	5238.68
338.645	4223.23
342.708	4436.82
346.769	5249.62
350.829	6904.46
354.887	8879.26
358.942	8370.99
362.996	6097.11
367.048	5183.2
371.098	5526.94
375.146	6398.73
379.192	7423.67
383.236	6536.88
387.279	4169.11
391.319	2436.09
395.358	1971.82
399.394	2273.33
403.429	2490.64
407.462	3284.05
411.493	4973.09
415.522	7771.03
419.549	9088.9
423.575	6506.7
427.598	3100.7
431.619	941.098
435.639	94.433
439.657	452.405
443.673	520.519
447.687	450.453
451.699	104.901
455.709	551.594
459.717	2001.52
463.724	4515.93
467.728	5990.69
471.731	4676.07
475.732	2764.26
479.731	1495.33
483.728	1164.31
487.723	1276.28
491.716	1654.28
495.708	2318.34
499.697	2902.46
503.685	3404.69
507.671	3625.04
511.655	3698.53
515.637	3919.2
519.617	4562.27
523.596	5107.11
527.572	5867.27
531.547	6637.3
535.52	7082.31
539.491	7509.94
543.46	7427.07
547.427	7858.51
551.393	8164
555.356	8391.16
559.318	7385.79
563.278	4998.86
567.236	3353.4
571.192	2546.4
575.147	2098.85
579.099	2090.76
583.05	2188.13
586.999	2306.07
590.946	2720.26
594.891	2940
598.834	3316.98
602.776	4019.13
606.715	5277.03
610.653	7562.4
614.589	10936.5
618.523	16701.6
622.456	25611
626.386	35169.3
630.315	37834.6
634.242	32005.6
638.167	21345.3
642.09	13951.7
646.012	8645.82
649.931	5550.61
653.849	3509.09
657.765	2493.24
661.679	1710.08
665.592	1103.59
669.502	755.773
673.411	602.178
677.318	449.663
681.223	374.954
685.126	610.391
689.028	613.394
692.927	850.349
696.825	1182.71
700.721	1331.59
704.616	1628.11
708.508	2020.97
712.399	2152.91
716.288	2210.51
720.175	2527.12
724.06	3107.3
727.944	3920.49
731.825	5839.87
735.705	6904.43
739.584	6858.17
743.46	5217.07
747.334	3801.12
751.207	2675.31
755.078	1852.29
758.947	1282.67
762.815	1140.65
766.68	968.693
770.544	799.969
774.406	660.278
778.267	1002.58
782.125	1038.85
785.982	1362.05
789.837	1608.17
793.69	2212.18
797.542	2488.08
801.391	2285.85
805.239	2208.46
809.085	2034.9
812.93	1545.15
816.772	1137.2
820.613	622.032
824.452	187.623
828.29	60.075
832.125	167.689
835.959	310.854
839.791	361.211
843.621	303.952
847.45	299.065
851.277	348.576
855.102	290.5
858.925	2.508
862.746	94.228
866.566	410.256
870.384	625.862
874.2	639.08
878.015	691.929
881.828	735.642
885.639	635.314
889.448	709.752
893.256	727.463
897.061	826.928
900.865	905.85
904.668	1223.32
908.468	1468.07
912.267	1771.44
916.064	2040.33
919.86	2182.71
923.653	2204.56
927.445	1906.89
931.236	1749.69
935.024	1679.95
938.811	1699.68
942.596	1979.86
946.379	2239.51
950.161	2455.61
953.94	2887.17
957.719	3209.19
961.495	2833.66
965.27	2236.58
969.043	1857.96
972.814	1486.8
976.583	1246.89
980.351	1049.6
984.117	899.409
987.882	874.343
991.644	827.128
995.405	816.265
999.165	832.311
1002.92	1110.68
1006.68	917.398
1010.43	842.342
1014.18	722.065
1017.93	536.959
1021.68	603.857
1025.43	904.793
1029.18	1273.77
1032.92	1634.59
1036.66	2104.56
1040.4	2390.15
1044.14	2247.32
1047.88	2393.16
1051.62	2578.64
1055.35	2292.73
1059.08	1898.39
1062.81	1624.95
1066.54	1410.4
1070.27	1308.38
1073.99	1181.05
1077.72	1116.49
1081.44	1061.71
1085.16	933.714
1088.88	1093.51
1092.59	1057.11
1096.31	1272.51
1100.02	1578.72
1103.73	1726.76
1107.44	2112.61
1111.15	2262.31
1114.86	2293.84
1118.57	2196.21
1122.27	2222.44
1125.97	2152.53
1129.67	1815.55
1133.37	1571.9
1137.07	1386.86
1140.76	1377.7
1144.45	1017.47
1148.15	1086.14
1151.84	1485.77
1155.53	1474.27
1159.21	566.427
1162.9	351.838
1166.58	347.241
1170.26	222.536
1173.94	48.802
1177.62	142.947
1181.3	72.968
1184.97	129.531
1188.65	58.854
1192.32	69.9
1195.99	142.614
1199.66	46.989
1203.33	48.771
1206.99	135.203
1210.65	140.035
1214.32	152.812
1217.98	406.543
1221.64	314.249
1225.29	436.925
1228.95	530.579
1232.6	518.208
1236.26	444.805
1239.91	439.359
1243.56	479.871
1247.2	284.341
1250.85	225.768
1254.49	436.151
1258.13	392.491
1261.78	572.786
1265.41	725.035
1269.05	881.234
1272.69	946.384
1276.32	1393.48
1279.95	1704.38
1283.59	1917.49
1287.21	2028.42
1290.84	2000.32
1294.47	1756.19
1298.09	1866.03
1301.72	1747.83
1305.34	1744.57
1308.96	1942.26
1312.58	2227.89
1316.19	2301.47
1319.81	2658.24
1323.42	2723.44
1327.03	2638.71
1330.64	2866.7
1334.25	2585.67
1337.86	2057.02
1341.46	1658.64
1345.07	1116.26
1348.67	858.887
1352.27	525.729
1355.87	524.362
1359.46	544.253
1363.06	385.227
1366.65	396.581
1370.25	332.601
1373.84	303.774
1377.43	249.727
1381.02	150.619
1384.6	228.16
1388.18	317.508
1391.77	326.652
1395.35	251.584
1398.93	436.287
1402.51	457.75
1406.08	523.958
1409.66	307.894
1413.23	330.535
1416.8	426.859
1420.37	350.842
1423.94	234.9
1427.51	132.644
1431.08	146.139
1434.64	208.3
1438.2	224.276
1441.76	128.449
1445.32	241.625
1448.88	261.792
1452.43	216.694
1455.99	259.512
1459.54	187.319
1463.09	189.575
1466.64	178.437
1470.19	5.112
1473.74	152.867
1477.28	124.673
1480.83	212.212
1484.37	28.559
1487.91	113.562
1491.45	9.36
1494.98	174.788
1498.52	157.825
1502.05	64.975
1505.59	26.917
1509.12	89.683
1512.65	139.916
1516.17	101.612
1519.7	0.548
