Measurement: Raman, 514 nm, depolarized, Raman Data Processed
Mineral: Kurnakovite
Rruff sample: R050105
Ideal chemistry: MgB_3_O_3_(OH)_5_5H_2_O
Locality: Kramer deposit, Boron, Kern County, California, USA
Source: Rock Currier
Description: Tabular single crystal
Measured chemistry: MgB_3_O_3_(OH)_5_Â·5H_2_O
Pin_id: L00487
Orientation: Laser parallel to (0 1 1). Fiducial mark perpendicular to laser is parallel to -a [-1 0 0]
Raman shift (cm-1)	intensity
110.777	0
114.949	2233.4
119.119	7684.01
123.286	7626.57
127.452	6152.1
131.615	9951.58
135.777	8553.27
139.937	1558.31
144.094	0.338
148.25	1090.39
152.403	999.237
156.555	978.048
160.705	4118.62
164.853	9383.93
168.998	11422.8
173.142	10109.8
177.284	9152.58
181.424	6073.36
185.562	5133.68
189.698	7003.41
193.831	6530.19
197.963	3160.99
202.093	974.533
206.221	109.459
210.347	59.49
214.472	354.894
218.594	719.063
222.714	1539.33
226.832	4240.24
230.948	6895.24
235.063	5726.37
239.175	2207.18
243.286	156.511
247.394	431.781
251.501	379.199
255.605	168.67
259.708	347.152
263.808	644.259
267.907	550.576
272.004	52.693
276.099	1427.12
280.192	3518.58
284.283	4488.55
288.372	2964.06
292.459	958.035
296.544	237.169
300.627	508.642
304.709	1107.78
308.788	1493.41
312.865	1414.18
316.941	2355.91
321.015	4087.47
325.086	6018.93
329.156	6926.56
333.224	6033.12
337.29	5869.83
341.354	6616.84
345.416	8682.67
349.476	10503.6
353.534	13704.8
357.591	15096.8
361.645	11853.6
365.698	8415.11
369.748	7588.45
373.797	8093.48
377.844	8820.48
381.889	8337.39
385.932	6397.07
389.973	4042.01
394.012	1733.72
398.049	1490.22
402.084	1861.56
406.118	2474.32
410.15	4067.99
414.179	7509.71
418.207	11168.2
422.233	10439.7
426.257	5736.03
430.279	2192.77
434.299	271.356
438.318	267.905
442.334	649.986
446.349	407.431
450.361	356.728
454.372	1752.34
458.381	5424.55
462.388	11840.1
466.394	19748.8
470.397	20303.3
474.398	13319.6
478.398	7715.78
482.396	4596.84
486.391	3171.84
490.385	2755.86
494.377	2676.94
498.368	3129.1
502.356	3559.38
506.342	3508.86
510.327	3631.63
514.31	3814.81
518.291	3903.52
522.27	4027.1
526.247	4727.01
530.222	5387.36
534.196	5848.54
538.167	6280.68
542.137	6536.55
546.105	6898.03
550.071	7832.99
554.035	8896.98
557.998	8921.74
561.958	7244.19
565.917	4550.31
569.874	2921.99
573.829	2189.02
577.782	1655.05
581.733	1636.76
585.683	1862.77
589.63	2219.6
593.576	2145.64
597.52	2324.91
601.462	2655.5
605.402	3503.34
609.341	5143.44
613.277	7706.56
617.212	12214.6
621.145	19572
625.076	29644.3
629.006	36631.5
632.933	36322.6
636.859	27528.4
640.783	17934.2
644.705	11599.8
648.625	7414.27
652.543	4623.59
656.46	2937.75
660.375	1849.75
664.288	1169.59
668.199	560.249
672.108	417.73
676.016	191.38
679.921	23.866
683.825	68.963
687.727	186.466
691.628	398.818
695.526	403.298
699.423	932.275
703.318	1334.5
707.211	1629.88
711.102	2101.1
714.992	2600.39
718.879	3074.74
722.765	4043.26
726.649	5397.07
730.532	7262.15
734.412	9744.44
738.291	10498.9
742.168	9266.6
746.043	7054.38
749.916	5307.25
753.788	4462.5
757.658	3548.17
761.526	3066.42
765.392	2390.41
769.257	2098.4
773.119	1735.38
776.98	1467.3
780.839	1628.16
784.697	1812.95
788.552	2063.57
792.406	2425.1
796.258	2963.47
800.108	3118.67
803.957	2855.67
807.804	2460.47
811.649	2084.04
815.492	1617.36
819.333	1131.4
823.173	660.162
827.011	190.61
830.847	39.375
834.681	294.533
838.514	315.858
842.345	354.548
846.174	448.932
850.001	291.229
853.827	264.05
857.651	73.305
861.473	53.298
865.293	196.591
869.112	451.9
872.928	635.723
876.744	756.06
880.557	690.912
884.369	694.269
888.178	645.4
891.987	627.021
895.793	692.255
899.598	787.215
903.401	1138.06
907.202	1645.62
911.001	2415.79
914.799	2901.48
918.595	3231.66
922.389	3026.24
926.182	2595.21
929.972	2046.58
933.761	1603.34
937.549	1589.49
941.334	1441.03
945.118	1707.96
948.9	1887.34
952.681	2138.13
956.459	2175.32
960.236	2257.94
964.012	1742.94
967.785	1377.33
971.557	1082.11
975.327	1056.28
979.095	851.448
982.862	790.979
986.627	625.266
990.39	658.133
994.152	789.202
997.912	1037.44
1001.67	1187.62
1005.43	1279.33
1009.18	1051.54
1012.93	859.478
1016.68	649.918
1020.43	684.465
1024.18	763.211
1027.93	896.981
1031.67	1219.54
1035.42	1569.05
1039.16	1799.66
1042.9	2063.49
1046.63	1828.07
1050.37	1544.88
1054.11	1414.18
1057.84	1113.99
1061.57	1054.2
1065.3	837.507
1069.03	795.835
1072.75	692.635
1076.47	778.222
1080.2	849.614
1083.92	966.798
1087.64	1097.84
1091.36	1281.8
1095.07	1600.5
1098.79	1894.74
1102.5	2443.77
1106.21	2797.34
1109.92	3114.36
1113.62	3411.25
1117.33	3480.01
1121.04	3463.65
1124.74	3578.17
1128.44	2976.6
1132.14	2693.06
1135.83	2167.92
1139.53	2038.7
1143.22	1627.53
1146.92	1549.47
1150.61	1422.55
1154.3	1168.58
1157.98	1022.51
1161.67	777.89
1165.35	522.446
1169.04	228.991
1172.72	211.498
1176.4	94.964
1180.07	106.611
1183.75	36.463
1187.42	4.065
1191.1	56.854
1194.77	25.518
1198.44	239.749
1202.1	69.147
1205.77	172.255
1209.43	55.947
1213.1	13.015
1216.76	141.991
1220.42	208.001
1224.07	166.04
1227.73	211.104
1231.38	213.2
1235.04	66.338
1238.69	24.521
1242.34	34.645
1245.99	102.671
1249.63	122.654
1253.28	173.616
1256.92	87.206
1260.56	213.549
1264.2	253.534
1267.84	401.534
1271.48	547.546
1275.11	675.569
1278.74	972.602
1282.38	1306.63
1286.01	1474.66
1289.63	1418.67
1293.26	1509.66
1296.89	1330.65
1300.51	1231.63
1304.13	1661.6
1307.75	1551.54
1311.37	1491.45
1314.99	1872.34
1318.6	2102.2
1322.22	2432.8
1325.83	2649.38
1329.44	3017.14
1333.05	3354.47
1336.66	3204.57
1340.26	2671.3
1343.87	2086.23
1347.47	1484.51
1351.07	1037.43
1354.67	789.51
1358.27	460.849
1361.86	428.739
1365.46	333.996
1369.05	386.251
1372.64	419.784
1376.23	430.611
1379.82	500.394
1383.41	548.25
1386.99	602.17
1390.57	557.291
1394.16	513.518
1397.74	545.629
1401.32	579.612
1404.89	694.459
1408.47	729.156
1412.04	794.694
1415.61	563.059
1419.18	472.239
1422.75	431.219
1426.32	364.041
1429.89	255.214
1433.45	131.915
1437.01	123.472
1440.58	196.255
1444.13	351.612
1447.69	247.918
1451.25	391.192
1454.81	400.364
1458.36	363.09
1461.91	396.287
1465.46	182.87
1469.01	304.953
1472.56	301.688
1476.1	324.277
1479.64	82.914
1483.19	194.524
1486.73	168.95
1490.27	66.909
1493.81	10.882
1497.34	186.373
1500.88	115.472
1504.41	38.293
1507.94	80.539
1511.47	150.517
1515	170.888
1518.53	163.061
1522.05	163.919
