Measurement: Raman, 514 nm, depolarized, Raman Data Processed
Mineral: Kurnakovite
Rruff sample: R050105
Ideal chemistry: MgB_3_O_3_(OH)_5_5H_2_O
Locality: Kramer deposit, Boron, Kern County, California, USA
Source: Rock Currier
Description: Tabular single crystal
Measured chemistry: MgB_3_O_3_(OH)_5_Â·5H_2_O
Pin_id: L00453
Orientation: Laser parallel to c* (0 0 1). Fiducial mark perpendicular to laser is parallel to a [1 0 0]
Raman shift (cm-1)	intensity
109.387	0
113.559	4410.24
117.729	10330.3
121.897	11285.4
126.063	7820.72
130.228	10276.7
134.39	9341.55
138.55	2552.46
142.709	323.776
146.865	352.746
151.019	745.625
155.171	527.97
159.322	2225.42
163.47	4820.44
167.617	6290.01
171.761	5513.72
175.904	5236.94
180.044	3388.8
184.183	2441.56
188.319	3675.26
192.454	3670.93
196.586	1494.89
200.717	145.787
204.846	353.68
208.972	455.785
213.097	1059.31
217.22	1732.67
221.341	1845.82
225.46	3969.41
229.577	6977.14
233.692	6538.65
237.805	2874.28
241.916	504.133
246.025	290.079
250.132	389.512
254.237	1888.92
258.34	1840.15
262.442	24.87
266.541	789.357
270.639	456.001
274.734	715.13
278.828	2813.91
282.919	4355.83
287.009	3170.03
291.097	987.733
295.183	107.054
299.266	193.368
303.348	972.817
307.428	1555.41
311.507	1114.58
315.583	817.751
319.657	1551.66
323.729	2655.8
327.8	2922.66
331.868	2879.15
335.935	2945.38
339.999	4818.43
344.062	7652.53
348.123	11415
352.182	16633.8
356.239	20632.5
360.294	17670.2
364.347	12000.8
368.398	8960.36
372.448	8608.84
376.495	9013.98
380.54	9178.23
384.584	7195.35
388.626	4882.1
392.666	4008.44
396.704	4299.38
400.74	5045.92
404.774	5645.11
408.806	6853.23
412.836	11604.1
416.865	17907.4
420.891	19140.5
424.916	11949.9
428.939	5601.62
432.959	1807.04
436.978	221.854
440.996	208.256
445.011	470.626
449.024	495.368
453.036	2115.62
457.045	6236.61
461.053	15472.1
465.059	28729.3
469.063	33438.9
473.065	23970.1
477.065	12686.8
481.063	6541.84
485.06	3201.49
489.054	1625.77
493.047	903.71
497.038	957.311
501.027	1019.58
505.014	991.548
508.999	723.248
512.982	679.694
516.964	704.012
520.944	870.366
524.921	957.268
528.897	1218.63
532.871	1988.75
536.844	2461.27
540.814	2957.28
544.783	4103.81
548.749	5381.84
552.714	7654.88
556.677	9202.72
560.638	8169.3
564.597	5184.6
568.555	2776.31
572.511	1526.53
576.464	727.477
580.416	637.102
584.366	1048.44
588.315	2182.74
592.261	2664.84
596.206	1847.45
600.148	1680.95
604.089	1995.7
608.028	3292.66
611.965	5603.73
615.901	8791.57
619.834	15234.7
623.766	24184.6
627.696	34686.1
631.624	35960.1
635.551	30032.6
639.475	22043.7
643.398	14875.4
647.318	10025.1
651.237	6757.08
655.155	4863.15
659.07	3015.68
662.984	2082.64
666.895	1502.02
670.805	812.073
674.713	419.159
678.62	304.881
682.524	134.934
686.427	44.194
690.328	494.59
694.227	217.713
698.124	90.621
702.02	92.422
705.913	240.31
709.805	808.633
713.695	1133.31
717.584	2165.08
721.47	3632.7
725.355	5823.15
729.238	9404.39
733.119	13638.4
736.998	16140.2
740.876	15391.7
744.752	11785.9
748.626	8925.86
752.498	6962.44
756.368	5831.74
760.237	4821.17
764.104	3896.5
767.969	3139.41
771.832	3137.91
775.693	2451.95
779.553	2226.53
783.411	2253.63
787.267	2357.23
791.122	2639.32
794.974	2922.88
798.825	3020.9
802.674	3058.37
806.522	2818.27
810.367	2348.59
814.211	1753.31
818.053	1250.42
821.893	865.901
825.732	471.735
829.568	132.764
833.403	19.636
837.236	222.452
841.068	153.323
844.898	334.248
848.726	332.533
852.552	198.54
856.376	103.796
860.199	238.165
864.02	560.198
867.839	837.529
871.656	1009.21
875.472	1046.25
879.286	956.655
883.098	1085.45
886.909	1019.67
890.717	1185.94
894.524	1413.81
898.33	1587.93
902.133	2212.75
905.935	2880.24
909.735	3913.26
913.533	4718.78
917.33	5687.74
921.124	5546.2
924.918	4657.06
928.709	3835.31
932.499	3064.01
936.286	2429.13
940.073	2304.67
943.857	2288.65
947.64	2058.02
951.421	1957.81
955.2	2027.99
958.978	2024.58
962.753	1795.87
966.527	1595.96
970.3	1219.77
974.071	1011
977.84	1052.43
981.607	1021.8
985.372	1344.63
989.136	1257
992.898	1350.51
996.659	1615.27
1000.42	2353.6
1004.17	2317.14
1007.93	2034.9
1011.68	1682.02
1015.43	1159.06
1019.18	938.266
1022.93	1066.02
1026.68	1050.75
1030.42	1229.5
1034.17	1483.31
1037.91	1737.04
1041.65	2008.09
1045.39	1885.61
1049.12	1810.67
1052.86	1633.92
1056.59	1481.35
1060.33	1247.51
1064.06	1216.34
1067.78	1058.15
1071.51	978.664
1075.23	997.664
1078.96	1010.28
1082.68	1086.03
1086.4	1202.06
1090.12	1200.74
1093.83	1565.52
1097.55	1896.29
1101.26	2176.01
1104.97	2398.41
1108.68	2662.36
1112.39	3011.14
1116.1	3021.77
1119.8	2976.23
1123.5	2949.55
1127.2	2745.75
1130.9	2169.93
1134.6	2071.29
1138.3	1778.34
1141.99	1411.17
1145.69	1391.88
1149.38	1545.58
1153.07	1223.23
1156.76	1107.49
1160.44	871.036
1164.13	764.746
1167.81	524.916
1171.49	270.164
1175.17	134.282
1178.85	45.755
1182.52	4.023
1186.2	35.584
1189.87	97.683
1193.54	54.671
1197.21	140.356
1200.88	108.952
1204.55	14.869
1208.21	25.249
1211.88	76.66
1215.54	23.051
1219.2	51.504
1222.86	104.808
1226.51	12.575
1230.17	40.824
1233.82	47.591
1237.47	27.158
1241.12	3.541
1244.77	39.772
1248.42	223.882
1252.06	328.884
1255.71	335.78
1259.35	206.57
1262.99	260.254
1266.63	515.827
1270.26	726.288
1273.9	949.629
1277.53	1203.85
1281.16	1421.95
1284.8	1683.91
1288.42	1641.72
1292.05	1435.4
1295.68	1526.95
1299.3	1527.35
1302.92	1487.68
1306.55	1451.85
1310.16	1653.9
1313.78	2018.83
1317.4	2169.31
1321.01	2494.84
1324.62	2994.34
1328.24	3475.07
1331.85	3704.21
1335.45	3778.28
1339.06	3187.27
1342.66	2689.44
1346.27	1911.6
1349.87	1540.13
1353.47	1136.17
1357.07	922.637
1360.66	744.955
1364.26	443.287
1367.85	607.473
1371.44	551.785
1375.04	552.459
1378.62	693.738
1382.21	766.398
1385.8	822.646
1389.38	661.771
1392.96	698.744
1396.54	666.426
1400.12	506.807
1403.7	659.879
1407.28	576.625
1410.85	620.045
1414.42	686.117
1417.99	425.826
1421.56	570.154
1425.13	509.516
1428.7	422.016
1432.26	196.115
1435.83	350.006
1439.39	616.166
1442.95	532.998
1446.51	643.156
1450.06	674.59
1453.62	834.197
1457.17	893.244
1460.73	812.57
1464.28	514.24
1467.83	353.4
1471.37	388.254
1474.92	491.484
1478.46	328.109
1482.01	256.32
1485.55	312.551
1489.09	143.928
1492.63	56.695
1496.16	221.193
1499.7	7.18
1503.23	81.914
1506.76	223.947
1510.29	132.758
1513.82	136.758
1517.35	2.17
1520.88	99.998
