Measurement: Raman, 514 nm, depolarized, Raman Data Processed
Mineral: Kutnohorite
Rruff sample: R060473
Ideal chemistry: CaMn^2+^(CO_3_)_2_
Locality: N'Chwaning II mine, Kalahari manganese field, northern Cape Province, Republic of South Africa
Source: Michael Scott
Description: Aggregate of parallel pink colored acicular crystals
Measured chemistry: Ca_1.00_(Mn^2+^_0.63_Ca_0.35_Mg_0.02_)(CO_3_)_2_
Pin_id: L00557
Orientation: Laser parallel to -a* (-1 0 0). Fiducial mark perpendicular to laser is parallel to -c [0 0 -1]
Raman shift (cm-1)	intensity
102.29	0
107.211	1855.02
112.13	1184.06
117.046	1215.72
121.961	352.71
126.873	85.2637
131.783	178.78
136.691	478.813
141.597	1025.42
146.5	1402.19
151.402	2615.53
156.301	4002.63
161.198	4194.84
166.092	4095.86
170.985	3287.37
175.875	2793.07
180.763	1796.15
185.649	1090.52
190.532	698.306
195.413	418.234
200.292	123.496
205.169	191.612
210.044	88.9775
214.916	63.0518
219.786	192.724
224.654	30.2021
229.519	97.1191
234.382	158.265
239.243	621.197
244.102	535.727
248.958	910.44
253.813	1780.44
258.664	2568.74
263.514	4097.06
268.361	6599.16
273.206	9494.29
278.049	12867.5
282.889	14478.9
287.728	13210.9
292.563	9882.84
297.397	6505.02
302.228	4281.08
307.057	2725.14
311.884	1758.17
316.708	1082.83
321.53	753.937
326.35	609.063
331.167	409.441
335.982	362.788
340.795	380.789
345.605	260.143
350.413	77.8286
355.219	209.086
360.022	16.2002
364.823	76.9565
369.622	21.6553
374.418	21.9199
379.212	73.0811
384.004	34.9473
388.793	50.0684
393.58	32.3848
398.364	15.4058
403.146	67.9922
407.926	91.0727
412.704	254.389
417.479	276.447
422.251	340.668
427.022	232.253
431.79	299.054
436.555	303.291
441.319	362.43
446.079	223.334
450.838	256.597
455.594	446.544
460.347	280.525
465.099	258.448
469.847	303.297
474.594	300.83
479.338	179.426
484.079	209.618
488.819	336.664
493.555	286.991
498.29	333.769
503.022	362.837
507.751	269.749
512.478	272.986
517.203	417.67
521.925	278.732
526.645	297.363
531.363	274.11
536.078	351.816
540.79	161.817
545.5	287.646
550.208	278.537
554.913	260.825
559.616	359.198
564.316	383.495
569.014	291.373
573.709	207.326
578.402	140.626
583.093	187.153
587.781	132.477
592.466	117.286
597.15	76.4888
601.83	49.6606
606.508	1.22705
611.184	42.4131
615.857	66.2456
620.528	63.0894
625.196	111.95
629.862	33.4844
634.525	63.148
639.186	88.1304
643.844	68.1616
648.5	6.85693
653.153	5.67627
657.804	45.1728
662.452	48.54
667.098	60.9473
671.742	109.1
676.382	60.354
681.021	8.13037
685.656	86.9824
690.29	16.4048
694.92	317.161
699.549	702.386
704.174	1961.09
708.797	4007.62
713.418	5883.93
718.036	4459.51
722.652	2063.29
727.265	683.912
731.875	407.387
736.483	147.929
741.089	139.805
745.692	28.5361
750.292	36.6899
754.89	41.7485
759.485	18.7568
764.078	120.306
768.668	124.853
773.256	101.803
777.841	50.6597
782.423	46.9585
787.003	56.9023
791.581	0.182617
796.156	3.38916
800.728	20.1079
805.298	2.60498
809.865	53.3286
814.429	10.5312
818.991	13.6885
823.551	56.3018
828.107	17.1748
832.662	123.844
837.213	113.946
841.762	41.959
846.309	203.09
850.853	142.451
855.394	94.9966
859.933	163.833
864.469	85.3682
869.002	162.914
873.533	223.831
878.062	181.107
882.587	138.471
887.11	151.258
891.631	6.78613
896.149	92.9058
900.664	93.7764
905.177	199.132
909.687	72.5903
914.194	109.325
918.699	41.687
923.201	3.95898
927.701	100.168
932.198	45.5923
936.692	88.8564
941.184	46.2954
945.673	9.13281
950.159	15.293
954.643	14.6104
959.124	11.2017
963.603	88.5083
968.078	132.462
972.552	65.0142
977.022	8.58252
981.49	55.5713
985.955	133.772
990.418	125.839
994.878	67.6919
999.335	145.628
1003.79	102.515
1008.24	122.55
1012.69	245.799
1017.14	172.383
1021.58	314.391
1026.02	209.515
1030.46	294.28
1034.9	277.444
1039.33	516.512
1043.76	511.045
1048.19	619.087
1052.62	780.814
1057.04	1068.08
1061.46	1399.82
1065.88	2229.67
1070.29	5847.28
1074.7	19516.4
1079.11	41021.2
1083.52	49839.1
1087.92	47722.9
1092.32	31173.7
1096.72	14012.8
1101.12	4779.77
1105.51	1427.68
1109.9	470.866
1114.29	336.929
1118.67	264.675
1123.06	145.536
1127.43	301.515
1131.81	154.208
1136.18	192.851
1140.56	84.5449
1144.93	9.5625
1149.29	169.296
1153.65	131.649
1158.02	48.0957
1162.37	82.3262
1166.73	76.7988
1171.08	59.2685
1175.43	163.595
1179.78	56.8174
1184.12	180.95
1188.46	223.722
1192.8	16.1221
1197.14	24.6201
1201.47	143.598
1205.8	113.966
1210.13	134.41
1214.45	110.301
1218.78	192.374
1223.1	169.809
1227.41	178.935
1231.73	202.53
1236.04	110.453
1240.35	170.413
1244.65	185.952
1248.96	216.903
1253.26	274.103
1257.55	192.439
1261.85	242.761
1266.14	314.713
1270.43	230.778
1274.72	262.497
1279	393.194
1283.28	134.705
1287.56	215.413
1291.84	286.7
1296.11	340.016
1300.38	158.043
1304.64	185.019
1308.91	147.73
1313.17	276.173
1317.43	140.606
1321.68	169.562
1325.94	189.238
1330.19	165.848
1334.44	98.9297
1338.68	138.469
1342.92	41.8555
1347.16	113.598
1351.4	19.1934
1355.63	15.2051
1359.86	177.611
1364.09	123.908
1368.32	168.955
1372.54	7.47852
1376.76	87.8672
1380.98	123.147
1385.19	274.197
1389.4	319.65
1393.61	400.971
1397.82	739.299
1402.02	889.918
1406.22	1101.32
1410.42	986.928
1414.61	734.617
1418.8	519.887
1422.99	679.879
1427.18	707.492
1431.36	529.396
1435.54	658.139
1439.72	532.242
1443.89	497.897
1448.07	265.383
1452.24	371.611
1456.4	118.799
1460.57	112.916
1464.73	61.5664
1468.88	116.76
1473.04	261.234
1477.19	44.7266
1481.34	83.0137
1485.49	441.887
1489.63	4.15234
1493.77	336.975
1497.91	247.74
1502.05	464.012
1506.18	366.592
1510.31	334.281
1514.43	548.594
1518.56	506.861
1522.68	441.066
1526.8	432.815
1530.91	411.897
1535.02	567.232
1539.13	405.898
1543.24	420.998
1547.34	139.85
1551.44	168.982
1555.54	72.6894
1559.64	257.324
1563.73	259.523
1567.82	251.965
