Measurement: Raman, 514 nm, depolarized, Raman Data Processed
Mineral: Kutnohorite
Rruff sample: R060473
Ideal chemistry: CaMn^2+^(CO_3_)_2_
Locality: N'Chwaning II mine, Kalahari manganese field, northern Cape Province, Republic of South Africa
Source: Michael Scott
Description: Aggregate of parallel pink colored acicular crystals
Measured chemistry: Ca_1.00_(Mn^2+^_0.63_Ca_0.35_Mg_0.02_)(CO_3_)_2_
Pin_id: L00843
Orientation: Laser parallel to c* (0 0 1). Fiducial mark perpendicular to laser is parallel to -a [-1 0 0]
Raman shift (cm-1)	intensity
102.29	0
107.211	2384.58
112.13	995.691
117.046	1312.43
121.961	310.006
126.873	103.658
131.783	481.781
136.691	418.848
141.597	1019.64
146.5	1466.88
151.402	2725.63
156.301	4023.77
161.198	4057.72
166.092	3554.4
170.985	2776.89
175.875	2219.69
180.763	1476.07
185.649	921.184
190.532	534.537
195.413	642.312
200.292	806.854
205.169	112.576
210.044	73.04
214.916	6.55859
219.786	13.5205
224.654	11.5244
229.519	14.1621
234.382	375.209
239.243	732.254
244.102	396.386
248.958	740.596
253.813	1484.69
258.664	2213.26
263.514	3832.55
268.361	5969.39
273.206	8428.74
278.049	11320.8
282.889	12659.6
287.728	11611.7
292.563	8669.14
297.397	5532.73
302.228	3515
307.057	2392.04
311.884	1522.23
316.708	979.837
321.53	666.813
326.35	652.48
331.167	357.69
335.982	174.775
340.795	206.39
345.605	264.072
350.413	111.428
355.219	282.336
360.022	40.3272
364.823	73.7168
369.622	17.0449
374.418	22.167
379.212	13.6201
384.004	79.8516
388.793	58.294
393.58	7.31738
398.364	46.6875
403.146	111.344
407.926	125.689
412.704	259.122
417.479	369.212
422.251	409.884
427.022	335.884
431.79	303.848
436.555	255.63
441.319	278.529
446.079	370.269
450.838	463.704
455.594	476.386
460.347	394.528
465.099	324.06
469.847	435.264
474.594	363.347
479.338	285.626
484.079	187.548
488.819	336.078
493.555	461.418
498.29	328.47
503.022	367.358
507.751	309.891
512.478	371.697
517.203	422.407
521.925	302.952
526.645	243.151
531.363	252.253
536.078	443.475
540.79	233.469
545.5	277.445
550.208	406.098
554.913	376.19
559.616	379.548
564.316	419.086
569.014	258.397
573.709	410.699
578.402	332.263
583.093	250.031
587.781	181.26
592.466	143.099
597.15	104.218
601.83	183.663
606.508	103.721
611.184	120.402
615.857	63.4951
620.528	125.363
625.196	166.968
629.862	157.246
634.525	19.7012
639.186	198.382
643.844	166.975
648.5	183.265
653.153	79.4238
657.804	9.2002
662.452	30.1553
667.098	102.745
671.742	12.7715
676.382	99.3486
681.021	69.6299
685.656	32.457
690.29	40.8935
694.92	169.992
699.549	556.421
704.174	1534.78
708.797	3506.61
713.418	4968.56
718.036	3772.73
722.652	1722.15
727.265	552.82
731.875	124.432
736.483	215.031
741.089	109.749
745.692	120.277
750.292	121.674
754.89	108.052
759.485	24.5205
764.078	105.85
768.668	79.4834
773.256	128.21
777.841	72.7598
782.423	173.663
787.003	71.6592
791.581	66.6826
796.156	200.897
800.728	237.237
805.298	114.534
809.865	9.77441
814.429	1.6084
818.991	109.752
823.551	77.2686
828.107	202.466
832.662	108.75
837.213	124.89
841.762	159.369
846.309	166.919
850.853	132.934
855.394	150.194
859.933	329.69
864.469	293.081
869.002	344.579
873.533	338.79
878.062	171.645
882.587	192.099
887.11	66.4512
891.631	231.473
896.149	215.423
900.664	323.748
905.177	176.997
909.687	136.31
914.194	159.388
918.699	286.522
923.201	245.231
927.701	167.356
932.198	218.077
936.692	133.713
941.184	23.4189
945.673	275.945
950.159	33.2959
954.643	121.433
959.124	144.475
963.603	73.2461
968.078	117.936
972.552	82.3008
977.022	9.78711
981.49	106.805
985.955	125.931
990.418	125.858
994.878	104.019
999.335	35.1318
1003.79	76.3564
1008.24	136.651
1012.69	321.824
1017.14	235.606
1021.58	268.981
1026.02	255.931
1030.46	438.832
1034.9	307.247
1039.33	409.943
1043.76	484.427
1048.19	486.329
1052.62	822.612
1057.04	719.412
1061.46	1088.69
1065.88	1863.02
1070.29	4597.75
1074.7	14722.8
1079.11	32495
1083.52	42977.9
1087.92	43177
1092.32	26751.1
1096.72	11013
1101.12	3529.9
1105.51	1397.61
1109.9	479.119
1114.29	613.271
1118.67	483.566
1123.06	459.209
1127.43	246.848
1131.81	230.291
1136.18	39.6406
1140.56	176.982
1144.93	150.576
1149.29	178.889
1153.65	187.883
1158.02	82.8203
1162.37	164.014
1166.73	99.5996
1171.08	166.269
1175.43	220.07
1179.78	53.6621
1184.12	61.0527
1188.46	201.068
1192.8	138.754
1197.14	125.639
1201.47	29.7324
1205.8	123.996
1210.13	11.5781
1214.45	132.742
1218.78	207.691
1223.1	279.875
1227.41	48.082
1231.73	418.107
1236.04	242.723
1240.35	379.902
1244.65	330.426
1248.96	424.062
1253.26	381.154
1257.55	318.666
1261.85	179.441
1266.14	482.188
1270.43	349.557
1274.72	691.498
1279	446.514
1283.28	323.269
1287.56	534.637
1291.84	668.033
1296.11	160.098
1300.38	339.176
1304.64	320.213
1308.91	473.088
1313.17	345.559
1317.43	401.715
1321.68	241.57
1325.94	192.057
1330.19	285.213
1334.44	211.285
1338.68	222.531
1342.92	189.06
1347.16	148.406
1351.4	161.443
1355.63	30.7715
1359.86	39.2969
1364.09	23.9453
1368.32	91.3047
1372.54	160.619
1376.76	29.0059
1380.98	118.141
1385.19	347.709
1389.4	258.391
1393.61	338.518
1397.82	398.906
1402.02	461.125
1406.22	618.469
1410.42	418.363
1414.61	593.684
1418.8	456.055
1422.99	370.891
1427.18	783.953
1431.36	527.5
1435.54	392.367
1439.72	829.004
1443.89	656.391
1448.07	509.273
1452.24	461.293
1456.4	287.805
1460.57	320.922
1464.73	127.945
1468.88	186.551
1473.04	269.617
1477.19	127.203
1481.34	97.9844
1485.49	309.269
1489.63	62.9961
1493.77	76.2812
1497.91	88.8945
1502.05	363.629
1506.18	432.074
1510.31	279.094
1514.43	750.535
1518.56	461.301
1522.68	581.852
1526.8	436.816
1530.91	546.727
1535.02	338.227
1539.13	461.566
1543.24	730.57
1547.34	590.836
1551.44	61.6133
1555.54	91.0234
1559.64	370.027
1563.73	216.738
1567.82	23.082
1571.91	181.789
