Measurement: Raman, 514 nm, depolarized, Raman Data Processed
Mineral: Kyanite
Rruff sample: R050450
Ideal chemistry: Al_2_OSiO_4_
Locality: Switzerland
Source: Marcus Origlieri
Description: Blue bladed crystals
Measured chemistry: Al_2.00_OSi_1.00_O_4_
Pin_id: M01855
Orientation: Laser parallel to (1 1 0). Fiducial mark perpendicular to laser is parallel to c [0 0 1]
Raman shift (cm-1)	intensity
148.716	0
153.638	283.086
158.558	19.584
163.475	187.807
168.389	217.973
173.3	362.893
178.209	300.928
183.115	139.352
188.018	165.713
192.918	116.996
197.816	10.5488
202.711	495.965
207.604	1150.06
212.494	599.211
217.381	163.025
222.265	304.232
227.147	1273.18
232.026	549.086
236.902	56.1172
241.775	143.197
246.646	419.195
251.514	389.184
256.38	198.707
261.243	113.523
266.103	112.127
270.96	508.182
275.815	1406.41
280.667	1794.73
285.516	797.553
290.363	3150.26
295.207	6810.6
300.048	14618
304.887	14442.6
309.723	2103.56
314.556	1177.44
319.387	3660.39
324.215	10215.3
329.04	10541
333.862	1626.8
338.682	853.125
343.5	1485.48
348.314	486.266
353.126	1659.15
357.935	4331.58
362.742	6639.84
367.546	1357.9
372.347	1893.02
377.145	5024.32
381.941	8899.28
386.735	16735.6
391.525	11648.4
396.313	8579.42
401.098	6847.32
405.881	12958.5
410.661	3419.72
415.438	844.777
420.213	1197.43
424.985	757.543
429.754	2349.1
434.521	7638.1
439.285	14804.6
444.046	6836.58
448.805	4908.08
453.561	2167.11
458.315	553.666
463.065	1109.75
467.813	1730.44
472.559	1612.8
477.302	4794.74
482.042	16052.4
486.78	40436.6
491.515	24460.7
496.247	8119.33
500.977	2876.41
505.704	1381.98
510.428	1494.93
515.15	1305.17
519.869	332.973
524.586	18.0684
529.3	182.957
534.011	182.555
538.719	215.432
543.425	123.432
548.129	127.615
552.83	162.053
557.528	712.721
562.223	2918.58
566.916	2087.85
571.607	659.389
576.294	349.84
580.979	336.711
585.662	608.408
590.341	456.867
595.019	566.762
599.693	1411.86
604.365	3447.6
609.035	4207.83
613.701	2746.88
618.366	2952.92
623.027	2835.05
627.686	3323.93
632.342	3530.05
636.996	3794.48
641.647	3034.27
646.296	2182.74
650.942	2987.17
655.585	4228.68
660.226	4131.97
664.864	1953.88
669.499	1583.19
674.132	1058.65
678.763	499.312
683.39	322.453
688.015	106.436
692.638	20.2812
697.258	99.043
701.875	540.486
706.49	234.902
711.102	92.5176
715.712	16.7246
720.319	361.01
724.923	516.869
729.525	312.912
734.124	3.86719
738.721	170.33
743.315	18.418
747.907	191.498
752.496	96.1875
757.082	32.3301
761.666	43.709
766.247	169.428
770.826	326.644
775.402	120.408
779.975	0.150391
784.546	28.6797
789.115	268.244
793.681	147.75
798.244	59.1035
802.804	295.037
807.363	323.75
811.918	216.965
816.471	162.139
821.022	117.908
825.569	80.0176
830.115	305.166
834.657	272.766
839.198	370.6
843.735	714.307
848.27	774.561
852.803	649.312
857.333	980.66
861.86	1403.05
866.385	1349.87
870.907	1464.3
875.427	1670.52
879.944	2411.74
884.459	3847.72
888.971	6123.14
893.481	5980.27
897.988	3985.36
902.492	3020.85
906.994	2582.39
911.493	2094.62
915.99	2159.94
920.485	2715.59
924.976	3194.18
929.466	4677.69
933.952	7056.89
938.436	10366.6
942.918	14316.4
947.397	20806.2
951.874	24969.6
956.348	23623
960.819	20753.3
965.288	17645.2
969.755	10722.8
974.219	6071.68
978.68	3640.23
983.139	2658.29
987.595	1857.75
992.049	1754.44
996.501	3637.08
1000.95	6103.17
1005.4	5097.95
1009.84	1800.65
1014.28	1140
1018.72	588.455
1023.16	776.297
1027.59	538.027
1032.02	292.953
1036.45	52.5977
1040.88	60.1875
1045.3	231.391
1049.72	2.75391
1054.14	61.5664
1058.56	98.1914
1062.97	59.4141
1067.38	35.8555
1071.79	28.1133
1076.19	155.184
1080.6	117.746
1085	406.742
1089.4	355.414
1093.79	422.707
1098.19	111.812
1102.58	100.391
1106.97	48.707
1111.35	242.402
1115.74	28.4844
1120.12	126.094
1124.5	105.543
1128.87	0.605469
1133.25	119.957
1137.62	107.648
1141.99	91.5859
1146.35	21.4531
1150.72	364.207
1155.08	88.6133
1159.44	411.262
1163.79	13.0742
1168.15	150.676
1172.5	374.012
1176.85	343.961
1181.19	340.293
1185.54	419.934
1189.88	34.2031
1194.22	166.59
1198.55	163.359
1202.89	89.0547
1207.22	137.285
1211.55	48.5781
1215.88	366.613
1220.2	217.144
1224.52	362.176
1228.84	166.168
1233.16	731.059
1237.47	561.906
1241.78	278.418
1246.09	637.648
1250.4	541.613
1254.7	302.941
1259.01	559.812
1263.31	645.641
1267.6	1046.93
1271.9	1058.66
1276.19	750.871
1280.48	685.981
1284.77	571.312
1289.05	609.789
1293.33	920.43
1297.61	852.742
1301.89	751.949
1306.16	1071.61
1310.44	823.043
1314.71	1022.88
1318.97	1151.26
1323.24	1075.17
1327.5	922.887
1331.76	790.227
1336.02	739.633
1340.28	500.481
1344.53	581.188
1348.78	375.781
1353.03	633.535
1357.27	228.59
1361.52	580.023
1365.76	297.805
1370	477.348
1374.23	560.332
1378.47	463.098
1382.7	570.539
1386.93	355.102
1391.15	233.977
1395.38	184.766
1399.6	345.039
1403.82	86.6289
1408.03	271.711
1412.25	223.871
1416.46	245.379
1420.67	126.156
1424.88	167.078
1429.08	8.8125
1433.28	642.41
1437.48	894.09
1441.68	1101.39
1445.87	1752.4
1450.07	1860.88
1454.26	1861.81
1458.44	2186.12
1462.63	1353.78
1466.81	1283.84
1470.99	910.269
1475.17	533.797
1479.34	786.227
1483.52	645.738
1487.69	393.707
1491.86	535.617
1496.02	197.223
1500.19	326.848
1504.35	288.418
1508.51	122.691
1512.66	394.32
1516.82	221.34
1520.97	404.223
1525.12	434.25
1529.26	520.59
1533.41	452.406
1537.55	363.277
1541.69	394.91
1545.83	149.102
1549.96	110.637
1554.09	42
1558.22	332.84
1562.35	50.7812
