Measurement: Raman, 514 nm, depolarized, Raman Data Processed
Mineral: Kyanite
Rruff sample: R040119
Ideal chemistry: Al_2_OSiO_4_
Locality: Rutherford County, North Carolina, USA
Source: University of Arizona Mineral Museum
Description: Blue bladed crystal
Measured chemistry: (Al_0.99_Fe^3+^_0.01_)_2_OSi_1.00_O_4_
Pin_id: L00375
Orientation: Laser parallel to (0 1 1). Fiducial mark perpendicular to laser is parallel to a [1 0 0]
Raman shift (cm-1)	intensity
103.174	0
108.114	101.008
113.052	823.883
117.987	2038.9
122.919	97.1953
127.849	158.305
132.777	249.125
137.702	324.266
142.624	83.9531
147.544	391.102
152.461	291.297
157.375	309.062
162.287	785.609
167.197	892.578
172.104	1362.08
177.008	2113.49
181.91	957.094
186.809	704.742
191.706	830.305
196.6	824.344
201.491	1610.01
206.38	2822.01
211.267	1090.3
216.151	1453.52
221.032	3255.91
225.911	6828.38
230.787	1512.38
235.66	65.8359
240.531	77.9453
245.4	261.461
250.266	162.258
255.129	76.3594
259.99	1182.47
264.848	623.398
269.703	2153.8
274.556	7739.05
279.407	8159.29
284.255	6777.27
289.1	19687.3
293.942	33991.2
298.783	83160.2
303.62	51458.6
308.455	7729.48
313.288	6071.23
318.117	14521.5
322.945	41216.2
327.769	28882.5
332.591	3755.52
337.411	3408.2
342.228	4063.83
347.042	2567.43
351.854	8434.02
356.663	28578.6
361.47	30394.3
366.274	11732.2
371.075	20962.3
375.874	30828.7
380.67	48681.8
385.464	69299.1
390.255	66851.6
395.043	41878.7
399.829	52800.3
404.613	71696.3
409.393	17806.2
414.172	11589.2
418.947	17740.6
423.72	9108.28
428.49	16664.5
433.258	47296.1
438.024	59652.6
442.786	20763.8
447.546	17121.6
452.304	4592.84
457.059	1727.6
461.811	5777.88
466.56	8165.7
471.308	10678.1
476.052	31094.3
480.794	99566.3
485.533	201675
490.27	101403
495.004	40600.5
499.736	15229.7
504.465	10879
509.191	13163
513.915	9783.91
518.636	2335.71
523.354	659.055
528.07	569.148
532.784	1592.9
537.494	496.656
542.203	2764.48
546.908	3884.68
551.611	3180.41
556.311	10001.1
561.009	27951.3
565.704	19548
570.397	15512
575.087	10001.3
579.774	3754.95
584.459	2501.34
589.141	1642.59
593.821	1134.59
598.498	3718.34
603.172	7948.4
607.844	7727.95
612.513	4856.77
617.18	4972.72
621.844	4336.29
626.505	4797.38
631.164	10843.3
635.82	18946.4
640.473	12331.2
645.124	6091.69
649.773	8516.76
654.418	14404.1
659.062	12694.8
663.702	8370.58
668.34	9531.98
672.975	7054.78
677.608	2902.9
682.238	2629.41
686.866	2302.94
691.49	1204.82
696.113	1153.48
700.732	2144.44
705.349	1878.84
709.964	1223.02
714.576	330.836
719.185	202.836
723.792	1304.86
728.396	656.227
732.997	570.805
737.596	776.516
742.192	1057.27
746.785	1176.98
751.376	717.086
755.965	382.375
760.551	97.9531
765.134	298.891
769.714	459.469
774.292	602.812
778.867	38.8438
783.44	327.781
788.01	435.094
792.578	410.422
797.142	270.422
801.705	170.578
806.264	584.625
810.821	648.438
815.376	575.266
819.927	226.516
824.476	592.266
829.023	838.969
833.567	1093.14
838.108	1205.44
842.647	1483.42
847.183	2299.59
851.716	2620.95
856.247	3422.34
860.776	3976.2
865.301	5675.34
869.824	7957.92
874.345	11952.5
878.862	19213.9
883.377	32853.1
887.89	55277.9
892.4	58956
896.907	62385.2
901.412	69746.5
905.914	44417
910.413	23911
914.91	17644.3
919.404	15807.8
923.896	16966.8
928.385	21697.2
932.871	29719.1
937.355	40733.2
941.836	52462.8
946.315	65196.1
950.79	72378.7
955.264	79287.2
959.734	87717.2
964.202	74122.6
968.668	45850.4
973.131	27613.2
977.591	17566.8
982.048	12794.8
986.503	9776.3
990.955	9680.62
995.405	12468.6
999.852	17812.2
1004.3	13575.9
1008.74	7434.12
1013.18	4889.42
1017.61	3398.47
1022.05	2802.86
1026.48	1767.97
1030.91	1427.06
1035.33	724.516
1039.76	541.5
1044.18	814.859
1048.6	701.016
1053.01	241.281
1057.42	575.359
1061.84	560.297
1066.24	288.594
1070.65	570.922
1075.05	449.328
1079.45	49.6094
1083.85	272.422
1088.24	581.047
1092.63	110.141
1097.02	585.125
1101.41	643.672
1105.8	52.4688
1110.18	987.484
1114.56	97.2812
1118.93	100.812
1123.31	689.594
1127.68	490.641
1132.04	44
1136.41	212.047
1140.77	269.625
1145.13	420.688
1149.49	564.891
1153.85	669.141
1158.2	269.672
1162.55	535.516
1166.9	447.688
1171.24	308.969
1175.58	302.812
1179.92	484.859
1184.26	737.922
1188.6	647
1192.93	33.4688
1197.26	259.703
1201.58	121.984
1205.9	69.0156
1210.23	18.1719
1214.55	357.312
1218.86	45.6719
1223.17	986.062
1227.48	1184.66
1231.79	628.328
1236.1	1448.03
1240.4	1088.7
1244.7	930.359
1249	881.938
1253.29	784.594
1257.59	478.375
1261.88	951.188
1266.16	681.656
1270.45	530.391
1274.73	900.844
1279.01	560.438
1283.28	1121.64
1287.56	861.109
1291.83	589.734
1296.1	612.344
1300.36	1101.56
1304.63	1441.81
1308.89	1918.97
1313.15	1096.75
1317.4	1268.09
1321.65	648.266
1325.9	1008.22
1330.15	977.125
1334.4	1397.14
1338.64	795.328
1342.88	1045.56
1347.12	1024.62
1351.35	1082.14
1355.58	863.766
1359.81	641.766
1364.04	568.172
1368.26	1032.97
1372.48	1027.7
1376.7	750.266
1380.92	1219.44
1385.13	956.906
1389.34	1203.64
1393.55	1026.17
1397.76	1240.36
1401.96	720.797
1406.16	1034.52
1410.36	1302.84
1414.55	1244.86
1418.75	1142.25
1422.94	1243.02
1427.12	1322.62
1431.31	906.281
1435.49	748.422
1439.67	1341.83
1443.85	176.469
1448.02	799.891
1452.19	108.047
1456.36	205.344
1460.53	795.484
1464.69	191.625
1468.85	712.203
1473.01	744.609
1477.17	66.0781
1481.32	1087.42
1485.47	674.531
1489.62	796.656
1493.76	822.719
1497.91	975.781
1502.05	967.688
1506.18	173.688
1510.32	982.734
1514.45	701.328
1518.58	523.453
1522.71	726.359
1526.83	59.3906
1530.95	971.844
1535.07	1138.67
1539.19	781.859
1543.3	511.781
1547.41	356.625
1551.52	819.656
1555.63	1720.31
1559.73	655.375
1563.83	125.469
1567.93	508.828
1572.03	690.531
1576.12	3.375
