Measurement: Raman, 514 nm, depolarized, Raman Data Processed
Mineral: Kyanite
Rruff sample: R050450
Ideal chemistry: Al_2_OSiO_4_
Locality: Switzerland
Source: Marcus Origlieri
Description: Blue bladed crystals
Measured chemistry: Al_2.00_OSi_1.00_O_4_
Pin_id: M00970
Orientation: Laser parallel to -a* (-1 0 0). Fiducial mark perpendicular to laser is parallel to b [0 1 0]
Raman shift (cm-1)	intensity
148.716	0
153.638	29.5561
158.558	66.8325
163.475	85.4834
168.389	96.6094
173.3	235.76
178.209	44.5679
183.115	57.1401
188.018	16.4634
192.918	16.7261
197.816	249.946
202.711	374.223
207.604	986.861
212.494	200.363
217.381	103.704
222.265	252.718
227.147	816.165
232.026	207.486
236.902	52.4507
241.775	126.004
246.646	234.848
251.514	201.456
256.38	92.165
261.243	37.0215
266.103	162.075
270.96	498.722
275.815	1938.49
280.667	2181.7
285.516	879.793
290.363	3625.58
295.207	5384.03
300.048	15100.6
304.887	11507.5
309.723	1418.36
314.556	1175.14
319.387	3440.84
324.215	12606.6
329.04	10020.2
333.862	1252.35
338.682	1000.04
343.5	1564.37
348.314	520.038
353.126	1630.32
357.935	4746.48
362.742	6701.1
367.546	1694.59
372.347	3742.73
377.145	6321.48
381.941	9775.84
386.735	17552.1
391.525	11773.5
396.313	7237.84
401.098	8607.62
405.881	16381.2
410.661	3114.08
415.438	924.146
420.213	1773.68
424.985	896.615
429.754	2671.96
434.521	8796.76
439.285	15809.2
444.046	4962.98
448.805	4545.13
453.561	1420.65
458.315	362.602
463.065	963.018
467.813	1522.92
472.559	1399.43
477.302	4899.55
482.042	15884.4
486.78	45236.8
491.515	20441.7
496.247	7287.14
500.977	2361.08
505.704	1317.68
510.428	1623.93
515.15	1340.53
519.869	344.468
524.586	17.7168
529.3	190.112
534.011	224.82
538.719	130.35
543.425	51.4033
548.129	196.685
552.83	284.33
557.528	1184.96
562.223	4325.06
566.916	2718.16
571.607	846.357
576.294	550.058
580.979	766.562
585.662	1233.34
590.341	815.956
595.019	623.295
599.693	1359.25
604.365	3097.28
609.035	3810.19
613.701	2051.64
618.366	2455.14
623.027	2519.64
627.686	3177.38
632.342	3866.87
636.996	4683.82
641.647	3231.91
646.296	2154
650.942	2750.24
655.585	4236.43
660.226	3305.75
664.864	1751.78
669.499	1474.85
674.132	924.594
678.763	283.987
683.39	245.191
688.015	173.207
692.638	24.1602
697.258	74.6377
701.875	334.786
706.49	325.602
711.102	128.081
715.712	26.9629
720.319	43.1357
724.923	204.9
729.525	60.3018
734.124	4.68066
738.721	20.1328
743.315	106.911
747.907	40.6123
752.496	72.1191
757.082	57.1397
761.666	27.6074
766.247	47.8828
770.826	60.1738
775.402	6.68945
779.975	40.5088
784.546	73.1006
789.115	75.7744
793.681	81.5273
798.244	103.185
802.804	151.472
807.363	12.751
811.918	83.2734
816.471	198.977
821.022	156.701
825.569	191.238
830.115	258.722
834.657	319.656
839.198	447.481
843.735	478.084
848.27	501.476
852.803	797.434
857.333	975.634
861.86	1139.49
866.385	985.724
870.907	889.269
875.427	1067.26
879.944	1395.3
884.459	1970.64
888.971	2646.23
893.481	2732.46
897.988	3169.48
902.492	3586.56
906.994	2685.48
911.493	2115.25
915.99	2240.9
920.485	2712.77
924.976	3512.98
929.466	4911.52
933.952	7573.88
938.436	11111.2
942.918	15778.6
947.397	23538
951.874	29081
956.348	25801.2
960.819	23072.6
965.288	18307.2
969.755	10783.9
974.219	6071.68
978.68	3959.63
983.139	2562.72
987.595	2086.38
992.049	2159.09
996.501	3351.06
1000.95	5743.34
1005.4	3989.43
1009.84	1726.26
1014.28	1026.11
1018.72	787.191
1023.16	806.877
1027.59	589.743
1032.02	265.127
1036.45	251.657
1040.88	48.9707
1045.3	70.7568
1049.72	28.7227
1054.14	77.3936
1058.56	24.3018
1062.97	100.482
1067.38	55.6065
1071.79	44.1416
1076.19	74.0361
1080.6	274.429
1085	337.45
1089.4	334.922
1093.79	246.584
1098.19	91.9453
1102.58	144.307
1106.97	98.6758
1111.35	55.0478
1115.74	198.419
1120.12	3.82617
1124.5	56.1055
1128.87	81.3887
1133.25	96.5781
1137.62	16.5996
1141.99	15.499
1146.35	9.74902
1150.72	60.1191
1155.08	48.916
1159.44	76.7744
1163.79	20.1777
1168.15	153.452
1172.5	102.636
1176.85	106.707
1181.19	124.972
1185.54	16.2139
1189.88	0.224609
1194.22	123.683
1198.55	32.8926
1202.89	83.3311
1207.22	24.3926
1211.55	56.5312
1215.88	37.332
1220.2	156.804
1224.52	106.981
1228.84	263.325
1233.16	258.204
1237.47	435.906
1241.78	324.428
1246.09	279.907
1250.4	390.968
1254.7	479.062
1259.01	393.05
1263.31	588.585
1267.6	352.327
1271.9	747.726
1276.19	561.963
1280.48	539.192
1284.77	319.022
1289.05	351.94
1293.33	404.769
1297.61	615.856
1301.89	456.173
1306.16	655.11
1310.44	725.047
1314.71	659.223
1318.97	602.577
1323.24	585.892
1327.5	475.075
1331.76	192.092
1336.02	261.987
1340.28	172.227
1344.53	229.463
1348.78	128.375
1353.03	99.8418
1357.27	258.576
1361.52	219.054
1365.76	171.294
1370	149.356
1374.23	118.79
1378.47	237.672
1382.7	165.763
1386.93	265.49
1391.15	199.82
1395.38	54.3057
1399.6	55.4492
1403.82	6.08594
1408.03	26.3779
1412.25	47.624
1416.46	26.7803
1420.67	24.9951
1424.88	108.094
1429.08	227.252
1433.28	322.862
1437.48	588.957
1441.68	855.038
1445.87	1049.76
1450.07	1279.75
1454.26	1270.94
1458.44	1222.09
1462.63	1057.76
1466.81	755.088
1470.99	565.101
1475.17	575.05
1479.34	587.779
1483.52	476.32
1487.69	243.768
1491.86	218.564
1496.02	101.926
1500.19	178.694
1504.35	91.6289
1508.51	159.428
1512.66	3.98242
1516.82	44.3174
1520.97	221.203
1525.12	188.999
1529.26	106.607
1533.41	141.756
1537.55	413.184
1541.69	180.858
1545.83	41.8682
1549.96	44.3115
1554.09	190.256
1558.22	137.052
1562.35	194.981
