Measurement: Raman, 514 nm, depolarized, Raman Data Processed
Mineral: Kyanite
Rruff sample: R050450
Ideal chemistry: Al_2_OSiO_4_
Locality: Switzerland
Source: Marcus Origlieri
Description: Blue bladed crystals
Measured chemistry: Al_2.00_OSi_1.00_O_4_
Pin_id: M01448
Orientation: Laser parallel to -c* (0 0 -1). Fiducial mark perpendicular to laser is parallel to -a [-1 0 0]
Raman shift (cm-1)	intensity
148.716	0
153.638	331.866
158.558	147.201
163.475	164.96
168.389	2.65234
173.3	122.461
178.209	318.557
183.115	86.9609
188.018	198.032
192.918	240.574
197.816	294.779
202.711	368.047
207.604	303.312
212.494	243.2
217.381	4.54004
222.265	34.5928
227.147	449.24
232.026	152.11
236.902	55.4971
241.775	32.4014
246.646	188.808
251.514	67.3301
256.38	113.328
261.243	956.797
266.103	104.735
270.96	141.874
275.815	268.608
280.667	712.594
285.516	175.869
290.363	1016.43
295.207	1961.23
300.048	4495.51
304.887	4600.53
309.723	486.294
314.556	253.329
319.387	1020.57
324.215	3168.72
329.04	3504.79
333.862	421.219
338.682	44.9951
343.5	338.025
348.314	25.1631
353.126	315.445
357.935	1084.01
362.742	1909.38
367.546	624.863
372.347	2058.25
377.145	2475.89
381.941	2517.69
386.735	4175.63
391.525	4719.01
396.313	2776.92
401.098	1867.76
405.881	4423.32
410.661	1267.43
415.438	551.703
420.213	1414.13
424.985	465.685
429.754	616.354
434.521	1917.13
439.285	3689.15
444.046	1439.09
448.805	1253.3
453.561	231.703
458.315	346.463
463.065	8.74023
467.813	275.201
472.559	393.342
477.302	1253.7
482.042	4604.18
486.78	14062.7
491.515	7909.55
496.247	2862.65
500.977	1093.52
505.704	560.541
510.428	841.658
515.15	972.809
519.869	283.135
524.586	47.7148
529.3	70.7793
534.011	17.2051
538.719	25.7207
543.425	245.07
548.129	92.8769
552.83	87.3672
557.528	420.478
562.223	1545.7
566.916	1303.49
571.607	946.33
576.294	776.875
580.979	407.746
585.662	590.883
590.341	261.856
595.019	69.3066
599.693	413.705
604.365	617.856
609.035	960.666
613.701	432.58
618.366	548.578
623.027	397.898
627.686	420.402
632.342	709.217
636.996	1005.97
641.647	861.529
646.296	435.734
650.942	468.602
655.585	813.885
660.226	916.289
664.864	701.086
669.499	695.402
674.132	559.457
678.763	293.779
683.39	449.594
688.015	163.57
692.638	37.7734
697.258	303.225
701.875	171.219
706.49	296.033
711.102	200.662
715.712	182.562
720.319	319.285
724.923	466.301
729.525	147.902
734.124	177.156
738.721	5.57422
743.315	112.357
747.907	188.742
752.496	81.4883
757.082	178.519
761.666	150.084
766.247	218.644
770.826	6.12109
775.402	102.016
779.975	11.5312
784.546	23.5273
789.115	129.998
793.681	101.926
798.244	68.2773
802.804	0.267578
807.363	28.1172
811.918	144.062
816.471	219.94
821.022	20.9551
825.569	128.934
830.115	30.6621
834.657	146.557
839.198	21.4707
843.735	120.662
848.27	66.1113
852.803	330.32
857.333	203.912
861.86	199.721
866.385	458.91
870.907	582.18
875.427	762.678
879.944	1408.91
884.459	2528.75
888.971	4197.2
893.481	5007.19
897.988	4858.97
902.492	5147.08
906.994	3525.69
911.493	1413.79
915.99	1361.72
920.485	1104.96
924.976	1039.07
929.466	1361.87
933.952	1971
938.436	2832.01
942.918	3885.4
947.397	5837.71
951.874	7030.39
956.348	6350.68
960.819	5323.82
965.288	4330.5
969.755	2790.32
974.219	1627.98
978.68	1095.14
983.139	978.668
987.595	740.416
992.049	726.729
996.501	827.49
1000.95	1164.23
1005.4	1187.29
1009.84	507.934
1014.28	452.238
1018.72	289.268
1023.16	292.994
1027.59	132.857
1032.02	104.252
1036.45	36.1289
1040.88	226.728
1045.3	401.356
1049.72	31.4453
1054.14	367.357
1058.56	263.42
1062.97	58.5312
1067.38	297.988
1071.79	340.201
1076.19	175.463
1080.6	8.12891
1085	29.6895
1089.4	268.846
1093.79	161.869
1098.19	30.6758
1102.58	166.803
1106.97	141.59
1111.35	87.6543
1115.74	129.758
1120.12	110.894
1124.5	43.7754
1128.87	249.41
1133.25	103.357
1137.62	231.553
1141.99	186.266
1146.35	4.55078
1150.72	223.178
1155.08	750.35
1159.44	73.4648
1163.79	87.7188
1168.15	256.074
1172.5	198.324
1176.85	253.617
1181.19	124.121
1185.54	144.465
1189.88	71.1211
1194.22	438.309
1198.55	246.508
1202.89	190.25
1207.22	384.035
1211.55	85.2852
1215.88	265.203
1220.2	279.695
1224.52	426.477
1228.84	213.973
1233.16	70.5781
1237.47	216.422
1241.78	365.637
1246.09	20.7539
1250.4	194.769
1254.7	166.398
1259.01	164.027
1263.31	356.996
1267.6	113.609
1271.9	242.172
1276.19	422.914
1280.48	13.3203
1284.77	231.09
1289.05	196.809
1293.33	209.824
1297.61	348.977
1301.89	207.703
1306.16	287.082
1310.44	279.203
1314.71	375.762
1318.97	348.801
1323.24	271.191
1327.5	297.008
1331.76	155.848
1336.02	482.363
1340.28	338.582
1344.53	166.492
1348.78	49.0547
1353.03	280.953
1357.27	138.051
1361.52	14
1365.76	503.148
1370	433.258
1374.23	149.844
1378.47	41.3359
1382.7	360.484
1386.93	53.1523
1391.15	123.449
1395.38	258.492
1399.6	328.25
1403.82	210.773
1408.03	369.383
1412.25	93.1797
1416.46	250.242
1420.67	40.1211
1424.88	130.672
1429.08	147.465
1433.28	286.59
1437.48	502.332
1441.68	174.297
1445.87	73.3281
1450.07	225.113
1454.26	213.543
1458.44	223.707
1462.63	114.09
1466.81	256.316
1470.99	243.148
1475.17	89.6641
1479.34	361.496
1483.52	555.984
1487.69	167.621
1491.86	88.1992
1496.02	4.73438
1500.19	437.785
1504.35	193.984
1508.51	347.809
1512.66	197.769
1516.82	82.6562
1520.97	393.547
1525.12	114.672
1529.26	314.992
1533.41	146.769
1537.55	336.356
1541.69	388.051
1545.83	18.5625
1549.96	281.738
1554.09	196.16
1558.22	37.3008
1562.35	0.433594
