Measurement: Raman, 514 nm, ccw, Raman Data Processed
Mineral: Kyanite
Rruff sample: R040119
Ideal chemistry: Al_2_OSiO_4_
Locality: Rutherford County, North Carolina, USA
Source: University of Arizona Mineral Museum
Description: Blue bladed crystal
Measured chemistry: (Al_0.99_Fe^3+^_0.01_)_2_OSi_1.00_O_4_
Pin_id: L00051
Orientation: Laser parallel to b* (0 1 0). Fiducial mark perpendicular to laser is parallel to -c [0 0 -1]
Raman shift (cm-1)	intensity
67.281	0
72.24	1818.46
77.196	2261.51
82.15	2148.72
87.101	505.113
92.049	1215.06
96.995	268.582
101.939	744.144
106.879	2108.03
111.818	1495.84
116.753	2188.25
121.686	999.148
126.617	272.438
131.545	172.926
136.471	429.211
141.393	365.324
146.314	265.125
151.232	476.383
156.147	1311.75
161.06	412.066
165.97	447.008
170.877	601.336
175.782	1200.65
180.685	890.234
185.585	282.891
190.482	369.344
195.377	194.258
200.269	266.269
205.158	360.809
210.045	30.5625
214.93	69.6016
219.812	557.457
224.691	805.906
229.568	724.969
234.442	99.8789
239.314	80.7695
244.183	215.496
249.049	114.316
253.913	2.80469
258.775	109.863
263.633	325.422
268.49	179.859
273.343	1352.63
278.194	2360.23
283.043	865.543
287.889	3606.97
292.732	7768.56
297.573	13180.7
302.411	16851.8
307.247	3293.58
312.08	1459.92
316.91	3115.82
321.738	6273.66
326.563	9145.56
331.386	1595.38
336.206	823.648
341.024	1827.98
345.839	781.953
350.651	1333.49
355.461	5220.81
360.268	10059.1
365.073	4174.72
369.875	4396.67
374.674	7839.55
379.471	10400.2
384.266	12525.6
389.057	12747.5
393.846	11044.3
398.633	8601.06
403.417	14669.3
408.198	6672.86
412.977	2469.12
417.753	3988.73
422.527	3151.66
427.298	3037.98
432.067	8179.66
436.832	14454.7
441.596	8699.24
446.356	3582.32
451.115	2209.33
455.87	269.867
460.623	302.055
465.373	424.969
470.121	798.5
474.866	4314.68
479.609	14538.8
484.349	32045.5
489.086	27892
493.821	10599.2
498.553	4050.09
503.283	2084.11
508.01	3526.66
512.734	3856.23
517.456	1771.92
522.175	229.586
526.892	226.578
531.606	437.031
536.317	143.938
541.026	419.18
545.732	1416.34
550.436	1201.28
555.137	2575.79
559.835	6242.06
564.531	7593.48
569.224	3636.49
573.915	2673
578.603	1250.51
583.288	566.43
587.971	673.383
592.651	488.641
597.329	1151.92
602.004	2875.8
606.676	4490.12
611.346	2890.02
616.013	1860.34
620.678	1828.81
625.34	1919.52
629.999	2513.19
634.656	2444.92
639.31	1581.54
643.962	962.234
648.611	846.781
653.257	867.906
657.901	1185.12
662.542	979.672
667.181	1735.12
671.817	1471.12
676.45	777.906
681.081	986.227
685.709	682.828
690.334	240.617
694.957	263.945
699.578	278.047
704.195	533.086
708.811	528.859
713.423	310.328
718.033	216.32
722.64	65.7266
727.245	266.406
731.847	220.891
736.446	17.5703
741.043	109.414
745.637	561.414
750.229	465.695
754.818	366.195
759.404	610.922
763.988	239.758
768.569	500.477
773.148	244.469
777.724	258.289
782.297	65.6719
786.868	36.1016
791.436	165.773
796.001	166.648
800.564	431.547
805.125	210.211
809.682	550.117
814.237	399.812
818.79	513.594
823.339	398.211
827.887	757.641
832.431	596.336
836.973	688.789
841.513	745.281
846.049	959.734
850.583	959.289
855.115	1421.85
859.644	1409.02
864.17	1198.66
868.694	1874.2
873.215	2413.72
877.733	3059.57
882.249	4755.8
886.762	7460.48
891.273	10177.1
895.781	11760.4
900.286	15805.2
904.789	12778.1
909.289	7768.71
913.786	5378.39
918.281	5417.21
922.773	4780.98
927.263	6436.86
931.75	7728.62
936.234	9679.23
940.716	12479.7
945.195	16700.1
949.672	22212.9
954.146	21998.7
958.617	20777.2
963.086	18264.2
967.552	12797.6
972.015	7708.37
976.476	5551.34
980.934	3854.45
985.39	2919.35
989.843	3534.62
994.293	4391.41
998.741	6523.16
1003.19	6583.21
1007.63	3612.84
1012.07	2276.05
1016.5	1299.68
1020.94	1021.77
1025.37	740.977
1029.8	1045.72
1034.23	504.031
1038.65	171.055
1043.07	334.953
1047.49	12.1641
1051.91	9.66406
1056.32	29.2812
1060.73	260.859
1065.14	125.711
1069.55	262.398
1073.95	502.578
1078.35	153.258
1082.75	569.648
1087.14	44.1719
1091.54	726.219
1095.93	207.055
1100.31	376.695
1104.7	514.141
1109.08	462.383
1113.46	765.422
1117.84	321.273
1122.21	447.727
1126.58	28.2344
1130.95	93.5234
1135.32	266.578
1139.68	408.453
1144.04	687.938
1148.4	114.758
1152.76	198.375
1157.11	67.9844
1161.46	169.508
1165.81	679.945
1170.16	385.609
1174.5	376.148
1178.84	330.516
1183.18	167.469
1187.51	671.648
1191.84	370.18
1196.17	57.7422
1200.5	58.0938
1204.83	509.648
1209.15	219.727
1213.47	251.609
1217.78	74.0625
1222.1	386.375
1226.41	655.578
1230.72	545.047
1235.02	490.609
1239.33	325.359
1243.63	652.25
1247.92	104.297
1252.22	141.5
1256.51	398.75
1260.8	412.453
1265.09	5.09375
1269.38	98.8438
1273.66	460.781
1277.94	248.812
1282.21	73.6562
1286.49	456.812
1290.76	800.578
1295.03	706.703
1299.3	309.172
1303.56	484.141
1307.82	640.797
1312.08	252.125
1316.34	353.484
1320.59	584.812
1324.84	969.375
1329.09	1495.62
1333.34	602.25
1337.58	291.094
1341.82	264.141
1346.06	682.391
1350.29	28.3125
1354.53	497.672
1358.76	426.078
1362.98	917.344
1367.21	434.109
1371.43	860.391
1375.65	240.172
1379.87	523.703
1384.08	779.578
1388.29	755.031
1392.5	317.062
1396.71	592.484
1400.91	956.625
1405.11	379.375
1409.31	604.406
1413.51	495.469
1417.7	379.109
1421.89	451.531
1426.08	702.609
1430.26	935.438
1434.44	604.109
1438.62	14.75
1442.8	1208.44
1446.98	1075.12
1451.15	768.594
1455.32	1037.88
1459.49	64.4844
1463.65	453.203
1467.81	552.922
1471.97	365.359
1476.13	912.578
1480.28	74.3281
1484.43	837.766
1488.58	491.875
1492.73	458.969
1496.87	406.422
1501.01	739.625
1505.15	318.641
1509.29	211.188
1513.42	427.391
1517.55	784.312
1521.67	261.422
1525.8	623.656
1529.92	124.328
1534.04	819.438
1538.16	217.047
1542.27	675.297
1546.39	212.875
1550.49	648.281
1554.6	1019.64
1558.71	7.96875
1562.81	17.8438
1566.91	550.703
1571	24.1875
1575.1	299.734
