Measurement: Raman, 514 nm, ccw, Raman Data Processed
Mineral: Kyanite
Rruff sample: R040119
Ideal chemistry: Al_2_OSiO_4_
Locality: Rutherford County, North Carolina, USA
Source: University of Arizona Mineral Museum
Description: Blue bladed crystal
Measured chemistry: (Al_0.99_Fe^3+^_0.01_)_2_OSi_1.00_O_4_
Pin_id: L00103
Orientation: Laser parallel to c* (0 0 1). Fiducial mark perpendicular to laser is parallel to a [1 0 0]
Raman shift (cm-1)	intensity
95.759	0
100.703	813.025
105.644	3848.55
110.583	2806.96
115.52	3688.48
120.453	2645.6
125.385	606.205
130.313	615.914
135.239	528.033
140.163	668.471
145.084	614.553
150.002	479.598
154.918	290.932
159.832	316.481
164.742	111.406
169.651	61.4238
174.556	20.3633
179.459	342.102
184.36	187.185
189.258	335.113
194.153	842.449
199.046	2189.45
203.936	5673.91
208.824	5292.39
213.709	1062.62
218.592	651.309
223.472	1391.64
228.349	991.926
233.224	153.711
238.096	140.731
242.966	1154.47
247.833	611.793
252.698	232.019
257.56	459.965
262.419	1132.01
267.276	150.356
272.13	3503.8
276.982	8842.64
281.831	5639.8
286.677	10136.8
291.521	24877.6
296.363	50540.1
301.202	78678.8
306.038	22258.9
310.872	9511.22
315.703	21070.3
320.531	59421.4
325.357	95587.9
330.181	27432
335.001	8361.84
339.82	10045.4
344.635	6810.49
349.448	4787.98
354.259	9324.86
359.067	19169.2
363.872	17515.9
368.675	31998.2
373.475	44377
378.272	51936
383.067	72838.4
387.86	64892.9
392.649	57855.4
397.437	33957.7
402.221	57189.8
407.003	31082.2
411.783	6062.24
416.56	3503.71
421.334	3328.55
426.106	8714.79
430.875	27592.5
435.641	58539.6
440.405	42338.3
445.167	20429.5
449.925	12795.2
454.681	2931.38
459.435	1561.18
464.186	3390.57
468.934	6947.76
473.68	20621.9
478.423	69855.3
483.164	181745
487.902	187425
492.637	71317
497.37	26970
502.1	12633.5
506.828	10868.2
511.553	10662.3
516.276	4784.25
520.995	920.625
525.713	514.656
530.427	724.273
535.139	738.902
539.849	180.148
544.556	95.0742
549.26	302.336
553.962	662.621
558.661	3829.71
563.357	6455.37
568.051	3865.34
572.742	3438.09
577.431	5207
582.117	9497.16
586.801	10195.5
591.481	3922.92
596.16	2827.35
600.835	4341.68
605.508	6515.84
610.179	5894.73
614.847	6902.25
619.512	7544.31
624.175	7916.36
628.835	11747.7
633.492	18677.3
638.147	19739.2
642.799	9590.32
647.449	6175.38
652.096	6674.73
656.74	7058.94
661.382	5832.8
666.021	6897.73
670.658	7738.32
675.292	5697.07
679.923	4678.84
684.552	4404.68
689.178	4213.88
693.802	4859.15
698.423	5605.82
703.041	6396.22
707.657	5418.89
712.27	4882.76
716.881	4699.75
721.489	5756.8
726.094	5843.84
730.697	4655.8
735.297	3826.62
739.894	2980.25
744.489	2171.62
749.081	1556.69
753.671	1570.41
758.258	483.719
762.842	172.57
767.424	145.375
772.003	8.10156
776.58	246.281
781.154	292.254
785.725	294.82
790.294	452.332
794.86	220.461
799.424	87.2617
803.985	81.4453
808.543	154.977
813.099	577.129
817.652	258.086
822.202	728.457
826.75	709.379
831.295	623.938
835.838	633.856
840.378	851.207
844.915	1514
849.45	1661.25
853.982	2474.97
858.512	3161.18
863.039	3934.93
867.563	5358.34
872.085	8209.44
876.604	12478.2
881.12	20010.9
885.634	34105.7
890.145	44992.4
894.654	41037.1
899.16	40195.2
903.663	33553.6
908.164	20748.9
912.662	15151.5
917.158	14916.1
921.651	16760.7
926.141	19693.7
930.628	26331.7
935.113	36324.1
939.596	49931.1
944.076	68400.4
948.553	85620.8
953.027	86866.5
957.499	74132.6
961.969	64431.8
966.435	46449.8
970.899	29319.2
975.361	18949.2
979.82	13245.4
984.276	10080.8
988.73	8138.63
993.181	7396.94
997.629	8745.91
1002.08	8623.35
1006.52	5873.63
1010.96	4012.01
1015.4	2934.86
1019.83	2953.32
1024.26	2133.25
1028.69	1562.83
1033.12	1299.13
1037.55	930.055
1041.97	429.047
1046.39	824.656
1050.81	477.32
1055.22	201.859
1059.63	169.473
1064.04	539.781
1068.45	690.894
1072.85	674.203
1077.25	718.551
1081.65	704.094
1086.05	463.676
1090.44	377.43
1094.83	361.789
1099.22	39.6836
1103.6	163.102
1107.99	60.9805
1112.37	197.352
1116.74	54.0625
1121.12	65.6055
1125.49	118.477
1129.86	122.238
1134.23	135.242
1138.59	91.0469
1142.95	68.9336
1147.31	381.09
1151.67	158.188
1156.02	34.5195
1160.38	10.0312
1164.72	126.578
1169.07	292.949
1173.41	60.3125
1177.75	158.535
1182.09	26.5586
1186.43	45.4883
1190.76	63.1992
1195.09	86.5586
1199.42	322.359
1203.74	657.902
1208.07	279.637
1212.39	131.258
1216.7	383.023
1221.02	563.676
1225.33	349.266
1229.64	401.148
1233.95	543.984
1238.25	960.242
1242.55	834.516
1246.85	868.758
1251.15	531.039
1255.44	682.859
1259.73	443.484
1264.02	952.477
1268.31	451.117
1272.59	1056.51
1276.87	475.57
1281.15	406.039
1285.42	751.32
1289.69	660.719
1293.96	514.898
1298.23	714.023
1302.5	591.898
1306.76	813.648
1311.02	829.125
1315.27	459.945
1319.53	485.148
1323.78	620.336
1328.03	355.438
1332.28	338.758
1336.52	66.7734
1340.76	584.555
1345	209.055
1349.23	149.312
1353.47	558.562
1357.7	115.875
1361.93	155.297
1366.15	327.758
1370.37	442.289
1374.59	436.758
1378.81	807.148
1383.03	472.867
1387.24	531.477
1391.45	203.68
1395.65	438.188
1399.86	168.906
1404.06	418.18
1408.26	455.703
1412.46	166.414
1416.65	494.773
1420.84	180.414
1425.03	207.406
1429.22	294.945
1433.4	95.5859
1437.58	101.852
1441.76	260.008
1445.93	341.266
1450.11	224.609
1454.28	654.008
1458.44	712.172
1462.61	474.68
1466.77	285.781
1470.93	604.297
1475.09	177.25
1479.24	663.953
1483.39	259.469
1487.54	177.508
1491.69	114.406
1495.84	102.766
1499.98	222.25
1504.12	288.562
1508.25	47.3359
1512.38	282.195
1516.52	334.672
1520.64	725.5
1524.77	750.078
1528.89	864.984
1533.01	413.211
1537.13	793.148
1541.25	241.797
1545.36	382.336
1549.47	381.555
1553.58	274.719
1557.68	508.117
1561.78	495.32
1565.88	466.32
1569.98	217.359
1574.07	4.0625
1578.16	0
