Measurement: Raman, 514 nm, ccw, Raman Data Processed
Mineral: Kyanite
Rruff sample: R040119
Ideal chemistry: Al_2_OSiO_4_
Locality: Rutherford County, North Carolina, USA
Source: University of Arizona Mineral Museum
Description: Blue bladed crystal
Measured chemistry: (Al_0.99_Fe^3+^_0.01_)_2_OSi_1.00_O_4_
Pin_id: L00375
Orientation: Laser parallel to (0 1 1). Fiducial mark perpendicular to laser is parallel to a [1 0 0]
Raman shift (cm-1)	intensity
103.174	0
108.114	640.008
113.052	653.664
117.987	1302.32
122.919	384.07
127.849	229.039
132.777	353.867
137.702	537.734
142.624	297.008
147.544	1050.16
152.461	1210.05
157.375	694.203
162.287	1186.96
167.197	1406.9
172.104	1424.47
177.008	2473.53
181.91	2206.27
186.809	2400.29
191.706	2191.89
196.6	2116.43
201.491	2312.22
206.38	2944.5
211.267	1781.12
216.151	2844.91
221.032	6945
225.911	13363.6
230.787	3486.18
235.66	430.328
240.531	272.523
245.4	640.75
250.266	212.984
255.129	238.539
259.99	624.992
264.848	257.352
269.703	2283.09
274.556	7820.4
279.407	10230.1
284.255	11535.7
289.1	34215.3
293.942	55484.1
298.783	133679
303.62	83901.7
308.455	14120.5
313.288	8640.63
318.117	20004.3
322.945	56616.2
327.769	42531.4
332.591	6405.21
337.411	4066.31
342.228	4027.48
347.042	3010.17
351.854	9872.24
356.663	37085
361.47	39036
366.274	14898.5
371.075	22666.7
375.874	28082.5
380.67	36903
385.464	61373
390.255	83326.4
395.043	53809.9
399.829	52703.9
404.613	75382.8
409.393	23341.2
414.172	24651.2
418.947	42433.6
423.72	17826
428.49	20525.5
433.258	53295
438.024	71048.7
442.786	21031.6
447.546	15473.9
452.304	2791.64
457.059	413.43
461.811	2902.4
466.56	5646.79
471.308	11594.6
476.052	40458.6
480.794	132588
485.533	278485
490.27	141845
495.004	57824.4
499.736	23330.7
504.465	18567.2
509.191	22918.9
513.915	14850.8
518.636	3471.14
523.354	273.406
528.07	1390.48
532.784	874.18
537.494	1129.67
542.203	5685.44
546.908	8041.06
551.611	5878.96
556.311	16105.2
561.009	41205.5
565.704	31659.6
570.397	31758.5
575.087	21271
579.774	6922.1
584.459	4107.55
589.141	1257.24
593.821	824.07
598.498	2958.77
603.172	8231.69
607.844	6683.67
612.513	1434.77
617.18	1697.66
621.844	636.039
626.505	990.594
631.164	4739.34
635.82	11176.5
640.473	6736.4
645.124	1849.26
649.773	1120.54
654.418	1593.34
659.062	3672.56
663.702	8283.44
668.34	16069.4
672.975	12534.1
677.608	5248.84
682.238	3759.86
686.866	2165.39
691.49	939.07
696.113	1040.94
700.732	1091.83
705.349	1091.56
709.964	436
714.576	1083
719.185	2601.43
723.792	3861.12
728.396	2145.95
732.997	491.773
737.596	47.375
742.192	397.164
746.785	199.289
751.376	487.219
755.965	401.133
760.551	133.273
765.134	47.0625
769.714	185.617
774.292	638.414
778.867	261.578
783.44	414.672
788.01	51.3906
792.578	85.5703
797.142	151
801.705	132.641
806.264	670.711
810.821	722.703
815.376	676.891
819.927	1282.18
824.476	1850.5
829.023	1826.38
833.567	1959.83
838.108	2980.86
842.647	3386.48
847.183	3424.7
851.716	4925.64
856.247	6463.57
860.776	7609.23
865.301	10835.6
869.824	14685.7
874.345	21889.6
878.862	34922.1
883.377	61091.4
887.89	101939
892.4	110667
896.907	120613
901.412	140932
905.914	88395.8
910.413	43884.7
914.91	26895.5
919.404	21461
923.896	20143.2
928.385	23035.6
932.871	29246.9
937.355	38533.2
941.836	50183.2
946.315	70129.6
950.79	87085.3
955.264	76349.1
959.734	61205.2
964.202	47615.6
968.668	31166.4
973.131	20300.7
977.591	13990.4
982.048	10379.9
986.503	8727.75
990.955	7392.38
995.405	7914.67
999.852	10027.6
1004.3	7917.25
1008.74	4668.92
1013.18	3500.97
1017.61	2401.23
1022.05	2161.42
1026.48	1772.3
1030.91	1775.75
1035.33	749.359
1039.76	446.656
1044.18	89.0312
1048.6	76.0781
1053.01	15
1057.42	444.047
1061.84	369.672
1066.24	395.859
1070.65	489.219
1075.05	439.312
1079.45	298
1083.85	200.641
1088.24	554
1092.63	661.172
1097.02	317.844
1101.41	9.6875
1105.8	26.2969
1110.18	500.438
1114.56	462.062
1118.93	274.047
1123.31	438.688
1127.68	141.25
1132.04	396.047
1136.41	200.359
1140.77	153.828
1145.13	321.75
1149.49	654.188
1153.85	33
1158.2	35.0938
1162.55	411.734
1166.9	41.5156
1171.24	71.25
1175.58	39.0938
1179.92	537.453
1184.26	11.0312
1188.6	385.469
1192.93	56.8594
1197.26	351.188
1201.58	56.7812
1205.9	510.203
1210.23	176.469
1214.55	14.9688
1218.86	379.172
1223.17	462.297
1227.48	649.531
1231.79	368.938
1236.1	686.297
1240.4	183.719
1244.7	152.953
1249	657.203
1253.29	132.062
1257.59	488.328
1261.88	551.984
1266.16	275.875
1270.45	621.125
1274.73	344.125
1279.01	22.6562
1283.28	1213.83
1287.56	524.656
1291.83	349.641
1296.1	627.094
1300.36	320.469
1304.63	771.031
1308.89	395.391
1313.15	869
1317.4	335.969
1321.65	693.469
1325.9	693.234
1330.15	636.984
1334.4	599.219
1338.64	699.859
1342.88	351.188
1347.12	653.141
1351.35	910.469
1355.58	876.922
1359.81	108.375
1364.04	783.984
1368.26	752.047
1372.48	1077.62
1376.7	525.172
1380.92	292.969
1385.13	937.609
1389.34	549.781
1393.55	654.531
1397.76	848.078
1401.96	507.672
1406.16	243.297
1410.36	975.359
1414.55	305.125
1418.75	314.625
1422.94	1189.16
1427.12	872.734
1431.31	1189.84
1435.49	577.859
1439.67	727.594
1443.85	108.578
1448.02	349.531
1452.19	394.094
1456.36	530.094
1460.53	359.469
1464.69	305.25
1468.85	863.125
1473.01	531.938
1477.17	175.891
1481.32	839.078
1485.47	212.734
1489.62	712.578
1493.76	225.797
1497.91	527.219
1502.05	188
1506.18	297.141
1510.32	478.766
1514.45	370.562
1518.58	577.469
1522.71	183.141
1526.83	345.609
1530.95	958.703
1535.07	112.281
1539.19	1102.17
1543.3	602.078
1547.41	883.891
1551.52	970.797
1555.63	735.484
1559.73	903.422
1563.83	569.688
1567.93	862.891
1572.03	30.8125
1576.12	469.953
