Measurement: Raman, 514 nm, ccw, Raman Data Processed
Mineral: Kyanite
Rruff sample: R040119
Ideal chemistry: Al_2_OSiO_4_
Locality: Rutherford County, North Carolina, USA
Source: University of Arizona Mineral Museum
Description: Blue bladed crystal
Measured chemistry: (Al_0.99_Fe^3+^_0.01_)_2_OSi_1.00_O_4_
Pin_id: L01022
Orientation: Laser parallel to (1 1 0). Fiducial mark perpendicular to laser is parallel to -c [0 0 -1]
Raman shift (cm-1)	intensity
136.395	0
141.324	59.646
146.251	48.563
151.175	112.344
156.096	17.395
161.015	102.126
165.931	23.4121
170.844	163.564
175.755	488.524
180.663	443.791
185.569	353.257
190.472	237.359
195.373	403.741
200.27	683.217
205.166	1188.44
210.058	915.962
214.948	763.63
219.836	1092.25
224.721	2333.97
229.603	1480.74
234.482	577.38
239.359	641.788
244.234	896.725
249.106	499.859
253.975	16.7441
258.841	191.009
263.705	387.201
268.567	61.8745
273.425	2742.48
278.281	5991.96
283.135	2101.48
287.986	5491.88
292.834	10489.7
297.68	26162.5
302.523	35132.7
307.363	6029.98
312.201	1473.09
317.037	3366.68
321.869	14334.3
326.699	20938.2
331.527	3399.55
336.351	1381.33
341.174	4380.62
345.993	973.046
350.81	3357.85
355.625	10026.6
360.436	20571.3
365.245	4947.93
370.052	2176.51
374.856	4249.01
379.657	10265.4
384.456	24100.8
389.252	18381.2
394.045	14370.8
398.836	10361.5
403.625	25476.6
408.41	9135.13
413.193	2669.93
417.974	4707.73
422.751	2996.23
427.527	4448.44
432.299	15531.5
437.069	34932.5
441.836	17490.2
446.601	8903.78
451.363	3925.08
456.123	693.105
460.88	148.845
465.634	747.291
470.386	1417.43
475.135	5286.25
479.881	19665.8
484.625	63237.9
489.366	44252.9
494.105	14464
498.84	5677.41
503.574	3504.35
508.305	4554.79
513.033	5493.71
517.758	1882.23
522.481	404.018
527.201	46.0962
531.919	379.806
536.634	453.77
541.346	136.28
546.056	444.349
550.763	536.408
555.468	2311.84
560.17	9342.63
564.869	9126.61
569.566	2272.69
574.26	885.833
578.952	522.985
583.641	269.098
588.327	82.125
593.011	281.021
597.692	2006.74
602.37	6932.23
607.046	10635.4
611.719	5880.33
616.39	4888.85
621.058	4599.95
625.723	5108.56
630.386	5766.03
635.046	3125.59
639.703	1822.72
644.358	913.503
649.01	736.42
653.66	1199.25
658.307	1610.52
662.951	1530.48
667.593	2166.82
672.232	2073.11
676.869	1254.57
681.503	1041.5
686.134	935.044
690.763	852.023
695.389	953.258
700.013	1400.49
704.633	1727.72
709.252	1453.72
713.867	1230.91
718.48	1097.4
723.091	1117.17
727.698	1053.17
732.304	900.386
736.906	847.775
741.506	714.312
746.103	598.967
750.698	420.885
755.29	344.525
759.88	242.38
764.467	22.1855
769.051	7.49512
773.632	107.152
778.211	101.338
782.788	75.3027
787.362	111.058
791.933	115.791
796.501	69.584
801.067	103.852
805.631	0.287109
810.191	10.4263
814.749	18.9155
819.305	25.77
823.858	111.452
828.408	170.897
832.956	81.1807
837.501	255.303
842.043	302.386
846.583	426.472
851.12	630.586
855.654	872.749
860.186	966.971
864.716	1154.27
869.242	1416.66
873.766	1966.17
878.288	3008.09
882.807	4645.69
887.323	7898.75
891.837	9221.04
896.348	6297.63
900.856	5006.73
905.362	4668.69
909.865	5091.85
914.366	5535.92
918.864	6526.51
923.359	7828.01
927.852	10267.5
932.342	13967.5
936.829	19685.7
941.314	27749.3
945.796	43571.9
950.276	62594.9
954.753	57173.8
959.228	42834.2
963.699	33371
968.169	21623
972.635	13690.6
977.099	9205.99
981.56	7103.97
986.019	5896.24
990.475	6055.47
994.929	8325.84
999.38	13877.4
1003.83	12539.1
1008.27	6760.02
1012.72	4023.71
1017.16	2879.19
1021.6	2207.52
1026.03	1830.45
1030.46	1576.84
1034.89	1241.77
1039.32	1107.44
1043.74	870.036
1048.17	828.622
1052.59	714.725
1057	714.357
1061.42	646.168
1065.83	559.98
1070.24	440.994
1074.65	273.771
1079.05	359.57
1083.45	260.284
1087.85	286.881
1092.25	259.089
1096.64	235.67
1101.03	211.615
1105.42	170.901
1109.8	4.4834
1114.19	26.3389
1118.57	37.4683
1122.95	112.874
1127.32	75.6553
1131.69	188.464
1136.06	223.663
1140.43	60.898
1144.8	0.676758
1149.16	21.5615
1153.52	52.6431
1157.87	83.5698
1162.23	34.4653
1166.58	57.2827
1170.93	55.5386
1175.28	59.7808
1179.62	82.5342
1183.96	78.4907
1188.3	15.1562
1192.64	53.5073
1196.97	106.453
1201.3	19.1304
1205.63	65.6123
1209.95	41.148
1214.28	46.6719
1218.6	86.2734
1222.92	112.787
1227.23	78.21
1231.55	166.534
1235.86	161.75
1240.16	114.845
1244.47	139.803
1248.77	145.967
1253.07	152.704
1257.37	174.292
1261.66	161.9
1265.95	201.435
1270.24	146.921
1274.53	192.89
1278.81	200.429
1283.09	180.483
1287.37	167.801
1291.65	255.084
1295.92	253.408
1300.19	347.258
1304.46	303.898
1308.73	262.962
1312.99	188.06
1317.25	256.976
1321.51	187.95
1325.77	139.541
1330.02	164.637
1334.27	306.228
1338.52	251.706
1342.76	135.644
1347	205.744
1351.24	204.296
1355.48	210.393
1359.72	58.9067
1363.95	91.4619
1368.18	149.823
1372.4	121.12
1376.63	56.7647
1380.85	79.7896
1385.07	40.9673
1389.29	175.631
1393.5	99.4287
1397.71	107.875
1401.92	99.1807
1406.13	16.4531
1410.33	16.9248
1414.53	146.193
1418.73	84.4717
1422.92	70.3481
1427.12	71.1255
1431.31	16.1523
1435.5	5.41211
1439.68	61.0288
1443.87	56.7656
1448.05	21.6304
1452.22	20.8887
1456.4	72.0884
1460.57	8.71924
1464.74	146.644
1468.91	105.519
1473.07	109.593
1477.23	73.3374
1481.39	116
1485.55	26.7398
1489.7	62.915
1493.86	90.6572
1498.01	93.1943
1502.15	60.689
1506.3	43.5796
1510.44	36.6025
1514.58	17.416
1518.71	102.563
1522.85	56.7451
1526.98	91.3213
1531.11	55.7964
1535.23	89.6587
1539.35	128.935
1543.47	69.9048
1547.59	61.123
1551.71	121.747
1555.82	132.999
1559.93	29.9346
1564.04	192.573
1568.14	58.7398
1572.25	55.5342
1576.35	46.4702
