Measurement: Raman, 514 nm, ccw, Raman Data Processed
Mineral: Kyanite
Rruff sample: R040119
Ideal chemistry: Al_2_OSiO_4_
Locality: Rutherford County, North Carolina, USA
Source: University of Arizona Mineral Museum
Description: Blue bladed crystal
Measured chemistry: (Al_0.99_Fe^3+^_0.01_)_2_OSi_1.00_O_4_
Pin_id: L01022
Orientation: Laser parallel to (1 1 0). Fiducial mark perpendicular to laser is parallel to -c [0 0 -1]
Raman shift (cm-1)	intensity
131.464	0
136.395	19.9512
141.324	166.727
146.251	9.31104
151.175	26.8398
156.096	138.5
161.015	224.821
165.931	399.313
170.844	757.593
175.755	1408.42
180.663	651.198
185.569	220.451
190.472	236.623
195.373	520.649
200.27	1466.34
205.166	3482.26
210.058	2473.19
214.948	1108.65
219.836	1768.14
224.721	4440.33
229.603	2633.76
234.482	474.149
239.359	412.247
244.234	854.356
249.106	868.459
253.975	174.709
258.841	159.717
263.705	429.7
268.567	287.441
273.425	754.723
278.281	2423.53
283.135	1610.43
287.986	4857.02
292.834	11115.2
297.68	31301.1
302.523	47485.9
307.363	9148.04
312.201	2949.3
317.037	4947.91
321.869	16244.2
326.699	25753.5
331.527	5150.01
336.351	1216.06
341.174	1843.1
345.993	1066.65
350.81	1855.1
355.625	6828.05
360.436	15614.5
365.245	4685.37
370.052	3579.72
374.856	8909.54
379.657	18511.8
384.456	40884
389.252	32378.5
394.045	27078.6
398.836	13142.5
403.625	26611.3
408.41	9526.76
413.193	1885.01
417.974	1086.16
422.751	1366.59
427.527	3951.39
432.299	13941.5
437.069	34268
441.836	20721.8
446.601	16180
451.363	8762.54
456.123	2647.48
460.88	3814.81
465.634	6736.57
470.386	5767.77
475.135	11851.4
479.881	36492.5
484.625	110175
489.366	82371.6
494.105	29570.2
498.84	10430
503.574	5039.25
508.305	4292.08
513.033	3661.45
517.758	1537.42
522.481	291.834
527.201	150.791
531.919	382.514
536.634	233.559
541.346	196.682
546.056	585.628
550.763	77.582
555.468	39.7803
560.17	1237.97
564.869	1894.98
569.566	1951.19
574.26	2401.57
578.952	944.086
583.641	279.707
588.327	286.396
593.011	568.118
597.692	2188.84
602.37	5571.52
607.046	8203.13
611.719	4861.63
616.39	4979.98
621.058	4171.13
625.723	2968.51
630.386	3990.85
635.046	6398.52
639.703	5773.76
644.358	3429.55
649.01	4731.06
653.66	8870.94
658.307	10853.8
662.951	4812.7
667.593	3353.92
672.232	2968.82
676.869	2152.11
681.503	2443.19
686.134	2375.59
690.763	1662.29
695.389	1375.38
700.013	1773.99
704.633	1830.32
709.252	1326.33
713.867	1469.98
718.48	2331.25
723.091	3996.1
727.698	3020.5
732.304	1432.42
736.906	917.837
741.506	705.717
746.103	501.037
750.698	402.77
755.29	233.893
759.88	69.3784
764.467	33.9453
769.051	37.7515
773.632	118.247
778.211	78.9517
782.788	164.689
787.362	120.872
791.933	165.488
796.501	88.9956
801.067	20.9644
805.631	83.4316
810.191	42.1575
814.749	178.741
819.305	203.853
823.858	302.228
828.408	289.892
832.956	406.004
837.501	562.459
842.043	702.212
846.583	895.272
851.12	1183.66
855.654	1593.46
860.186	2198.65
864.716	2954.23
869.242	4330.23
873.766	6581.68
878.288	11077.6
882.807	21094
887.323	40759.9
891.837	48122.2
896.348	27169.7
900.856	15505.1
905.362	10841.8
909.865	7965.76
914.366	6738.98
918.864	6666.22
923.359	7664.21
927.852	9819.75
932.342	14047.3
936.829	20215.4
941.314	25981.6
945.796	32108.4
950.276	33895.8
954.753	35860.4
959.228	40053.3
963.699	38049.2
968.169	25154.4
972.635	14887.6
977.099	9434.06
981.56	6704.66
986.019	5347.77
990.475	5227.44
994.929	7143.46
999.38	11710.9
1003.83	11078.8
1008.27	5949.62
1012.72	3309.1
1017.16	2376.32
1021.6	1760.62
1026.03	1340.27
1030.46	1151.21
1034.89	823.097
1039.32	659.216
1043.74	543.903
1048.17	496.916
1052.59	372.288
1057	379.266
1061.42	425.313
1065.83	363.38
1070.24	307.136
1074.65	211.523
1079.05	215.596
1083.45	209.475
1087.85	185.677
1092.25	225.973
1096.64	142.279
1101.03	48.8252
1105.42	11.6011
1109.8	43.6191
1114.19	4.17188
1118.57	48.7822
1122.95	41.3608
1127.32	32.1572
1131.69	17.2168
1136.06	53.4595
1140.43	28.6885
1144.8	114.066
1149.16	57.0571
1153.52	10.8154
1157.87	33.1938
1162.23	37.8223
1166.58	8.93237
1170.93	42.0481
1175.28	34.019
1179.62	63.1855
1183.96	52.7148
1188.3	101.53
1192.64	21.9565
1196.97	47.2251
1201.3	38.1609
1205.63	47.7625
1209.95	78.2178
1214.28	66.5222
1218.6	188.28
1222.92	133.365
1227.23	146.289
1231.55	250.824
1235.86	119.204
1240.16	152.55
1244.47	157.649
1248.77	293.062
1253.07	267.142
1257.37	222.812
1261.66	283.415
1265.95	296.824
1270.24	200.647
1274.53	211.109
1278.81	202.653
1283.09	248.804
1287.37	189.536
1291.65	247.148
1295.92	207.998
1300.19	214.09
1304.46	255.682
1308.73	238.608
1312.99	278.767
1317.25	284.249
1321.51	201.001
1325.77	203.072
1330.02	182.999
1334.27	202.006
1338.52	221.033
1342.76	161.008
1347	162.863
1351.24	145.341
1355.48	176.564
1359.72	133.467
1363.95	93.0913
1368.18	46.0234
1372.4	157.785
1376.63	112.567
1380.85	88.2363
1385.07	84.5781
1389.29	16.3882
1393.5	65.6042
1397.71	88.2659
1401.92	34.8901
1406.13	82.7798
1410.33	30.2705
1414.53	56.5793
1418.73	42.71
1422.92	113.62
1427.12	19.438
1431.31	36.0178
1435.5	10.5461
1439.68	40.9312
1443.87	14.0823
1448.05	22.197
1452.22	55.3042
1456.4	109.556
1460.57	148.337
1464.74	86.0303
1468.91	99.6377
1473.07	83.9575
1477.23	109.061
1481.39	111.352
1485.55	57.5859
1489.7	117.359
1493.86	128.852
1498.01	31.4685
1502.15	87.0166
1506.3	41.0691
1510.44	76.2075
1514.58	113.81
1518.71	132.61
1522.85	31.0537
1526.98	39.103
1531.11	76.749
1535.23	45.0933
1539.35	33.7886
1543.47	70.6858
1547.59	111.003
1551.71	110.944
1555.82	179.135
1559.93	49.0593
1564.04	68.3088
1568.14	50.4915
1572.25	66.7207
1576.35	96.9829
