Measurement: Raman, 514 nm, depolarized, Raman Data Processed
Mineral: Kyanite
Rruff sample: R040119
Ideal chemistry: Al_2_OSiO_4_
Locality: Rutherford County, North Carolina, USA
Source: University of Arizona Mineral Museum
Description: Blue bladed crystal
Measured chemistry: (Al_0.99_Fe^3+^_0.01_)_2_OSi_1.00_O_4_
Pin_id: L00532
Orientation: Laser parallel to (-1 0 -1). Fiducial mark perpendicular to laser is parallel to b [0 1 0]
Raman shift (cm-1)	intensity
77.196	0
82.15	1097.52
87.101	400.258
92.049	1257.38
96.995	252.258
101.939	1071.04
106.879	1691.6
111.818	2713.39
116.753	2887.88
121.686	1804.98
126.617	300.852
131.545	579.195
136.471	714.047
141.393	1394.09
146.314	913.227
151.232	822.594
156.147	403.766
161.06	872.523
165.97	184.391
170.877	1783.31
175.782	2326.72
180.685	1032.02
185.585	497.094
190.482	782.797
195.377	691.523
200.269	1359.63
205.158	2031.79
210.045	1114.61
214.93	64.5703
219.812	1464.34
224.691	3539.54
229.568	1040.91
234.442	418.719
239.314	265.609
244.183	290.648
249.049	27.7344
253.913	235.781
258.775	527.281
263.633	1121.56
268.49	402.352
273.343	3444.5
278.194	6023.84
283.043	4160.22
287.889	12102.5
292.732	20309.9
297.573	45385.8
302.411	39356.6
307.247	7667.34
312.08	5994.12
316.91	13638.8
321.738	36882.6
326.563	33700.2
331.386	5797.3
336.206	2081.2
341.024	2839.26
345.839	951.711
350.651	2703.28
355.461	9680.84
360.268	16701.1
365.073	10802.1
369.875	20725
374.674	25537.2
379.471	29435.2
384.266	41865.7
389.057	38388
393.846	27872.4
398.633	25536.8
403.417	41808.9
408.198	12042.2
412.977	6169.81
417.753	9034.62
422.527	4788.83
427.298	7488.51
432.067	22219.5
436.832	33937.8
441.596	15767.6
446.356	15763.9
451.115	5780.83
455.87	2250.45
460.623	3351.85
465.373	5025.04
470.121	6528.08
474.866	18030.1
479.609	58441.3
484.349	133430
489.086	75368.1
493.821	27385.5
498.553	9992.64
503.283	5932.35
508.01	6605.34
512.734	5845.34
517.456	1754.38
522.175	65.7578
526.892	563.391
531.606	599
536.317	488.578
541.026	610.789
545.732	1209.34
550.436	395.93
555.137	2961.54
559.835	8788.34
564.531	7526.67
569.224	4418.48
573.915	4162.73
578.603	3621.32
583.288	5487.16
587.971	3355.37
592.651	1112.06
597.329	3332.35
602.004	6739.67
606.676	7860.98
611.346	4028.42
616.013	3453.49
620.678	3400.72
625.34	3648.1
629.999	6122.61
634.656	10083.8
639.31	7475.6
643.962	3480.62
648.611	4791.58
653.257	7686.59
657.901	7094.68
662.542	5105.69
667.181	5499.01
671.817	4712.48
676.45	3088.95
681.081	3360.77
685.709	2936.11
690.334	1672.56
694.957	1823.56
699.578	2032.82
704.195	2188.37
708.811	1448.61
713.423	1410.82
718.033	1135.69
722.64	155.133
727.245	72.9453
731.847	755.055
736.446	1764.56
741.043	702.414
745.637	929.555
750.229	904.93
754.818	588.469
759.404	661.086
763.988	66.4375
768.569	258.109
773.148	517.648
777.724	435.93
782.297	8.96875
786.868	22.4453
791.436	200.594
796.001	194.68
800.564	124.234
805.125	141.023
809.682	23.1562
814.237	420.109
818.79	192.258
823.339	443.781
827.887	274.516
832.431	770.203
836.973	778.359
841.513	919.234
846.049	1070.81
850.583	1461.14
855.115	1627.32
859.644	2343.4
864.17	2904.64
868.694	4401.45
873.215	6131.21
877.733	8916.01
882.249	14838.8
886.762	24789.4
891.273	28268.9
895.781	25942.5
900.286	29179.3
904.789	20772.4
909.289	12652.7
913.786	10406.5
918.281	10924.2
922.773	12356.7
927.263	15316.4
931.75	20805
936.234	28940.1
940.716	37142.2
945.195	51031.4
949.672	63714.4
954.146	60090.6
958.617	53435.8
963.086	45044.6
967.552	29186.2
972.015	17501.6
976.476	11856
980.934	8612.84
985.39	6731.15
989.843	6569.76
994.293	7932.09
998.741	11521
1003.19	9472.33
1007.63	5736.15
1012.07	3605.77
1016.5	2432.8
1020.94	2365.05
1025.37	1277.34
1029.8	1348.35
1034.23	587.289
1038.65	450.352
1043.07	66.7109
1047.49	187.047
1051.91	241.602
1056.32	97.5703
1060.73	240.898
1065.14	375.062
1069.55	63.5781
1073.95	3.00781
1078.35	350.891
1082.75	199.391
1087.14	222.578
1091.54	100.805
1095.93	45.7969
1100.31	220.188
1104.7	489.656
1109.08	694.148
1113.46	1.28906
1117.84	240.32
1122.21	298.969
1126.58	206.688
1130.95	336.484
1135.32	14.3594
1139.68	6.1875
1144.04	251.914
1148.4	176.711
1152.76	325.562
1157.11	540.539
1161.46	281.68
1165.81	386.984
1170.16	36.5625
1174.5	100.523
1178.84	315.281
1183.18	24.7656
1187.51	32.4375
1191.84	280.828
1196.17	191.172
1200.5	81.6562
1204.83	501.562
1209.15	201.805
1213.47	149.672
1217.78	84.0781
1222.1	733.766
1226.41	356.484
1230.72	922.742
1235.02	785.219
1239.33	616.016
1243.63	838.188
1247.92	772.938
1252.22	523.797
1256.51	537.766
1260.8	237.875
1265.09	911.016
1269.38	472.375
1273.66	740.391
1277.94	954.406
1282.21	565.094
1286.49	1003.72
1290.76	415.562
1295.03	598.625
1299.3	665.031
1303.56	650.938
1307.82	274.438
1312.08	570.078
1316.34	1399.58
1320.59	499.844
1324.84	953.406
1329.09	868.594
1333.34	1145.84
1337.58	817.734
1341.82	394.328
1346.06	803.672
1350.29	509.25
1354.53	991.766
1358.76	913.109
1362.98	311.812
1367.21	1370.97
1371.43	908.5
1375.65	851.469
1379.87	835.797
1384.08	561.562
1388.29	923.781
1392.5	1002.41
1396.71	854.5
1400.91	1237.3
1405.11	920.609
1409.31	550.938
1413.51	1140.06
1417.7	782.953
1421.89	746.453
1426.08	767.172
1430.26	726.453
1434.44	824.453
1438.62	398.359
1442.8	776.047
1446.98	64.4688
1451.15	568.531
1455.32	824.203
1459.49	178.188
1463.65	555.344
1467.81	538.469
1471.97	908.234
1476.13	510.75
1480.28	534.078
1484.43	641.219
1488.58	670.875
1492.73	1012.66
1496.87	800.562
1501.01	755.906
1505.15	259.891
1509.29	352.672
1513.42	709
1517.55	119.453
1521.67	82.6406
1525.8	512.531
1529.92	74.3125
1534.04	115.219
1538.16	510.438
1542.27	656.016
1546.39	935.828
1550.49	530.75
1554.6	784.312
1558.71	224.516
1562.81	567.312
1566.91	530.25
1571	443.922
1575.1	178.062
