Measurement: Raman, 514 nm, depolarized, Raman Data Processed
Mineral: Kyanite
Rruff sample: R040119
Ideal chemistry: Al_2_OSiO_4_
Locality: Rutherford County, North Carolina, USA
Source: University of Arizona Mineral Museum
Description: Blue bladed crystal
Measured chemistry: (Al_0.99_Fe^3+^_0.01_)_2_OSi_1.00_O_4_
Pin_id: L00448
Orientation: Laser parallel to -a* (-1 0 0). Fiducial mark perpendicular to laser is parallel to b [0 1 0]
Raman shift (cm-1)	intensity
127.849	0
132.777	380.465
137.702	214.082
142.624	496.531
147.544	375.422
152.461	222.727
157.375	467.719
162.287	2127.77
167.197	665.5
172.104	635.34
177.008	1086.27
181.91	151.352
186.809	25.9062
191.706	229.438
196.6	603.676
201.491	1916.89
206.38	2648.59
211.267	1249.91
216.151	724.785
221.032	1301.08
225.911	2536.25
230.787	654.723
235.66	306.731
240.531	662.723
245.4	3364.32
250.266	587.668
255.129	391.945
259.99	912.074
264.848	206.5
269.703	1954.9
274.556	7294.15
279.407	7920.3
284.255	5149.77
289.1	14162.8
293.942	24812.2
298.783	56900.6
303.62	37826.5
308.455	6150.33
313.288	5128.23
318.117	17155
322.945	46773
327.769	32423.3
332.591	4491.61
337.411	2703.03
342.228	4093.23
347.042	2078.29
351.854	5936.67
356.663	19084.3
361.47	21664.2
366.274	10544.3
371.075	16409.7
375.874	25520.3
380.67	42874.9
385.464	56765.2
390.255	46211
395.043	30181.1
399.829	40945.1
404.613	52505
409.393	12237.2
414.172	4707.41
418.947	5664.71
423.72	5066.72
428.49	13815.5
433.258	39973
438.024	49915.4
442.786	20731.5
447.546	15164.5
452.304	4725.38
457.059	2177.24
461.811	4490.04
466.56	6078.76
471.308	7764.38
476.052	23879.2
480.794	76766.7
485.533	147354
490.27	72416.7
495.004	26843.5
499.736	10297
504.465	6596.8
509.191	6870.39
513.915	5104.08
518.636	1086.11
523.354	46.8086
528.07	880.734
532.784	779.449
537.494	717.973
542.203	274.359
546.908	651.031
551.611	1240.29
556.311	5842.5
561.009	15394.7
565.704	9605.65
570.397	4245.29
575.087	3580.49
579.774	3616.16
584.459	4787.22
589.141	3175.57
593.821	2187.12
598.498	5138.78
603.172	11103.5
607.844	11723
612.513	7456.47
617.18	8009.97
621.844	8266.74
626.505	11665.6
631.164	14622.3
635.82	16741.1
640.473	11471.5
645.124	7354.35
649.773	9800.69
654.418	14797.8
659.062	12648.5
663.702	7801.16
668.34	7591.6
672.975	5522.73
677.608	3894.62
682.238	3173.59
686.866	2800.62
691.49	2597.34
696.113	3110.38
700.732	4199.32
705.349	3967.53
709.964	3148.98
714.576	2903.58
719.185	2021.25
723.792	2156.93
728.396	2212.54
732.997	2177.02
737.596	2091.32
742.192	2075.38
746.785	1644.13
751.376	1318.56
755.965	791.586
760.551	347.07
765.134	267.648
769.714	263.789
774.292	109.406
778.867	33.2188
783.44	473.961
788.01	421.133
792.578	310.383
797.142	142.875
801.705	42.4062
806.264	195.367
810.821	296.297
815.376	25.1797
819.927	195.625
824.476	114.266
829.023	617.234
833.567	622.812
838.108	868.578
842.647	1157.67
847.183	1313.25
851.716	1347.36
856.247	2373.06
860.776	2790.37
865.301	3156.34
869.824	3412.02
874.345	4651.5
878.862	5945.49
883.377	8532.68
887.89	11639
892.4	12711.1
896.907	14187.2
901.412	16374.1
905.914	12786.5
910.413	11442.2
914.91	11537
919.404	13487.6
923.896	16296.3
928.385	21900.1
932.871	30922.3
937.355	43824.2
941.836	62631.4
946.315	90812.2
950.79	109767
955.264	100781
959.734	90164.5
964.202	71871.8
968.668	44372.4
973.131	27010.7
977.591	17479.6
982.048	12303.6
986.503	10736
990.955	10451.6
995.405	14018.2
999.852	20269.3
1004.3	15966.8
1008.74	8409.27
1013.18	5401.58
1017.61	4064.53
1022.05	3252.68
1026.48	2671.98
1030.91	2401.78
1035.33	1549.69
1039.76	1572.24
1044.18	711.25
1048.6	711.617
1053.01	656.047
1057.42	328.75
1061.84	772.695
1066.24	510.391
1070.65	325.711
1075.05	675.094
1079.45	352.062
1083.85	1021.28
1088.24	379.648
1092.63	567.867
1097.02	157.984
1101.41	45.2656
1105.8	372.102
1110.18	440.008
1114.56	374.422
1118.93	66.6562
1123.31	116.703
1127.68	146.578
1132.04	376.859
1136.41	204.633
1140.77	413.469
1145.13	129.273
1149.49	284.961
1153.85	328.312
1158.2	81.7891
1162.55	596.836
1166.9	38.2969
1171.24	227.922
1175.58	204.516
1179.92	112.953
1184.26	79.4297
1188.6	296.195
1192.93	197.359
1197.26	334.32
1201.58	83.9922
1205.9	97.7656
1210.23	92.2891
1214.55	401.445
1218.86	410.391
1223.17	457.555
1227.48	457.492
1231.79	587.742
1236.1	929.125
1240.4	601.859
1244.7	597.867
1249	846.852
1253.29	399.422
1257.59	971.25
1261.88	577.859
1266.16	971.492
1270.45	1213.33
1274.73	1252.06
1279.01	935.43
1283.28	1350.07
1287.56	672.531
1291.83	1035.23
1296.1	1157.74
1300.36	1001.19
1304.63	1323.6
1308.89	1607.88
1313.15	1278.91
1317.4	1054.65
1321.65	1391.62
1325.9	1163.23
1330.15	805.047
1334.4	647.547
1338.64	81.6719
1342.88	533.109
1347.12	346.07
1351.35	746.562
1355.58	499.609
1359.81	114.211
1364.04	309.43
1368.26	303.445
1372.48	685.359
1376.7	587.438
1380.92	645.203
1385.13	891.719
1389.34	592.219
1393.55	524.375
1397.76	677.375
1401.96	293.852
1406.16	240.367
1410.36	40.8359
1414.55	274.352
1418.75	734.758
1422.94	139.164
1427.12	579.195
1431.31	909.148
1435.49	653.328
1439.67	1947.97
1443.85	1471.62
1448.02	2130.12
1452.19	2172.63
1456.36	1901.77
1460.53	1817.73
1464.69	1448.04
1468.85	1717.47
1473.01	488.062
1477.17	704.727
1481.32	509.469
1485.47	801.453
1489.62	687.547
1493.76	299.844
1497.91	359.289
1502.05	287.867
1506.18	342.602
1510.32	359.375
1514.45	92.1094
1518.58	237.289
1522.71	1.42188
1526.83	403.484
1530.95	24.7578
1535.07	319.797
1539.19	676.227
1543.3	312.344
1547.41	338.938
1551.52	117.18
1555.63	731
1559.73	390.477
1563.83	417.867
1567.93	441.68
1572.03	587.57
1576.12	148.352
