Measurement: Raman, 514 nm, ccw, Raman Data Processed
Mineral: Kyanite
Rruff sample: R040119
Ideal chemistry: Al_2_OSiO_4_
Locality: Rutherford County, North Carolina, USA
Source: University of Arizona Mineral Museum
Description: Blue bladed crystal
Measured chemistry: (Al_0.99_Fe^3+^_0.01_)_2_OSi_1.00_O_4_
Pin_id: L00103
Orientation: Laser parallel to c* (0 0 1). Fiducial mark perpendicular to laser is parallel to a [1 0 0]
Raman shift (cm-1)	intensity
98.231	0
103.174	2288.9
108.114	2312.47
113.052	2110.9
117.987	2759.38
122.919	798.5
127.849	100.902
132.777	126.977
137.702	167.625
142.624	64.2383
147.544	577.93
152.461	373.871
157.375	445.418
162.287	664.57
167.197	452.797
172.104	1594.38
177.008	2410.4
181.91	2095.3
186.809	1554.98
191.706	1320.03
196.6	1250.77
201.491	1496.07
206.38	1168.27
211.267	1464.5
216.151	2492.87
221.032	7491
225.911	11670.5
230.787	4200.77
235.66	525.363
240.531	400.402
245.4	684.031
250.266	863.723
255.129	361.422
259.99	648.801
264.848	538.773
269.703	1661.14
274.556	6080.84
279.407	7524.69
284.255	10864.5
289.1	31542.6
293.942	60688.6
298.783	114383
303.62	78091.6
308.455	13107.2
313.288	7862.58
318.117	16554.5
322.945	38160.9
327.769	27195.9
332.591	4085.49
337.411	2038.58
342.228	2843.42
347.042	3295
351.854	13699.9
356.663	40661
361.47	44005.6
366.274	18608.7
371.075	22575.4
375.874	22533.9
380.67	35236.4
385.464	57079.7
390.255	76378.5
395.043	55320.6
399.829	55499.9
404.613	64646
409.393	23427.3
414.172	24314.3
418.947	34620.1
423.72	17007.6
428.49	22139.2
433.258	51997.8
438.024	58270.7
442.786	20414.7
447.546	9070.06
452.304	1635.78
457.059	892.902
461.811	4513
466.56	7409.93
471.308	12206.1
476.052	41465.1
480.794	128965
485.533	228697
490.27	138870
495.004	59040.1
499.736	24179.8
504.465	19738.9
509.191	23015.5
513.915	15697.8
518.636	4389.23
523.354	837.922
528.07	853.43
532.784	581.438
537.494	2534.42
542.203	8504.96
546.908	10117.5
551.611	7581.39
556.311	18623.8
561.009	42462.5
565.704	37211.8
570.397	36411.1
575.087	24745.3
579.774	7844.6
584.459	3685.99
589.141	1513.33
593.821	757.484
598.498	2029.89
603.172	4689.35
607.844	3128.77
612.513	90.6562
617.18	313.414
621.844	219.961
626.505	1066.16
631.164	4358.11
635.82	9090.66
640.473	5170.83
645.124	1099.4
649.773	690.094
654.418	1681.31
659.062	3006.98
663.702	7950.15
668.34	14413.6
672.975	11206.1
677.608	4466.94
682.238	2207.2
686.866	598.711
691.49	192.164
696.113	350.344
700.732	1342.44
705.349	673.352
709.964	132.914
714.576	943.875
719.185	2689.21
723.792	4213.84
728.396	2086.62
732.997	411.477
737.596	4.14844
742.192	163.742
746.785	76.7266
751.376	153.969
755.965	37.7734
760.551	466.43
765.134	38.0078
769.714	232.531
774.292	194.07
778.867	603.148
783.44	267.047
788.01	244.094
792.578	171.797
797.142	391.438
801.705	937.727
806.264	939.211
810.821	1105.91
815.376	1072.23
819.927	1561.82
824.476	1615.6
829.023	2018.62
833.567	2349.27
838.108	3213.78
842.647	3435.55
847.183	4409.97
851.716	5235.34
856.247	6827.13
860.776	8792.35
865.301	11867
869.824	16235.2
874.345	24905.6
878.862	40178.2
883.377	69597.3
887.89	108552
892.4	122053
896.907	138320
901.412	155109
905.914	99810.9
910.413	50550.2
914.91	29636.4
919.404	21402.7
923.896	18332.2
928.385	19545.4
932.871	24834.8
937.355	32445
941.836	42299.1
946.315	54125.2
950.79	62760.5
955.264	59044.8
959.734	52751.1
964.202	42476.6
968.668	27859.2
973.131	17403.7
977.591	12381.2
982.048	8723.63
986.503	6939
990.955	5984.96
995.405	6318.01
999.852	6763.48
1004.3	5703.45
1008.74	3278.13
1013.18	2437.98
1017.61	1789.54
1022.05	1490.31
1026.48	1064.02
1030.91	1522.19
1035.33	655.422
1039.76	715.172
1044.18	382.023
1048.6	220.766
1053.01	117.117
1057.42	115.57
1061.84	66.1953
1066.24	26.0156
1070.65	200.023
1075.05	250.156
1079.45	474.18
1083.85	435.047
1088.24	45.4297
1092.63	156.242
1097.02	347.727
1101.41	73.1797
1105.8	354.969
1110.18	32.7656
1114.56	645.578
1118.93	240.758
1123.31	417.406
1127.68	284.438
1132.04	295.164
1136.41	37.4062
1140.77	244.531
1145.13	340.391
1149.49	125.773
1153.85	182.586
1158.2	30.4766
1162.55	186.602
1166.9	369.695
1171.24	274.172
1175.58	44.0312
1179.92	52.3984
1184.26	87.9375
1188.6	99.6094
1192.93	101.805
1197.26	412.312
1201.58	490.594
1205.9	380.594
1210.23	0.953125
1214.55	268.711
1218.86	15.2266
1223.17	443.25
1227.48	83.4766
1231.79	90.9844
1236.1	807.773
1240.4	185.617
1244.7	236.328
1249	392.148
1253.29	340.523
1257.59	607.633
1261.88	439.344
1266.16	717.461
1270.45	26.5859
1274.73	696.727
1279.01	163.539
1283.28	707.781
1287.56	547.281
1291.83	535.633
1296.1	432.352
1300.36	911.883
1304.63	757.477
1308.89	742.914
1313.15	160.25
1317.4	644.094
1321.65	379.867
1325.9	760.219
1330.15	682.914
1334.4	62.3516
1338.64	776.062
1342.88	640.07
1347.12	514.289
1351.35	436.555
1355.58	341.227
1359.81	87.8203
1364.04	372.438
1368.26	282.703
1372.48	411.156
1376.7	450.031
1380.92	84.2578
1385.13	474.883
1389.34	57.6484
1393.55	267.547
1397.76	756.969
1401.96	264.82
1406.16	259.906
1410.36	232.133
1414.55	772.664
1418.75	437.672
1422.94	109.938
1427.12	391.609
1431.31	113.742
1435.49	563.367
1439.67	656.727
1443.85	383.992
1448.02	560.555
1452.19	505.43
1456.36	161.188
1460.53	752.906
1464.69	454.211
1468.85	1213.92
1473.01	417.07
1477.17	405.555
1481.32	96.0781
1485.47	520.094
1489.62	549.531
1493.76	138.844
1497.91	274.781
1502.05	195.297
1506.18	439.477
1510.32	374.461
1514.45	665.414
1518.58	292.633
1522.71	240.719
1526.83	396.203
1530.95	666.406
1535.07	448.062
1539.19	10.6484
1543.3	276.531
1547.41	452.922
1551.52	321.094
1555.63	514.984
1559.73	129.078
1563.83	249.656
1567.93	277.297
1572.03	67.4453
1576.12	408.562
