Measurement: Raman, 514 nm, ccw, Raman Data Processed
Mineral: Kyanite
Rruff sample: R040119
Ideal chemistry: Al_2_OSiO_4_
Locality: Rutherford County, North Carolina, USA
Source: University of Arizona Mineral Museum
Description: Blue bladed crystal
Measured chemistry: (Al_0.99_Fe^3+^_0.01_)_2_OSi_1.00_O_4_
Pin_id: L00103
Orientation: Laser parallel to c* (0 0 1). Fiducial mark perpendicular to laser is parallel to a [1 0 0]
Raman shift (cm-1)	intensity
98.231	0
103.174	2196.51
108.114	2402.43
113.052	2135.36
117.987	2778.04
122.919	644.387
127.849	34.4258
132.777	31.3984
137.702	95.7031
142.624	125.59
147.544	283.016
152.461	214.551
157.375	141.762
162.287	169.602
167.197	149.394
172.104	375.898
177.008	264.785
181.91	616.094
186.809	91.6211
191.706	506.152
196.6	1074.85
201.491	2310.16
206.38	3076.6
211.267	1476.07
216.151	657.75
221.032	1135.8
225.911	1533.91
230.787	460.184
235.66	77.7539
240.531	225.621
245.4	371.438
250.266	173.945
255.129	443.922
259.99	528.008
264.848	273.57
269.703	883.934
274.556	3605.29
279.407	3867.9
284.255	4512.41
289.1	11019.2
293.942	21412.7
298.783	35952.4
303.62	25200.7
308.455	5795.12
313.288	6748.55
318.117	17939
322.945	35453.9
327.769	25649.3
332.591	5504.22
337.411	3469.33
342.228	3590.51
347.042	2277.77
351.854	4088.12
356.663	8887.55
361.47	10929.1
366.274	11919.8
371.075	19040.7
375.874	22954.8
380.67	29349
385.464	34096.1
390.255	29853.3
395.043	22106.2
399.829	24585.8
404.613	26101.4
409.393	8164.72
414.172	5165.28
418.947	6121.42
423.72	4256.7
428.49	10190.1
433.258	23753.8
438.024	28373.6
442.786	12795.7
447.546	7520.09
452.304	2401.77
457.059	518.742
461.811	1335
466.56	1975.59
471.308	6168.59
476.052	22063.2
480.794	63771.5
485.533	101146
490.27	56677.9
495.004	21706.3
499.736	8623.23
504.465	5963.58
509.191	6284.56
513.915	4432.85
518.636	973.488
523.354	170.383
528.07	910.621
532.784	372.586
537.494	13.0352
542.203	888.535
546.908	924.246
551.611	1020.77
556.311	4259.32
561.009	8605.81
565.704	7806.16
570.397	5042.32
575.087	4320.25
579.774	4686.9
584.459	5889.19
589.141	3398.09
593.821	1142.53
598.498	1687.45
603.172	3000.79
607.844	3263.49
612.513	3342.49
617.18	3617.75
621.844	3556.2
626.505	4529.88
631.164	7140.57
635.82	10040.8
640.473	6485.1
645.124	3184.17
649.773	2913.89
654.418	3147.22
659.062	3073.45
663.702	3195.91
668.34	4452.75
672.975	3487.91
677.608	2448.47
682.238	1781.37
686.866	1360.08
691.49	1684.24
696.113	1916.18
700.732	2114.78
705.349	2459.42
709.964	1994.45
714.576	2083.82
719.185	2646.45
723.792	3299.3
728.396	2603.33
732.997	1519.46
737.596	1368.71
742.192	728.953
746.785	710.184
751.376	292.352
755.965	214.406
760.551	347.285
765.134	18.1875
769.714	222.215
774.292	459.234
778.867	410.902
783.44	136.285
788.01	57.0703
792.578	201.606
797.142	449.871
801.705	239.188
806.264	221.223
810.821	290.894
815.376	125.941
819.927	187.789
824.476	377.938
829.023	311.543
833.567	814.715
838.108	897.934
842.647	1133.99
847.183	1409.13
851.716	1644.96
856.247	2397.62
860.776	3192.08
865.301	4135.46
869.824	5836.77
874.345	9221.94
878.862	15806.1
883.377	28213
887.89	45877.8
892.4	50076
896.907	47266.1
901.412	44476.1
905.914	28166.3
910.413	15834.6
914.91	11549.5
919.404	10839.5
923.896	11020.3
928.385	12901.2
932.871	16691
937.355	22655.8
941.836	30497.2
946.315	39798.1
950.79	45569.3
955.264	41583.8
959.734	35514.6
964.202	28302.8
968.668	18329.2
973.131	11844.8
977.591	8380.59
982.048	6556.28
986.503	5261.25
990.955	5113.34
995.405	6130.57
999.852	7419.39
1004.3	5919.36
1008.74	3337.84
1013.18	2289.57
1017.61	1815.89
1022.05	1278.66
1026.48	1135.06
1030.91	994.266
1035.33	618.961
1039.76	459.625
1044.18	167.953
1048.6	374.516
1053.01	558.836
1057.42	139.766
1061.84	237.617
1066.24	245.711
1070.65	506.32
1075.05	584.938
1079.45	506.547
1083.85	598.453
1088.24	11.2031
1092.63	390.305
1097.02	98.3828
1101.41	366.797
1105.8	146.055
1110.18	478.828
1114.56	32.1094
1118.93	385.164
1123.31	356.477
1127.68	187.859
1132.04	97.0938
1136.41	173.25
1140.77	56.4453
1145.13	128.617
1149.49	188.031
1153.85	171.688
1158.2	86.4141
1162.55	332.297
1166.9	224.008
1171.24	99.3516
1175.58	157.93
1179.92	52.2656
1184.26	36.3984
1188.6	330.539
1192.93	98.4844
1197.26	175.242
1201.58	105.969
1205.9	184.719
1210.23	213.688
1214.55	66.1484
1218.86	413.688
1223.17	464.523
1227.48	596.117
1231.79	113.609
1236.1	500.031
1240.4	315.703
1244.7	563.562
1249	435.375
1253.29	83.4609
1257.59	241.461
1261.88	358.953
1266.16	398.406
1270.45	252.797
1274.73	858.227
1279.01	467.922
1283.28	228.398
1287.56	511.25
1291.83	623.039
1296.1	413.555
1300.36	255
1304.63	554.281
1308.89	780.656
1313.15	561.18
1317.4	524.352
1321.65	327.258
1325.9	412.578
1330.15	249.953
1334.4	203.906
1338.64	2.9375
1342.88	286.172
1347.12	136.133
1351.35	343.812
1355.58	389.461
1359.81	329.477
1364.04	10.1016
1368.26	223.406
1372.48	443.344
1376.7	104.211
1380.92	106.367
1385.13	391.641
1389.34	232.703
1393.55	16.2891
1397.76	154.688
1401.96	163.977
1406.16	572.453
1410.36	369.492
1414.55	643.594
1418.75	92.2266
1422.94	349.297
1427.12	502.961
1431.31	6.375
1435.49	507.688
1439.67	413.258
1443.85	393.492
1448.02	204.867
1452.19	481.367
1456.36	574.367
1460.53	677.758
1464.69	332.812
1468.85	471.461
1473.01	246.086
1477.17	32.375
1481.32	509.258
1485.47	6.22656
1489.62	154.109
1493.76	216.234
1497.91	83.1875
1502.05	166.844
1506.18	227.891
1510.32	124.953
1514.45	201.695
1518.58	98.9688
1522.71	118.547
1526.83	33.8047
1530.95	74.2031
1535.07	237.078
1539.19	111.984
1543.3	60.9531
1547.41	157.047
1551.52	211.195
1555.63	757.07
1559.73	10.3906
1563.83	223.898
1567.93	418.211
1572.03	207.562
1576.12	260.156
