Measurement: Raman, 514 nm, ccw, Raman Data Processed
Mineral: Kyanite
Rruff sample: R040119
Ideal chemistry: Al_2_OSiO_4_
Locality: Rutherford County, North Carolina, USA
Source: University of Arizona Mineral Museum
Description: Blue bladed crystal
Measured chemistry: (Al_0.99_Fe^3+^_0.01_)_2_OSi_1.00_O_4_
Pin_id: L00448
Orientation: Laser parallel to -a* (-1 0 0). Fiducial mark perpendicular to laser is parallel to b [0 1 0]
Raman shift (cm-1)	intensity
127.849	0
132.777	10.7266
137.702	202.908
142.624	350.69
147.544	220.295
152.461	325.139
157.375	933.133
162.287	2444.25
167.197	548.734
172.104	734.924
177.008	863.594
181.91	258.766
186.809	273.596
191.706	20.7148
196.6	864.393
201.491	2672.56
206.38	4684.23
211.267	1971.13
216.151	571.856
221.032	897.854
225.911	1874.09
230.787	329.662
235.66	48.8789
240.531	397.137
245.4	1190.6
250.266	443.715
255.129	425.527
259.99	880.619
264.848	443.217
269.703	2134.5
274.556	8463.7
279.407	8594.45
284.255	4673.1
289.1	12292.7
293.942	25128.9
298.783	58470.4
303.62	39085.5
308.455	6326.19
313.288	5552.78
318.117	17611.1
322.945	49224.6
327.769	33773.6
332.591	4823.06
337.411	3177.04
342.228	4357.23
347.042	3041.82
351.854	7164.85
356.663	21967.2
361.47	24690.9
366.274	14024.9
371.075	25296.3
375.874	39541
380.67	68684.2
385.464	89258.9
390.255	68088.4
395.043	45697.5
399.829	64528.4
404.613	79813.9
409.393	17903.2
414.172	4200.43
418.947	2591.94
423.72	4282.05
428.49	16211.8
433.258	48297.2
438.024	58207.5
442.786	23903.7
447.546	18294
452.304	6096.46
457.059	3411.1
461.811	8317.07
466.56	10428.2
471.308	11020.8
476.052	31446
480.794	101501
485.533	193627
490.27	100438
495.004	39441.1
499.736	13730
504.465	7029.06
509.191	5940.48
513.915	4432.55
518.636	2254.64
523.354	424.234
528.07	663.644
532.784	1293.18
537.494	759.949
542.203	130.848
546.908	178.426
551.611	807.574
556.311	5048.16
561.009	14686.1
565.704	10206.3
570.397	5253.72
575.087	3703.28
579.774	3944.93
584.459	5043.56
589.141	2703.11
593.821	1973.5
598.498	3210.64
603.172	6370.46
607.844	6951.86
612.513	7021.75
617.18	8691.04
621.844	9052.64
626.505	12807.4
631.164	21353
635.82	32001.2
640.473	21292.3
645.124	13257.1
649.773	17309.5
654.418	26131.5
659.062	20737.8
663.702	10179.4
668.34	7361.9
672.975	5196.57
677.608	3878.29
682.238	3629.72
686.866	3358.18
691.49	2790.12
696.113	3387.34
700.732	4366.28
705.349	4540.42
709.964	3574.7
714.576	2861.03
719.185	2337.35
723.792	2631.6
728.396	2656.72
732.997	2991.63
737.596	3039.29
742.192	2401.66
746.785	1975.67
751.376	1500.29
755.965	933.484
760.551	886.199
765.134	346.391
769.714	57.7461
774.292	57.1914
778.867	256.801
783.44	254.902
788.01	419.301
792.578	375.441
797.142	125.746
801.705	114.406
806.264	173.281
810.821	173.312
815.376	391.883
819.927	158.269
824.476	418.836
829.023	814.547
833.567	786.574
838.108	904.293
842.647	1436.77
847.183	1531.96
851.716	1708.6
856.247	2545.72
860.776	3332.38
865.301	3470.87
869.824	4148.69
874.345	5393.75
878.862	7028.07
883.377	9490.23
887.89	13741.8
892.4	16422.2
896.907	21215.6
901.412	25026.6
905.914	17781
910.413	12733.3
914.91	11962.2
919.404	13595
923.896	16952.6
928.385	22963
932.871	33266.4
937.355	47334.9
941.836	62354
946.315	72827
950.79	74784.2
955.264	91046.5
959.734	113841
964.202	98401.1
968.668	60396.4
973.131	34383.8
977.591	21554.5
982.048	14463.4
986.503	11170
990.955	10088.5
995.405	13628.8
999.852	18937.1
1004.3	14746.6
1008.74	7854.45
1013.18	4918.28
1017.61	3902.18
1022.05	3467.92
1026.48	2795.97
1030.91	2413.76
1035.33	1487.82
1039.76	1486.62
1044.18	1242.1
1048.6	1192.54
1053.01	803.375
1057.42	635.738
1061.84	569.887
1066.24	761.695
1070.65	709.387
1075.05	602.676
1079.45	993.562
1083.85	861.32
1088.24	586.832
1092.63	453.062
1097.02	581.906
1101.41	221.289
1105.8	195.207
1110.18	267.691
1114.56	186.738
1118.93	274.281
1123.31	63.2188
1127.68	11.9062
1132.04	211.082
1136.41	18.4961
1140.77	1.71094
1145.13	116.547
1149.49	34.5156
1153.85	101.703
1158.2	175.977
1162.55	267.297
1166.9	189.727
1171.24	24.4609
1175.58	79.6094
1179.92	376.008
1184.26	321.664
1188.6	137.734
1192.93	313.59
1197.26	2.32812
1201.58	194.457
1205.9	95.8555
1210.23	353.332
1214.55	156.363
1218.86	423.367
1223.17	293.332
1227.48	363.242
1231.79	605.094
1236.1	839.871
1240.4	776.922
1244.7	751.551
1249	1081.68
1253.29	741.348
1257.59	993.602
1261.88	724.629
1266.16	935.852
1270.45	1000.52
1274.73	1139.2
1279.01	983.902
1283.28	907.289
1287.56	948.023
1291.83	998.133
1296.1	995.731
1300.36	1135.03
1304.63	1096.7
1308.89	1358.39
1313.15	629.492
1317.4	1488.09
1321.65	992.856
1325.9	1147.87
1330.15	499.527
1334.4	366.426
1338.64	176.988
1342.88	415.223
1347.12	17.5859
1351.35	392.988
1355.58	170.547
1359.81	156.281
1364.04	35.1836
1368.26	447.168
1372.48	576.684
1376.7	150.043
1380.92	279.391
1385.13	335.812
1389.34	373.137
1393.55	3.94531
1397.76	50.3516
1401.96	247.785
1406.16	461.231
1410.36	78.3086
1414.55	137.852
1418.75	151.871
1422.94	449.215
1427.12	477.348
1431.31	710.008
1435.49	894.719
1439.67	1488.43
1443.85	1809.56
1448.02	1996.02
1452.19	1931.64
1456.36	2046.31
1460.53	1476.12
1464.69	1053.66
1468.85	854.769
1473.01	825.238
1477.17	799.344
1481.32	652.012
1485.47	786.324
1489.62	558.656
1493.76	96.9453
1497.91	230
1502.05	66.457
1506.18	10.3828
1510.32	278.379
1514.45	302.996
1518.58	262.957
1522.71	358.098
1526.83	26.8984
1530.95	457.402
1535.07	347.781
1539.19	203.418
1543.3	615.215
1547.41	409.781
1551.52	423.352
1555.63	749.273
1559.73	405.816
1563.83	519.832
1567.93	530.867
1572.03	40.0156
1576.12	60.707
