Measurement: Raman, 514 nm, depolarized, Raman Data Processed
Mineral: Kyanite
Rruff sample: R040119
Ideal chemistry: Al_2_OSiO_4_
Locality: Rutherford County, North Carolina, USA
Source: University of Arizona Mineral Museum
Description: Blue bladed crystal
Measured chemistry: (Al_0.99_Fe^3+^_0.01_)_2_OSi_1.00_O_4_
Pin_id: L00103
Orientation: Laser parallel to c* (0 0 1). Fiducial mark perpendicular to laser is parallel to a [1 0 0]
Raman shift (cm-1)	intensity
95.759	0
100.703	985.352
105.644	3905.48
110.583	1949
115.52	2911.6
120.453	3396.61
125.385	541.748
130.313	482.594
135.239	430.277
140.163	642.211
145.084	592.17
150.002	314.853
154.918	428.113
159.832	624.727
164.742	361.746
169.651	799.49
174.556	1151.39
179.459	1110.41
184.36	768.41
189.258	871.586
194.153	756.121
199.046	1506.18
203.936	2909.3
208.824	2888.01
213.709	1098.34
218.592	1860.39
223.472	4675.61
228.349	3950.41
233.224	368.066
238.096	18.8164
242.966	123.625
247.833	27.4609
252.698	421.734
257.56	594.973
262.419	1072.62
267.276	48.0781
272.13	2713.74
276.982	6633.79
281.831	5125.6
286.677	11390.2
291.521	27580.8
296.363	52993.3
301.202	80397.6
306.038	23282.8
310.872	6453.46
315.703	11574.7
320.531	32193.1
325.357	52772.8
330.181	15859.8
335.001	3686.51
339.82	4226.32
344.635	3298.8
349.448	4530.49
354.259	12921.4
359.067	28489.7
363.872	18422.3
368.675	19622.5
373.475	26910.2
378.272	30703.4
383.067	46285.6
387.86	51661.8
392.649	53800.3
397.437	31330.3
402.221	51152.4
407.003	30922.2
411.783	10746.9
416.56	15159.2
421.334	13258.9
426.106	9698.13
430.875	24433
435.641	48924.5
440.405	33768.8
445.167	13160.8
449.925	7325.67
454.681	744.356
459.435	1005.94
464.186	3289.5
468.934	5305.16
473.68	16071.1
478.423	55367.5
483.164	145317
487.902	158216
492.637	66110.9
497.37	25776.4
502.1	12518.3
506.828	12522.2
511.553	12794.4
516.276	5194.36
520.995	540.727
525.713	743.398
530.427	1152.84
535.139	517.602
539.849	1638.29
544.556	4049.19
549.26	2942.6
553.962	5063.25
558.661	14756.9
563.357	22394.9
568.051	15699.1
572.742	16152.5
577.431	7859.9
582.117	6365.31
586.801	5664.62
591.481	1910.71
596.16	1172.51
600.835	2800.91
605.508	4628.81
610.179	2932.1
614.847	2783.64
619.512	2982.41
624.175	2780.16
628.835	5482.04
633.492	10233.1
638.147	11551.1
642.799	5205.15
647.449	2386.18
652.096	3220.16
656.74	3660.91
661.382	4106.21
666.021	7241.18
670.658	8971.43
675.292	4967.4
679.923	2664.53
684.552	1966.98
689.178	1422.36
693.802	1477.06
698.423	2264.18
703.041	2609.63
707.657	1957.41
712.27	1832.29
716.881	2380.97
721.489	4089.75
726.094	3668.39
730.697	2055.78
735.297	1253.86
739.894	1118.52
744.489	478.699
749.081	442.309
753.671	315.172
758.258	115.129
762.842	17.6289
767.424	212.352
772.003	213.41
776.58	231.309
781.154	407.141
785.725	270.707
790.294	135.527
794.86	183.914
799.424	177.074
803.985	341.535
808.543	547.621
813.099	400.246
817.652	843.293
822.202	657.211
826.75	1083.01
831.295	1182.73
835.838	1637.39
840.378	1816.98
844.915	2088.57
849.45	2776.12
853.982	4137.68
858.512	4776.32
863.039	6255.99
867.563	8664.72
872.085	12266.5
876.604	19263.6
881.12	33452.8
885.634	58407.3
890.145	80925.2
894.654	80689.6
899.16	90748.1
903.663	77280.6
908.164	42363.7
912.662	24114.3
917.158	17780.4
921.651	15784.5
926.141	16051
930.628	19948.3
935.113	26380.6
939.596	35884.9
944.076	47183.6
948.553	59933.4
953.027	62268.4
957.499	53130.4
961.969	46872.1
966.435	33921.3
970.899	21357.5
975.361	14170.3
979.82	10165.3
984.276	7618.4
988.73	6617.09
993.181	6387.5
997.629	7722.12
1002.08	7959
1006.52	5170.19
1010.96	3235.7
1015.4	2302.58
1019.83	2151.37
1024.26	1602
1028.69	1246.96
1033.12	1009.47
1037.55	881.043
1041.97	428.051
1046.39	295.676
1050.81	659.887
1055.22	18.1484
1059.63	448.164
1064.04	241.449
1068.45	377.18
1072.85	134.523
1077.25	405.32
1081.65	601.254
1086.05	177.797
1090.44	36.3086
1094.83	306.797
1099.22	78.0273
1103.6	750.797
1107.99	41.2852
1112.37	299.055
1116.74	47.957
1121.12	88.75
1125.49	293.523
1129.86	206.391
1134.23	156.406
1138.59	383.766
1142.95	47.3906
1147.31	74.4648
1151.67	171.273
1156.02	19.6016
1160.38	51.5898
1164.72	115.203
1169.07	208.922
1173.41	500.621
1177.75	57.8633
1182.09	22.8828
1186.43	97.8828
1190.76	33.5312
1195.09	24.7578
1199.42	15.7109
1203.74	82.6562
1208.07	30.7891
1212.39	389.414
1216.7	26.0156
1221.02	683.43
1225.33	28.7031
1229.64	416.117
1233.95	101.188
1238.25	467.328
1242.55	429.07
1246.85	276.461
1251.15	561.609
1255.44	490.789
1259.73	275.781
1264.02	742.609
1268.31	467.18
1272.59	233.258
1276.87	564.828
1281.15	282.859
1285.42	491.297
1289.69	395.945
1293.96	670.273
1298.23	416.094
1302.5	404.859
1306.76	459.781
1311.02	587.047
1315.27	538.938
1319.53	500.125
1323.78	237.875
1328.03	69.8984
1332.28	158.453
1336.52	288.68
1340.76	6.23438
1345	108.367
1349.23	524.914
1353.47	128.727
1357.7	173.945
1361.93	431.383
1366.15	409.625
1370.37	485.867
1374.59	279.398
1378.81	48.2344
1383.03	392.078
1387.24	30.6719
1391.45	280.57
1395.65	98.4844
1399.86	18.3984
1404.06	67.1406
1408.26	813.555
1412.46	203.703
1416.65	213.398
1420.84	90.4844
1425.03	147.852
1429.22	353.414
1433.4	207.453
1437.58	72.4453
1441.76	614.773
1445.93	241.141
1450.11	482.672
1454.28	318.438
1458.44	521.18
1462.61	625.055
1466.77	385.773
1470.93	543.195
1475.09	229.023
1479.24	489.344
1483.39	45.9922
1487.54	461.156
1491.69	472.195
1495.84	158.367
1499.98	48.8906
1504.12	336.492
1508.25	225.68
1512.38	286.141
1516.52	429.719
1520.64	220.602
1524.77	329.867
1528.89	136.266
1533.01	493.523
1537.13	227.047
1541.25	371.852
1545.36	162.953
1549.47	352.75
1553.58	991.453
1557.68	501.547
1561.78	438.992
1565.88	129.43
1569.98	643.977
1574.07	11.4219
1578.16	0
