Measurement: Raman, 514 nm, ccw, Raman Data Processed
Mineral: Kyanite
Rruff sample: R040119
Ideal chemistry: Al_2_OSiO_4_
Locality: Rutherford County, North Carolina, USA
Source: University of Arizona Mineral Museum
Description: Blue bladed crystal
Measured chemistry: (Al_0.99_Fe^3+^_0.01_)_2_OSi_1.00_O_4_
Pin_id: L00532
Orientation: Laser parallel to (-1 0 -1). Fiducial mark perpendicular to laser is parallel to b [0 1 0]
Raman shift (cm-1)	intensity
77.196	0
82.15	1154.19
87.101	220.281
92.049	1896.23
96.995	376.469
101.939	1575.86
106.879	1810.82
111.818	2374.33
116.753	3723.31
121.686	1573.76
126.617	372.625
131.545	756.269
136.471	559.75
141.393	1155.52
146.314	1058.51
151.232	966.769
156.147	380.484
161.06	1134.64
165.97	648.66
170.877	2302.53
175.782	3227.86
180.685	851.191
185.585	378.238
190.482	610.371
195.377	683.781
200.269	858.246
205.158	1129.6
210.045	852.812
214.93	1091.09
219.812	2714.84
224.691	6555.88
229.568	2356.46
234.442	400.805
239.314	542.504
244.183	261.207
249.049	621.625
253.913	45.4141
258.775	429.184
263.633	881.758
268.49	107.898
273.343	2430.3
278.194	5241.32
283.043	4354.06
287.889	12970.6
292.732	23819.9
297.573	55753.8
302.411	49720.5
307.247	9462.45
312.08	6100.4
316.91	10459.3
321.738	26162.6
326.563	25125.5
331.386	4056.96
336.206	393.578
341.024	1157.82
345.839	345.906
350.651	3330.73
355.461	14379.5
360.268	25070.1
365.073	11482
369.875	19641
374.674	25026.7
379.471	33934.6
384.266	52362
389.057	47023.6
393.846	34409.8
398.633	28574.4
403.417	49622.8
408.198	17652.9
412.977	5890.66
417.753	8909.02
422.527	5422.15
427.298	8881.71
432.067	26005.7
436.832	40927
441.596	21168
446.356	23701.5
451.115	9228.73
455.87	4062.57
460.623	6464.16
465.373	9210.6
470.121	11755
474.866	22687
479.609	69556.5
484.349	159776
489.086	88444.7
493.821	31714.7
498.553	11075.1
503.283	5904.21
508.01	6461.55
512.734	6391.33
517.456	2109.65
522.175	303.426
526.892	550.144
531.606	879.66
536.317	271.531
541.026	309.102
545.732	891.086
550.436	197.359
555.137	2197.43
559.835	9585.07
564.531	8195.31
569.224	5551.09
573.915	4645.35
578.603	2035.06
583.288	1249.12
587.971	638.496
592.651	1407.13
597.329	5352.91
602.004	12257.6
606.676	14070.6
611.346	6337.79
616.013	5270.66
620.678	3773.14
625.34	3592.88
629.999	5675.02
634.656	9436.92
639.31	7106.58
643.962	4323.21
648.611	5683.49
653.257	10343.1
657.901	9390.83
662.542	4402.98
667.181	2980.78
671.817	2526.98
676.45	2954.85
681.081	3415.09
685.709	2646.34
690.334	1481.46
694.957	555.562
699.578	1069.82
704.195	1096.2
708.811	989.977
713.423	1174.66
718.033	1436.49
722.64	1698.84
727.245	1177.66
731.847	734.906
736.446	111.477
741.043	992.227
745.637	222.188
750.229	517.266
754.818	64.3672
759.404	557.18
763.988	54.3906
768.569	16.6172
773.148	41.6328
777.724	402.695
782.297	230.711
786.868	400.398
791.436	256.039
796.001	188.844
800.564	229.25
805.125	45.7266
809.682	215.812
814.237	465.375
818.79	576.086
823.339	448.375
827.887	343.281
832.431	619.82
836.973	930.188
841.513	834.555
846.049	882.859
850.583	1509.14
855.115	1845.44
859.644	2764.8
864.17	3594.52
868.694	4775.12
873.215	7093.69
877.733	11378.7
882.249	20298.9
886.762	33610.7
891.273	36327.3
895.781	26296.9
900.286	24757.6
904.789	18825.6
909.289	12650.1
913.786	10519.9
918.281	10668.6
922.773	12442
927.263	16328.3
931.75	23469.3
936.234	31176.8
940.716	37576.4
945.195	44213.7
949.672	48154.9
954.146	54297.6
958.617	63565.7
963.086	58669.2
967.552	38157
972.015	21761.1
976.476	14155.1
980.934	9758.98
985.39	7659.09
989.843	8106.07
994.293	11475.1
998.741	18392.8
1003.19	16293.1
1007.63	8321.65
1012.07	4639.51
1016.5	3122.69
1020.94	2519.3
1025.37	1676.79
1029.8	1644.65
1034.23	706.852
1038.65	377.398
1043.07	645.57
1047.49	406.477
1051.91	284.375
1056.32	305.586
1060.73	139.875
1065.14	1032.09
1069.55	93.0078
1073.95	366.086
1078.35	168.367
1082.75	134.297
1087.14	30.1953
1091.54	63.9766
1095.93	41.7969
1100.31	192.273
1104.7	343.375
1109.08	420.617
1113.46	463.094
1117.84	345.797
1122.21	163.656
1126.58	103.57
1130.95	114.203
1135.32	285.047
1139.68	174.094
1144.04	320.172
1148.4	200.805
1152.76	646.5
1157.11	296.328
1161.46	9.64062
1165.81	351.602
1170.16	307.516
1174.5	108.523
1178.84	298.492
1183.18	56.2891
1187.51	80.5078
1191.84	205.148
1196.17	1.28125
1200.5	56.7969
1204.83	555.727
1209.15	202.461
1213.47	185.969
1217.78	530.242
1222.1	70.9375
1226.41	179.984
1230.72	595.602
1235.02	934.875
1239.33	611.367
1243.63	48.8359
1247.92	864.266
1252.22	335.633
1256.51	605.727
1260.8	296.141
1265.09	1047.82
1269.38	606.344
1273.66	549.578
1277.94	191.523
1282.21	470.156
1286.49	467.047
1290.76	581.625
1295.03	310.984
1299.3	872.961
1303.56	564.109
1307.82	942.734
1312.08	540.578
1316.34	221.414
1320.59	483.828
1324.84	513.844
1329.09	530.977
1333.34	470.391
1337.58	731.758
1341.82	286.141
1346.06	583.164
1350.29	261.297
1354.53	695.211
1358.76	729.461
1362.98	386.609
1367.21	750.07
1371.43	425.852
1375.65	523.961
1379.87	366.453
1384.08	481.477
1388.29	400.953
1392.5	274.93
1396.71	371.805
1400.91	866.094
1405.11	488.867
1409.31	461.336
1413.51	403.172
1417.7	608.023
1421.89	333.5
1426.08	763.461
1430.26	761.094
1434.44	696.32
1438.62	302.07
1442.8	356.414
1446.98	394.75
1451.15	219.086
1455.32	597.609
1459.49	574.453
1463.65	460.086
1467.81	258.984
1471.97	463.016
1476.13	756.867
1480.28	459.555
1484.43	415.93
1488.58	396.969
1492.73	866.797
1496.87	327.18
1501.01	215.641
1505.15	348.695
1509.29	265.367
1513.42	546.602
1517.55	325.602
1521.67	6.10938
1525.8	321.641
1529.92	323.852
1534.04	502.562
1538.16	461.984
1542.27	444.68
1546.39	504.93
1550.49	60.6797
1554.6	356.172
1558.71	36.7734
1562.81	395.734
1566.91	559.172
1571	458.297
1575.1	369.336
