Measurement: Raman, 514 nm, depolarized, Raman Data Processed
Mineral: Kyanite
Rruff sample: R040119
Ideal chemistry: Al_2_OSiO_4_
Locality: Rutherford County, North Carolina, USA
Source: University of Arizona Mineral Museum
Description: Blue bladed crystal
Measured chemistry: (Al_0.99_Fe^3+^_0.01_)_2_OSi_1.00_O_4_
Pin_id: L00051
Orientation: Laser parallel to b* (0 1 0). Fiducial mark perpendicular to laser is parallel to -c [0 0 -1]
Raman shift (cm-1)	intensity
69.761	0
74.718	2459.88
79.673	3039.07
84.626	1256.59
89.575	388.91
94.523	169.387
99.467	188.957
104.409	2231.12
109.349	785.973
114.286	1552.17
119.22	2069.34
124.152	941.41
129.081	20.8086
134.008	114.172
138.932	469.918
143.854	418.332
148.773	353.492
153.69	96.3359
158.604	696.266
163.515	591.484
168.424	1055.39
173.33	1236.84
178.234	1190.58
183.135	309.617
188.034	560.75
192.93	317.625
197.823	161.086
202.714	161.953
207.602	498.719
212.488	3.67969
217.371	610.359
222.252	905.906
227.13	1602.04
232.005	236.641
236.878	70.25
241.749	38.2266
246.616	39.1719
251.482	140.805
256.344	603.68
261.204	272.258
266.062	68.8281
270.917	848.227
275.769	3095.37
280.619	2399.34
285.466	2969.45
290.311	8251.83
295.153	14547.6
299.992	26662.8
304.829	12865.7
309.663	2077.6
314.495	2675.92
319.324	5428.34
324.151	11862
328.975	5973.02
333.796	691.68
338.615	1102.63
343.432	680.25
348.245	1045.01
353.056	3893.3
357.865	10726.4
362.671	9309.46
367.474	3660.2
372.275	5949.15
377.073	8090.29
381.869	12089.4
386.662	16279
391.452	17611.2
396.24	11011.7
401.025	16219.3
405.808	16421.7
410.588	4284.18
415.366	5147.98
420.141	6513.42
424.913	3471.59
429.683	6688.56
434.45	15933.6
439.214	14909.5
443.976	5625.22
448.736	3740.93
453.493	430.898
458.247	2.36719
462.998	489.547
467.747	1235.84
472.494	2864.25
477.238	11871.8
481.979	32998.8
486.718	51596.1
491.454	23431.1
496.187	9479.11
500.918	3929.94
505.646	3703.48
510.372	4744.96
515.095	3047.84
519.816	828.227
524.534	162.383
529.249	156.844
533.962	353.336
538.672	350.992
543.379	1344.71
548.084	1662.09
552.786	1874.86
557.486	5328
562.183	11351.9
566.878	7206.47
571.57	5141.62
576.259	2472.51
580.946	909.375
585.63	628.453
590.311	86.0391
594.99	620.719
599.667	2112.96
604.34	4274.21
609.012	3348.15
613.68	1591.18
618.346	1707.83
623.009	1524.08
627.67	2165.8
632.328	2936.41
636.984	3165.02
641.636	1619.3
646.287	700.055
650.934	586
655.579	818.586
660.222	1182.26
664.862	1445.03
669.499	2693.62
674.134	2096.5
678.766	924.898
683.395	627
688.022	322.453
692.646	83.5547
697.268	604.664
701.887	429.703
706.503	719.703
711.117	63.4297
715.728	325.898
720.337	330.047
724.943	441.984
729.546	98.1484
734.147	508.242
738.745	246.367
743.341	547.156
747.933	157.523
752.524	606.414
757.111	567.867
761.697	134.766
766.279	128.828
770.859	92.6328
775.436	312.242
780.011	142.703
784.583	55.375
789.152	12.125
793.719	91.2344
798.283	224.555
802.845	138.281
807.404	227.031
811.96	241.438
816.514	441.227
821.065	508.273
825.613	809.656
830.159	237.719
834.703	764.195
839.243	1063.75
843.781	1081.75
848.317	1405.66
852.849	1187.47
857.38	1925.86
861.907	1244.52
866.432	2407.13
870.954	3139.64
875.474	4065.62
879.991	6176.12
884.506	10085.5
889.018	14306.3
893.527	17044.9
898.034	22769.4
902.538	25075.9
907.039	15101.8
911.538	8745.55
916.034	6021.99
920.528	5705.75
925.018	6316.58
929.507	7128.31
933.992	9458.44
938.476	12418
942.956	15970.7
947.434	21713.9
951.909	24167.3
956.382	23350.1
960.852	21976
965.319	16976.8
969.784	10638.4
974.246	7131.61
978.705	4689.25
983.162	3466.45
987.616	3610.18
992.068	4038.34
996.517	5138.34
1000.96	6591.02
1005.41	4586.78
1009.85	2906.88
1014.29	1656.97
1018.72	1395.54
1023.16	843.969
1027.59	668.211
1032.02	1067.24
1036.44	411.258
1040.86	78.5234
1045.28	303.742
1049.7	419.422
1054.12	688.484
1058.53	665.734
1062.94	830.766
1067.35	230.602
1071.75	383.117
1076.15	89.2969
1080.55	534.562
1084.95	20.6094
1089.34	159.297
1093.73	460.812
1098.12	502.25
1102.51	483.109
1106.89	660.297
1111.27	589.344
1115.65	998.391
1120.03	579.188
1124.4	533.641
1128.77	452.781
1133.14	286.969
1137.5	345.047
1141.86	203.031
1146.22	26.7656
1150.58	149.203
1154.93	1030.17
1159.29	142.641
1163.64	428.469
1167.98	596.781
1172.33	650.047
1176.67	14.3281
1181.01	558.359
1185.34	261.953
1189.68	170.359
1194.01	410.484
1198.34	243.172
1202.66	58.4688
1206.99	283.125
1211.31	262.531
1215.62	189.375
1219.94	81.1875
1224.25	295.984
1228.56	505.219
1232.87	351
1237.17	805.344
1241.48	36.7812
1245.78	1020.56
1250.07	219.172
1254.37	419.219
1258.66	117.031
1262.95	312.922
1267.23	265.953
1271.52	107.203
1275.8	568.141
1280.08	374.125
1284.35	635.703
1288.63	721.562
1292.9	798.703
1297.16	791.172
1301.43	567.984
1305.69	748.531
1309.95	742.547
1314.21	338.719
1318.46	70.4844
1322.72	761.656
1326.97	510.469
1331.21	113.516
1335.46	235.094
1339.7	275.188
1343.94	419.281
1348.18	44.5156
1352.41	551.891
1356.64	966.047
1360.87	601.422
1365.1	234.719
1369.32	175.953
1373.54	686.656
1377.76	669.047
1381.97	580.859
1386.19	1022
1390.4	473.734
1394.6	561.766
1398.81	239.547
1403.01	42.8438
1407.21	394.266
1411.41	657.609
1415.6	349.797
1419.79	545.938
1423.98	984.078
1428.17	802.344
1432.35	871.859
1436.54	846.828
1440.71	805.578
1444.89	578.062
1449.06	530.188
1453.23	1012.83
1457.4	593.766
1461.57	956.766
1465.73	752.641
1469.89	291.844
1474.05	764.219
1478.2	730.625
1482.36	154.797
1486.51	272.344
1490.65	132.047
1494.8	23.625
1498.94	50.2188
1503.08	671.562
1507.22	119.344
1511.35	716.25
1515.48	259.516
1519.61	382.078
1523.74	682.938
1527.86	6.89062
1531.98	1083.16
1536.1	1708.09
1540.22	876.344
1544.33	724.047
1548.44	418.516
1552.55	441.125
1556.65	482.375
1560.76	442.047
1564.86	1475.52
1568.95	255.531
1573.05	1597.06
1577.14	737.984
