Measurement: Raman, 514 nm, ccw, Raman Data Processed
Mineral: Kyanite
Rruff sample: R040119
Ideal chemistry: Al_2_OSiO_4_
Locality: Rutherford County, North Carolina, USA
Source: University of Arizona Mineral Museum
Description: Blue bladed crystal
Measured chemistry: (Al_0.99_Fe^3+^_0.01_)_2_OSi_1.00_O_4_
Pin_id: L00532
Orientation: Laser parallel to (-1 0 -1). Fiducial mark perpendicular to laser is parallel to b [0 1 0]
Raman shift (cm-1)	intensity
77.196	0
82.15	794.152
87.101	8.51562
92.049	262.434
96.995	103.875
101.939	1173.65
106.879	2051.28
111.818	2556.63
116.753	3312.95
121.686	1484.65
126.617	350.559
131.545	736.902
136.471	1.37891
141.393	1354.95
146.314	1077.33
151.232	483.262
156.147	880.769
161.06	892.793
165.97	605.617
170.877	2223.97
175.782	2896.55
180.685	1398.97
185.585	333.004
190.482	489.055
195.377	1388.66
200.269	1591.4
205.158	1694.71
210.045	1469.76
214.93	667.566
219.812	2174.05
224.691	5271.88
229.568	1498.02
234.442	873.578
239.314	413.805
244.183	340.723
249.049	523
253.913	147.547
258.775	355.438
263.633	1040.46
268.49	152.922
273.343	2329.78
278.194	4842.15
283.043	3668.7
287.889	11027
292.732	19380.7
297.573	44333.8
302.411	40466.2
307.247	7864.06
312.08	5458.9
316.91	8908.77
321.738	23405.8
326.563	22614.2
331.386	3840.97
336.206	852.5
341.024	1389.27
345.839	679.648
350.651	2679.55
355.461	11514.4
360.268	20699.9
365.073	10662.5
369.875	19494.6
374.674	22270.7
379.471	27881.3
384.266	45270.1
389.057	38695.5
393.846	28394.4
398.633	23447.1
403.417	41909.9
408.198	11978
412.977	6064.19
417.753	9272.61
422.527	5047.17
427.298	7688.63
432.067	21507.6
436.832	35150.9
441.596	17770.7
446.356	18143.1
451.115	7593
455.87	3252.61
460.623	5184.01
465.373	7628.27
470.121	7374.48
474.866	17842
479.609	55919.4
484.349	130840
489.086	73262.1
493.821	26562
498.553	9092.69
503.283	5452.41
508.01	5512.9
512.734	5865.36
517.456	1764.64
522.175	632.312
526.892	507.703
531.606	607.938
536.317	742.266
541.026	808.047
545.732	1156.65
550.436	530.32
555.137	2644.11
559.835	9159.6
564.531	8106.69
569.224	4947.31
573.915	4469.4
578.603	2248.87
583.288	1568.69
587.971	1306.81
592.651	1660.34
597.329	3773.33
602.004	9468.95
606.676	11024
611.346	5161.63
616.013	4599.27
620.678	3501.34
625.34	3612.26
629.999	6482.33
634.656	8568.48
639.31	6400.08
643.962	3694.22
648.611	5948.46
653.257	10065.2
657.901	9432.8
662.542	4649.89
667.181	3707.66
671.817	2965.48
676.45	2520.89
681.081	3212.73
685.709	2915.98
690.334	1068.27
694.957	1191.21
699.578	1223.64
704.195	1221.72
708.811	1553.16
713.423	696.352
718.033	601.211
722.64	1352.67
727.245	833.719
731.847	785.25
736.446	64.1094
741.043	630.414
745.637	390.859
750.229	686.531
754.818	51.7812
759.404	26.2422
763.988	113.188
768.569	174.727
773.148	85.6875
777.724	280.078
782.297	333.961
786.868	151.43
791.436	208.992
796.001	63.1641
800.564	389.797
805.125	26.6172
809.682	135.016
814.237	622.242
818.79	99.6562
823.339	333.461
827.887	178.711
832.431	735.422
836.973	1327.63
841.513	1056.7
846.049	1321.69
850.583	1370.69
855.115	1553.7
859.644	2244.78
864.17	2745.06
868.694	4362.22
873.215	5613.77
877.733	9921.04
882.249	17187.6
886.762	29318.7
891.273	31628
895.781	24449.6
900.286	23702.2
904.789	16999.8
909.289	11685.2
913.786	9920.35
918.281	9858.03
922.773	11750.4
927.263	14860.2
931.75	20480.8
936.234	28324.8
940.716	35069.8
945.195	43582.5
949.672	49438.9
954.146	51581.2
958.617	56282.2
963.086	51588.3
967.552	33275
972.015	19773.3
976.476	12876.2
980.934	8759.47
985.39	7068.62
989.843	6896.03
994.293	9824.06
998.741	15885.6
1003.19	13616.2
1007.63	7297.88
1012.07	4473.59
1016.5	2819.67
1020.94	2451.27
1025.37	1794.53
1029.8	851.469
1034.23	1097.55
1038.65	589.68
1043.07	642.938
1047.49	976.109
1051.91	597.469
1056.32	792.383
1060.73	526.438
1065.14	448.242
1069.55	221.094
1073.95	168.219
1078.35	56.1406
1082.75	229.062
1087.14	179.648
1091.54	457.516
1095.93	149.953
1100.31	320.625
1104.7	10.5469
1109.08	60.4609
1113.46	75.6328
1117.84	442.148
1122.21	137.977
1126.58	35.5781
1130.95	20.0234
1135.32	311.344
1139.68	278.477
1144.04	182.484
1148.4	367.281
1152.76	270
1157.11	144.266
1161.46	211.109
1165.81	343.094
1170.16	730.875
1174.5	36.1562
1178.84	195.203
1183.18	147.789
1187.51	98.2734
1191.84	380.172
1196.17	379.055
1200.5	151.25
1204.83	153.531
1209.15	325.078
1213.47	132.258
1217.78	331.484
1222.1	590.688
1226.41	244.961
1230.72	595.297
1235.02	275.156
1239.33	297.562
1243.63	510.672
1247.92	831.156
1252.22	419.656
1256.51	829.18
1260.8	442.227
1265.09	756.234
1269.38	116.414
1273.66	440.742
1277.94	483.297
1282.21	448.469
1286.49	634.641
1290.76	150.758
1295.03	688.453
1299.3	595.812
1303.56	954.719
1307.82	178.133
1312.08	578.844
1316.34	550.352
1320.59	6.36719
1324.84	636.242
1329.09	14.4297
1333.34	1256.45
1337.58	663.414
1341.82	175.656
1346.06	428.57
1350.29	297.805
1354.53	666.367
1358.76	780.703
1362.98	770.531
1367.21	127.68
1371.43	591.547
1375.65	463.938
1379.87	708.859
1384.08	86.5312
1388.29	416.844
1392.5	650.797
1396.71	70.3984
1400.91	729.211
1405.11	527.727
1409.31	553.938
1413.51	879.883
1417.7	754.797
1421.89	991.188
1426.08	488.898
1430.26	554.375
1434.44	476.742
1438.62	19.875
1442.8	520.648
1446.98	74.0391
1451.15	504.203
1455.32	547.516
1459.49	485.469
1463.65	567.922
1467.81	579.297
1471.97	77.5469
1476.13	47.8594
1480.28	333.281
1484.43	658.844
1488.58	541.938
1492.73	995.367
1496.87	762.711
1501.01	500.109
1505.15	564.258
1509.29	75.0625
1513.42	451.125
1517.55	342.047
1521.67	241.992
1525.8	557.086
1529.92	14.9062
1534.04	934.391
1538.16	651.695
1542.27	226.203
1546.39	850.023
1550.49	405.867
1554.6	817.992
1558.71	396.688
1562.81	769.68
1566.91	18.7812
1571	354.969
1575.1	807.641
