Measurement: Raman, 514 nm, ccw, Raman Data Processed
Mineral: Kyanite
Rruff sample: R040119
Ideal chemistry: Al_2_OSiO_4_
Locality: Rutherford County, North Carolina, USA
Source: University of Arizona Mineral Museum
Description: Blue bladed crystal
Measured chemistry: (Al_0.99_Fe^3+^_0.01_)_2_OSi_1.00_O_4_
Pin_id: L00448
Orientation: Laser parallel to -a* (-1 0 0). Fiducial mark perpendicular to laser is parallel to b [0 1 0]
Raman shift (cm-1)	intensity
127.849	0
132.777	121.635
137.702	288.971
142.624	269.119
147.544	95.4414
152.461	69.459
157.375	532.662
162.287	1456.89
167.197	333.635
172.104	510.174
177.008	510.242
181.91	102.459
186.809	121.422
191.706	83.2305
196.6	1015.63
201.491	2361.28
206.38	3892.99
211.267	1773.93
216.151	617.16
221.032	1047.85
225.911	1717.91
230.787	539.106
235.66	190.324
240.531	408.594
245.4	710.234
250.266	537.41
255.129	545.281
259.99	681.356
264.848	547.981
269.703	1503.02
274.556	6060.1
279.407	6125
284.255	3539.94
289.1	9574.52
293.942	18511.8
298.783	42892.6
303.62	27999.6
308.455	4658.67
313.288	4008.83
318.117	13385.3
322.945	36762.1
327.769	24362.2
332.591	3249.45
337.411	2115.66
342.228	3249.62
347.042	1640.15
351.854	5459.24
356.663	17404.8
361.47	19567.9
366.274	11869.4
371.075	20109.4
375.874	27868
380.67	46461.7
385.464	59915.2
390.255	46150.4
395.043	30804.8
399.829	43782.2
404.613	54784.8
409.393	13197.7
414.172	4052.67
418.947	3553.97
423.72	3922.18
428.49	12333.4
433.258	35009.5
438.024	42192.8
442.786	17278.3
447.546	13799
452.304	4259.05
457.059	2763.37
461.811	6062.03
466.56	7479.01
471.308	7993.37
476.052	21906.4
480.794	70704.2
485.533	134353
490.27	67871.6
495.004	26566.6
499.736	9815.4
504.465	5474.97
509.191	5011.76
513.915	3466.97
518.636	728.148
523.354	184.414
528.07	627.973
532.784	684.113
537.494	539.301
542.203	16.9844
546.908	330.629
551.611	1007.96
556.311	4710.48
561.009	12963.6
565.704	8413.25
570.397	4432.35
575.087	3235.86
579.774	3875.7
584.459	4472.82
589.141	2629.13
593.821	1768.58
598.498	3437.09
603.172	6624.59
607.844	7090
612.513	5673.25
617.18	7212.25
621.844	7547.4
626.505	11121.6
631.164	16967.1
635.82	21556.9
640.473	16145.6
645.124	9834.85
649.773	13141
654.418	19078.6
659.062	15615.4
663.702	9127.87
668.34	8377.18
672.975	6301.25
677.608	3809.01
682.238	3469.22
686.866	2825.5
691.49	2506.06
696.113	3040.11
700.732	3952.29
705.349	4223.23
709.964	3272.92
714.576	2472.31
719.185	2305.35
723.792	2381.98
728.396	2333.14
732.997	2436.79
737.596	2468.89
742.192	1967.39
746.785	1507.25
751.376	1495.44
755.965	801.926
760.551	398.637
765.134	189.441
769.714	106.902
774.292	269.223
778.867	14.4375
783.44	316.453
788.01	688.519
792.578	101.238
797.142	75.9492
801.705	217.012
806.264	215.836
810.821	92.793
815.376	346.602
819.927	271.375
824.476	640.949
829.023	508.68
833.567	676.512
838.108	808.609
842.647	1118.02
847.183	1463.73
851.716	1703.75
856.247	2149.13
860.776	2715.87
865.301	2756.17
869.824	3693.18
874.345	4903.5
878.862	6680.04
883.377	9588.26
887.89	13047.3
892.4	15065
896.907	16750.9
901.412	19375.4
905.914	14645.7
910.413	10890.7
914.91	10494.4
919.404	11775.9
923.896	13969.6
928.385	19007.7
932.871	27012.2
937.355	38084.8
941.836	51343.4
946.315	64879.4
950.79	71894.2
955.264	78707.2
959.734	88153.1
964.202	74366.9
968.668	45470
973.131	27081.1
977.591	16948.4
982.048	12020.6
986.503	9801.16
990.955	9663.98
995.405	13325.7
999.852	18151.1
1004.3	13960.3
1008.74	7191.21
1013.18	4495.05
1017.61	3518.78
1022.05	3182.78
1026.48	2397.19
1030.91	2109.17
1035.33	1534.13
1039.76	1260.25
1044.18	1220.23
1048.6	735.836
1053.01	692.215
1057.42	223.949
1061.84	256.894
1066.24	201.93
1070.65	472.727
1075.05	397.363
1079.45	377.5
1083.85	713.109
1088.24	485.938
1092.63	605.254
1097.02	335.644
1101.41	164.734
1105.8	127.445
1110.18	317.918
1114.56	474.836
1118.93	99.5938
1123.31	26.9062
1127.68	177.144
1132.04	31.0742
1136.41	62.1367
1140.77	229.516
1145.13	179.914
1149.49	134.266
1153.85	198.766
1158.2	101.394
1162.55	17.375
1166.9	160.113
1171.24	475.969
1175.58	192.184
1179.92	262.305
1184.26	95.5938
1188.6	99.3555
1192.93	231.84
1197.26	185.172
1201.58	17.2383
1205.9	35.9883
1210.23	123.691
1214.55	162.176
1218.86	31.6836
1223.17	363.301
1227.48	1040.09
1231.79	400.699
1236.1	747.281
1240.4	736.199
1244.7	971.582
1249	701.113
1253.29	955.789
1257.59	541.367
1261.88	803.102
1266.16	742.066
1270.45	1091.13
1274.73	1070.27
1279.01	768.418
1283.28	916.231
1287.56	699.211
1291.83	880.152
1296.1	1261.48
1300.36	761.461
1304.63	1114.06
1308.89	1191.94
1313.15	1168.76
1317.4	1220.67
1321.65	980.973
1325.9	1175.56
1330.15	653.953
1334.4	742.555
1338.64	649.027
1342.88	114.906
1347.12	119.957
1351.35	302.738
1355.58	435.836
1359.81	73.125
1364.04	363.754
1368.26	648.652
1372.48	820.106
1376.7	564.559
1380.92	229.375
1385.13	333.562
1389.34	266.227
1393.55	359.453
1397.76	246.887
1401.96	291.449
1406.16	384.59
1410.36	237.262
1414.55	237.375
1418.75	472.215
1422.94	400.394
1427.12	276.781
1431.31	822.383
1435.49	1043.55
1439.67	1562.3
1443.85	1577.82
1448.02	2098.4
1452.19	2169.75
1456.36	2128.79
1460.53	2204.37
1464.69	1338.09
1468.85	1140.5
1473.01	808.176
1477.17	800.492
1481.32	672.449
1485.47	971.144
1489.62	842.266
1493.76	25.8867
1497.91	314.16
1502.05	202.836
1506.18	40.1484
1510.32	115.117
1514.45	36.5547
1518.58	144.297
1522.71	123.82
1526.83	178.387
1530.95	460.453
1535.07	493.738
1539.19	187.648
1543.3	447.453
1547.41	351.047
1551.52	689.281
1555.63	343.781
1559.73	202.977
1563.83	442.125
1567.93	236.172
1572.03	74.5469
1576.12	126.672
