Measurement: Raman, 514 nm, ccw, Raman Data Processed
Mineral: Kyanite
Rruff sample: R040119
Ideal chemistry: Al_2_OSiO_4_
Locality: Rutherford County, North Carolina, USA
Source: University of Arizona Mineral Museum
Description: Blue bladed crystal
Measured chemistry: (Al_0.99_Fe^3+^_0.01_)_2_OSi_1.00_O_4_
Pin_id: L00532
Orientation: Laser parallel to (-1 0 -1). Fiducial mark perpendicular to laser is parallel to b [0 1 0]
Raman shift (cm-1)	intensity
77.196	0
82.15	1227.45
87.101	70.1523
92.049	667.246
96.995	65.0547
101.939	887.254
106.879	1484.23
111.818	2564.26
116.753	3085.27
121.686	1875.04
126.617	246.156
131.545	566.488
136.471	863.922
141.393	1467.72
146.314	1097.03
151.232	851.543
156.147	842.629
161.06	934.898
165.97	173.816
170.877	1093.54
175.782	1419.51
180.685	986.356
185.585	423.691
190.482	1073.61
195.377	1520.84
200.269	1697.21
205.158	2706.14
210.045	1609.09
214.93	181.918
219.812	350.387
224.691	1357.98
229.568	21.3047
234.442	189.637
239.314	578.367
244.183	321.566
249.049	65.3516
253.913	1.60156
258.775	574.328
263.633	535.711
268.49	825.93
273.343	4709.23
278.194	6691.44
283.043	4085.67
287.889	11196.2
292.732	17376
297.573	37582.7
302.411	33402.4
307.247	6796.31
312.08	5794.85
316.91	15437.6
321.738	46568.1
326.563	43014.7
331.386	7171.43
336.206	3619.96
341.024	5237.15
345.839	2440.2
350.651	2220.23
355.461	6231.02
360.268	10727.8
365.073	10356.4
369.875	22588.8
374.674	27860.6
379.471	26284.9
384.266	35947.2
389.057	32587
393.846	23390.4
398.633	23109.1
403.417	39099.6
408.198	10886.3
412.977	5845.22
417.753	8879.19
422.527	4149.11
427.298	6635.02
432.067	18676
436.832	30104
441.596	14169.4
446.356	9648.99
451.115	3546.95
455.87	1016.41
460.623	969.633
465.373	1477.5
470.121	3569.99
474.866	13904.2
479.609	48696.4
484.349	121208
489.086	68294.5
493.821	26030.6
498.553	10011.8
503.283	6307.07
508.01	7204.15
512.734	6376.28
517.456	1626.69
522.175	18.9688
526.892	788.68
531.606	729.82
536.317	341.562
541.026	592.016
545.732	1278.7
550.436	693.641
555.137	3092.7
559.835	9048.44
564.531	7178.59
569.224	3795.09
573.915	3466.95
578.603	5634.08
583.288	9381.44
587.971	5683.95
592.651	1663.6
597.329	1729.34
602.004	2908.09
606.676	3422.8
611.346	2284.44
616.013	2809.91
620.678	2890.86
625.34	3939.27
629.999	6577.16
634.656	11021.4
639.31	8621.69
643.962	3929.6
648.611	4016.8
653.257	5841.31
657.901	5925.33
662.542	5499.94
667.181	7875.81
671.817	6944.81
676.45	3995.28
681.081	3358.47
685.709	2644.2
690.334	2270.23
694.957	2468.23
699.578	3144.41
704.195	3311.18
708.811	2671.52
713.423	2152.01
718.033	1598.87
722.64	1846.64
727.245	2164.11
731.847	1787.73
736.446	1660.94
741.043	1723.88
745.637	834.484
750.229	1331.71
754.818	823.516
759.404	337.859
763.988	116.547
768.569	48.0156
773.148	186.57
777.724	385.906
782.297	343.406
786.868	432.07
791.436	96.4922
796.001	194.945
800.564	37.5078
805.125	154.523
809.682	441.5
814.237	153.078
818.79	396.039
823.339	518.859
827.887	714.531
832.431	552.25
836.973	898.133
841.513	742.336
846.049	535.812
850.583	1541.48
855.115	1426.44
859.644	1569.82
864.17	2409.59
868.694	3835.8
873.215	4781.65
877.733	7029.91
882.249	11074.7
886.762	17385.1
891.273	23318.2
895.781	27393.2
900.286	33341.2
904.789	23077.8
909.289	13656
913.786	10664.4
918.281	11145.3
922.773	12432.9
927.263	14861.3
931.75	19476.8
936.234	26194.7
940.716	37991.6
945.195	57327.8
949.672	75028.1
954.146	64100.3
958.617	47128.9
963.086	35728.5
967.552	23924.4
972.015	14877.5
976.476	10146.4
980.934	7339.99
985.39	5580.93
989.843	5109.22
994.293	5027.22
998.741	5745.04
1003.19	4915.02
1007.63	3000.52
1012.07	2474.3
1016.5	1869.77
1020.94	1981.23
1025.37	1428.2
1029.8	935.562
1034.23	523.367
1038.65	429.844
1043.07	312.164
1047.49	373.609
1051.91	128.375
1056.32	660.977
1060.73	139.914
1065.14	722.578
1069.55	28.1719
1073.95	22.7969
1078.35	600.445
1082.75	102.859
1087.14	108.055
1091.54	394.539
1095.93	122.43
1100.31	183.633
1104.7	111.875
1109.08	544.641
1113.46	82.4609
1117.84	301.586
1122.21	732.953
1126.58	223.484
1130.95	349.164
1135.32	496.328
1139.68	161.023
1144.04	588.922
1148.4	127.445
1152.76	361.453
1157.11	36.5
1161.46	5.39844
1165.81	416.469
1170.16	193.914
1174.5	353.703
1178.84	168.789
1183.18	392.188
1187.51	76.7812
1191.84	355.07
1196.17	105.195
1200.5	29.1406
1204.83	170.391
1209.15	7.29688
1213.47	45.7422
1217.78	530.961
1222.1	627.836
1226.41	316.992
1230.72	966.453
1235.02	749.523
1239.33	297.539
1243.63	181.906
1247.92	231.578
1252.22	376.578
1256.51	716.914
1260.8	380.625
1265.09	173.422
1269.38	660.703
1273.66	338.352
1277.94	150.742
1282.21	364.641
1286.49	63.9531
1290.76	828.141
1295.03	693.195
1299.3	756.711
1303.56	767.273
1307.82	921.773
1312.08	293.758
1316.34	469.328
1320.59	594.734
1324.84	227.406
1329.09	743.727
1333.34	438.914
1337.58	605.766
1341.82	364.406
1346.06	916.461
1350.29	448.664
1354.53	496.305
1358.76	623.586
1362.98	671.477
1367.21	226.016
1371.43	302.156
1375.65	405.914
1379.87	504.648
1384.08	478.727
1388.29	484.773
1392.5	380.867
1396.71	362.266
1400.91	517.438
1405.11	971.805
1409.31	624.727
1413.51	753.469
1417.7	438.305
1421.89	284.797
1426.08	959.281
1430.26	241.422
1434.44	632.367
1438.62	233.742
1442.8	580.578
1446.98	663.836
1451.15	747.555
1455.32	561.367
1459.49	121.641
1463.65	333.016
1467.81	300.516
1471.97	386.039
1476.13	687.609
1480.28	272.258
1484.43	601.781
1488.58	104.977
1492.73	520.219
1496.87	448.539
1501.01	52.8203
1505.15	416.102
1509.29	590.086
1513.42	259.586
1517.55	413.133
1521.67	476.281
1525.8	829.133
1529.92	614.438
1534.04	1096.66
1538.16	454.867
1542.27	795.031
1546.39	171.18
1550.49	170.141
1554.6	1256.35
1558.71	75.9062
1562.81	519.297
1566.91	445.938
1571	80.7031
1575.1	398.594
