Measurement: Raman, 514 nm, depolarized, Raman Data Processed
Mineral: Kyanite
Rruff sample: R040119
Ideal chemistry: Al_2_OSiO_4_
Locality: Rutherford County, North Carolina, USA
Source: University of Arizona Mineral Museum
Description: Blue bladed crystal
Measured chemistry: (Al_0.99_Fe^3+^_0.01_)_2_OSi_1.00_O_4_
Pin_id: L01022
Orientation: Laser parallel to (1 1 0). Fiducial mark perpendicular to laser is parallel to -c [0 0 -1]
Raman shift (cm-1)	intensity
131.464	0
136.395	0.570313
141.324	61.563
146.251	16.0273
151.175	71.1206
156.096	190.386
161.015	109.769
165.931	297.944
170.844	534.876
175.755	922.655
180.663	629.751
185.569	280.156
190.472	343.355
195.373	543.873
200.27	1117.53
205.166	2176.93
210.058	1869.72
214.948	872.875
219.836	1269.3
224.721	2987.78
229.603	2362.03
234.482	594.839
239.359	476
244.234	772.949
249.106	629.695
253.975	108.348
258.841	277.625
263.705	459.853
268.567	109.852
273.425	1338.3
278.281	4071
283.135	1973.77
287.986	4349.04
292.834	10841.5
297.68	25235.9
302.523	43442.4
307.363	9466.38
312.201	2124.36
317.037	3919.69
321.869	13315.6
326.699	24585.3
331.527	5521.05
336.351	1192.9
341.174	2644.2
345.993	1150.36
350.81	1471.27
355.625	6454
360.436	17913.5
365.245	5707.86
370.052	2883.97
374.856	6001.86
379.657	13383.5
384.456	31233.5
389.252	25503
394.045	22619.6
398.836	11272.8
403.625	25076.8
408.41	11189.2
413.193	2373.07
417.974	2603.16
422.751	2063.93
427.527	3669.4
432.299	12931.6
437.069	33154.4
441.836	21268.8
446.601	12236.9
451.363	7272.58
456.123	1702.87
460.88	1724.77
465.634	3592.29
470.386	4295.42
475.135	7655.16
479.881	25247.5
484.625	80028.5
489.366	69014.2
494.105	24027
498.84	8616.22
503.574	4341.09
508.305	4033.49
513.033	4538.47
517.758	1774.03
522.481	221.078
527.201	153.951
531.919	394.085
536.634	336.655
541.346	74.543
546.056	498.962
550.763	206.19
555.468	1001.36
560.17	4588.09
564.869	5716.02
569.566	2113.1
574.26	1648.31
578.952	540.592
583.641	343.909
588.327	78.2197
593.011	323.471
597.692	1829.63
602.37	5525.65
607.046	9158.49
611.719	5696.11
616.39	4912.46
621.058	4390.6
625.723	3950.36
630.386	4662.74
635.046	4739.27
639.703	4227.39
644.358	2331.14
649.01	2620.97
653.66	4949.75
658.307	5963.33
662.951	3514.66
667.593	2784.95
672.232	2565.01
676.869	1807.17
681.503	1687.62
686.134	1537.59
690.763	1158
695.389	1103.77
700.013	1422.86
704.633	1740.51
709.252	1401.68
713.867	1327.33
718.48	1592.44
723.091	2500.96
727.698	2138.87
732.304	1267.12
736.906	861.704
741.506	711.581
746.103	541.724
750.698	471.107
755.29	241.706
759.88	154.493
764.467	91.3027
769.051	43.9512
773.632	143.982
778.211	157.643
782.788	129.181
787.362	58.4546
791.933	80.6226
796.501	158.743
801.067	68.4971
805.631	6.07129
810.191	89.3091
814.749	86.3804
819.305	146.984
823.858	154.663
828.408	247.324
832.956	286.057
837.501	375.913
842.043	542.907
846.583	711.051
851.12	856.356
855.654	1059.85
860.186	1544.54
864.716	2014.45
869.242	2699.57
873.766	4038.95
878.288	6689.61
882.807	12021.6
887.323	22527
891.837	27904.8
896.348	17210.6
900.856	10159
905.362	7881.23
909.865	6301.56
914.366	6031.02
918.864	6501.6
923.359	7494.66
927.852	9445.18
932.342	13333.4
936.829	19183.4
941.314	26200.1
945.796	36211.9
950.276	47516.9
954.753	46999.9
959.228	41931.8
963.699	36759.8
968.169	24848.4
972.635	14826.3
977.099	9594.25
981.56	7119.32
986.019	5700.27
990.475	5585.35
994.929	7316
999.38	12020.7
1003.83	11959.7
1008.27	6621.42
1012.72	3884.44
1017.16	2560.57
1021.6	1873.31
1026.03	1596.39
1030.46	1272.3
1034.89	1002.78
1039.32	866.611
1043.74	717.869
1048.17	586.477
1052.59	590.873
1057	494.603
1061.42	409.72
1065.83	325.517
1070.24	234.642
1074.65	308.367
1079.05	203.805
1083.45	179.929
1087.85	161.191
1092.25	133.346
1096.64	133.54
1101.03	61.6445
1105.42	3.83252
1109.8	22.9487
1114.19	120.992
1118.57	40.2895
1122.95	73.7866
1127.32	68.5029
1131.69	15.0918
1136.06	114.613
1140.43	40.9858
1144.8	53.5107
1149.16	67.8389
1153.52	12.7842
1157.87	11.4717
1162.23	3.75977
1166.58	15.9233
1170.93	6.00049
1175.28	82.2978
1179.62	12.0483
1183.96	4.25928
1188.3	33.9424
1192.64	37.729
1196.97	33.145
1201.3	84.2598
1205.63	78.1172
1209.95	14.1484
1214.28	93.314
1218.6	80.5772
1222.92	93.7256
1227.23	76.6934
1231.55	72.0298
1235.86	200.633
1240.16	101.135
1244.47	194.984
1248.77	213.157
1253.07	195.705
1257.37	199.435
1261.66	179.072
1265.95	200.659
1270.24	255.727
1274.53	197.404
1278.81	276.069
1283.09	182.495
1287.37	198.515
1291.65	211.151
1295.92	203.08
1300.19	195.956
1304.46	249.904
1308.73	240.339
1312.99	300.377
1317.25	235.775
1321.51	233.995
1325.77	258.461
1330.02	201.337
1334.27	201.502
1338.52	147.838
1342.76	103.189
1347	150.253
1351.24	87.2451
1355.48	25.5747
1359.72	132.755
1363.95	121.814
1368.18	165.52
1372.4	94.0132
1376.63	108.58
1380.85	140.907
1385.07	106.361
1389.29	77.4189
1393.5	70.0483
1397.71	84.4805
1401.92	5.82861
1406.13	101.012
1410.33	57.4316
1414.53	44.4048
1418.73	145.372
1422.92	0.441895
1427.12	94.0283
1431.31	133.739
1435.5	125.514
1439.68	67.0093
1443.87	52.6821
1448.05	51.5107
1452.22	3.79785
1456.4	46.0102
1460.57	27.4707
1464.74	43.002
1468.91	117.861
1473.07	48.2315
1477.23	37.8989
1481.39	135.085
1485.55	121.699
1489.7	68.522
1493.86	178.22
1498.01	70.8394
1502.15	64.1406
1506.3	111.329
1510.44	20.0659
1514.58	97.5864
1518.71	74.1069
1522.85	54.0376
1526.98	85.5361
1531.11	2.61621
1535.23	60.1352
1539.35	44.752
1543.47	94.4351
1547.59	169.025
1551.71	126.733
1555.82	194.996
1559.93	70.8672
1564.04	62.103
1568.14	60.522
1572.25	13.0449
1576.35	0.147949
