Measurement: Raman, 514 nm, ccw, Raman Data Processed
Mineral: Kyanite
Rruff sample: R040119
Ideal chemistry: Al_2_OSiO_4_
Locality: Rutherford County, North Carolina, USA
Source: University of Arizona Mineral Museum
Description: Blue bladed crystal
Measured chemistry: (Al_0.99_Fe^3+^_0.01_)_2_OSi_1.00_O_4_
Pin_id: L01022
Orientation: Laser parallel to (1 1 0). Fiducial mark perpendicular to laser is parallel to -c [0 0 -1]
Raman shift (cm-1)	intensity
131.464	0
136.395	4.35352
141.324	91.0625
146.251	10.0649
151.175	20.6201
156.096	46.0298
161.015	41.5515
165.931	351.013
170.844	809.097
175.755	1275.28
180.663	657.52
185.569	270.303
190.472	382.055
195.373	617.938
200.27	1558.65
205.166	3374.08
210.058	2675.95
214.948	1247.32
219.836	1553.71
224.721	4077.73
229.603	2665.98
234.482	627.177
239.359	450.069
244.234	934.971
249.106	892.865
253.975	254.902
258.841	130.76
263.705	419.781
268.567	306.694
273.425	646.379
278.281	2345.51
283.135	1769.58
287.986	4729.87
292.834	10855.7
297.68	30155.6
302.523	45311.1
307.363	10310.4
312.201	3056.26
317.037	4782.46
321.869	15946.3
326.699	25434.2
331.527	5896.4
336.351	1314.05
341.174	1778.71
345.993	1085.03
350.81	1837.16
355.625	6636.79
360.436	14724.9
365.245	5280.42
370.052	3736.42
374.856	8331.88
379.657	18118.8
384.456	39402.9
389.252	33075.6
394.045	27465.2
398.836	13177.9
403.625	25524.9
408.41	10697.6
413.193	2195.24
417.974	1000.75
422.751	1121.67
427.527	3937.96
432.299	13536.6
437.069	33019.5
441.836	21528.8
446.601	15834.4
451.363	9307.35
456.123	2705.7
460.88	3613.44
465.634	6675.6
470.386	5910.19
475.135	11354.2
479.881	35638.7
484.625	105799
489.366	85026.3
494.105	30440
498.84	10910.9
503.574	5247.44
508.305	4292.6
513.033	3499.34
517.758	1322.54
522.481	185.014
527.201	221.626
531.919	395.478
536.634	231.663
541.346	166.468
546.056	614.324
550.763	53.9551
555.468	7.64502
560.17	1152.38
564.869	1653.36
569.566	1801.52
574.26	2006.83
578.952	872.278
583.641	271.813
588.327	120.045
593.011	606.023
597.692	2065.63
602.37	5321.18
607.046	7973.65
611.719	5091
616.39	4947.19
621.058	4220.67
625.723	2876.32
630.386	3812.67
635.046	6279.6
639.703	5993.73
644.358	3582.93
649.01	4756.52
653.66	8907.45
658.307	9881.31
662.951	5099.55
667.593	3424.31
672.232	2930.52
676.869	2071.86
681.503	2379.43
686.134	2349.71
690.763	1560.61
695.389	1408.33
700.013	1811.8
704.633	1795.99
709.252	1343.86
713.867	1429.39
718.48	2258.53
723.091	3829.27
727.698	3046.56
732.304	1421.37
736.906	941.692
741.506	784.483
746.103	500.72
750.698	364.379
755.29	235.438
759.88	137.864
764.467	3.51318
769.051	14.5757
773.632	139.092
778.211	176.373
782.788	159.529
787.362	210.497
791.933	165.274
796.501	96.6387
801.067	55.1016
805.631	21.8289
810.191	77.0164
814.749	108.131
819.305	186.805
823.858	268.722
828.408	355.926
832.956	391.553
837.501	503.515
842.043	607.79
846.583	921.389
851.12	1089.33
855.654	1533.64
860.186	2052.31
864.716	2853.41
869.242	4111.92
873.766	6250.91
878.288	10769.3
882.807	20218.2
887.323	39083.8
891.837	46081.8
896.348	26635.8
900.856	15240.7
905.362	10647.9
909.865	7631.6
914.366	6553.81
918.864	6589.79
923.359	7296.45
927.852	9475.42
932.342	13580.7
936.829	19847.3
941.314	25552.6
945.796	31311.8
950.276	33408.7
954.753	35021.7
959.228	39794.4
963.699	38119.2
968.169	25336.2
972.635	15087.3
977.099	9684.59
981.56	6721.1
986.019	5330.23
990.475	5122.14
994.929	6876.43
999.38	11286
1003.83	10911.5
1008.27	5838.58
1012.72	3329.61
1017.16	2223.61
1021.6	1739.25
1026.03	1215.43
1030.46	1029.8
1034.89	824.52
1039.32	609.977
1043.74	551.144
1048.17	436.325
1052.59	288.534
1057	343.346
1061.42	229.163
1065.83	372.899
1070.24	427.332
1074.65	197.368
1079.05	185.433
1083.45	225.814
1087.85	151.603
1092.25	203.549
1096.64	145.657
1101.03	45.1025
1105.42	14.7852
1109.8	57.6973
1114.19	16.1719
1118.57	30.1382
1122.95	19.3677
1127.32	43.2739
1131.69	26.002
1136.06	27.167
1140.43	7.88769
1144.8	3.33203
1149.16	73.3511
1153.52	31.4885
1157.87	63.3665
1162.23	37.6411
1166.58	78.3897
1170.93	70.4297
1175.28	67.6387
1179.62	4.16846
1183.96	22.0186
1188.3	30.9766
1192.64	97.6526
1196.97	40.1143
1201.3	14.4551
1205.63	21.2007
1209.95	97.9602
1214.28	45.2642
1218.6	74.3901
1222.92	88.3374
1227.23	157.108
1231.55	118.676
1235.86	229.062
1240.16	180.244
1244.47	179.016
1248.77	352.679
1253.07	196.404
1257.37	205.926
1261.66	263.042
1265.95	260.693
1270.24	201.555
1274.53	221.521
1278.81	148.3
1283.09	200.574
1287.37	184.898
1291.65	248.198
1295.92	203.964
1300.19	235.255
1304.46	274.337
1308.73	239.208
1312.99	301.348
1317.25	264.312
1321.51	227.966
1325.77	157.061
1330.02	199.099
1334.27	225.338
1338.52	150.728
1342.76	191.452
1347	128.693
1351.24	131.244
1355.48	168.724
1359.72	91.9512
1363.95	109.211
1368.18	123.126
1372.4	72.9626
1376.63	161.85
1380.85	93.269
1385.07	66.4846
1389.29	110.581
1393.5	52.3586
1397.71	63.9377
1401.92	68.3162
1406.13	128.959
1410.33	59.2312
1414.53	54.3125
1418.73	5.0979
1422.92	7.69849
1427.12	153.097
1431.31	104.421
1435.5	80.8052
1439.68	25.1177
1443.87	96.6414
1448.05	46.8657
1452.22	23.887
1456.4	144.843
1460.57	113.357
1464.74	47.8186
1468.91	85.1841
1473.07	135.455
1477.23	143.505
1481.39	146.208
1485.55	82.5718
1489.7	115.181
1493.86	29.1914
1498.01	79.4739
1502.15	41.4966
1506.3	106.39
1510.44	15.8325
1514.58	144.718
1518.71	56.5281
1522.85	64.6328
1526.98	0.794189
1531.11	24.1165
1535.23	104.259
1539.35	44.1494
1543.47	14.7752
1547.59	131.828
1551.71	127.164
1555.82	60.949
1559.93	30.1123
1564.04	11.2554
1568.14	88.4419
1572.25	89.9993
1576.35	24.573
