Measurement: Raman, 514 nm, ccw, Raman Data Processed
Mineral: Kyanite
Rruff sample: R040119
Ideal chemistry: Al_2_OSiO_4_
Locality: Rutherford County, North Carolina, USA
Source: University of Arizona Mineral Museum
Description: Blue bladed crystal
Measured chemistry: (Al_0.99_Fe^3+^_0.01_)_2_OSi_1.00_O_4_
Pin_id: L00051
Orientation: Laser parallel to b* (0 1 0). Fiducial mark perpendicular to laser is parallel to -c [0 0 -1]
Raman shift (cm-1)	intensity
67.281	0
72.24	1990.02
77.196	2483.43
82.15	2143.05
87.101	819.086
92.049	745.199
96.995	91.9922
101.939	1326.29
106.879	2542.69
111.818	1721.66
116.753	1851.9
121.686	1254.1
126.617	103.848
131.545	276.41
136.471	201.055
141.393	358.82
146.314	540.453
151.232	591.004
156.147	1212.5
161.06	516.75
165.97	593.539
170.877	778.527
175.782	385.551
180.685	456.016
185.585	366.777
190.482	169.859
195.377	63.1523
200.269	247.598
205.158	230.598
210.045	136.062
214.93	86.5586
219.812	937.93
224.691	1737.65
229.568	1038.86
234.442	5.46875
239.314	165.227
244.183	208.398
249.049	42.1641
253.913	270.957
258.775	13.5977
263.633	217.176
268.49	273.293
273.343	2961.12
278.194	6350.94
283.043	3033.65
287.889	6064.69
292.732	12855.9
297.573	21323.2
302.411	31611.6
307.247	5680.17
312.08	1487.2
316.91	4025.11
321.738	10786.7
326.563	17406.5
331.386	2948.88
336.206	317.781
341.024	1312.93
345.839	351.027
350.651	2217.91
355.461	8829.03
360.268	20050.3
365.073	5767.22
369.875	3307.77
374.674	6627.67
379.471	13988.9
384.266	25215
389.057	19963.6
393.846	18499.2
398.633	14649.7
403.417	29374.9
408.198	12887.9
412.977	3445.56
417.753	4747.81
422.527	4432.25
427.298	5933.83
432.067	16242.5
436.832	29459.2
441.596	17447.8
446.356	8364.3
451.115	4733.77
455.87	1143.25
460.623	368.695
465.373	648
470.121	2271.28
474.866	6813.64
479.609	22175.3
484.349	53304.1
489.086	45005.2
493.821	14124.1
498.553	5084.16
503.283	2714.98
508.01	2516.77
512.734	2361.38
517.456	934.383
522.175	326.609
526.892	60.5938
531.606	287.625
536.317	171.398
541.026	176.883
545.732	541.172
550.436	368.766
555.137	3945.24
559.835	9624.91
564.531	11589.2
569.224	2787.03
573.915	760.375
578.603	423.539
583.288	618.531
587.971	596.062
592.651	721.82
597.329	3252.46
602.004	7448.5
606.676	11714.6
611.346	6457.09
616.013	4835.06
620.678	5227.62
625.34	5324.88
629.999	6456.47
634.656	4706.79
639.31	3000.95
643.962	1586.01
648.611	1116.12
653.257	1235.44
657.901	1217.34
662.542	1224.16
667.181	838.625
671.817	1370.77
676.45	890.258
681.081	661.047
685.709	244.438
690.334	161.836
694.957	685.383
699.578	871.758
704.195	1333.14
708.811	1132.2
713.423	726.812
718.033	375.82
722.64	423.492
727.245	309.445
731.847	678.914
736.446	347.172
741.043	529.234
745.637	561.094
750.229	840.656
754.818	675.953
759.404	48.8984
763.988	48.7109
768.569	459.203
773.148	1.99219
777.724	130.812
782.297	233.859
786.868	279.938
791.436	27.3672
796.001	387.844
800.564	226.336
805.125	200.375
809.682	312.828
814.237	200.539
818.79	266.477
823.339	406.891
827.887	528.977
832.431	171.781
836.973	684.969
841.513	579.75
846.049	286.32
850.583	976.695
855.115	603.484
859.644	642.914
864.17	971.344
868.694	1283.91
873.215	1319.52
877.733	1142.23
882.249	2016.13
886.762	2133.8
891.273	2506.89
895.781	2924.93
900.286	3651.16
904.789	4015.96
909.289	4471.27
913.786	4870.56
918.281	5727.42
922.773	7299.77
927.263	9653.12
931.75	12565.9
936.234	17321.9
940.716	22455.2
945.195	30480.9
949.672	40623.5
954.146	42146.5
958.617	40287.2
963.086	36842.4
967.552	25168
972.015	15075.7
976.476	9771.17
980.934	7164.34
985.39	6101.52
989.843	6600.73
994.293	9398.02
998.741	15221
1003.19	14909.3
1007.63	7454.53
1012.07	4455.93
1016.5	2748.76
1020.94	1963.91
1025.37	1670.72
1029.8	1507.27
1034.23	1065.31
1038.65	1003.05
1043.07	491.852
1047.49	175.508
1051.91	540.125
1056.32	69.6562
1060.73	16.0781
1065.14	147.141
1069.55	157.883
1073.95	40.1406
1078.35	428.953
1082.75	318.086
1087.14	648.57
1091.54	105.391
1095.93	57.9219
1100.31	548.578
1104.7	111.914
1109.08	247.547
1113.46	427.852
1117.84	50.9844
1122.21	236.062
1126.58	10.3281
1130.95	312.547
1135.32	183.914
1139.68	94.5156
1144.04	30.6641
1148.4	218.195
1152.76	57.7812
1157.11	248.352
1161.46	5.71875
1165.81	519.305
1170.16	32.0703
1174.5	298.617
1178.84	260.516
1183.18	140.547
1187.51	550.117
1191.84	139.617
1196.17	108.5
1200.5	184.125
1204.83	140.766
1209.15	380.336
1213.47	251.906
1217.78	26.4609
1222.1	364.711
1226.41	172.055
1230.72	1222.35
1235.02	534.422
1239.33	493.867
1243.63	283.172
1247.92	294.531
1252.22	355.094
1256.51	356.773
1260.8	905.812
1265.09	544.75
1269.38	102.828
1273.66	638.344
1277.94	312.781
1282.21	778.18
1286.49	502.094
1290.76	259.477
1295.03	707.523
1299.3	224.117
1303.56	807.258
1307.82	501.836
1312.08	378.742
1316.34	1006.46
1320.59	478.445
1324.84	817.969
1329.09	431.492
1333.34	789.125
1337.58	380.586
1341.82	559.141
1346.06	1011.29
1350.29	429.234
1354.53	537.438
1358.76	512.836
1362.98	499.984
1367.21	9.91406
1371.43	241.648
1375.65	403.211
1379.87	906.805
1384.08	775.672
1388.29	699.055
1392.5	231.727
1396.71	567.797
1400.91	608.25
1405.11	528.414
1409.31	975.836
1413.51	784.734
1417.7	536.688
1421.89	509.891
1426.08	1410.58
1430.26	713.656
1434.44	577.945
1438.62	835.844
1442.8	677.289
1446.98	529.664
1451.15	1047.77
1455.32	908.055
1459.49	521.164
1463.65	195.539
1467.81	6.9375
1471.97	627.602
1476.13	822.75
1480.28	698.352
1484.43	241.398
1488.58	187.984
1492.73	447.125
1496.87	96.7109
1501.01	129.875
1505.15	386.703
1509.29	507.898
1513.42	250.641
1517.55	229.82
1521.67	320.18
1525.8	437.875
1529.92	578.961
1534.04	613.5
1538.16	572.547
1542.27	472.719
1546.39	426.172
1550.49	129.344
1554.6	515.828
1558.71	109.797
1562.81	399.453
1566.91	174.203
1571	122.844
1575.1	533.109
