Measurement: Raman, 514 nm, depolarized, Raman Data Processed
Mineral: Kyanite
Rruff sample: R050450
Ideal chemistry: Al_2_OSiO_4_
Locality: Switzerland
Source: Marcus Origlieri
Description: Blue bladed crystals
Measured chemistry: Al_2.00_OSi_1.00_O_4_
Pin_id: M01603
Orientation: Laser parallel to (-1 0 -1). Fiducial mark perpendicular to laser is parallel to b [0 1 0]
Raman shift (cm-1)	intensity
148.716	0
153.638	114.538
158.558	79.8721
163.475	88.9277
168.389	126.518
173.3	206.349
178.209	249.06
183.115	7.79981
188.018	84.668
192.918	101.981
197.816	163.36
202.711	263.69
207.604	702.618
212.494	287.625
217.381	234.003
222.265	371.56
227.147	958.079
232.026	260.373
236.902	61.7363
241.775	51.5625
246.646	206.252
251.514	170.481
256.38	2.20508
261.243	90.4141
266.103	3.85742
270.96	79.707
275.815	858.418
280.667	1436.2
285.516	439.938
290.363	2070.96
295.207	3680.28
300.048	8310.27
304.887	9009.39
309.723	1275.34
314.556	623.981
319.387	2205.16
324.215	6807.01
329.04	8191.71
333.862	994.887
338.682	162.764
343.5	620.393
348.314	73.4356
353.126	376.629
357.935	1846.69
362.742	3690.76
367.546	767.568
372.347	2035.74
377.145	4359.25
381.941	5915.57
386.735	10869.9
391.525	7237.6
396.313	5543.84
401.098	4140.49
405.881	10589.6
410.661	2514.92
415.438	737.293
420.213	1295.02
424.985	592.389
429.754	1278.71
434.521	4048.43
439.285	8080.5
444.046	3432.75
448.805	3423.2
453.561	1414.99
458.315	372.022
463.065	621.344
467.813	951.82
472.559	784.547
477.302	2682.78
482.042	9071.32
486.78	28058.2
491.515	15892.2
496.247	5517.22
500.977	1765.35
505.704	859.602
510.428	866.914
515.15	603.281
519.869	167.713
524.586	178.887
529.3	124.961
534.011	32.9043
538.719	117.58
543.425	11.0996
548.129	108.285
552.83	30.2812
557.528	461.176
562.223	2017.92
566.916	1415.14
571.607	616.213
576.294	288.086
580.979	407.641
585.662	1031.25
590.341	730.445
595.019	396.648
599.693	862.812
604.365	1886.99
609.035	2540.72
613.701	1254.65
618.366	1196.03
623.027	1170.08
627.686	1257.81
632.342	1941.1
636.996	2571.97
641.647	2090.4
646.296	1435.69
650.942	1687.47
655.585	2493.59
660.226	2603.3
664.864	1355.88
669.499	1162.65
674.132	954.279
678.763	325.674
683.39	350.82
688.015	178.537
692.638	134.852
697.258	169.986
701.875	215.625
706.49	312.904
711.102	69.9004
715.712	56.2031
720.319	150.518
724.923	132.053
729.525	48.6562
734.124	3.84375
738.721	260.69
743.315	63.2539
747.907	81.9766
752.496	69.3555
757.082	21.8926
761.666	218.955
766.247	54.918
770.826	91.1387
775.402	150.721
779.975	52.3965
784.546	100.734
789.115	103.252
793.681	26.0449
798.244	114.779
802.804	126.941
807.363	81.6738
811.918	67.082
816.471	258.141
821.022	89.7285
825.569	75.4961
830.115	144.652
834.657	58.416
839.198	111.432
843.735	289.732
848.27	341.434
852.803	289.369
857.333	651.459
861.86	690.109
866.385	940.941
870.907	789.117
875.427	784.102
879.944	835.1
884.459	1408.69
888.971	2167.17
893.481	2259.75
897.988	2241.52
902.492	2563.31
906.994	1745.42
911.493	1446.51
915.99	1494.09
920.485	1771.55
924.976	2041.37
929.466	3103.17
933.952	4361.28
938.436	6245.19
942.918	8780.28
947.397	12925.3
951.874	16343.6
956.348	14998.1
960.819	13516.7
965.288	11444.2
969.755	7012.15
974.219	3827.47
978.68	2363.5
983.139	1502.63
987.595	1011.8
992.049	1193.88
996.501	1647.31
1000.95	3247.05
1005.4	2653.19
1009.84	1080.41
1014.28	499.508
1018.72	466.535
1023.16	320.832
1027.59	220.215
1032.02	137.621
1036.45	31.582
1040.88	162.691
1045.3	133.191
1049.72	46.9062
1054.14	176.062
1058.56	216.715
1062.97	41.9141
1067.38	134.035
1071.79	213.734
1076.19	113.871
1080.6	269.047
1085	492.359
1089.4	28.4883
1093.79	98.2031
1098.19	431.402
1102.58	96.2344
1106.97	200.691
1111.35	238.777
1115.74	267.473
1120.12	261.738
1124.5	141.562
1128.87	308.016
1133.25	243.109
1137.62	180.809
1141.99	12.8477
1146.35	290.977
1150.72	329.43
1155.08	111.484
1159.44	203.988
1163.79	223.113
1168.15	119.176
1172.5	385.016
1176.85	312.496
1181.19	202.113
1185.54	30.2031
1189.88	321.586
1194.22	141.91
1198.55	196.125
1202.89	18.5664
1207.22	106.793
1211.55	108.957
1215.88	487.031
1220.2	254.875
1224.52	415.043
1228.84	377.703
1233.16	412.352
1237.47	200.512
1241.78	478.172
1246.09	137.094
1250.4	366.211
1254.7	766.621
1259.01	578.996
1263.31	519.434
1267.6	282.09
1271.9	601.668
1276.19	532.332
1280.48	186.305
1284.77	434.34
1289.05	566.082
1293.33	565.457
1297.61	860.078
1301.89	745.348
1306.16	905.297
1310.44	618.426
1314.71	800.41
1318.97	1021.53
1323.24	844.602
1327.5	540.602
1331.76	546.492
1336.02	420.738
1340.28	430.301
1344.53	177.711
1348.78	280.769
1353.03	613.012
1357.27	52.3867
1361.52	114.856
1365.76	294.477
1370	277.062
1374.23	377.457
1378.47	439.023
1382.7	91.7383
1386.93	127.887
1391.15	79.1484
1395.38	43.293
1399.6	26.0508
1403.82	342.621
1408.03	220.359
1412.25	15.3125
1416.46	18.9648
1420.67	171.356
1424.88	406.215
1429.08	614.738
1433.28	331.465
1437.48	420.496
1441.68	981.785
1445.87	847.316
1450.07	1102.5
1454.26	1177.24
1458.44	1195.55
1462.63	1177.19
1466.81	658.375
1470.99	717.852
1475.17	434.738
1479.34	723.766
1483.52	409.969
1487.69	251.559
1491.86	36.293
1496.02	342.383
1500.19	254.699
1504.35	138.434
1508.51	27.7031
1512.66	20.3945
1516.82	30.4375
1520.97	555.766
1525.12	215.523
1529.26	253.613
1533.41	478.949
1537.55	467.227
1541.69	360.844
1545.83	172.988
1549.96	235.781
1554.09	486.883
1558.22	56.3008
1562.35	129.035
