Measurement: Raman, 514 nm, ccw, Raman Data Processed
Mineral: Kyanite
Rruff sample: R040119
Ideal chemistry: Al_2_OSiO_4_
Locality: Rutherford County, North Carolina, USA
Source: University of Arizona Mineral Museum
Description: Blue bladed crystal
Measured chemistry: (Al_0.99_Fe^3+^_0.01_)_2_OSi_1.00_O_4_
Pin_id: L00375
Orientation: Laser parallel to (0 1 1). Fiducial mark perpendicular to laser is parallel to a [1 0 0]
Raman shift (cm-1)	intensity
103.174	0
108.114	185.098
113.052	777.906
117.987	1660.38
122.919	756.582
127.849	301.418
132.777	530.25
137.702	442.129
142.624	122.234
147.544	486.809
152.461	314.449
157.375	611.348
162.287	659.215
167.197	961.875
172.104	2000.67
177.008	2555.72
181.91	679.012
186.809	709.441
191.706	580.809
196.6	812.551
201.491	1606.54
206.38	2335.21
211.267	674.023
216.151	965.684
221.032	2389.14
225.911	4178.3
230.787	691.934
235.66	132.746
240.531	72.4766
245.4	10.707
250.266	51.4102
255.129	487.359
259.99	1042.93
264.848	663.977
269.703	1229.88
274.556	5987.29
279.407	5401.1
284.255	4475.68
289.1	13535.2
293.942	23470.3
298.783	55516.8
303.62	32954.1
308.455	5121.34
313.288	4915.27
318.117	11123.4
322.945	29697.9
327.769	18989.3
332.591	2256.45
337.411	2245.32
342.228	2413.94
347.042	1393.43
351.854	5458.87
356.663	20018.3
361.47	19872.7
366.274	9404.17
371.075	17938.8
375.874	24459.6
380.67	36750.4
385.464	48702.5
390.255	45778.7
395.043	28818.2
399.829	39351.1
404.613	49237.9
409.393	12050
414.172	7756.63
418.947	11168.1
423.72	6170.84
428.49	11968.9
433.258	33768.2
438.024	40553.2
442.786	15282.6
447.546	13119.5
452.304	3573.73
457.059	1503.34
461.811	4311.35
466.56	5639.79
471.308	7512.68
476.052	22776.2
480.794	72757.6
485.533	139122
490.27	67734.8
495.004	26630.4
499.736	9928.53
504.465	7460.8
509.191	10467.9
513.915	8627.15
518.636	1797.18
523.354	299.797
528.07	798.453
532.784	1305.31
537.494	1.23438
542.203	2395.41
546.908	2977.57
551.611	2655.01
556.311	7363.66
561.009	21313.1
565.704	14425.1
570.397	10302.7
575.087	6186.74
579.774	2598.18
584.459	1958.91
589.141	1194.82
593.821	867.844
598.498	2610.87
603.172	6814.82
607.844	7027.59
612.513	4134.08
617.18	4091.86
621.844	3371.69
626.505	4701.59
631.164	8854.16
635.82	14651.6
640.473	9081.68
645.124	5217.69
649.773	6907.06
654.418	11752.5
659.062	9271.02
663.702	6381.93
668.34	7059.46
672.975	4955.66
677.608	2974.59
682.238	2699.74
686.866	1522.38
691.49	1132.37
696.113	1233.27
700.732	1194.43
705.349	1490.2
709.964	1215.81
714.576	1220.15
719.185	1211.14
723.792	2256.69
728.396	1768.73
732.997	1266.17
737.596	855.945
742.192	749.273
746.785	741.188
751.376	967.508
755.965	636.859
760.551	632.164
765.134	176.266
769.714	209.68
774.292	250.852
778.867	229.812
783.44	315.383
788.01	470.578
792.578	87.4609
797.142	18.7656
801.705	319.328
806.264	259.711
810.821	526.797
815.376	288.586
819.927	199.211
824.476	655.844
829.023	999.688
833.567	965.445
838.108	1477.55
842.647	1718.18
847.183	1832.42
851.716	1828.48
856.247	2657.35
860.776	3407.87
865.301	4465.31
869.824	6654.69
874.345	9255.13
878.862	15602.5
883.377	26754.6
887.89	43828.7
892.4	47769.2
896.907	50372
901.412	54083.2
905.914	33703.1
910.413	20494.2
914.91	13709.3
919.404	12718
923.896	14997.6
928.385	18344.1
932.871	23727.1
937.355	32958.4
941.836	42297.9
946.315	51034.2
950.79	56549.2
955.264	63367
959.734	70774.1
964.202	58699.8
968.668	35991.1
973.131	21718.1
977.591	13537.7
982.048	10052.9
986.503	8576.92
990.955	8511.36
995.405	11515.9
999.852	16491.9
1004.3	12301.8
1008.74	6296.24
1013.18	4357.56
1017.61	3162.13
1022.05	2230.54
1026.48	1725.81
1030.91	1769.47
1035.33	1036.41
1039.76	483.773
1044.18	808.141
1048.6	808.141
1053.01	94.1172
1057.42	479.766
1061.84	296.125
1066.24	445.031
1070.65	5.27344
1075.05	58.2812
1079.45	164.273
1083.85	249.367
1088.24	42.6562
1092.63	211.289
1097.02	551.742
1101.41	94.875
1105.8	339.367
1110.18	636.016
1114.56	419.914
1118.93	92.4531
1123.31	183.047
1127.68	190.836
1132.04	395.32
1136.41	265.594
1140.77	8.46875
1145.13	19.4922
1149.49	16.5938
1153.85	83.625
1158.2	203.781
1162.55	144.977
1166.9	364.211
1171.24	105.258
1175.58	65.8984
1179.92	96.1484
1184.26	130.32
1188.6	3.8125
1192.93	294.867
1197.26	164.047
1201.58	284.227
1205.9	144.07
1210.23	337.047
1214.55	83.2734
1218.86	389.164
1223.17	44.2109
1227.48	724.383
1231.79	53.4453
1236.1	281.547
1240.4	682.562
1244.7	588.602
1249	736.469
1253.29	427.586
1257.59	458.016
1261.88	624.523
1266.16	407.711
1270.45	341.07
1274.73	406.172
1279.01	839.578
1283.28	145.07
1287.56	501.883
1291.83	293.773
1296.1	617.672
1300.36	289.984
1304.63	1024.25
1308.89	1039.77
1313.15	525.438
1317.4	824.844
1321.65	483
1325.9	53.1094
1330.15	798.523
1334.4	479.492
1338.64	556.797
1342.88	726.398
1347.12	487.047
1351.35	806.555
1355.58	814.992
1359.81	373.742
1364.04	155.992
1368.26	149.703
1372.48	448.844
1376.7	919.852
1380.92	1049.35
1385.13	782.445
1389.34	690.422
1393.55	480.969
1397.76	654.539
1401.96	554.047
1406.16	489.969
1410.36	22.2188
1414.55	87.3906
1418.75	528
1422.94	530.609
1427.12	669.547
1431.31	976.297
1435.49	609.016
1439.67	777.594
1443.85	505.484
1448.02	592
1452.19	31
1456.36	708.391
1460.53	852.078
1464.69	383.875
1468.85	310.703
1473.01	290.75
1477.17	220
1481.32	525.406
1485.47	747.031
1489.62	435.25
1493.76	571.922
1497.91	360.266
1502.05	257.125
1506.18	374.125
1510.32	422.734
1514.45	309.859
1518.58	268.172
1522.71	672.297
1526.83	132.672
1530.95	1025.38
1535.07	571.641
1539.19	791.953
1543.3	1234.84
1547.41	384.891
1551.52	1232.39
1555.63	972.547
1559.73	1078.45
1563.83	849.75
1567.93	583.219
1572.03	289.812
1576.12	6.51562
