Measurement: Raman, 514 nm, ccw, Raman Data Processed
Mineral: Kyanite
Rruff sample: R040119
Ideal chemistry: Al_2_OSiO_4_
Locality: Rutherford County, North Carolina, USA
Source: University of Arizona Mineral Museum
Description: Blue bladed crystal
Measured chemistry: (Al_0.99_Fe^3+^_0.01_)_2_OSi_1.00_O_4_
Pin_id: L00375
Orientation: Laser parallel to (0 1 1). Fiducial mark perpendicular to laser is parallel to a [1 0 0]
Raman shift (cm-1)	intensity
103.174	0
108.114	129.812
113.052	498.992
117.987	1857.16
122.919	451.875
127.849	319.922
132.777	314.359
137.702	423.992
142.624	82.4219
147.544	621.25
152.461	428.992
157.375	359.445
162.287	496.148
167.197	314.414
172.104	729.242
177.008	326.109
181.91	230.141
186.809	191.461
191.706	170.867
196.6	25.3047
201.491	1746.87
206.38	3937.59
211.267	1700.52
216.151	48.0703
221.032	1403.78
225.911	3048.98
230.787	638.117
235.66	50.5078
240.531	12.2812
245.4	1315.74
250.266	594.938
255.129	307.672
259.99	937.375
264.848	121.594
269.703	3519.24
274.556	12692.7
279.407	11851.7
284.255	6031.05
289.1	16288.7
293.942	30605.8
298.783	76651
303.62	48624.2
308.455	7763.09
313.288	5547
318.117	17020.6
322.945	52462.2
327.769	35034.1
332.591	5027.2
337.411	4006.17
342.228	5156.58
347.042	3783.07
351.854	10321.5
356.663	33247.7
361.47	34716.8
366.274	13350.8
371.075	24376.8
375.874	44148.6
380.67	84565.3
385.464	115060
390.255	86284.2
395.043	56113
399.829	84081.8
404.613	108379
409.393	23869
414.172	6637.65
418.947	5318.04
423.72	7192.31
428.49	21932.7
433.258	64696
438.024	78362.4
442.786	29934.8
447.546	24951.1
452.304	7819.14
457.059	5063.5
461.811	11754.8
466.56	14499.3
471.308	14565.4
476.052	38413.7
480.794	118260
485.533	235660
490.27	118136
495.004	47074
499.736	16988
504.465	8476.5
509.191	8097.81
513.915	5961.4
518.636	968.688
523.354	541.82
528.07	877.719
532.784	1419.44
537.494	407.25
542.203	139.031
546.908	579.969
551.611	1722.64
556.311	9234.41
561.009	25604.8
565.704	15308.4
570.397	7323.11
575.087	4007.75
579.774	3705.2
584.459	3799.31
589.141	1914
593.821	1997.16
598.498	4533.64
603.172	9655.33
607.844	10864.1
612.513	8612.89
617.18	10911.5
621.844	9257.8
626.505	11437.7
631.164	22738.7
635.82	38210.8
640.473	24687.7
645.124	14897.4
649.773	20834.6
654.418	32770.9
659.062	26555.6
663.702	12595.2
668.34	8550.64
672.975	5749.44
677.608	4135.73
682.238	3863.44
686.866	3474.66
691.49	2166.2
696.113	2860.81
700.732	3348.53
705.349	3167.38
709.964	2774.5
714.576	2008.5
719.185	1626.23
723.792	987.656
728.396	837.672
732.997	1001.17
737.596	1984.08
742.192	2400.31
746.785	2346.81
751.376	2366.48
755.965	1542.28
760.551	1358.12
765.134	695.547
769.714	886.656
774.292	165.969
778.867	178.656
783.44	0.421875
788.01	4.96875
792.578	299.75
797.142	404.281
801.705	1238.73
806.264	708.766
810.821	407.094
815.376	235.531
819.927	434.125
824.476	494.219
829.023	526.281
833.567	561.328
838.108	560.469
842.647	1089.05
847.183	1416.31
851.716	2213.33
856.247	2164.09
860.776	2150.64
865.301	3302.97
869.824	3511.16
874.345	5662.39
878.862	6838.55
883.377	11166.6
887.89	15913.9
892.4	19660.2
896.907	24561.1
901.412	27201.1
905.914	19109.7
910.413	13972.8
914.91	13530.3
919.404	16123.3
923.896	21066.9
928.385	28321
932.871	41771.8
937.355	58302.5
941.836	75108.1
946.315	86127.1
950.79	88881.4
955.264	115506
959.734	147845
964.202	129044
968.668	78181.3
973.131	44941.3
977.591	27793.7
982.048	19244.1
986.503	15324.5
990.955	14610.9
995.405	19274.4
999.852	27140
1004.3	21248.4
1008.74	11333.8
1013.18	7451.09
1017.61	4452.3
1022.05	3727.27
1026.48	2752.77
1030.91	1295.28
1035.33	1576.5
1039.76	1195.22
1044.18	1209.73
1048.6	988.953
1053.01	1126.89
1057.42	879.266
1061.84	407.516
1066.24	288.641
1070.65	358.297
1075.05	154.078
1079.45	50.5781
1083.85	167.984
1088.24	769.312
1092.63	823.406
1097.02	798.484
1101.41	459.188
1105.8	308.75
1110.18	705.969
1114.56	266.797
1118.93	86.1875
1123.31	967.156
1127.68	300.734
1132.04	159.891
1136.41	467.562
1140.77	327.547
1145.13	13.0781
1149.49	487.141
1153.85	215.656
1158.2	326.641
1162.55	733.703
1166.9	182.609
1171.24	325.125
1175.58	404.203
1179.92	205.25
1184.26	291.031
1188.6	741.922
1192.93	547.75
1197.26	289.141
1201.58	631.078
1205.9	221.188
1210.23	291.234
1214.55	171.422
1218.86	74.5312
1223.17	668.141
1227.48	893.781
1231.79	655.656
1236.1	1176.77
1240.4	1066.09
1244.7	936.656
1249	938.453
1253.29	729.5
1257.59	1242.75
1261.88	1002.39
1266.16	670.812
1270.45	657.719
1274.73	566.094
1279.01	60.4688
1283.28	1058.58
1287.56	769.094
1291.83	772.844
1296.1	1357.97
1300.36	919.484
1304.63	1941.42
1308.89	1328.94
1313.15	993.594
1317.4	1136.52
1321.65	960.016
1325.9	888
1330.15	1287.86
1334.4	649.406
1338.64	301.047
1342.88	1013.48
1347.12	253.922
1351.35	953.281
1355.58	920.125
1359.81	686.812
1364.04	1440.5
1368.26	716.625
1372.48	514.516
1376.7	1105.23
1380.92	575.734
1385.13	1853.22
1389.34	57.6094
1393.55	1089.78
1397.76	961.312
1401.96	722.516
1406.16	1560.69
1410.36	1190.03
1414.55	571.703
1418.75	1278.86
1422.94	1272.89
1427.12	496.984
1431.31	1247.17
1435.49	362.578
1439.67	839.156
1443.85	311.406
1448.02	728.328
1452.19	585.984
1456.36	145.312
1460.53	820.391
1464.69	522.984
1468.85	1199.31
1473.01	463.016
1477.17	506.406
1481.32	7.42188
1485.47	169.125
1489.62	599.812
1493.76	77.5312
1497.91	229.047
1502.05	545.375
1506.18	688.453
1510.32	622.969
1514.45	331.031
1518.58	17.2656
1522.71	331.094
1526.83	347.469
1530.95	778.812
1535.07	554.797
1539.19	915.344
1543.3	1338.97
1547.41	368.016
1551.52	740.328
1555.63	206.844
1559.73	1050.89
1563.83	967.875
1567.93	894.25
1572.03	563.656
1576.12	2.64062
