Measurement: Raman, 514 nm, depolarized, Raman Data Processed
Mineral: Kyanite
Rruff sample: R050450
Ideal chemistry: Al_2_OSiO_4_
Locality: Switzerland
Source: Marcus Origlieri
Description: Blue bladed crystals
Measured chemistry: Al_2.00_OSi_1.00_O_4_
Pin_id: M01978
Orientation: Laser parallel to -b* (0 -1 0). Fiducial mark perpendicular to laser is parallel to c [0 0 1]
Raman shift (cm-1)	intensity
148.716	0
153.638	86.6313
158.558	53.9497
163.475	116.528
168.389	275.667
173.3	406.211
178.209	565.575
183.115	226.424
188.018	1.63184
192.918	125.787
197.816	186.264
202.711	306.445
207.604	392.817
212.494	260.185
217.381	543.266
222.265	946.148
227.147	2330.84
232.026	825.005
236.902	30.5537
241.775	30.3491
246.646	74.2158
251.514	18.1196
256.38	112.149
261.243	167.43
266.103	236.077
270.96	216.077
275.815	1329.53
280.667	1754.85
285.516	1035.96
290.363	4013.11
295.207	8400.03
300.048	18750.4
304.887	16781.5
309.723	2178.72
314.556	1195.51
319.387	2896.54
324.215	7203.9
329.04	6750.37
333.862	943.641
338.682	869.781
343.5	1429.28
348.314	558.899
353.126	2580.45
357.935	7223.76
362.742	10220
367.546	2833.22
372.347	4494.33
377.145	6348.34
381.941	7888.56
386.735	13620.1
391.525	12369.5
396.313	9553.85
401.098	7950.74
405.881	13389.3
410.661	3805.73
415.438	1967.22
420.213	3277.63
424.985	1719.77
429.754	3191.66
434.521	9036.28
439.285	15447.6
444.046	6326.69
448.805	4308.45
453.561	1595.94
458.315	245.16
463.065	723.266
467.813	1164.31
472.559	1539.23
477.302	5265.25
482.042	17350.2
486.78	41626.4
491.515	23278.8
496.247	8405.02
500.977	3107.37
505.704	2411.65
510.428	3249.84
515.15	3083.98
519.869	783.885
524.586	131.477
529.3	276.384
534.011	215.574
538.719	129.58
543.425	278.373
548.129	503.196
552.83	527.857
557.528	1928.37
562.223	5416.34
566.916	4822.75
571.607	4307.58
576.294	3116.8
580.979	879.392
585.662	485.342
590.341	534.625
595.019	357.222
599.693	1481.67
604.365	3220.74
609.035	3789.66
613.701	1699.11
618.366	1484.41
623.027	1229.43
627.686	1465.55
632.342	1519.54
636.996	1671.7
641.647	948.15
646.296	479.349
650.942	484.29
655.585	842.158
660.226	786.816
664.864	947.531
669.499	1509.75
674.132	1240.86
678.763	414.82
683.39	399.694
688.015	369.589
692.638	287.551
697.258	131.935
701.875	301.87
706.49	264.469
711.102	161.716
715.712	279.597
720.319	556.097
724.923	837.201
729.525	351.897
734.124	130.852
738.721	9.03516
743.315	37.8398
747.907	124.913
752.496	127.934
757.082	24.0059
761.666	229.065
766.247	105.198
770.826	3.69043
775.402	181.495
779.975	50.3242
784.546	44.3438
789.115	16.6738
793.681	27.5889
798.244	85.6045
802.804	128.315
807.363	102.529
811.918	185.719
816.471	139.111
821.022	162.251
825.569	82.9043
830.115	253.135
834.657	247.816
839.198	372.165
843.735	397.102
848.27	436.617
852.803	541.726
857.333	880.408
861.86	1030.74
866.385	1442.85
870.907	2089.59
875.427	2883.51
879.944	5023.94
884.459	9544.13
888.971	15714.2
893.481	14635.5
897.988	10835.5
902.492	10552.1
906.994	6989.12
911.493	4065.34
915.99	2976.48
920.485	2922.01
924.976	3101.99
929.466	3960.2
933.952	5803.03
938.436	7928.55
942.918	10643.9
947.397	13911
951.874	16553.3
956.348	16204.1
960.819	15475.7
965.288	13021.8
969.755	7894.83
974.219	4760.64
978.68	2916.24
983.139	1917.25
987.595	1831.28
992.049	1747.29
996.501	3057.68
1000.95	4773.64
1005.4	3576.51
1009.84	1733.24
1014.28	992.547
1018.72	707.189
1023.16	555.967
1027.59	450.96
1032.02	170.632
1036.45	177.697
1040.88	13.249
1045.3	355.435
1049.72	77.9727
1054.14	138.797
1058.56	105.093
1062.97	135.374
1067.38	157.052
1071.79	57.8174
1076.19	99.0957
1080.6	137.028
1085	164.02
1089.4	110.051
1093.79	116.393
1098.19	15.9004
1102.58	26.4785
1106.97	50.8926
1111.35	66.1455
1115.74	84.7412
1120.12	82.2734
1124.5	125.515
1128.87	89.9473
1133.25	6.21777
1137.62	94.458
1141.99	234.723
1146.35	67.9043
1150.72	31.9541
1155.08	80.4873
1159.44	57.2842
1163.79	21.4189
1168.15	21.9346
1172.5	234.199
1176.85	33.7471
1181.19	24.5312
1185.54	32.0898
1189.88	98.9727
1194.22	32.752
1198.55	208.46
1202.89	78.9834
1207.22	151.71
1211.55	101.469
1215.88	108.913
1220.2	153.174
1224.52	119.038
1228.84	58.8603
1233.16	195.01
1237.47	125.691
1241.78	52.7246
1246.09	109.053
1250.4	264.076
1254.7	290.592
1259.01	244.111
1263.31	193.58
1267.6	210.469
1271.9	21.4238
1276.19	282.207
1280.48	51.0879
1284.77	162.549
1289.05	307.08
1293.33	179.852
1297.61	222.162
1301.89	295.545
1306.16	49.7324
1310.44	312.299
1314.71	249.467
1318.97	533.65
1323.24	71.6309
1327.5	205.512
1331.76	312.578
1336.02	441.246
1340.28	240.074
1344.53	182.842
1348.78	356.195
1353.03	272.801
1357.27	169.897
1361.52	57.5762
1365.76	207.553
1370	157.076
1374.23	200.367
1378.47	223.707
1382.7	21.0879
1386.93	208.541
1391.15	39.8203
1395.38	93.2793
1399.6	38.3379
1403.82	168.301
1408.03	36.2129
1412.25	105.287
1416.46	140.816
1420.67	25.6895
1424.88	42.8945
1429.08	92.1172
1433.28	151.096
1437.48	66.9707
1441.68	258.047
1445.87	72.8535
1450.07	157.828
1454.26	218.619
1458.44	296.195
1462.63	145.777
1466.81	332.441
1470.99	221.147
1475.17	269.764
1479.34	218.869
1483.52	262.19
1487.69	236.361
1491.86	173.756
1496.02	401.941
1500.19	253.773
1504.35	156.285
1508.51	156.127
1512.66	214.523
1516.82	96.1231
1520.97	117.285
1525.12	172.555
1529.26	196.541
1533.41	114.891
1537.55	184.424
1541.69	252.102
1545.83	124.494
1549.96	193.772
1554.09	348.584
1558.22	131.666
1562.35	145.873
