Measurement: Raman, 514 nm, ccw, Raman Data Processed
Mineral: Kyanite
Rruff sample: R040119
Ideal chemistry: Al_2_OSiO_4_
Locality: Rutherford County, North Carolina, USA
Source: University of Arizona Mineral Museum
Description: Blue bladed crystal
Measured chemistry: (Al_0.99_Fe^3+^_0.01_)_2_OSi_1.00_O_4_
Pin_id: L00448
Orientation: Laser parallel to -a* (-1 0 0). Fiducial mark perpendicular to laser is parallel to b [0 1 0]
Raman shift (cm-1)	intensity
127.849	0
132.777	234.193
137.702	16.666
142.624	261.742
147.544	406.361
152.461	257.385
157.375	423.486
162.287	2026.6
167.197	327.871
172.104	600.08
177.008	1373.63
181.91	295.797
186.809	39.2988
191.706	47.6484
196.6	502.305
201.491	1129.67
206.38	1704.08
211.267	1328.97
216.151	781.674
221.032	1410.43
225.911	2736.78
230.787	736.434
235.66	353.346
240.531	479.06
245.4	781.947
250.266	318.148
255.129	322.803
259.99	1092.86
264.848	744.193
269.703	1773.66
274.556	6517.52
279.407	6661.34
284.255	4823.33
289.1	13494.5
293.942	23511.1
298.783	49430.3
303.62	32991.2
308.455	5599.89
313.288	4956.58
318.117	15283.9
322.945	40771.2
327.769	29723.6
332.591	3820.77
337.411	2461.87
342.228	3184.95
347.042	1533.4
351.854	4694.85
356.663	16104.3
361.47	17896.6
366.274	7401.85
371.075	11021.1
375.874	15991.3
380.67	25354.5
385.464	33129
390.255	28942.9
395.043	19528.2
399.829	24328.2
404.613	30829.8
409.393	8379.98
414.172	5046.74
418.947	6880.56
423.72	4903.02
428.49	10914.1
433.258	31433.9
438.024	39566.4
442.786	16879.5
447.546	11735.4
452.304	3795.02
457.059	1139.41
461.811	2015.58
466.56	2618.5
471.308	4707.16
476.052	17366.7
480.794	56518.5
485.533	105333
490.27	50411.2
495.004	17198.4
499.736	7251.36
504.465	5299.12
509.191	6661.81
513.915	4889.66
518.636	1324.98
523.354	25.9922
528.07	541.269
532.784	749.836
537.494	690.93
542.203	5.96484
546.908	762.898
551.611	1299.62
556.311	5855.73
561.009	14508.8
565.704	8384.66
570.397	2940.25
575.087	2683.46
579.774	3141.23
584.459	4428.49
589.141	2512.14
593.821	1956.11
598.498	5560.97
603.172	12605.7
607.844	12520.1
612.513	7253.56
617.18	6677.89
621.844	7394.09
626.505	9312.92
631.164	9017.9
635.82	6952.44
640.473	4507.78
645.124	3373.38
649.773	4721.52
654.418	7112.03
659.062	6949.06
663.702	6412.08
668.34	7771.1
672.975	6199.16
677.608	3556.52
682.238	2662.75
686.866	2233.02
691.49	2179.34
696.113	2477.73
700.732	3266.97
705.349	3652
709.964	3182.75
714.576	2544.25
719.185	2016.08
723.792	2446.53
728.396	2278.43
732.997	1823.71
737.596	1817.32
742.192	1373.2
746.785	1217.31
751.376	702.594
755.965	456.019
760.551	225.496
765.134	203.781
769.714	61
774.292	190.07
778.867	162.156
783.44	472.969
788.01	370.098
792.578	276.371
797.142	0.585938
801.705	120.617
806.264	55.6523
810.821	57.8164
815.376	230.453
819.927	197.828
824.476	245.723
829.023	267.055
833.567	583.973
838.108	517.797
842.647	859.547
847.183	1289.34
851.716	1486.21
856.247	1633.18
860.776	2115.26
865.301	2544.53
869.824	3034.99
874.345	3965.67
878.862	5337.62
883.377	7464.94
887.89	10127.1
892.4	10804.8
896.907	10377
901.412	11423.3
905.914	10286.9
910.413	9813.76
914.91	10705
919.404	12642.8
923.896	15531.4
928.385	19778.6
932.871	27094.2
937.355	38616.3
941.836	57312.4
946.315	91980.2
950.79	118816
955.264	96888.3
959.734	70900
964.202	50924.1
968.668	32024.9
973.131	20298.4
977.591	14123.1
982.048	10451.3
986.503	9308.45
990.955	9593.92
995.405	14429
999.852	20148.1
1004.3	15461
1008.74	8027.82
1013.18	5214.31
1017.61	3949.53
1022.05	3288.84
1026.48	2905.02
1030.91	2479.95
1035.33	1756.5
1039.76	1302.95
1044.18	1158.35
1048.6	948.043
1053.01	815.699
1057.42	495.856
1061.84	308.809
1066.24	528.504
1070.65	498.824
1075.05	590.68
1079.45	449.519
1083.85	704.07
1088.24	574.664
1092.63	337.969
1097.02	439.969
1101.41	202.582
1105.8	225.727
1110.18	408.348
1114.56	56.5859
1118.93	5.89062
1123.31	105.793
1127.68	188.121
1132.04	218.816
1136.41	188.918
1140.77	65.4492
1145.13	108.664
1149.49	33.7734
1153.85	141.469
1158.2	151.18
1162.55	4.89844
1166.9	111.652
1171.24	141.789
1175.58	159.879
1179.92	270.477
1184.26	81.2383
1188.6	22.6445
1192.93	130.363
1197.26	204.977
1201.58	358.965
1205.9	207.852
1210.23	239.234
1214.55	161.273
1218.86	186.336
1223.17	190.445
1227.48	112.695
1231.79	496.184
1236.1	790.359
1240.4	823.547
1244.7	852.695
1249	1074.94
1253.29	663.988
1257.59	620.461
1261.88	810.094
1266.16	723.098
1270.45	713.559
1274.73	1228.17
1279.01	714.93
1283.28	997.16
1287.56	818.516
1291.83	1135.56
1296.1	950.062
1300.36	929.793
1304.63	1094.69
1308.89	992.519
1313.15	532.227
1317.4	909.09
1321.65	663.379
1325.9	946.766
1330.15	863.777
1334.4	597.129
1338.64	275.945
1342.88	293.016
1347.12	426.965
1351.35	350.098
1355.58	399.422
1359.81	137.945
1364.04	333.664
1368.26	458.613
1372.48	318.32
1376.7	415.785
1380.92	361.621
1385.13	404.648
1389.34	113.238
1393.55	276.664
1397.76	203.856
1401.96	100.266
1406.16	257.324
1410.36	279.254
1414.55	425.59
1418.75	416.519
1422.94	104.769
1427.12	64.8906
1431.31	353.133
1435.49	1009.73
1439.67	1411.57
1443.85	1317.39
1448.02	1525.81
1452.19	1603.23
1456.36	1640.84
1460.53	1528.91
1464.69	1302
1468.85	730.535
1473.01	545.254
1477.17	636.055
1481.32	706.356
1485.47	400.316
1489.62	460.602
1493.76	364.496
1497.91	334.074
1502.05	37.3242
1506.18	203.32
1510.32	29.9922
1514.45	458.348
1518.58	54.4844
1522.71	408.727
1526.83	182.16
1530.95	237.863
1535.07	192.91
1539.19	220.379
1543.3	313.41
1547.41	542.453
1551.52	538.898
1555.63	583.453
1559.73	223.918
1563.83	348.582
1567.93	351.312
1572.03	129.922
1576.12	109.156
