Measurement: Raman, 514 nm, ccw, Raman Data Processed
Mineral: Kyanite
Rruff sample: R040119
Ideal chemistry: Al_2_OSiO_4_
Locality: Rutherford County, North Carolina, USA
Source: University of Arizona Mineral Museum
Description: Blue bladed crystal
Measured chemistry: (Al_0.99_Fe^3+^_0.01_)_2_OSi_1.00_O_4_
Pin_id: L00051
Orientation: Laser parallel to b* (0 1 0). Fiducial mark perpendicular to laser is parallel to -c [0 0 -1]
Raman shift (cm-1)	intensity
67.281	0
72.24	1430.71
77.196	3577.95
82.15	1820.67
87.101	1282.95
92.049	898.961
96.995	201.984
101.939	809.969
106.879	1874.91
111.818	1319.23
116.753	2620.17
121.686	824.539
126.617	200.945
131.545	443.586
136.471	648.875
141.393	599.82
146.314	148.82
151.232	414.508
156.147	478.812
161.06	516.961
165.97	990.852
170.877	1266.46
175.782	1519.4
180.685	903.93
185.585	519.898
190.482	503.555
195.377	517.664
200.269	492.398
205.158	332.617
210.045	745.438
214.93	550.898
219.812	1881.57
224.691	4278.73
229.568	2244.59
234.442	190.672
239.314	196.844
244.183	463.562
249.049	468.312
253.913	40.2344
258.775	346.398
263.633	355.32
268.49	148.086
273.343	2397.74
278.194	3985.58
283.043	3214.44
287.889	9687.1
292.732	19477.3
297.573	39187.4
302.411	44147.6
307.247	8485.92
312.08	2660.82
316.91	5197.35
321.738	15181
326.563	18462.1
331.386	3309.9
336.206	735.734
341.024	1123.42
345.839	707.148
350.651	2843.77
355.461	10858.3
360.268	20559.6
365.073	8199.98
369.875	7575.52
374.674	7682.09
379.471	11002.8
384.266	22179.1
389.057	30094.7
393.846	29428.7
398.633	20887.9
403.417	37063.2
408.198	15317.6
412.977	8768.36
417.753	17468.4
422.527	10103.6
427.298	6550.19
432.067	16007.2
436.832	26473.6
441.596	11569.8
446.356	4870.68
451.115	1423.19
455.87	11.4453
460.623	1286.7
465.373	3115.93
470.121	3670
474.866	10829.5
479.609	37198.8
484.349	96122.9
489.086	76011.8
493.821	33242
498.553	12569.2
503.283	8182.5
508.01	9665.95
512.734	8988.67
517.456	3584.02
522.175	340.047
526.892	236.328
531.606	313.031
536.317	374.109
541.026	2906.05
545.732	5740.34
550.436	3159.49
555.137	6080.34
559.835	17275.8
564.531	19627.7
569.224	13879
573.915	12009.9
578.603	4052.49
583.288	1710.21
587.971	788.406
592.651	475.312
597.329	673.398
602.004	1961.3
606.676	1074.86
611.346	388.711
616.013	102.547
620.678	77.3438
625.34	462.5
629.999	2093.41
634.656	5144.84
639.31	4951.98
643.962	1943.15
648.611	488.781
653.257	1201.1
657.901	1585.94
662.542	2311.19
667.181	5640.19
671.817	6253.47
676.45	2957.74
681.081	1243.09
685.709	839.508
690.334	349.609
694.957	524.43
699.578	842.906
704.195	393.219
708.811	22.3047
713.423	339.93
718.033	6.16406
722.64	1194.65
727.245	1267.03
731.847	361.914
736.446	257.031
741.043	370.141
745.637	795.273
750.229	245.359
754.818	171.703
759.404	405.922
763.988	9.69531
768.569	43.0312
773.148	46.8984
777.724	210.125
782.297	290.617
786.868	309.43
791.436	59.7031
796.001	11.6328
800.564	255.398
805.125	121.289
809.682	612.641
814.237	562.188
818.79	1158.63
823.339	723.078
827.887	1246.46
832.431	1498.03
836.973	1227.72
841.513	1731.52
846.049	1421.87
850.583	2304.19
855.115	2775.35
859.644	3432.94
864.17	4258.74
868.694	5740.66
873.215	8062.58
877.733	12015.1
882.249	19446.5
886.762	32583.9
891.273	42189.5
895.781	53128.2
900.286	72851.3
904.789	56372.6
909.289	27972.9
913.786	15488.9
918.281	10157.2
922.773	8728.16
927.263	8556.91
931.75	10236.3
936.234	13422.3
940.716	17576.8
945.195	22083.3
949.672	27370.5
954.146	27131.8
958.617	25183
963.086	23118.9
967.552	15128.4
972.015	9572.44
976.476	6289.84
980.934	4499.72
985.39	3624.03
989.843	2947.38
994.293	2445.48
998.741	3057.25
1003.19	2435.39
1007.63	2112.83
1012.07	1302.23
1016.5	995.672
1020.94	1310.88
1025.37	484.266
1029.8	316.734
1034.23	300.219
1038.65	55
1043.07	183.797
1047.49	468.406
1051.91	6.46875
1056.32	66.4844
1060.73	16.0312
1065.14	522.688
1069.55	149.984
1073.95	299.781
1078.35	275.672
1082.75	652.812
1087.14	426.328
1091.54	475.672
1095.93	505.625
1100.31	892.562
1104.7	744.531
1109.08	247.516
1113.46	4.4375
1117.84	731.469
1122.21	319.234
1126.58	260.016
1130.95	463.922
1135.32	111.641
1139.68	188.422
1144.04	464.391
1148.4	26.8594
1152.76	482.75
1157.11	486.438
1161.46	248.25
1165.81	656.109
1170.16	480.781
1174.5	472.578
1178.84	134.312
1183.18	271.344
1187.51	72.0312
1191.84	57.0781
1196.17	249.844
1200.5	276.719
1204.83	448.547
1209.15	550.359
1213.47	438.953
1217.78	335.328
1222.1	1211.31
1226.41	716.875
1230.72	783.531
1235.02	448.094
1239.33	1028
1243.63	60.7188
1247.92	955.922
1252.22	424.734
1256.51	327.25
1260.8	156.188
1265.09	602.172
1269.38	805.625
1273.66	760.5
1277.94	795.438
1282.21	482.547
1286.49	225.906
1290.76	1371.39
1295.03	48.7344
1299.3	905.875
1303.56	662.469
1307.82	922.812
1312.08	600.109
1316.34	784.625
1320.59	647.047
1324.84	100.469
1329.09	134.5
1333.34	357.25
1337.58	369.781
1341.82	837.688
1346.06	1003.02
1350.29	438.781
1354.53	840.953
1358.76	865.578
1362.98	218.625
1367.21	925.125
1371.43	856.875
1375.65	737.5
1379.87	292.234
1384.08	437.875
1388.29	428.906
1392.5	779.938
1396.71	203.953
1400.91	697.781
1405.11	461.609
1409.31	1005.22
1413.51	487.562
1417.7	955.562
1421.89	502.047
1426.08	448.844
1430.26	108.656
1434.44	759.062
1438.62	541.094
1442.8	1199.98
1446.98	433.422
1451.15	719.906
1455.32	974.469
1459.49	736.469
1463.65	282.844
1467.81	12.7812
1471.97	1819.61
1476.13	758.734
1480.28	790.812
1484.43	873.875
1488.58	347.562
1492.73	298.484
1496.87	194.531
1501.01	419.812
1505.15	400
1509.29	185.547
1513.42	378.156
1517.55	399.922
1521.67	329.203
1525.8	1120.08
1529.92	411.531
1534.04	847.359
1538.16	847.828
1542.27	634.391
1546.39	721.062
1550.49	487.266
1554.6	753.391
1558.71	100.062
1562.81	254.234
1566.91	33.5156
1571	429.516
1575.1	529.875
