Measurement: Raman, 514 nm, depolarized, Raman Data Processed
Mineral: Kyanite
Rruff sample: R050450
Ideal chemistry: Al_2_OSiO_4_
Locality: Switzerland
Source: Marcus Origlieri
Description: Blue bladed crystals
Measured chemistry: Al_2.00_OSi_1.00_O_4_
Pin_id: M00770
Orientation: Laser parallel to (0 1 -1). Fiducial mark perpendicular to laser is parallel to -a [-1 0 0]
Raman shift (cm-1)	intensity
148.716	0
153.638	53.6172
158.558	63.5474
163.475	116.389
168.389	151.409
173.3	347.055
178.209	374.144
183.115	207.31
188.018	39.9863
192.918	69.5542
197.816	188.415
202.711	513.562
207.604	937.5
212.494	549.435
217.381	454.159
222.265	961.948
227.147	1639.38
232.026	739.788
236.902	191.545
241.775	95.4072
246.646	184.639
251.514	44.7734
256.38	102.334
261.243	207.327
266.103	193.19
270.96	456.65
275.815	1165.52
280.667	1556.24
285.516	1264.77
290.363	3559.09
295.207	8706.23
300.048	15131.5
304.887	13789.1
309.723	2012.71
314.556	1010.19
319.387	4333.09
324.215	8988.25
329.04	8284.44
333.862	1340.64
338.682	582.703
343.5	683.497
348.314	385.79
353.126	1906.23
357.935	4435.59
362.742	6087.75
367.546	3120.71
372.347	5162.44
377.145	7092.92
381.941	9085.14
386.735	14790
391.525	13249.1
396.313	11091.9
401.098	9405.22
405.881	13446.4
410.661	4637.69
415.438	2351.25
420.213	3581.54
424.985	1873.36
429.754	3148.72
434.521	7872.65
439.285	11169.1
444.046	5314.04
448.805	3138.38
453.561	1122.2
458.315	330.494
463.065	872.308
467.813	1461.83
472.559	1535.14
477.302	6121.22
482.042	20994.3
486.78	40839
491.515	26990.2
496.247	10119
500.977	3775.67
505.704	2426.26
510.428	2593.98
515.15	2415.56
519.869	673.713
524.586	65.7188
529.3	332.097
534.011	321.988
538.719	83.3906
543.425	613.234
548.129	901.831
552.83	581.139
557.528	2106.41
562.223	4839.4
566.916	4778.61
571.607	3798.65
576.294	2761.81
580.979	1075.84
585.662	979.813
590.341	745.876
595.019	149.185
599.693	449.853
604.365	1172.19
609.035	1244.88
613.701	846.699
618.366	968.239
623.027	847.852
627.686	1141.51
632.342	2765.31
636.996	4435.85
641.647	3596.26
646.296	1671.78
650.942	1885.65
655.585	2573.83
660.226	2355.38
664.864	1623.13
669.499	1899.88
674.132	1391.03
678.763	559.206
683.39	244.808
688.015	183.132
692.638	100.154
697.258	140.845
701.875	228.19
706.49	161.191
711.102	17.8262
715.712	107.993
720.319	453.731
724.923	855.076
729.525	394.017
734.124	153.965
738.721	68.6231
743.315	87.8272
747.907	12.3145
752.496	80.7578
757.082	31.2617
761.666	126.25
766.247	29.0898
770.826	35.3115
775.402	153.08
779.975	27.125
784.546	199.004
789.115	77.9287
793.681	63.1982
798.244	158.839
802.804	429.188
807.363	512.602
811.918	474.741
816.471	590.188
821.022	793.306
825.569	589.99
830.115	871.132
834.657	859.666
839.198	863.003
843.735	794.055
848.27	809.358
852.803	863.564
857.333	1012.28
861.86	1130.63
866.385	1675.61
870.907	1965.17
875.427	2817.78
879.944	4747.38
884.459	8632.43
888.971	14150.1
893.481	16035.1
897.988	17215.2
902.492	18298
906.994	11615.5
911.493	5712.36
915.99	3729.97
920.485	2994.44
924.976	2894.26
929.466	3861.41
933.952	5356
938.436	7589.93
942.918	9967.98
947.397	12085.9
951.874	12880.1
956.348	14030.4
960.819	15388.1
965.288	13156.3
969.755	7956.15
974.219	4708.04
978.68	2868.39
983.139	1752.59
987.595	1568.67
992.049	1315.6
996.501	1798.39
1000.95	2828.82
1005.4	2181.06
1009.84	945.429
1014.28	619.743
1018.72	360.066
1023.16	352.716
1027.59	139.568
1032.02	162.49
1036.45	70.4736
1040.88	121.209
1045.3	23.8389
1049.72	61.9775
1054.14	13.5205
1058.56	60.4316
1062.97	3.87012
1067.38	37.7607
1071.79	115.772
1076.19	19.3379
1080.6	23.2959
1085	211.548
1089.4	194.13
1093.79	43.4805
1098.19	16.5879
1102.58	46.4551
1106.97	273.207
1111.35	843.877
1115.74	824.506
1120.12	274.014
1124.5	320.402
1128.87	29.7207
1133.25	37.1504
1137.62	24.8047
1141.99	195.717
1146.35	138.877
1150.72	62.9277
1155.08	169.158
1159.44	319.076
1163.79	64.3691
1168.15	40.7734
1172.5	106.57
1176.85	166.232
1181.19	165.951
1185.54	231.652
1189.88	218.086
1194.22	216.516
1198.55	105.828
1202.89	112.488
1207.22	25.4277
1211.55	74.0352
1215.88	422.918
1220.2	326.549
1224.52	630.174
1228.84	684.518
1233.16	635.334
1237.47	547.508
1241.78	440.076
1246.09	606.629
1250.4	793.68
1254.7	648.623
1259.01	832.887
1263.31	632.623
1267.6	342.008
1271.9	433.812
1276.19	332.076
1280.48	226.254
1284.77	280.607
1289.05	450.988
1293.33	538.113
1297.61	477.461
1301.89	509.691
1306.16	591.519
1310.44	412.74
1314.71	375.49
1318.97	182.914
1323.24	161.467
1327.5	154.262
1331.76	55.4902
1336.02	251.191
1340.28	96.9453
1344.53	189.209
1348.78	193.834
1353.03	233.85
1357.27	95.2051
1361.52	112.154
1365.76	127.111
1370	109.348
1374.23	30.1465
1378.47	4.36719
1382.7	39.3242
1386.93	13.0703
1391.15	121.818
1395.38	133.492
1399.6	116.594
1403.82	324.963
1408.03	226.438
1412.25	111.297
1416.46	51.4023
1420.67	251.275
1424.88	134.225
1429.08	295.041
1433.28	383.906
1437.48	389.084
1441.68	467.772
1445.87	799.182
1450.07	540.094
1454.26	565.818
1458.44	463.269
1462.63	719.396
1466.81	499.115
1470.99	364.666
1475.17	396.766
1479.34	343.027
1483.52	479.291
1487.69	277.227
1491.86	154.727
1496.02	223.588
1500.19	93.1289
1504.35	271.865
1508.51	307.941
1512.66	222.197
1516.82	258.803
1520.97	307.125
1525.12	261.621
1529.26	350.584
1533.41	196.285
1537.55	271.119
1541.69	255.129
1545.83	88.7871
1549.96	330.68
1554.09	300.234
1558.22	29.4707
1562.35	1.2168
