Measurement: Raman, 514 nm, ccw, Raman Data Processed
Mineral: Laumontite
Rruff sample: R040020
Ideal chemistry: Ca(Si_4_Al_2_)O_12_4H_2_O
Locality: Pine Creek Tungsten mine, Bishop, Inyo County, California, USA
Source: University of Arizona Mineral Museum
Description: Pale gray long prism coated with smaller crystals
Measured chemistry: (Ca_0.99_K_0.01_)_Σ=1_(Si_4.01_Al_1.99_)O_12_·4H_2_O; H_2_O estimated by difference
Pin_id: L00252
Orientation: Laser parallel to a [1 0 0]. Fiducial mark perpendicular to laser is parallel to b* (0 1 0)
Raman shift (cm-1)	intensity
114.833	0
118.987	14.0791
123.138	159.817
127.288	533.972
131.436	1142.2
135.582	1322.93
139.726	1184.11
143.868	1064.26
148.008	818.768
152.147	1085.07
156.284	2097.75
160.418	3533.07
164.551	4686.49
168.683	5665.83
172.812	5895.7
176.939	5006.75
181.065	3710.36
185.188	2760.34
189.31	2007.65
193.43	1766.45
197.549	1945.88
201.665	2593.52
205.779	3025.5
209.892	5036.45
214.003	6974.77
218.112	6681.52
222.219	3818.61
226.324	1565.61
230.428	632.017
234.529	96.9648
238.629	169.648
242.727	297.709
246.823	197.917
250.917	169.66
255.01	7.01074
259.101	216.119
263.189	541.417
267.276	819.502
271.362	1214.74
275.445	1442.32
279.526	1920.48
283.606	2343.99
287.684	2986.72
291.76	4057.06
295.834	5181.62
299.907	7442.06
303.978	11969
308.046	17943.2
312.113	20794.4
316.179	17521.7
320.242	13575.2
324.304	15775.5
328.363	19433.2
332.421	14478.4
336.478	7781.31
340.532	4739.31
344.585	3099.03
348.635	2401.89
352.684	1941.29
356.731	1679.12
360.777	1555.95
364.82	1552.94
368.862	2319.38
372.902	3345.21
376.94	5880.42
380.977	9944.98
385.012	10448.9
389.044	5551.61
393.075	2472.32
397.105	1200.94
401.132	836.492
405.158	804.707
409.182	1003.13
413.204	740.159
417.224	286.741
421.243	145.105
425.26	101.894
429.275	31.7432
433.288	90.3467
437.3	116.768
441.309	67.9238
445.317	191.922
449.323	54.8223
453.328	376.635
457.331	537.454
461.331	1117.42
465.33	1966.65
469.328	2705.9
473.323	2913.51
477.317	2810.7
481.309	3969.9
485.3	7286.42
489.288	16322.1
493.275	27147.2
497.26	20302
501.243	12026.5
505.225	11410.7
509.205	14954.8
513.183	19568.8
517.159	19092.6
521.133	13706.2
525.106	8379.31
529.077	5272.73
533.046	3346.08
537.014	2199.35
540.98	1542.45
544.944	1125.39
548.906	798.192
552.867	670.934
556.825	353.261
560.783	262.498
564.738	502.095
568.692	445.584
572.643	330.404
576.594	557.007
580.542	1269.16
584.489	2340.56
588.434	3903.05
592.377	4737.36
596.318	4100.59
600.258	2798.37
604.196	1851.28
608.132	1043.28
612.067	557.973
616	485.862
619.931	305.289
623.861	338.853
627.788	130.333
631.714	44.7998
635.639	8.36426
639.561	274.267
643.482	117.286
647.401	134.606
651.319	258.897
655.234	552.477
659.148	1025.93
663.061	1552.43
666.971	2621.87
670.88	3926.69
674.787	4760.41
678.693	3590.3
682.597	2036.06
686.499	883.487
690.399	409.197
694.298	329.251
698.195	509.463
702.09	501.261
705.984	591.084
709.876	990.014
713.766	1489.08
717.654	1308.65
721.541	687.617
725.426	257.095
729.31	135.638
733.191	81.1719
737.071	139.92
740.95	289.016
744.827	238.616
748.702	119.455
752.575	142.514
756.447	86.6309
760.316	234.942
764.185	523.093
768.051	341.133
771.916	479.022
775.78	346.687
779.641	204.019
783.501	90.2803
787.359	36.9102
791.216	186.279
795.071	232.742
798.924	41.9141
802.775	156.648
806.625	50.9824
810.474	154.961
814.32	71.8379
818.165	70.7578
822.008	232.894
825.85	94.5527
829.69	185.861
833.528	43.1113
837.364	7.54297
841.199	2.1543
845.033	307.691
848.864	167.221
852.694	3.48438
856.523	155.565
860.349	264.398
864.174	283.014
867.998	451.428
871.819	299.877
875.639	168.162
879.458	113.682
883.274	113.654
887.09	437.828
890.903	494.549
894.715	160.684
898.525	126.676
902.334	192.215
906.14	249.338
909.946	553.889
913.749	358.254
917.551	263.541
921.352	479.227
925.15	404.699
928.947	779.955
932.743	700.719
936.537	652.984
940.329	612.303
944.119	340.723
947.908	255.435
951.696	400.6
955.481	506.945
959.265	515.217
963.048	425.398
966.829	215.516
970.608	189.76
974.385	253.348
978.161	330.135
981.936	228.828
985.708	296.295
989.479	315.494
993.249	279.494
997.017	387.832
1000.78	741.143
1004.55	781.805
1008.31	1055.83
1012.07	878.709
1015.83	712.793
1019.59	755.736
1023.35	1210.79
1027.1	1176.72
1030.86	1187.59
1034.61	1039.75
1038.36	597.916
1042.11	511.504
1045.85	289.162
1049.6	714.996
1053.34	738.455
1057.08	949.807
1060.82	1021.16
1064.56	1063.05
1068.3	1221.18
1072.04	1503.76
1075.77	1775.44
1079.5	2316.56
1083.23	2077.33
1086.96	1968.72
1090.69	1559.26
1094.42	1419.22
1098.14	1289.95
1101.87	1380.72
1105.59	1651.89
1109.31	1922.56
1113.03	1783.09
1116.74	1273.94
1120.46	834.836
1124.17	296.703
1127.88	248.092
1131.59	289.086
1135.3	240.623
1139.01	501.191
1142.71	491.644
1146.42	30.8867
1150.12	668.666
1153.82	117.305
1157.52	102.272
1161.22	153.779
1164.92	205.152
1168.61	410.682
1172.3	496.908
1175.99	295.941
1179.68	34.2109
1183.37	28.168
1187.06	159.34
1190.75	91.0664
1194.43	479.156
1198.11	526.543
1201.79	533.644
1205.47	520.24
1209.15	218.236
1212.83	74.1894
1216.5	83.9688
1220.17	398.326
1223.84	794.205
1227.51	491.295
1231.18	705.348
1234.85	591.268
1238.51	557.943
1242.18	760.213
1245.84	513.941
1249.5	936.154
1253.16	910.477
1256.82	990.514
1260.47	638.643
1264.12	808.371
1267.78	186.666
1271.43	956.279
1275.08	474.498
1278.73	218.949
1282.37	855.357
1286.02	920.094
1289.66	1004.14
1293.3	950.188
1296.94	1009.34
1300.58	964.723
1304.22	163.951
1307.86	67
1311.49	31.6289
1315.12	9.74609
1318.76	230.469
1322.38	550.707
1326.01	756.002
1329.64	532.68
1333.27	711.014
1336.89	158.394
1340.51	90.5469
1344.13	137.227
1347.75	67.4707
1351.37	153.965
1354.98	399.254
1358.6	418.162
1362.21	693.617
1365.82	759.557
1369.43	245.295
1373.04	5.73047
1376.65	139.643
1380.25	206.203
1383.86	52.625
1387.46	310.065
1391.06	402.705
1394.66	803.475
1398.26	884.156
1401.85	913.414
1405.45	813.469
1409.04	723.062
1412.63	490.209
1416.22	235.481
1419.81	11.7109
1423.4	101.736
1426.99	403.102
1430.57	839.918
1434.15	1085.45
1437.73	1449.3
1441.32	1482.19
1444.89	1704.96
1448.47	1324.6
1452.05	791.752
1455.62	761.197
1459.19	705.461
1462.76	667.031
1466.33	636.17
1469.9	972.201
1473.47	1117.06
1477.03	1304.88
1480.6	1352.64
1484.16	1190.16
1487.72	1131.98
1491.28	873.938
1494.83	689.26
1498.39	180.578
1501.94	148.111
1505.5	94.0859
1509.05	143.481
1512.6	252.35
1516.15	662.016
