Measurement: Raman, 514 nm, depolarized, Raman Data Processed
Mineral: Laumontite
Rruff sample: R040020
Ideal chemistry: Ca(Si_4_Al_2_)O_12_4H_2_O
Locality: Pine Creek Tungsten mine, Bishop, Inyo County, California, USA
Source: University of Arizona Mineral Museum
Description: Pale gray long prism coated with smaller crystals
Measured chemistry: (Ca_0.99_K_0.01_)_Σ=1_(Si_4.01_Al_1.99_)O_12_·4H_2_O; H_2_O estimated by difference
Pin_id: L00070
Orientation: Laser parallel to [-1 0 -1]. Fiducial mark perpendicular to laser is parallel to b* (0 1 0)
Raman shift (cm-1)	intensity
109.207	0
113.367	698.51
117.525	877.646
121.682	747.902
125.836	237.099
129.988	194.588
134.139	204.733
138.287	342.647
142.434	1010.26
146.579	1453.54
150.722	1263.5
154.863	927.172
159.002	787.565
163.139	501.996
167.274	641.188
171.407	1095.95
175.539	1204.56
179.668	969.736
183.796	640.258
187.921	614.084
192.045	654.37
196.167	495.088
200.287	737.791
204.405	1062.28
208.521	888.299
212.635	905.346
216.748	1112.95
220.858	1120.76
224.967	538.492
229.074	385.879
233.179	152.514
237.282	277.951
241.383	133.395
245.482	246.484
249.579	268.65
253.675	289.648
257.768	20.036
261.86	262.442
265.95	416.408
270.038	291.191
274.124	123.252
278.208	834.924
282.29	926.983
286.371	1117.82
290.449	1417.46
294.526	1895.11
298.601	2260.36
302.674	2462.77
306.745	3503.38
310.814	5292.14
314.882	7018.71
318.947	7042.54
323.011	5604.25
327.073	5134.24
331.133	5872.75
335.191	4829.52
339.247	3403.98
343.301	2236.26
347.354	1726.74
351.405	1792.24
355.454	1769.89
359.501	1373.26
363.546	929.078
367.589	817.765
371.631	1096.78
375.67	1094.81
379.708	1162.13
383.744	1780.45
387.778	2416.13
391.81	1896.65
395.841	1260.56
399.869	819.041
403.896	883.424
407.921	1004.8
411.944	1105.43
415.966	997.539
419.985	957.674
424.003	777.959
428.019	420.363
432.033	337.445
436.045	161.172
440.055	272.59
444.064	275.105
448.07	188.799
452.075	202.174
456.078	195.012
460.08	447.322
464.079	489.217
468.077	671.646
472.073	1286.66
476.067	1538.23
480.059	1299.31
484.049	1470.07
488.038	2271.39
492.025	4834.6
496.009	9036.04
499.993	8280.9
503.974	5155.06
507.954	4654.01
511.931	5502.27
515.907	7130.45
519.882	8248.63
523.854	7016.71
527.825	4564.37
531.793	2612.05
535.76	1480.21
539.726	1199.12
543.689	1088.63
547.651	756.834
551.61	375.562
555.568	434.01
559.525	432.266
563.479	450.045
567.432	158.861
571.383	221.17
575.332	130.416
579.279	649.512
583.225	780.043
587.169	1256.14
591.111	1916.88
595.051	2880.06
598.99	2850.69
602.926	1891.62
606.861	1219.38
610.794	480.865
614.726	466.203
618.655	423.053
622.583	196.109
626.509	50.99
630.434	171.562
634.356	55.172
638.277	154.221
642.196	57.936
646.114	58.623
650.029	1.107
653.943	111.883
657.855	314.369
661.765	56.094
665.674	327.725
669.58	729.326
673.485	1172.6
677.389	1337.23
681.29	842.646
685.19	350.145
689.088	652.471
692.984	323.961
696.879	341.535
700.772	133.967
704.663	116.023
708.552	359.301
712.44	733.48
716.326	644.828
720.21	384.131
724.092	237.279
727.973	208.26
731.852	419.164
735.729	29.361
739.604	100.412
743.478	41.363
747.35	221.137
751.22	190.629
755.089	119.969
758.955	99.547
762.82	78.52
766.684	42.475
770.545	376.074
774.405	324.445
778.264	123.371
782.12	217.545
785.975	154.18
789.828	69.523
793.679	27.391
797.529	43.201
801.377	63.779
805.223	130.84
809.067	93.756
812.91	192.971
816.751	456.008
820.591	421.857
824.428	187.99
828.264	385.352
832.098	220.816
835.931	230.803
839.762	85.916
843.591	160.811
847.418	14.432
851.244	109.311
855.068	512.111
858.89	376.123
862.711	199.75
866.53	93.367
870.347	112.875
874.163	250.57
877.977	164.018
881.789	334.076
885.6	477.219
889.408	80.027
893.215	24.121
897.021	327.996
900.825	630.748
904.627	480.512
908.427	482.648
912.226	124.4
916.023	59.305
919.818	307.463
923.612	689.385
927.404	666.721
931.194	358.326
934.983	220.449
938.77	422.48
942.555	537.838
946.339	668.316
950.121	938.963
953.901	895.018
957.68	426.438
961.457	447.619
965.232	279.391
969.006	581.469
972.778	683.553
976.548	225.637
980.317	106.018
984.084	94.973
987.849	234.922
991.613	560.725
995.375	702.336
999.135	642.248
1002.89	580.385
1006.65	864.525
1010.41	796.129
1014.16	1076.54
1017.91	1386.27
1021.66	1893.56
1025.41	1956.82
1029.16	2107.58
1032.9	1289.68
1036.65	932.1
1040.39	894.746
1044.13	727.035
1047.87	1189.35
1051.61	981.617
1055.34	595.701
1059.08	456.488
1062.81	426.051
1066.54	1084.66
1070.27	1257.39
1074	1079.47
1077.72	1522.41
1081.45	1305.65
1085.17	1289.34
1088.89	1023.27
1092.61	1267.33
1096.33	1298.91
1100.04	1327.11
1103.76	1201.29
1107.47	1415.73
1111.18	1550.51
1114.89	975.512
1118.6	1220.84
1122.31	1096.42
1126.01	1221.98
1129.71	657.746
1133.42	176.199
1137.12	190.121
1140.82	297.023
1144.51	254.453
1148.21	472.363
1151.9	460.727
1155.59	609.645
1159.28	499.609
1162.97	150.363
1166.66	1.895
1170.34	274.316
1174.03	473.414
1177.71	513.5
1181.39	513.668
1185.07	459.723
1188.75	115.715
1192.42	370.141
1196.1	74.383
1199.77	395.32
1203.44	662.656
1207.11	707.258
1210.78	247.809
