Measurement: Raman, 514 nm, depolarized, Raman Data Processed
Mineral: Laumontite
Rruff sample: R040020
Ideal chemistry: Ca(Si_4_Al_2_)O_12_4H_2_O
Locality: Pine Creek Tungsten mine, Bishop, Inyo County, California, USA
Source: University of Arizona Mineral Museum
Description: Pale gray long prism coated with smaller crystals
Measured chemistry: (Ca_0.99_K_0.01_)_Σ=1_(Si_4.01_Al_1.99_)O_12_·4H_2_O; H_2_O estimated by difference
Pin_id: L00504
Orientation: Laser parallel to -c [0 0 -1]. Fiducial mark perpendicular to laser is parallel to b* (0 1 0)
Raman shift (cm-1)	intensity
107.82	0
111.981	200.238
116.14	603.245
120.297	707.688
124.451	494.052
128.604	162.745
132.756	434.086
136.905	625.235
141.052	898.212
145.197	1141.72
149.341	1222.16
153.482	902.462
157.622	616.703
161.76	668.898
165.896	851.828
170.03	787.434
174.162	943.068
178.292	899.577
182.42	597.966
186.546	407.504
190.671	869.58
194.793	807.23
198.914	589.256
203.032	722.892
207.149	807.812
211.264	853.763
215.377	1120.48
219.488	1337.72
223.598	1265.31
227.705	793.124
231.811	620.949
235.914	458.354
240.016	255.338
244.116	281.846
248.214	337.948
252.31	403.661
256.404	329.584
260.496	44.658
264.587	437.229
268.675	632.348
272.762	147.003
276.847	209.979
280.93	729.176
285.011	1140.72
289.09	1332.5
293.167	1492.18
297.243	1911.75
301.316	2160.41
305.388	2638.43
309.458	3615.79
313.526	4962.27
317.592	5127.44
321.656	4101.52
325.719	3994.66
329.779	5117.01
333.838	4958.6
337.895	3149.47
341.95	1859.52
346.003	1298.88
350.055	1186.53
354.104	948.428
358.152	868.289
362.198	828.041
366.242	737.684
370.284	657.197
374.324	786.562
378.362	1105.79
382.399	1604.98
386.434	2213.99
390.467	1892.84
394.498	1201.52
398.527	749.758
402.554	516.492
406.58	604.113
410.604	590.523
414.625	448.004
418.646	445.266
422.664	449.74
426.68	532.191
430.695	242.492
434.708	171.578
438.719	177.85
442.728	194.627
446.735	42.168
450.741	247.221
454.744	243.078
458.746	448.633
462.746	614.596
466.744	553.176
470.741	1318.09
474.735	1142.68
478.728	937.467
482.719	1281.86
486.708	1274.97
490.696	2322.06
494.681	4536.05
498.665	5541.57
502.647	3795.23
506.627	3109.05
510.606	4021.42
514.582	5674.32
518.557	6587.2
522.53	5700.05
526.501	3852.82
530.471	2525.63
534.438	1638.42
538.404	891.488
542.368	584.32
546.33	527.83
550.291	411.264
554.249	184.277
558.206	97.123
562.161	79.377
566.115	62.117
570.066	34.744
574.016	56.254
577.964	71.189
581.91	314.119
585.854	407.098
589.797	531.338
593.738	736.012
597.677	1182.15
601.614	1017.99
605.55	611.691
609.484	417.529
613.416	104.621
617.346	10.654
621.274	53.08
625.201	133.764
629.126	149.855
633.049	88.902
636.97	174.699
640.89	85.533
644.808	114.277
648.724	34.074
652.638	37.053
656.551	115.436
660.462	420.768
664.371	405.676
668.278	200.529
672.184	475.781
676.088	1185.21
679.99	960.76
683.89	737.197
687.789	137.879
691.686	20.369
695.581	204.113
699.474	96.137
703.366	312.359
707.256	116.271
711.144	214.557
715.03	278.299
718.915	621.33
722.798	379.434
726.679	168.93
730.559	65.795
734.437	445.041
738.313	187.777
742.187	110.742
746.059	223.408
749.93	96.814
753.799	249.223
757.667	321.496
761.532	213.652
765.396	109.84
769.258	337.609
773.119	238.955
776.978	27.844
780.835	298.08
784.69	369.195
788.544	210.143
792.396	240.547
796.246	250.916
800.094	122.285
803.941	228.836
807.786	36.723
811.629	106.381
815.471	195.586
819.311	429.426
823.149	274.205
826.986	56.135
830.82	22.746
834.654	8.504
838.485	39.92
842.315	428.41
846.143	334.666
849.969	115.777
853.794	128.389
857.617	188.441
861.438	484.84
865.257	191.824
869.075	388.648
872.891	195.404
876.706	83.781
880.518	188.51
884.33	98.895
888.139	406.973
891.947	302.537
895.753	107.902
899.557	16.291
903.36	129.441
907.161	425.104
910.96	571.01
914.757	546.842
918.553	241.855
922.348	217.121
926.14	432.762
929.931	957.709
933.72	1083.25
937.508	328.779
941.294	611.258
945.078	596.352
948.861	497.371
952.641	879.631
956.421	820.996
960.198	692.594
963.974	681.289
967.748	217.012
971.521	462.953
975.292	738.93
979.061	1049.83
982.828	595.402
986.594	219.613
990.359	292.367
994.121	406.199
997.882	235.469
1001.64	614.121
1005.4	742.402
1009.15	510.773
1012.91	443.652
1016.66	526.828
1020.41	474.703
1024.16	712.941
1027.91	449.352
1031.66	491.793
1035.4	338.641
1039.14	548.883
1042.88	586.195
1046.62	210.953
1050.36	515.23
1054.1	761.629
1057.83	747.98
1061.57	1054.48
1065.3	691.051
1069.03	907.715
1072.76	1184.57
1076.48	1771.76
1080.21	1949.38
1083.93	1927.31
1087.65	1314.66
1091.37	1223.05
1095.09	841.789
1098.81	1141
1102.52	1281.07
1106.23	1541.69
1109.95	1342.71
1113.66	1004.06
1117.37	415.5
1121.07	447.184
1124.78	299.5
1128.48	382.48
1132.18	696.188
1135.88	740.723
1139.58	556.164
1143.28	362.629
1146.97	530.262
1150.67	549.121
1154.36	629.305
1158.05	491.059
1161.74	644.762
1165.43	360.766
1169.12	258.211
1172.8	140.129
1176.48	145.773
1180.16	385.273
1183.84	802.695
1187.52	835.535
1191.2	499.953
1194.87	0
