Measurement: Raman, 514 nm, depolarized, Raman Data Processed
Mineral: Laumontite
Rruff sample: R040020
Ideal chemistry: Ca(Si_4_Al_2_)O_12_4H_2_O
Locality: Pine Creek Tungsten mine, Bishop, Inyo County, California, USA
Source: University of Arizona Mineral Museum
Description: Pale gray long prism coated with smaller crystals
Measured chemistry: (Ca_0.99_K_0.01_)_Σ=1_(Si_4.01_Al_1.99_)O_12_·4H_2_O; H_2_O estimated by difference
Pin_id: L00252
Orientation: Laser parallel to a [1 0 0]. Fiducial mark perpendicular to laser is parallel to b* (0 1 0)
Raman shift (cm-1)	intensity
131.372	0
135.522	269.188
139.67	1073.41
143.816	1834.79
147.96	2126.62
152.102	1970.74
156.242	1250.9
160.381	992.623
164.517	1318.86
168.652	1706.1
172.784	2260.07
176.915	2209.81
181.044	1507.74
185.171	1012.74
189.296	529.632
193.419	326.698
197.54	532.477
201.66	944.82
205.777	1045.97
209.893	1214.25
214.006	1389.84
218.118	1812.03
222.228	1457.57
226.336	775.683
230.442	235.595
234.546	16.5527
238.649	191.992
242.749	90.5039
246.848	79.8731
250.945	20.5967
255.039	22.1621
259.132	104.943
263.223	168.745
267.313	184.1
271.4	67.1348
275.485	524.969
279.569	642.786
283.651	945.619
287.73	915.674
291.808	1253.88
295.884	1742.48
299.959	2423.04
304.031	3573.92
308.102	5603.41
312.17	8290.77
316.237	9745.44
320.302	8967.41
324.365	7496.62
328.426	8932.21
332.486	10424.1
336.543	7413.22
340.599	4060.16
344.652	2554.98
348.704	1736.4
352.755	1642.12
356.803	1198.7
360.849	970.093
364.894	1121.15
368.936	933.266
372.977	1087.3
377.016	1381.52
381.054	2245.59
385.089	3549.46
389.122	3410.51
393.154	1743.65
397.184	992.052
401.212	670.142
405.238	820.604
409.262	919.507
413.285	1215.26
417.306	1087.59
421.325	655.312
425.342	254.278
429.357	79.9023
433.37	34.2978
437.382	2.22852
441.392	25.1465
445.399	24.5215
449.406	135.018
453.41	236.03
457.412	286.962
461.413	427.402
465.412	837.257
469.409	1506.54
473.404	1755.26
477.397	1733.6
481.389	1581.62
485.379	2116.54
489.367	3586.02
493.353	7632.98
497.337	11889.9
501.32	8546.36
505.301	5872.49
509.28	6428.39
513.257	9034.09
517.232	11789.7
521.206	11675.4
525.178	8151.17
529.148	4866.93
533.116	2912.53
537.082	1978.4
541.047	1234.39
545.01	811.049
548.971	557.157
552.93	363.356
556.887	289.809
560.843	156.296
564.797	143.461
568.749	161.565
572.699	230.552
576.648	422.017
580.595	616.653
584.54	1054.5
588.483	2047.24
592.424	3063.12
596.364	3725.18
600.302	2913.81
604.238	2178.31
608.172	1341.69
612.105	802.425
616.036	424.58
619.965	247.651
623.892	210.154
627.818	273.158
631.741	236.29
635.663	123.731
639.584	28.874
643.502	91.8887
647.419	122.433
651.334	29.9658
655.247	163.935
659.158	126.011
663.068	428.19
666.976	729.99
670.882	1062.38
674.787	1576.53
678.689	1659.88
682.59	1312.08
686.49	755.76
690.387	342.295
694.283	172.233
698.177	13.4512
702.069	157.553
705.959	289.897
709.848	461.847
713.735	564.018
717.62	635.601
721.504	507.305
725.386	439.259
729.266	150.997
733.144	86.4883
737.021	55.4951
740.896	55.5303
744.769	116.329
748.64	206.381
752.51	26.2891
756.378	43.9463
760.244	45.7744
764.108	85.4951
767.971	124.645
771.832	13.6416
775.692	142.461
779.549	71.1269
783.405	75.3438
787.259	27.9502
791.112	24.0889
794.963	257.343
798.812	86.8144
802.659	87.71
806.505	23.9336
810.348	140.121
814.191	86.1406
818.031	301.995
821.87	187.73
825.707	493.266
829.542	338.636
833.376	173.756
837.208	88.6914
841.038	33.4395
844.867	32.0527
848.694	252.08
852.519	145.363
856.342	28.6816
860.164	72.0117
863.984	65.25
867.803	158.356
871.619	201.332
875.434	44.1777
879.248	146.943
883.059	9.26562
886.869	164.201
890.678	68.9141
894.484	28.9688
898.289	215.643
902.092	287.463
905.894	174.018
909.694	181.732
913.492	369.215
917.288	406.379
921.083	357.096
924.876	416.897
928.668	307.83
932.457	688.207
936.246	558.285
940.032	617.894
943.817	600.859
947.6	681.541
951.381	684.277
955.161	762.705
958.939	477.19
962.716	506.01
966.49	355.859
970.263	46.0176
974.035	176.176
977.805	85.6797
981.573	273.377
985.339	531.832
989.104	441.123
992.867	388.9
996.629	390.875
1000.39	466.326
1004.15	756.701
1007.9	1014.34
1011.66	1222.1
1015.41	1426.36
1019.16	1919.07
1022.91	2269.07
1026.66	2903.6
1030.41	2623.9
1034.15	1982.34
1037.9	1272.27
1041.64	766.203
1045.38	715.791
1049.12	496.685
1052.85	608.83
1056.59	573.381
1060.32	664.25
1064.05	845.559
1067.78	745.932
1071.51	1207.54
1075.24	1377.97
1078.96	1917.89
1082.69	1927.63
1086.41	1757.38
1090.13	1776.75
1093.85	1555.87
1097.57	1304.86
1101.28	1603.82
1105	2125.27
1108.71	2324.02
1112.42	2062.72
1116.13	1370.81
1119.84	908.637
1123.54	547.861
1127.25	369.435
1130.95	371.203
1134.65	160.443
1138.35	305.83
1142.05	478.541
1145.74	231.184
1149.44	133.842
1153.13	3.73047
1156.82	121.219
1160.51	58.6016
1164.2	293.99
1167.89	246.6
1171.57	199.303
1175.25	52.1445
1178.94	65.2012
1182.62	128.529
1186.3	37.8223
1189.97	236.123
1193.65	170.541
1197.32	145.525
1200.99	470.879
1204.66	226.537
1208.33	62.4883
1212	246.785
1215.66	28.5117
1219.33	172.981
1222.99	265.801
1226.65	384.5
1230.31	346.969
1233.97	572.439
1237.63	354.662
1241.28	296.588
1244.93	153.857
1248.59	40.7227
1252.23	353.254
1255.88	512.5
1259.53	366.129
1263.17	413.734
1266.82	217.197
