Measurement: Raman, 514 nm, depolarized, Raman Data Processed
Mineral: Laumontite
Rruff sample: R040020
Ideal chemistry: Ca(Si_4_Al_2_)O_12_4H_2_O
Locality: Pine Creek Tungsten mine, Bishop, Inyo County, California, USA
Source: University of Arizona Mineral Museum
Description: Pale gray long prism coated with smaller crystals
Measured chemistry: (Ca_0.99_K_0.01_)_Σ=1_(Si_4.01_Al_1.99_)O_12_·4H_2_O; H_2_O estimated by difference
Pin_id: l00206
Orientation: Laser parallel to b* (0 1 0). Fiducial mark perpendicular to laser is parallel to -c [0 0 -1]
Raman shift (cm-1)	intensity
124.675	0
127.452	221.146
130.228	447.867
133.003	1073.13
135.777	1399.63
138.55	1894.17
141.323	2303.17
144.094	2298.81
146.865	1972.23
149.635	1487.08
152.403	1150.95
155.171	853.584
157.939	787.473
160.705	696.422
163.47	859.896
166.235	899.031
168.998	928.502
171.761	767.158
174.523	664.543
177.284	533.385
180.044	441.047
182.803	414.939
185.562	413.781
188.319	282.793
191.076	167.955
193.831	332.541
196.586	313.025
199.34	410.162
202.093	432.436
204.846	393.43
207.597	174.637
210.347	256.074
213.097	47.861
215.846	240.004
218.594	92.471
221.341	74.777
224.087	61.801
226.832	118.654
229.577	45.391
232.32	27.955
235.063	48.68
237.805	34.643
240.545	112.145
243.286	219.053
246.025	196.078
248.763	36.783
251.501	39.529
254.237	2.131
256.973	94.455
259.708	96.33
262.442	158.244
265.175	70.062
267.907	310.311
270.639	462.463
273.369	518.279
276.099	442.045
278.828	597.621
281.556	792.145
284.283	983.027
287.009	1219.41
289.734	1451.18
292.459	1456.51
295.183	1793.65
297.905	1950.73
300.627	2168.13
303.348	2785.71
306.069	3493.28
308.788	4350.72
311.507	4557.99
314.224	4365.06
316.941	3981.88
319.657	3758.33
322.372	3944.39
325.086	4470.09
327.8	4505.48
330.512	3700.6
333.224	2635.45
335.935	1770.03
338.645	1284.09
341.354	977.514
344.062	1110.28
346.769	1214.85
349.476	1013.56
352.182	889.859
354.887	765.039
357.591	575.559
360.294	606.02
362.996	466.461
365.698	386.873
368.398	417.244
371.098	547.576
373.797	587.869
376.495	637.098
379.192	966.615
381.889	1025.76
384.584	968.57
387.279	811.674
389.973	461.883
392.666	454.84
395.358	188.025
398.049	309.689
400.74	146.051
403.429	387.238
406.118	501.387
408.806	306.297
411.493	504.301
414.179	342.836
416.865	152.461
419.549	47.785
422.233	83.068
424.916	55.277
427.598	176.211
430.279	73.18
432.959	57.373
435.639	221.92
438.318	21.041
440.996	59.951
443.673	148.738
446.349	52.58
449.024	155.982
451.699	164.525
454.372	122.992
457.045	331.359
459.717	369.973
462.388	624.562
465.059	893.191
467.728	1271.57
470.397	1210.54
473.065	1039.12
475.732	919.25
478.398	1027.73
481.063	1345.81
483.728	1524.12
486.391	2451.9
489.054	4131.25
491.716	5188.32
494.377	4925.88
497.038	4145.81
499.697	3343.41
502.356	3240.05
505.014	3906.6
507.671	4813.06
510.327	5909.44
512.982	6605.73
515.637	6921.94
518.291	5788.08
520.944	5254.15
523.596	3380.13
526.247	2466.04
528.897	1742
531.547	1308.36
534.196	885.324
536.844	822.279
539.491	419.289
542.137	447.078
544.783	483.637
547.427	539.043
550.071	314.861
552.714	331.625
555.356	246.596
557.998	109.621
560.638	187.916
563.278	203.668
565.917	200.553
568.555	467.027
571.192	327.584
573.829	374.721
576.464	274.525
579.099	658.107
581.733	957.033
584.366	1385.31
586.999	1490.1
589.63	2008.65
592.261	2220
594.891	2129.73
597.52	1543.28
600.148	1319.14
602.776	864.164
605.402	692.783
608.028	523.916
610.653	418.701
613.277	343.52
615.901	187.451
618.523	491.982
621.145	416.514
623.766	171.393
626.386	28.318
629.006	141.691
631.624	155.914
634.242	311.531
636.859	142.525
639.475	395.271
642.09	378.914
644.705	23.861
647.318	397.027
649.931	149.236
652.543	18.688
655.155	203.219
657.765	294.992
660.375	330.055
662.984	398.18
665.592	489.621
668.199	640.941
670.805	682.312
673.411	693.547
676.016	754.715
678.62	626.008
681.223	467.141
683.825	269.059
686.427	210.594
689.028	209.102
691.628	182.508
694.227	133.168
696.825	304.273
699.423	384.621
702.02	464.715
704.616	204.289
707.211	23.84
709.805	443.004
712.399	302.273
714.992	460.336
717.584	508.824
720.175	247.578
722.765	466.477
725.355	37.707
727.944	146.32
730.532	59.152
733.119	189.59
735.705	255.547
738.291	291.43
740.876	11.203
743.46	24.586
746.043	172.434
748.626	239.531
751.207	346.898
753.788	73.27
756.368	57.855
758.947	174.918
761.526	440.555
764.104	166.199
766.68	52.41
769.257	477.484
771.832	185.738
774.406	120.555
776.98	38.738
779.553	2.188
782.125	285.332
784.697	528.891
787.267	502.062
789.837	86.117
792.406	295.871
794.974	59.254
797.542	291.543
800.108	542.844
802.674	294.84
805.239	377.031
807.804	486.621
810.367	508.785
812.93	619.617
815.492	774.16
818.053	1098.81
820.613	710.879
823.173	852.016
825.732	586.066
828.29	388.023
830.847	229.953
833.403	246.004
835.959	177.426
838.514	218.609
841.068	99.441
843.621	429.91
846.174	399.477
848.726	219.07
851.277	249.02
853.827	267.305
856.376	296.656
858.925	366.609
861.473	430.172
864.02	485.316
866.566	225.16
869.112	464.383
871.656	113.16
874.2	92.125
876.744	79.645
879.286	683.625
881.828	292.082
884.369	438.922
886.909	279.469
889.448	288.707
891.987	466.195
894.524	281.59
897.061	75.348
899.598	3.188
902.133	30.605
904.668	374.344
907.202	231.121
909.735	387.012
912.267	294.098
914.799	521.309
917.33	9.441
919.86	326.867
922.389	66.094
924.918	130.43
927.445	306.824
929.972	262.848
932.499	317.367
935.024	243.668
937.549	360.836
940.073	876.918
942.596	413.34
945.118	500.434
947.64	1046.48
950.161	873.52
952.681	868.105
955.2	434.344
957.719	191.434
960.236	488.562
962.753	85.75
965.27	27.004
967.785	240.305
970.3	427.695
972.814	317.508
975.327	54.934
977.84	32.695
980.351	10.586
982.862	101.652
985.372	206.68
987.882	304.926
990.39	255.012
992.898	408.918
995.405	115.766
997.912	1.52
1000.42	428.297
1002.92	665.27
1005.43	551.973
1007.93	548.074
1010.43	324.906
1012.93	848.488
1015.43	1375.1
1017.93	1221.65
1020.43	818.395
1022.93	1393.48
1025.43	1800.61
1027.93	1508.17
1030.42	804.293
1032.92	556.992
1035.42	434.66
1037.91	872.488
1040.4	690.41
1042.9	248.551
1045.39	266.895
1047.88	1025.38
1050.37	743.969
1052.86	292.602
1055.35	525.098
1057.84	469.246
1060.33	812.324
1062.81	600.449
1065.3	677.418
1067.78	1294.31
1070.27	1570.58
1072.75	1167.51
1075.23	1564.46
1077.72	1592.2
1080.2	1790.21
1082.68	1248.37
1085.16	1086.64
1087.64	1415.15
1090.12	1263.85
1092.59	1612.59
1095.07	801.348
1097.55	1230.1
1100.02	1340.37
1102.5	1042.66
1104.97	1195.98
1107.44	1210.26
1109.92	1255.62
1112.39	952.18
1114.86	290.223
1117.33	290.129
1119.8	362.523
1122.27	627.82
1124.74	106.43
1127.2	289.32
1129.67	184.062
1132.14	131.504
1134.6	169.293
1137.07	268.156
1139.53	0
