Measurement: Raman, 514 nm, depolarized, Raman Data Processed
Mineral: Laverovite
Rruff sample: R060216
Ideal chemistry: K_2_NaMn^2+^_7_Zr^4+^_2_(Si_4_O_12_)_2_O_2_(OH)_4_F
Locality: Desourdy Quarry, Mont Saint-Hilaire, Rouville County, Quebec, Canada
Source: Royal Ontario Museum
Description: Brown fragment showing lamellar habit. Type sample
Measured chemistry: (K_1.74_Na_0.18_[box]_0.08_)_Σ=2_(Na_0.92_Ca_0.08_)_Σ=1_(Mn_4.09_Fe^2+^_2.67_Mg_0.24_)_Σ=7_(Zr_1.42_Ti_0.58_)_Σ=2_(Si_7.86_Al_0.14_)_Σ=8_O_26_((OH)_3.14_O_0.86_)_Σ=4_
Pin_id: M00393
Orientation: Laser parallel to a* (1 0 0). Fiducial mark perpendicular to laser is parallel to b [0 1 0]
Raman shift (cm-1)	intensity
121.827	0
126.749	349.74
131.668	364.191
136.585	920.281
141.5	312.67
146.412	17.1367
151.321	475.565
156.229	210.397
161.134	1737.92
166.036	2669.64
170.936	3147.24
175.834	2640.08
180.729	1570.96
185.622	1400.01
190.512	1132.73
195.4	1320.48
200.286	1236.46
205.169	1040.09
210.049	1159.11
214.928	1157.72
219.803	955.949
224.677	1069.65
229.548	998.662
234.416	1130.03
239.282	915.758
244.146	773.016
249.007	318.631
253.866	280.797
258.722	393.272
263.576	341.107
268.427	336.613
273.276	335.734
278.123	225.01
282.967	0.542969
287.809	262.805
292.648	0.216797
297.485	360.303
302.319	281.049
307.151	566.076
311.98	570.016
316.807	244.019
321.631	481.125
326.454	436.955
331.273	611.34
336.09	759.611
340.905	1027.33
345.717	891.701
350.527	930.691
355.334	903.613
360.139	907.055
364.941	847.266
369.741	659.998
374.538	905.963
379.333	950.887
384.126	735.592
388.916	624.561
393.703	576.453
398.488	393.742
403.271	305.426
408.051	212.516
412.828	177.853
417.603	98.5019
422.376	227.363
427.146	28.3281
431.914	214.869
436.679	38.9922
441.442	185.586
446.202	107.236
450.96	0.310547
455.715	0.128906
460.467	107.309
465.218	161.656
469.965	401.496
474.711	222.797
479.454	263.922
484.194	233.656
488.932	216.027
493.667	372.418
498.4	225.398
503.13	166.977
507.858	156.938
512.583	193.269
517.306	189.086
522.026	63.2617
526.744	340.691
531.459	194.82
536.172	325.68
540.882	382.266
545.59	556.641
550.295	1013.82
554.998	1145.03
559.698	1273.14
564.396	1206.36
569.091	989.648
573.784	811.84
578.474	643.988
583.162	737.414
587.847	761.125
592.529	920.777
597.209	979.539
601.887	961.769
606.562	1244.63
611.235	1277.59
615.905	1671.83
620.572	1764.07
625.237	1822.73
629.9	2489.57
634.56	2622.61
639.217	2998.47
643.872	3850.53
648.524	5309.47
653.174	6181.54
657.821	5240.04
662.466	4207.16
667.108	3392.9
671.748	3483.93
676.385	3539.28
681.02	4059.93
685.652	4632.33
690.281	4764.63
694.908	5117.75
699.533	5369.87
704.155	5137.25
708.774	5273.71
713.391	5991
718.005	5558.1
722.617	4969.94
727.226	4725.62
731.833	4425.85
736.437	3996
741.039	3716.41
745.638	3448.45
750.234	3413.07
754.828	3419.77
759.419	3414.52
764.008	3194.33
768.595	2772.18
773.178	2549.09
777.759	2259.05
782.338	2013.07
786.914	1992.86
791.488	1692.7
796.059	1156.79
800.627	880.981
805.193	803.898
809.756	549.844
814.317	554.793
818.875	336.738
823.431	220.574
827.984	167.781
832.534	190.906
837.082	249.887
841.627	84.8398
846.17	59.7266
850.71	152.336
855.248	154.672
859.783	163.121
864.316	293.199
868.846	368.969
873.373	131.641
877.898	294.203
882.42	99.5977
886.94	424.894
891.457	510.062
895.971	671.098
900.483	616.16
904.993	576.434
909.5	598.941
914.004	776.746
918.505	808.844
923.004	773.957
927.501	887.941
931.995	1251.84
936.486	1214.11
940.975	1106.48
945.461	1116.1
949.945	1402.62
954.426	1143.98
958.904	993.769
963.38	820.805
967.853	896.445
972.324	829.418
976.792	1182.95
981.258	1216.85
985.72	1121.16
990.181	1253.3
994.639	1506.76
999.094	2272.98
1003.55	2900.44
1008	3778.48
1012.44	5153.84
1016.89	6185.02
1021.33	7813.61
1025.77	9165.33
1030.21	9511.23
1034.64	8846.64
1039.07	7175.25
1043.5	5229.15
1047.93	3936.32
1052.35	3248.04
1056.78	2563.4
1061.19	2498.82
1065.61	2273.45
1070.02	2368.97
1074.43	2008.54
1078.84	1626.96
1083.25	1262.66
1087.65	1305.42
1092.05	1154.34
1096.45	816.461
1100.85	808.141
1105.24	732.715
1109.63	272.769
1114.02	282.801
1118.4	444.516
1122.78	442.918
1127.16	307.238
1131.54	332.035
1135.92	206.883
1140.29	344.699
1144.66	109.578
1149.02	414.457
1153.39	81.3008
1157.75	120.223
1162.11	255.207
1166.46	209.773
1170.82	81.7031
1175.17	170.289
1179.52	152.422
1183.86	181.297
1188.21	65.1914
1192.55	0.753906
1196.89	24.207
1201.22	153.066
1205.55	173.07
1209.88	308.219
1214.21	264.398
1218.54	155.684
1222.86	166.129
1227.18	322.656
1231.5	196.258
1235.81	294.926
1240.12	476.656
1244.43	591.441
1248.74	378.269
1253.04	807.137
1257.34	325.027
1261.64	305.926
1265.94	404.969
1270.23	346.078
1274.52	132
1278.81	576.742
1283.1	509.305
1287.38	356.863
1291.66	424.617
1295.94	401.078
1300.21	544.543
1304.48	422.039
1308.75	486.043
1313.02	345.727
1317.29	493.723
1321.55	275.984
1325.81	532.523
1330.06	326.766
1334.32	350.606
1338.57	502.848
1342.82	222.281
1347.06	462.348
1351.31	405.059
1355.55	670.93
1359.79	118.981
1364.02	323.207
1368.26	494.676
1372.49	427.871
1376.71	593.731
1380.94	331.481
1385.16	413.023
1389.38	486.231
1393.6	265.789
1397.81	443.004
1402.02	418.914
1406.23	192.309
1410.44	294.594
1414.64	242.289
1418.85	177.918
1423.04	62.668
1427.24	171.746
1431.43	6.02734
1435.62	77.8867
1439.81	131.973
1444	52.2695
1448.18	159.125
1452.36	196.148
1456.54	4.21875
1460.71	17.1602
1464.89	379.129
1469.06	108.066
1473.22	385.387
1477.39	339.086
1481.55	559.262
1485.71	401.957
1489.86	294.258
1494.02	467.223
1498.17	344.894
1502.32	405.156
1506.46	347.527
1510.61	189.297
1514.75	345.957
1518.88	369.57
1523.02	405.637
1527.15	151.91
1531.28	403.461
1535.41	210.953
1539.53	267.766
1543.66	263.527
1547.78	83.5781
1551.89	88.0742
1556.01	310.266
1560.12	367.664
1564.23	275.434
1568.33	370.617
