Measurement: Raman, 514 nm, depolarized, Raman Data Processed
Mineral: Laverovite
Rruff sample: R060216
Ideal chemistry: K_2_NaMn^2+^_7_Zr^4+^_2_(Si_4_O_12_)_2_O_2_(OH)_4_F
Locality: Desourdy Quarry, Mont Saint-Hilaire, Rouville County, Quebec, Canada
Source: Royal Ontario Museum
Description: Brown fragment showing lamellar habit. Type sample
Measured chemistry: (K_1.74_Na_0.18_[box]_0.08_)_Σ=2_(Na_0.92_Ca_0.08_)_Σ=1_(Mn_4.09_Fe^2+^_2.67_Mg_0.24_)_Σ=7_(Zr_1.42_Ti_0.58_)_Σ=2_(Si_7.86_Al_0.14_)_Σ=8_O_26_((OH)_3.14_O_0.86_)_Σ=4_
Pin_id: L01682
Orientation: Laser parallel to (0 -1 -1). Fiducial mark perpendicular to laser is parallel to a [1 0 0]
Raman shift (cm-1)	intensity
159.908	0
164.811	1683.41
169.711	2647.73
174.61	2023.53
179.505	1552.98
184.399	1834.98
189.29	2548.83
194.178	3794.58
199.064	4983.51
203.948	10793.1
208.829	362.681
213.708	217.665
218.585	241.858
223.459	707.769
228.33	1129.81
233.199	1269.38
238.066	1410.99
242.93	1300.9
247.792	1058.48
252.651	1154.27
257.508	1446.53
262.363	1191.28
267.215	1124.14
272.064	636.346
276.912	329.219
281.756	97.4336
286.598	143.221
291.438	146.597
296.276	92.6143
301.111	152.767
305.943	362.19
310.773	414.648
315.601	421.914
320.426	571.578
325.248	729.144
330.068	1019.28
334.886	1087.37
339.701	1061.36
344.514	913.875
349.324	1023.14
354.132	1270.89
358.938	1329.11
363.741	1123.92
368.541	1333.87
373.339	1182.06
378.135	1277.26
382.928	1190.98
387.718	1092.61
392.506	941.667
397.292	797.424
402.075	814.314
406.856	661.398
411.634	689.721
416.41	453.315
421.183	579.971
425.954	449.075
430.722	370.535
435.488	25.9775
440.251	242.894
445.012	254.42
449.77	99.6865
454.526	109.609
459.28	39.1367
464.03	248.591
468.779	341.457
473.525	457.539
478.268	636.952
483.009	561.757
487.747	581.982
492.483	347.666
497.217	375.016
501.948	275.806
506.676	281.191
511.402	64.1689
516.125	238.811
520.846	144.195
525.565	105.887
530.281	127.275
534.994	230.062
539.705	204.82
544.413	385.887
549.119	843.481
553.822	1543.55
558.523	1668.57
563.222	1780.39
567.917	1493.91
572.611	1483.94
577.302	1180.91
581.99	1291.79
586.676	1112.54
591.359	1116.02
596.04	1109.99
600.718	1719.76
605.394	1457.33
610.067	1526.94
614.737	2031.93
619.406	2273.2
624.071	2814.9
628.734	3554.9
633.395	3523.26
638.053	4774.38
642.708	5883.06
647.361	8095.5
652.012	10549
656.66	10605.2
661.305	9248.3
665.948	6551.08
670.588	5583.46
675.226	5009.19
679.861	5152.5
684.494	5483.02
689.124	5540.01
693.752	5853.28
698.377	5806.61
702.999	5904.7
707.619	5733.13
712.237	5766.02
716.852	5211
721.464	4953.51
726.074	3940.99
730.681	3634.73
735.286	3164.43
739.888	2682.85
744.488	2322.09
749.085	2153.49
753.68	1980.89
758.272	1908.27
762.861	1779.64
767.448	1604.98
772.033	1396.3
776.614	1010.57
781.194	859.818
785.77	680.025
790.345	577.795
794.916	382.322
799.485	269.281
804.052	114.427
808.616	1.02832
813.177	19.1455
817.736	98.5332
822.292	121.332
826.846	149.582
831.397	237.656
835.945	110.495
840.491	82.8594
845.035	83.8633
849.576	285.816
854.114	236.232
858.65	281.101
863.183	358.842
867.713	535.257
872.241	889.872
876.767	1084.14
881.29	1478.35
885.81	1505.68
890.328	1921.13
894.843	2327.02
899.356	2401.43
903.866	2924.46
908.373	3220.24
912.878	3287.3
917.38	3725.73
921.88	3989.59
926.377	4239.23
930.872	4365.98
935.364	4514.79
939.853	4857.49
944.34	4954.37
948.824	5396.92
953.306	5004.2
957.785	4259.83
962.261	3410.98
966.735	2750.01
971.207	2373.7
975.675	1981.32
980.141	1640.14
984.605	1697.64
989.066	1751.31
993.524	1773.77
997.98	1899.1
1002.43	1972.62
1006.88	2359.32
1011.33	2630.09
1015.78	2848.3
1020.22	3169.59
1024.66	3561.8
1029.1	3661.29
1033.53	3267.28
1037.97	2958.34
1042.4	2633.86
1046.82	2320.09
1051.25	1977.56
1055.67	1789.92
1060.09	1701.74
1064.51	1649.13
1068.92	1559.63
1073.33	1465.04
1077.74	1503.22
1082.15	1409.81
1086.55	1227.56
1090.95	1088.7
1095.35	1121.39
1099.75	1071.83
1104.14	901.958
1108.53	770.159
1112.92	593.129
1117.31	517.388
1121.69	465.738
1126.07	652.076
1130.45	241.306
1134.82	472.724
1139.19	96.8144
1143.57	112.177
1147.93	180.48
1152.3	3.31445
1156.66	120.307
1161.02	60.8438
1165.38	16.749
1169.73	72.9326
1174.08	178.882
1178.43	25.9404
1182.78	160.35
1187.12	83.0781
1191.46	61.0449
1195.8	195.342
1200.14	1.86719
1204.47	249.537
1208.8	273.541
1213.13	68.9326
1217.46	234.749
1221.78	226.034
1226.1	202.763
1230.42	122.534
1234.73	292.676
1239.04	245.52
1243.35	319.009
1247.66	293.804
1251.97	308.209
1256.27	379.014
1260.57	494.853
1264.86	566.243
1269.16	464.586
1273.45	303.37
1277.74	603.151
1282.03	368.457
1286.31	439.425
1290.59	300.203
1294.87	393.847
1299.14	400.938
1303.42	483.512
1307.69	325.762
1311.95	273.824
1316.22	361.108
1320.48	326.751
1324.74	128.812
1329	182.936
1333.26	157.447
1337.51	159.971
1341.76	232.448
1346	155.689
1350.25	96.0918
1354.49	92.5508
1358.73	85.2988
1362.96	101.276
1367.2	2.3584
1371.43	139.671
1375.66	27.9141
1379.88	205.756
1384.11	114.561
1388.33	77.5889
1392.54	41.1143
1396.76	155.803
1400.97	61.835
1405.18	142.844
1409.39	255.713
1413.59	72.0449
1417.8	137.036
1421.99	122.115
1426.19	297.685
1430.38	184.685
1434.58	266
1438.77	101.523
1442.95	246.847
1447.13	14.6416
1451.32	277.038
1455.49	36.1484
1459.67	38.1963
1463.84	94.4629
1468.01	355.932
1472.18	110.989
1476.35	53.6025
1480.51	168.477
1484.67	2.64551
1488.83	44.3262
1492.98	308.589
1497.13	200.143
1501.28	205.993
1505.43	86.5557
1509.57	224.815
1513.71	345.147
1517.85	264.381
1521.99	71.5088
1526.12	213.788
1530.25	235.102
1534.38	269.567
1538.5	271.256
1542.62	185.742
1546.74	279.082
1550.86	278.211
1554.98	166.353
1559.09	182.612
1563.2	103.958
1567.31	184.741
