Measurement: Raman, 514 nm, depolarized, Raman Data Processed
Mineral: Laverovite
Rruff sample: R060216
Ideal chemistry: K_2_NaMn^2+^_7_Zr^4+^_2_(Si_4_O_12_)_2_O_2_(OH)_4_F
Locality: Desourdy Quarry, Mont Saint-Hilaire, Rouville County, Quebec, Canada
Source: Royal Ontario Museum
Description: Brown fragment showing lamellar habit. Type sample
Measured chemistry: (K_1.74_Na_0.18_[box]_0.08_)_Σ=2_(Na_0.92_Ca_0.08_)_Σ=1_(Mn_4.09_Fe^2+^_2.67_Mg_0.24_)_Σ=7_(Zr_1.42_Ti_0.58_)_Σ=2_(Si_7.86_Al_0.14_)_Σ=8_O_26_((OH)_3.14_O_0.86_)_Σ=4_
Pin_id: L00587
Orientation: Laser parallel to -b* (0 -1 0). Fiducial mark perpendicular to laser is parallel to -c [0 0 -1]
Raman shift (cm-1)	intensity
159.735	0
164.658	2674.68
169.578	2829.61
174.496	2022.3
179.411	1003.38
184.323	1487.79
189.232	1881.29
194.138	2078.33
199.042	2742.16
203.943	2694.62
208.841	673.414
213.737	80.4297
218.63	321.363
223.52	874.574
228.407	1603.28
233.291	2191.32
238.173	2556.39
243.052	2256.23
247.928	1983.8
252.802	1920.42
257.672	1805.31
262.54	1321.52
267.406	996.676
272.268	736.045
277.128	801.891
281.985	648.535
286.839	832.156
291.691	881.5
296.54	922.045
301.386	814.758
306.229	712.109
311.07	545.039
315.908	431.113
320.743	713.311
325.575	858.965
330.405	1140.97
335.232	1558.82
340.056	2099.05
344.878	2376.77
349.697	2671.82
354.513	3168.08
359.326	3474.26
364.137	3498.99
368.945	3157.84
373.75	2952.9
378.552	2742.39
383.352	2216.43
388.149	1942.49
392.944	1989.74
397.735	1870.34
402.524	1485.51
407.311	1202.4
412.094	1078.14
416.875	1074.36
421.653	1095
426.429	760.5
431.202	117.424
435.972	37.6738
440.739	257.807
445.504	310.424
450.266	414.473
455.025	188.272
459.782	204.807
464.535	217.082
469.287	423.76
474.035	638.607
478.781	704.144
483.524	640.828
488.265	594.65
493.003	337.627
497.738	372.619
502.47	70.1621
507.2	105.242
511.927	116.463
516.651	134.748
521.373	117.109
526.092	120.748
530.808	181.522
535.522	439.787
540.233	729.637
544.942	1660.35
549.647	2919.72
554.35	3785.83
559.051	4221.14
563.748	3676.05
568.443	2885.61
573.136	2051
577.825	1822.04
582.513	2360.24
587.197	1962.04
591.879	2258.97
596.558	2046.55
601.234	2214.42
605.908	2249.32
610.579	2344.06
615.248	2725.64
619.913	3143.94
624.577	3407.91
629.237	4332.49
633.895	5907.03
638.55	6592.02
643.203	9196.72
647.853	13221.4
652.5	15457
657.145	12656.3
661.787	9068.28
666.426	7181.43
671.063	6965.07
675.697	7654.1
680.329	8506.07
684.957	9535.88
689.584	11007.3
694.207	11374.8
698.828	12214.7
703.447	12220.8
708.062	12665.6
712.675	12860.8
717.286	12459.3
721.894	11808.5
726.499	10561.6
731.102	9580.33
735.702	8350.37
740.299	7383.98
744.894	6562.57
749.486	6258.34
754.075	6193.23
758.662	5930.2
763.247	5523.25
767.828	4762.36
772.407	3767.53
776.984	3184.76
781.558	2768.07
786.129	2272.5
790.698	1771.07
795.264	1341.78
799.827	983.619
804.388	551.539
808.946	280.502
813.502	42.5039
818.055	99.9473
822.605	201.496
827.153	235.094
831.699	247.463
836.241	95.8438
840.781	235.111
845.319	164.475
849.854	4.39844
854.386	113.049
858.916	509.981
863.443	623.938
867.968	1072.34
872.49	1822.67
877.009	2089.93
881.526	2246.13
886.04	2867.27
890.552	3329.36
895.061	3775.49
899.567	4306.75
904.071	4694.98
908.573	5349.38
913.071	5471.68
917.568	5838.03
922.061	6117.46
926.552	5745.98
931.041	5526.6
935.527	5382.72
940.01	5450.29
944.491	5129.04
948.969	4900.52
953.445	4339.45
957.918	3643.38
962.389	2564.72
966.857	1800.84
971.322	1517.1
975.785	1420.35
980.246	1557.82
984.703	1631.03
989.159	1909.63
993.611	2336.41
998.062	2957.93
1002.51	3665.98
1006.95	4560.7
1011.4	6196.7
1015.84	7989.36
1020.27	9514.58
1024.71	11639.1
1029.14	12052.6
1033.57	11306.8
1038	9264.66
1042.42	6976.41
1046.85	5416.8
1051.27	4312.62
1055.68	3559.77
1060.1	3215.27
1064.51	3358.16
1068.92	3114.19
1073.33	2894.56
1077.73	2821.76
1082.13	2450.9
1086.53	2105.51
1090.93	1562.44
1095.32	1365.77
1099.71	1013.47
1104.1	878.039
1108.49	716.186
1112.88	578.496
1117.26	460.078
1121.64	452.498
1126.01	118.789
1130.39	330.084
1134.76	123.732
1139.13	277.338
1143.49	60.9766
1147.86	24.0117
1152.22	222.959
1156.58	132.648
1160.94	73.8965
1165.29	24.2754
1169.64	110.549
1173.99	44.4844
1178.34	59.709
1182.68	40.4375
1187.02	95.5664
1191.36	3.58008
1195.7	90.6191
1200.03	68.1074
1204.37	66.1211
1208.69	106.523
1213.02	179.164
1217.35	39.7539
1221.67	145.519
1225.99	9.00195
1230.3	22.3281
1234.62	131.49
1238.93	72.8086
1243.24	183.201
1247.55	49.3242
1251.85	247.775
1256.15	383.268
1260.45	255.092
1264.75	177.861
1269.04	256.783
1273.34	422.734
1277.62	274.516
1281.91	166.195
1286.2	226.086
1290.48	239.137
1294.76	274.094
1299.03	251.533
1303.31	331.883
1307.58	228.574
1311.85	225.201
1316.12	147.295
1320.38	253.272
1324.64	361.432
1328.9	133.342
1333.16	50.7422
1337.42	262.045
1341.67	139.543
1345.92	169.978
1350.17	116.621
1354.41	221.973
1358.66	280.781
1362.9	487.592
1367.13	236.115
1371.37	84.7383
1375.6	186.498
1379.83	282.363
1384.06	121.617
1388.29	253.502
1392.51	184.522
1396.73	331.301
1400.95	166.316
1405.16	193.789
1409.38	278.215
1413.59	205.422
1417.8	270.803
1422	171.195
1426.21	203.688
1430.41	180.268
1434.61	375.184
1438.8	327.791
1443	344.232
1447.19	146.772
1451.38	71.0371
1455.56	342.09
1459.75	275.393
1463.93	275.914
1468.11	287.627
1472.29	523.959
1476.46	457.822
1480.63	210.035
1484.8	240.199
1488.97	490.711
1493.13	505.443
1497.3	87.6309
1501.46	6.62305
1505.61	82.7656
1509.77	211.744
1513.92	184.836
1518.07	148.955
1522.22	191.887
1526.37	143.291
1530.51	280.719
1534.65	472.928
1538.79	249.19
1542.92	213.32
1547.06	422.416
1551.19	195.648
1555.32	303.184
1559.44	302.748
1563.57	10.9531
1567.69	287.01
