Measurement: Raman, 514 nm, depolarized, Raman Data Processed
Mineral: Laverovite
Rruff sample: R060216
Ideal chemistry: K_2_NaMn^2+^_7_Zr^4+^_2_(Si_4_O_12_)_2_O_2_(OH)_4_F
Locality: Desourdy Quarry, Mont Saint-Hilaire, Rouville County, Quebec, Canada
Source: Royal Ontario Museum
Description: Brown fragment showing lamellar habit. Type sample
Measured chemistry: (K_1.74_Na_0.18_[box]_0.08_)_Σ=2_(Na_0.92_Ca_0.08_)_Σ=1_(Mn_4.09_Fe^2+^_2.67_Mg_0.24_)_Σ=7_(Zr_1.42_Ti_0.58_)_Σ=2_(Si_7.86_Al_0.14_)_Σ=8_O_26_((OH)_3.14_O_0.86_)_Σ=4_
Pin_id: L00725
Orientation: Laser parallel to c* (0 0 1). Fiducial mark perpendicular to laser is parallel to a [1 0 0]
Raman shift (cm-1)	intensity
143.956	0
148.867	206.531
153.775	975.424
158.681	663.637
163.585	2667.14
168.486	5422.05
173.385	4899.81
178.282	2646.41
183.176	1754.93
188.067	1650.49
192.956	2087.97
197.843	3509.17
202.727	6294.88
207.609	2223.55
212.489	2461.51
217.366	4079.16
222.24	5328.73
227.112	6980.52
231.982	8821.43
236.849	10391.3
241.714	11178.1
246.577	10332.8
251.437	8835.57
256.294	9019.25
261.149	12068.6
266.002	7772.52
270.852	4876.14
275.7	2120.58
280.545	734.965
285.388	5.45703
290.229	280.652
295.067	136.309
299.902	5.72266
304.735	64.2852
309.566	86.0234
314.394	493.445
319.22	801.537
324.043	1473.37
328.864	1954.66
333.682	2120.83
338.498	2640.74
343.311	2722.5
348.122	2885.22
352.931	2743.01
357.737	2897.95
362.54	3444.36
367.341	3405.73
372.14	3050.54
376.936	3389.15
381.73	3614.85
386.521	3447.87
391.31	2830.25
396.096	2585.06
400.88	2447.37
405.661	2209.26
410.44	2197.83
415.216	2333.2
419.99	2312.45
424.761	2041.9
429.53	1438.48
434.297	532.644
439.061	30.2051
443.822	518.424
448.581	688.92
453.337	425.977
458.091	174.398
462.843	711.963
467.592	1368.25
472.338	1584.72
477.082	1445.44
481.824	1446.48
486.563	1208.88
491.3	1278.73
496.034	961.066
500.765	637.957
505.494	861.463
510.221	427.688
514.945	388.732
519.666	33.6777
524.385	46.5801
529.102	247.502
533.816	309.531
538.527	874.18
543.236	1714.1
547.943	3395.88
552.647	5850.19
557.348	7695
562.047	7326.93
566.744	6309.41
571.438	5124.27
576.129	4110.61
580.818	3892.66
585.504	3567.43
590.188	3658.49
594.87	3466.9
599.549	3368.29
604.225	3435.93
608.899	3852.91
613.57	4300.1
618.239	4904.21
622.905	5940.19
627.569	7028.13
632.23	8444.35
636.889	10848.9
641.545	14924.7
646.198	22008.8
650.849	31442.3
655.498	34259.1
660.144	26132.2
664.787	19351.2
669.428	16570.4
674.067	16792.7
678.703	18445.2
683.336	20869.5
687.967	22586.5
692.595	23676.5
697.221	24033
701.844	23949.2
706.465	23405.7
711.083	23041.8
715.698	21493.1
720.311	19298.6
724.922	16835.4
729.53	14339.6
734.135	12503.3
738.738	10612.6
743.338	8854.81
747.936	8287.42
752.531	7520.37
757.124	6935.64
761.714	6051.22
766.302	5408.06
770.887	4819.16
775.469	3673.5
780.049	2786.03
784.626	2365.75
789.201	1865.62
793.773	1601.62
798.343	1040.74
802.91	707.932
807.475	140.178
812.037	208.662
816.596	257.955
821.153	458.586
825.707	473.566
830.259	323.025
834.808	459.211
839.355	92.7188
843.899	165.836
848.441	70.3418
852.98	466.852
857.516	753.188
862.05	1155.36
866.581	1844.31
871.11	2778.09
875.636	3626.58
880.159	4583.77
884.68	5627.63
889.199	6669.69
893.714	7783.15
898.228	8878.4
902.738	10458.7
907.246	12027.2
911.752	13714.7
916.255	15433.1
920.755	17092.5
925.253	18089.9
929.748	18225.4
934.241	18362.9
938.731	18228.1
943.218	17624.1
947.703	17955.9
952.186	16514.8
956.665	13782
961.142	9987.62
965.617	7211.91
970.089	5182.78
974.558	3940.7
979.025	3014.74
983.489	2597.6
987.951	2227.97
992.41	2849.7
996.866	2647.73
1001.32	3112.41
1005.77	3897.05
1010.22	4501.5
1014.67	6072.2
1019.11	7338.16
1023.55	8384.38
1027.99	8971.78
1032.42	8802.99
1036.86	8013.16
1041.29	6228
1045.72	5100.69
1050.14	4310.39
1054.56	3638.81
1058.98	3547.35
1063.4	3269.42
1067.82	3117.34
1072.23	3255.41
1076.64	3251.74
1081.05	2929.34
1085.45	3052.88
1089.85	2704.02
1094.25	2411.95
1098.65	2097.78
1103.04	1736.14
1107.43	1265.12
1111.82	735.207
1116.21	432.758
1120.59	396.797
1124.97	493.037
1129.35	250.518
1133.73	168.504
1138.1	142.756
1142.47	12.3633
1146.84	113.764
1151.21	266.008
1155.57	165.06
1159.93	469.285
1164.29	189.346
1168.64	343.258
1172.99	107.402
1177.34	94.6269
1181.69	55.0762
1186.04	177.266
1190.38	30.3145
1194.72	19.2695
1199.05	15.5078
1203.39	4.98633
1207.72	215.984
1212.05	596.113
1216.37	52.9434
1220.7	261.324
1225.02	352.178
1229.34	429.522
1233.65	148.545
1237.97	365.94
1242.28	247.188
1246.59	329.889
1250.89	357.375
1255.19	377.334
1259.49	461.375
1263.79	412.389
1268.09	448.168
1272.38	505.797
1276.67	483.643
1280.95	504.283
1285.24	390.318
1289.52	496.959
1293.8	525.068
1298.08	308.551
1302.35	352.81
1306.62	530.781
1310.89	206.961
1315.15	522.184
1319.42	263.275
1323.68	70.4043
1327.94	155.297
1332.19	258.26
1336.44	52.5039
1340.69	224.65
1344.94	205.457
1349.19	396.945
1353.43	426.172
1357.67	343.978
1361.9	265.666
1366.14	164.627
1370.37	134.793
1374.6	291.947
1378.83	105.707
1383.05	133.123
1387.27	237.488
1391.49	104.133
1395.7	225.394
1399.92	207.875
1404.13	269.256
1408.34	195.195
1412.54	97.1269
1416.74	136.316
1420.94	119.344
1425.14	149.551
1429.34	114.678
1433.53	35.7695
1437.72	243.639
1441.9	177.082
1446.09	146.836
1450.27	92.6484
1454.45	375.822
1458.63	260.662
1462.8	169.34
1466.97	128.67
1471.14	353.557
1475.31	577.658
1479.47	82.8301
1483.63	340.494
1487.79	164.773
1491.94	74.9609
1496.09	219.935
1500.24	386.416
1504.39	185.982
1508.54	211.961
1512.68	265.541
1516.82	321.072
1520.95	269.268
1525.09	156.85
1529.22	229.297
1533.35	85.9492
1537.47	1.62695
1541.6	259.484
