Measurement: Raman, 514 nm, depolarized, Raman Data Processed
Mineral: Laverovite
Rruff sample: R060216
Ideal chemistry: K_2_NaMn^2+^_7_Zr^4+^_2_(Si_4_O_12_)_2_O_2_(OH)_4_F
Locality: Desourdy Quarry, Mont Saint-Hilaire, Rouville County, Quebec, Canada
Source: Royal Ontario Museum
Description: Brown fragment showing lamellar habit. Type sample
Measured chemistry: (K_1.74_Na_0.18_[box]_0.08_)_Σ=2_(Na_0.92_Ca_0.08_)_Σ=1_(Mn_4.09_Fe^2+^_2.67_Mg_0.24_)_Σ=7_(Zr_1.42_Ti_0.58_)_Σ=2_(Si_7.86_Al_0.14_)_Σ=8_O_26_((OH)_3.14_O_0.86_)_Σ=4_
Pin_id: L00627
Orientation: Laser parallel to (1 0 1). Fiducial mark perpendicular to laser is parallel to b [0 1 0]
Raman shift (cm-1)	intensity
217.366	0
222.24	147.838
227.112	340.455
231.982	223.59
236.849	466.519
241.714	264.531
246.577	152.269
251.437	323.004
256.294	389.086
261.149	239.525
266.002	367.377
270.852	156.1
275.7	260.121
280.545	57.2734
285.388	90.7637
290.229	23.5117
295.067	180.807
299.902	246.012
304.735	169.318
309.566	242.205
314.394	183.049
319.22	425.08
324.043	625.801
328.864	752.074
333.682	1289.61
338.498	1199.18
343.311	1310.42
348.122	1232.62
352.931	1281.07
357.737	1185.44
362.54	1218.51
367.341	1206.73
372.14	1036.28
376.936	1076.2
381.73	709.613
386.521	659.121
391.31	531.887
396.096	730.283
400.88	508.158
405.661	205.732
410.44	448.449
415.216	396.215
419.99	223.324
424.761	86.7148
429.53	107.519
434.297	70.2832
439.061	140.596
443.822	321.062
448.581	130.656
453.337	33.873
458.091	89.3106
462.843	68.4453
467.592	88.0312
472.338	126.773
477.082	105.074
481.824	461.301
486.563	185.75
491.3	187.18
496.034	249.756
500.765	163.523
505.494	346.453
510.221	299.92
514.945	303.916
519.666	312.498
524.385	286.772
529.102	423.834
533.816	844.809
538.527	949.01
543.236	1294.5
547.943	1787.76
552.647	1998.12
557.348	2327.51
562.047	2528.02
566.744	2689.62
571.438	2671.28
576.129	2783.07
580.818	2700.53
585.504	2734.02
590.188	3151.46
594.87	2941.83
599.549	3312.73
604.225	3518.29
608.899	3794.98
613.57	3940.45
618.239	4349.88
622.905	5091.23
627.569	5192.53
632.23	6290.2
636.889	7476.52
641.545	8584.96
646.198	9583.67
650.849	10323
655.498	9712.41
660.144	9066.9
664.787	8071.78
669.428	7075.52
674.067	6545.81
678.703	6286.38
683.336	6115.95
687.967	6022.85
692.595	5908.7
697.221	5743.32
701.844	5525.64
706.465	5583.43
711.083	5196.23
715.698	4798.32
720.311	4780.66
724.922	4276.69
729.53	3811.91
734.135	3710.97
738.738	3253.44
743.338	3319.25
747.936	2780.26
752.531	2738.22
757.124	2482.12
761.714	2678.99
766.302	2251.81
770.887	1879.59
775.469	1888.31
780.049	1427.97
784.626	1274.58
789.201	1161.12
793.773	556.594
798.343	717.996
802.91	306.315
807.475	89.5488
812.037	11.4043
816.596	179.963
821.153	273.256
825.707	204.92
830.259	209.398
834.808	295.945
839.355	269.785
843.899	61.1152
848.441	72.9941
852.98	187.572
857.516	389.902
862.05	823.006
866.581	969.846
871.11	1006.4
875.636	1448.69
880.159	1465.71
884.68	1812.46
889.199	1968.31
893.714	2290.23
898.228	2289.25
902.738	2874.18
907.246	3025.8
911.752	3375.44
916.255	3675.79
920.755	3643.98
925.253	3794.09
929.748	4442.97
934.241	4595.7
938.731	4604.23
943.218	4613.59
947.703	4900.02
952.186	4969.75
956.665	4607.32
961.142	4721.79
965.617	4309.33
970.089	4475.35
974.558	4407.43
979.025	4497.58
983.489	4875.66
987.951	4887.37
992.41	5287.15
996.866	5644.52
1001.32	5811.43
1005.77	6240.69
1010.22	6555.45
1014.67	6905.1
1019.11	7080
1023.55	7105.69
1027.99	6718.72
1032.42	6190.26
1036.86	5804.82
1041.29	4844.75
1045.72	4227.38
1050.14	3909.14
1054.56	3400.85
1058.98	2983.35
1063.4	2735.89
1067.82	2631.56
1072.23	2216.14
1076.64	2097
1081.05	1792.36
1085.45	1584.58
1089.85	1556.74
1094.25	1184.12
1098.65	888.107
1103.04	834.617
1107.43	523.664
1111.82	402.527
1116.21	491.525
1120.59	601.172
1124.97	464.719
1129.35	206.381
1133.73	179.838
1138.1	14.3633
1142.47	12.7285
1146.84	17.2734
1151.21	178.863
1155.57	48.6816
1159.93	145.648
1164.29	8.99414
1168.64	173.772
1172.99	10.873
1177.34	115.518
1181.69	70.4688
1186.04	54.7852
1190.38	16.0488
1194.72	32.4258
1199.05	201.539
1203.39	10.2988
1207.72	45.8926
1212.05	223.498
1216.37	169.074
1220.7	146.043
1225.02	38.6113
1229.34	256.607
1233.65	186.293
1237.97	273.607
1242.28	248.959
1246.59	91.8731
1250.89	221.272
1255.19	263.147
1259.49	309.674
1263.79	207.012
1268.09	446.894
1272.38	148.477
1276.67	342.166
1280.95	475.881
1285.24	353.35
1289.52	433.9
1293.8	233.836
1298.08	321.037
1302.35	379.539
1306.62	455.33
1310.89	389.871
1315.15	404.455
1319.42	355.182
1323.68	431.553
1327.94	294.834
1332.19	277.352
1336.44	385.309
1340.69	261.252
1344.94	408.094
1349.19	713.82
1353.43	291.711
1357.67	324.541
1361.9	371.68
1366.14	353.228
1370.37	94.4316
1374.6	398.273
1378.83	317.74
1383.05	179.207
1387.27	129.211
1391.49	259.967
1395.7	450.865
1399.92	229.897
1404.13	334.43
1408.34	509.85
1412.54	297.43
1416.74	192.336
1420.94	106.99
1425.14	374.459
1429.34	190.174
1433.53	275.33
1437.72	387.527
1441.9	209.678
1446.09	67.084
1450.27	254.33
1454.45	218.537
1458.63	48.2539
1462.8	46.1934
1466.97	230.795
1471.14	114.812
1475.31	8.38867
1479.47	42.4648
1483.63	133.158
1487.79	90.791
1491.94	284.143
1496.09	3.76172
1500.24	317.9
1504.39	121.467
1508.54	129.621
1512.68	255.732
1516.82	172.199
1520.95	126.416
1525.09	263.041
1529.22	357.961
1533.35	148.873
1537.47	116.092
1541.6	105.609
1545.72	197.58
1549.83	201.018
1553.95	228.269
1558.06	79.707
1562.17	194.326
1566.28	38.6641
1570.38	193.738
