Measurement: Raman, 514 nm, depolarized, Raman Data Processed
Mineral: Laverovite
Rruff sample: R060216
Ideal chemistry: K_2_NaMn^2+^_7_Zr^4+^_2_(Si_4_O_12_)_2_O_2_(OH)_4_F
Locality: Desourdy Quarry, Mont Saint-Hilaire, Rouville County, Quebec, Canada
Source: Royal Ontario Museum
Description: Brown fragment showing lamellar habit. Type sample
Measured chemistry: (K_1.74_Na_0.18_[box]_0.08_)_Σ=2_(Na_0.92_Ca_0.08_)_Σ=1_(Mn_4.09_Fe^2+^_2.67_Mg_0.24_)_Σ=7_(Zr_1.42_Ti_0.58_)_Σ=2_(Si_7.86_Al_0.14_)_Σ=8_O_26_((OH)_3.14_O_0.86_)_Σ=4_
Pin_id: L01980
Orientation: Laser parallel to (1 1 0). Fiducial mark perpendicular to laser is parallel to c [0 0 1]
Raman shift (cm-1)	intensity
117.777	0
122.723	0.355469
127.667	1514.39
132.608	2868.36
137.547	4445.53
142.482	5296.76
147.415	4287.6
152.345	2946.56
157.272	1678.64
162.197	3350.92
167.118	5271.89
172.037	3993.25
176.954	1749.88
181.867	1.4668
186.778	213.682
191.685	60.9746
196.591	853.061
201.493	2806.62
206.393	1526.1
211.289	1584.99
216.184	2734.09
221.075	3073.47
225.964	4136.6
230.849	4759.11
235.732	5574.65
240.613	5780.37
245.49	5233.97
250.365	4872.08
255.237	4197.36
260.107	3264.16
264.973	3039.47
269.837	2534.15
274.698	1696.06
279.557	1629.03
284.412	1278.9
289.265	1834.89
294.116	2233.5
298.963	1975.4
303.808	2152.22
308.65	2236.34
313.489	2106.36
318.325	1907.24
323.159	2630.12
327.99	2863.65
332.819	3972.52
337.644	5108.86
342.467	5987.41
347.287	6145.93
352.105	6193.67
356.92	5763.67
361.732	5559.46
366.541	5292.38
371.348	4948.44
376.152	4612.77
380.953	4439
385.751	4059.2
390.547	3880.38
395.34	3431.04
400.13	3161.11
404.918	2670.67
409.703	2266.78
414.485	2513.69
419.265	2629.38
424.041	2265.8
428.816	1824.93
433.587	458.732
438.356	174.91
443.122	310.096
447.885	490.26
452.646	320.543
457.404	283.934
462.159	162.828
466.911	343.871
471.661	464.184
476.409	560.975
481.153	317.682
485.895	519.951
490.634	191.703
495.37	95.7891
500.104	97.1621
504.835	176.789
509.564	48.9453
514.289	120.367
519.013	43.168
523.733	86.0938
528.451	72.209
533.166	1050.12
537.878	872.514
542.588	1724.15
547.295	3443.57
551.999	4823.79
556.701	6103.32
561.4	5961.78
566.096	4957.8
570.79	4003.25
575.481	3533.3
580.169	3274.87
584.855	3247.22
589.538	3752.98
594.219	3886.46
598.896	3794.61
603.571	3953.34
608.244	4575.97
612.914	4951.01
617.581	5484.41
622.245	6600.74
626.907	7343.83
631.566	8925.02
636.223	10516.1
640.877	13418.4
645.528	18224.3
650.177	23105
654.823	23851.9
659.466	19065
664.107	14929.9
668.745	13217.4
673.38	13561.7
678.013	14639.1
682.643	16304.1
687.271	17916.9
691.896	19259.3
696.518	20380.9
701.138	20841.1
705.755	21520.1
710.369	21658.3
714.981	20742.5
719.59	20170.6
724.197	18103.4
728.801	16047.9
733.402	14223.5
738.001	12358.2
742.597	11268.6
747.19	10484.6
751.781	9938.03
756.369	9497.77
760.955	8821.85
765.538	8247.29
770.118	7441.11
774.696	6807.45
779.271	5724.53
783.844	5301.27
788.414	4842.67
792.981	3644.66
797.546	2728.44
802.108	1691.11
806.667	907.305
811.224	365.965
815.779	361.93
820.33	98.0234
824.88	243.219
829.426	466.172
833.97	452.293
838.512	379.941
843.05	392.356
847.587	35.7812
852.12	60.2031
856.651	737.691
861.18	911.812
865.706	1766.15
870.229	3064.36
874.75	3404.71
879.268	4356.16
883.783	5471.37
888.296	6370.97
892.807	7817.77
897.314	8696.02
901.82	10447.6
906.322	11754.5
910.822	13312.8
915.32	14301.4
919.815	14756.3
924.307	15342.4
928.797	14672.7
933.284	13959.1
937.769	13140.8
942.251	12454.5
946.731	11608.3
951.208	10531.9
955.682	8538.59
960.154	6555.34
964.623	4861.65
969.09	3519.16
973.554	2873.28
978.016	2395.8
982.475	2267.1
986.931	2939.08
991.385	3295.55
995.837	3963.77
1000.29	5413.39
1004.73	7229.77
1009.18	9818.69
1013.62	12638
1018.06	16013.5
1022.49	19376.7
1026.93	21439.7
1031.36	21285.5
1035.79	19376.7
1040.21	15387.8
1044.63	11996.6
1049.06	9252.53
1053.47	7425.59
1057.89	6042.43
1062.3	5020.12
1066.71	4776.02
1071.12	4726.17
1075.53	4145.25
1079.93	4062.86
1084.33	4230.4
1088.73	3027.25
1093.13	2680.86
1097.52	2144.22
1101.91	1412.6
1106.3	1679.38
1110.68	990.602
1115.07	545.945
1119.45	382.231
1123.83	342.055
1128.2	90.5078
1132.57	71.5898
1136.94	46.2266
1141.31	206.906
1145.68	252.715
1150.04	219.098
1154.4	7.03906
1158.76	38.6289
1163.11	163.211
1167.47	198.762
1171.82	68.7539
1176.16	130.731
1180.51	36.6953
1184.85	138.043
1189.19	106.641
1193.53	30.0508
1197.87	16.0547
1202.2	16.6562
1206.53	233.309
1210.86	273.023
1215.18	368.086
1219.51	71.2891
1223.83	270.519
1228.15	428.805
1232.46	406.106
1236.77	583.336
1241.09	430.559
1245.39	314.809
1249.7	666.941
1254	456.008
1258.3	453.434
1262.6	595.191
1266.9	579.059
1271.19	726.262
1275.48	736.793
1279.77	488.578
1284.05	445.102
1288.34	418.75
1292.62	588.695
1296.9	492.371
1301.17	389.641
1305.44	614.035
1309.72	461.586
1313.98	565.578
1318.25	686.199
1322.51	291.25
1326.78	930.148
1331.03	698.824
1335.29	474.141
1339.54	808.551
1343.8	639.125
1348.04	641.543
1352.29	823.531
1356.53	832.406
1360.78	704.793
1365.02	768.984
1369.25	462.5
1373.49	716.297
1377.72	785.199
1381.95	613.141
1386.17	217.961
1390.4	642.062
1394.62	654.137
1398.84	15.6719
1403.06	436.625
1407.27	468.93
1411.48	160.336
1415.69	396.426
1419.9	480.769
1424.1	337.5
1428.31	254.637
1432.51	445.027
1436.7	366.938
1440.9	357.805
1445.09	341.269
1449.28	325.711
1453.47	299.461
1457.65	258.891
1461.84	213.594
1466.02	95.0156
1470.2	230.152
1474.37	450.723
1478.55	63
1482.72	300.691
1486.88	49.3125
1491.05	321.738
1495.21	356.121
1499.38	334.996
1503.54	186.738
1507.69	282.106
1511.85	148.25
1516	408.258
1520.15	416.863
1524.29	357.188
1528.44	426.949
1532.58	104.824
