Measurement: Raman, 514 nm, depolarized, Raman Data Processed
Mineral: Lawsonite
Rruff sample: R050042
Ideal chemistry: CaAl_2_Si_2_O_7_(OH)_2_H_2_O
Locality: California, USA
Source: University of Arizona Mineral Museum
Description: White to colorless fragments
Measured chemistry: (Ca_0.98_Fe^2+^_0.02_)Al_2.00_Si_2.00_O_7_(OH)_2_Â·H_2_O
Pin_id: L00291
Orientation: Laser parallel to c* (0 0 1). Fiducial mark perpendicular to laser is parallel to a [1 0 0]
Raman shift (cm-1)	intensity
81.195	0
85.384	490.133
89.571	1412.11
93.755	2068.23
97.938	1949.91
102.119	1882.06
106.298	1909.84
110.474	1889.27
114.649	2149.79
118.822	2391.04
122.993	2625
127.161	2728.09
131.328	2248.06
135.493	1160.62
139.655	301.417
143.816	21.857
147.975	118.05
152.131	252.735
156.286	424.381
160.439	430.974
164.589	489.987
168.738	390.866
172.885	289.069
177.029	252.009
181.172	245.435
185.313	96.171
189.452	72.268
193.588	35.938
197.723	45.517
201.856	116.443
205.987	186.758
210.116	169.314
214.243	70.091
218.367	159.232
222.49	106.349
226.611	39.162
230.73	35.192
234.847	76.972
238.962	346.234
243.075	639.204
247.186	958.845
251.296	1544.98
255.403	2129.44
259.508	3045.11
263.611	4272.41
267.712	6517.98
271.812	9899.86
275.909	13366.2
280.005	12687
284.098	9261.72
288.19	6346.17
292.279	4438.11
296.367	3382.03
300.452	3017.08
304.536	2714.58
308.618	2687.04
312.698	2818.56
316.776	3392.5
320.851	4429.68
324.925	5857.85
328.998	6345.01
333.068	5000.6
337.136	3518.64
341.202	2709.6
345.266	2530.99
349.329	2480.18
353.389	2504.13
357.448	2602.95
361.504	2530.14
365.559	2439.49
369.612	2183.88
373.663	1778.58
377.712	1266.8
381.758	895.025
385.804	589.744
389.847	337.68
393.888	182.081
397.927	223.77
401.965	218.885
406	98.212
410.034	14.603
414.065	93.956
418.095	205.017
422.123	448.84
426.149	794.549
430.173	1124.21
434.195	1194.88
438.215	1415.62
442.234	1625.49
446.25	2015.56
450.265	2517.91
454.277	3166.6
458.288	4004.68
462.297	4156.21
466.304	3353.05
470.309	2517.66
474.312	1700.87
478.313	1102.79
482.313	808.68
486.31	659.27
490.306	624.869
494.299	594.957
498.291	623.513
502.281	630.927
506.269	726.258
510.256	898.549
514.24	931.843
518.222	1164.28
522.203	1400.98
526.182	1681.03
530.159	2089.55
534.134	2662.62
538.107	3491.3
542.078	4556.44
546.047	5935.27
550.015	8486.53
553.98	13386
557.944	20915.9
561.906	27435.7
565.866	24834.9
569.824	18003.3
573.781	12891.9
577.735	9101.46
581.688	6317.04
585.639	4265
589.588	2908.9
593.535	2037.69
597.48	1432.44
601.423	948.141
605.365	689.821
609.304	467.488
613.242	254.153
617.178	74.828
621.112	4.479
625.045	131.897
628.975	41.773
632.904	163.118
636.831	146.212
640.756	151.122
644.679	115.859
648.6	53.231
652.519	5.014
656.437	99.151
660.353	162.373
664.267	443.695
668.179	724.125
672.089	1131.67
675.998	1818.33
679.904	2774.12
683.809	4901.03
687.712	9039.06
691.614	16349.2
695.513	20649.5
699.411	15589.9
703.306	8440.44
707.2	4428.12
711.092	2509.98
714.983	1366.03
718.871	751.269
722.758	463.709
726.643	263.364
730.526	150.246
734.407	63.349
738.287	10.647
742.164	48.107
746.04	83.742
749.914	149.558
753.787	194.563
757.657	222.764
761.526	412.166
765.393	565.25
769.258	713.594
773.121	904.63
776.982	979.071
780.842	1164.39
784.7	1438.57
788.556	1575.6
792.411	1687.41
796.263	1875.13
800.114	1925.79
803.963	1977.25
807.81	1983.18
811.656	2028.85
815.499	1835.65
819.341	1613.95
823.181	1339.68
827.019	1173.81
830.856	865.386
834.691	635.425
838.524	476.98
842.355	380.026
846.185	248.58
850.012	254.583
853.838	254.007
857.662	169.855
861.485	137.843
865.305	133.771
869.124	131.841
872.941	167.339
876.757	163.247
880.57	255.546
884.382	428.232
888.192	537.313
892	823.382
895.807	1394.23
899.612	2100.45
903.415	3275.08
907.216	5390.09
911.016	8159.49
914.814	10588.3
918.61	10707.4
922.404	10386.9
926.196	12336.8
929.987	16897.1
933.776	25247.8
937.564	31420
941.349	28642.2
945.133	20579.7
948.915	14576.1
952.696	11883.9
956.474	11307.4
960.251	10699
964.027	8862.78
967.8	6878.64
971.572	5113.04
975.342	4013.73
979.11	3083.77
982.877	2508.02
986.641	2096.13
990.404	1773.45
994.166	1585.83
997.925	1348.51
1001.68	1242.63
1005.44	1030.87
1009.19	1070.93
1012.95	962.437
1016.7	895.403
1020.45	846.982
1024.19	763.5
1027.94	673.548
1031.68	575.594
1035.43	566.952
1039.17	517.868
1042.91	517.776
1046.64	452.795
1050.38	390.53
1054.11	273.201
1057.85	235.262
1061.58	215.338
1065.31	74.123
1069.03	97.772
1072.76	63.337
1076.48	2.727
1080.2	25.019
1083.92	10.304
1087.64	70.407
1091.36	0.966
1095.08	11.218
1098.79	25.062
1102.5	91.095
1106.21	49.067
1109.92	81.715
1113.63	32.297
1117.33	19.448
1121.04	77.112
1124.74	65.541
1128.44	49.903
1132.14	42.526
1135.83	41.343
1139.53	11.621
1143.22	25.151
1146.91	15.863
1150.6	27.864
1154.29	29.151
1157.98	44.779
1161.66	62.558
1165.35	26.208
1169.03	59.604
1172.71	90.02
1176.39	94.324
1180.06	119.031
1183.74	65.745
1187.41	91.02
1191.08	92.016
1194.75	101.811
1198.42	103.319
1202.09	143.219
1205.75	155.68
1209.42	125.438
1213.08	133.8
1216.74	160.929
1220.4	106.439
1224.05	143.799
1227.71	190.83
1231.36	185.236
1235.01	138.997
1238.66	182.461
1242.31	154.203
1245.96	132.323
1249.6	117.435
1253.25	139.354
1256.89	94.015
1260.53	139.413
1264.17	164.487
1267.81	100.049
1271.44	169.813
1275.08	59.892
1278.71	81.889
1282.34	319.009
1285.97	99.351
1289.59	24.09
1293.22	69.417
1296.84	56.144
1300.46	106.201
1304.09	59.73
1307.7	30.537
1311.32	34.402
1314.94	9.799
1318.55	62.294
1322.16	69.657
1325.78	71.939
1329.38	90.995
1332.99	68.374
1336.6	48.11
1340.2	90.676
1343.81	45.211
1347.41	48.942
1351.01	92.803
1354.61	95.239
1358.2	61.962
1361.8	113.677
1365.39	67.814
1368.98	92.985
1372.57	101.516
1376.16	109.204
1379.75	93.24
1383.33	73.19
1386.91	93.147
1390.5	87.32
1394.08	116.443
1397.65	102.276
1401.23	110.559
1404.81	111.063
1408.38	106.468
1411.95	103.971
1415.53	49.403
1419.09	52.972
1422.66	20.799
1426.23	15.505
1429.79	1.118
1433.36	19.281
1436.92	46.315
1440.47	91.37
1444.03	84.155
1447.59	42.678
1451.14	72.879
1454.7	72.383
1458.25	67.563
1461.8	45.427
1465.35	43.13
1468.89	28.022
1472.44	75.192
1475.98	72.2
1479.53	56.102
1483.07	78.067
1486.61	94.409
1490.14	57.091
1493.68	81.341
1497.21	85.955
1500.75	87.299
1504.28	3.694
1507.81	4.576
1511.34	64.432
1514.86	59.27
1518.39	45.212
1521.91	43.388
