Measurement: Raman, 514 nm, depolarized, Raman Data Processed
Mineral: Lawsonite
Rruff sample: R050042
Ideal chemistry: CaAl_2_Si_2_O_7_(OH)_2_H_2_O
Locality: California, USA
Source: University of Arizona Mineral Museum
Description: White to colorless fragments
Measured chemistry: (Ca_0.98_Fe^2+^_0.02_)Al_2.00_Si_2.00_O_7_(OH)_2_Â·H_2_O
Pin_id: L00444
Orientation: Laser parallel to a* (1 0 0). Fiducial mark perpendicular to laser is parallel to b [0 1 0]
Raman shift (cm-1)	intensity
135.493	0
139.655	108.768
143.816	347.861
147.975	684.254
152.131	907.31
156.286	1087.93
160.439	1185.87
164.589	1166.58
168.738	1220.09
172.885	1131.27
177.029	1065.84
181.172	1144.37
185.313	1093.69
189.452	918.308
193.588	730.614
197.723	562.736
201.856	357.638
205.987	248.895
210.116	99.779
214.243	36.476
218.367	11.036
222.49	102.65
226.611	122.113
230.73	106.908
234.847	77.497
238.962	102.727
243.075	329.328
247.186	468.94
251.296	834.476
255.403	1215.73
259.508	1696.29
263.611	2525.42
267.712	3639.67
271.812	5318.24
275.909	6836.14
280.005	6274.5
284.098	4643.3
288.19	3059.54
292.279	1991.31
296.367	1170.3
300.452	701.444
304.536	580.593
308.618	486.337
312.698	369.424
316.776	363.484
320.851	407.173
324.925	441.271
328.998	504.635
333.068	587.525
337.136	678.836
341.202	726.14
345.266	966.612
349.329	1243.08
353.389	1704.45
357.448	2255.93
361.504	2723.35
365.559	3311.29
369.612	3730.65
373.663	3622.05
377.712	3389.54
381.758	3116.88
385.804	2751.48
389.847	2282.38
393.888	1894.8
397.927	1714.4
401.965	1631.75
406	1440.06
410.034	1184.42
414.065	1044.73
418.095	1040.19
422.123	962.81
426.149	830.604
430.173	839.595
434.195	738.799
438.215	1044.21
442.234	1374.83
446.25	1843.65
450.265	2531.65
454.277	3206.72
458.288	4089.11
462.297	3819.08
466.304	2741.1
470.309	1651.98
474.312	946.182
478.313	602.144
482.313	440.855
486.31	459.557
490.306	467.823
494.299	477.562
498.291	695.265
502.281	781.966
506.269	800.683
510.256	761.496
514.24	554.436
518.222	543.541
522.203	554.817
526.182	496.258
530.159	566.849
534.134	752.601
538.107	889.577
542.078	1237.83
546.047	1395.43
550.015	2080.53
553.98	3406.13
557.944	5465.15
561.906	7356.43
565.866	6607.82
569.824	4749.26
573.781	3790.73
577.735	3472.22
581.688	2879.72
585.639	2067.25
589.588	1276.78
593.535	993.313
597.48	530.853
601.423	260.39
605.365	150.921
609.304	39.443
613.242	22.508
617.178	50.791
621.112	45.978
625.045	163.628
628.975	48.932
632.904	39.565
636.831	101.439
640.756	80.712
644.679	55.408
648.6	66.567
652.519	86.434
656.437	297.232
660.353	258.071
664.267	484.686
668.179	814.724
672.089	1119.94
675.998	1614.45
679.904	2532.01
683.809	4188.16
687.712	7295.85
691.614	13673.8
695.513	18623.4
699.411	15011
703.306	8648.5
707.2	4815.98
711.092	3023.41
714.983	1778.78
718.871	1186.09
722.758	848.333
726.643	678.517
730.526	574.638
734.407	450.697
738.287	306.697
742.164	204.637
746.04	329.517
749.914	225.338
753.787	196.104
757.657	254.02
761.526	275.466
765.393	247.981
769.258	301.092
773.121	349.662
776.982	290.825
780.842	241.16
784.7	266.099
788.556	229.192
792.411	228.544
796.263	285.456
800.114	118.613
803.963	30.165
807.81	1.295
811.656	88.266
815.499	53.882
819.341	53.424
823.181	33.292
827.019	62.209
830.856	5.235
834.691	49.637
838.524	12.994
842.355	5.599
846.185	26.14
850.012	32.349
853.838	98.907
857.662	160.556
861.485	217.884
865.305	157.161
869.124	97.079
872.941	225.077
876.757	292.206
880.57	358.424
884.382	499.729
888.192	548.122
892	708.605
895.807	864.184
899.612	1299.86
903.415	1704.63
907.216	1980.51
911.016	2390.48
914.814	2992.6
918.61	3560.82
922.404	4429.19
926.196	6137.83
929.987	8596.82
933.776	13056.2
937.564	16695.9
941.349	15605.9
945.133	11116.1
948.915	7366.62
952.696	4968.25
956.474	3449.33
960.251	2630.3
964.027	2166.1
967.8	1771.93
971.572	1429.87
975.342	1166.41
979.11	991.842
982.877	725.513
986.641	754.823
990.404	770.072
994.166	729.809
997.925	653.202
1001.68	700.031
1005.44	507.808
1009.19	476.827
1012.95	654.974
1016.7	596.204
1020.45	640.526
1024.19	695.149
1027.94	593.299
1031.68	602.448
1035.43	618.583
1039.17	902.861
1042.91	1599.15
1046.64	2337.91
1050.38	2422.44
1054.11	1922.49
1057.85	1276.28
1061.58	994.382
1065.31	836.428
1069.03	569.565
1072.76	450.092
1076.48	457.051
1080.2	188.085
1083.92	193.368
1087.64	231.694
1091.36	154.043
1095.08	183.256
1098.79	148.685
1102.5	72.916
1106.21	10.527
1109.92	7.929
1113.63	69.748
1117.33	70.307
1121.04	116.836
1124.74	288.844
1128.44	46.989
1132.14	0.503
1135.83	48.273
1139.53	33.477
1143.22	117.241
1146.91	62.785
1150.6	45.011
1154.29	26.759
1157.98	151.868
1161.66	41.388
1165.35	4.259
1169.03	59.948
1172.71	85.063
1176.39	62.591
1180.06	160.002
1183.74	128.167
1187.41	131.501
1191.08	36.646
1194.75	183.812
1198.42	59.824
1202.09	230.916
1205.75	159.428
1209.42	182.186
1213.08	165.597
1216.74	202.456
1220.4	167.316
1224.05	133.716
1227.71	116.074
1231.36	202.452
1235.01	172.657
1238.66	134.318
1242.31	210.903
1245.96	190.081
1249.6	111.94
1253.25	96.726
1256.89	70.336
1260.53	141.868
1264.17	145.112
1267.81	172.542
1271.44	201.592
1275.08	151.232
1278.71	65.696
1282.34	103.604
1285.97	22.235
1289.59	19.893
1293.22	8.476
1296.84	153.967
1300.46	96.742
1304.09	71.904
1307.7	136.963
1311.32	5.939
1314.94	9.575
1318.55	97.489
1322.16	80.765
1325.78	39.992
1329.38	182.971
1332.99	123.53
1336.6	160.531
1340.2	181.553
1343.81	221.034
1347.41	65.269
1351.01	35.35
1354.61	87.944
1358.2	27.451
1361.8	122.732
1365.39	118.531
1368.98	110.821
1372.57	124.994
1376.16	101.012
1379.75	194.502
1383.33	244.014
1386.91	208.936
1390.5	46.473
1394.08	181.004
1397.65	173.194
1401.23	191.192
1404.81	272.585
1408.38	324.66
1411.95	233.826
1415.53	222.941
1419.09	59.002
1422.66	49.122
1426.23	33.291
1429.79	46.158
1433.36	94.623
1436.92	127.434
1440.47	275.679
1444.03	160.591
1447.59	228.621
1451.14	289.951
1454.7	213.297
1458.25	193.896
1461.8	169.819
1465.35	158.808
1468.89	120.263
1472.44	136.459
1475.98	218.704
1479.53	163.645
1483.07	161.086
1486.61	268.663
1490.14	247.823
1493.68	161.331
1497.21	219.852
1500.75	136.014
1504.28	109.341
1507.81	31.53
1511.34	142.382
1514.86	3.901
1518.39	0
