Measurement: Raman, 514 nm, depolarized, Raman Data Processed
Mineral: Lawsonite
Rruff sample: R050042
Ideal chemistry: CaAl_2_Si_2_O_7_(OH)_2_H_2_O
Locality: California, USA
Source: University of Arizona Mineral Museum
Description: White to colorless fragments
Measured chemistry: (Ca_0.98_Fe^2+^_0.02_)Al_2.00_Si_2.00_O_7_(OH)_2_Â·H_2_O
Pin_id: L00478
Orientation: Laser parallel to -b* (0 -1 0). Fiducial mark perpendicular to laser is parallel to c [0 0 1]
Raman shift (cm-1)	intensity
142.429	0
146.589	203.5
150.746	247.86
154.901	299.936
159.055	430.741
163.206	502.795
167.355	447.949
171.503	495.214
175.648	549.333
179.792	453.394
183.933	514.65
188.072	628.938
192.21	542.993
196.345	382.289
200.479	311.687
204.61	191.027
208.74	132.837
212.867	100.65
216.993	20.206
221.116	27.998
225.238	42.112
229.357	79.884
233.475	31.377
237.591	9.798
241.705	100.025
245.816	143.319
249.926	217.89
254.034	209.521
258.14	374.864
262.244	543.5
266.346	815.938
270.446	1285.94
274.544	2003.85
278.64	2846.41
282.734	3035.97
286.826	3629.68
290.916	3881.61
295.004	2766.73
299.091	1685.06
303.175	1182.57
307.257	942.354
311.338	847.735
315.416	847.215
319.493	947.583
323.568	1096.55
327.64	1298.01
331.711	1387.54
335.78	1353.61
339.847	1424.69
343.912	1683.73
347.975	2048.75
352.036	2485.17
356.095	3137.03
360.152	3877.79
364.208	4359.25
368.261	4488.21
372.313	4745.11
376.362	4491.95
380.41	3965.62
384.455	3572.34
388.499	3336.02
392.541	3219.43
396.581	3622.45
400.619	4530.14
404.655	4472.95
408.689	3050.26
412.722	2045.09
416.752	1437.07
420.781	1105.83
424.807	964.318
428.832	922.229
432.855	889.188
436.875	991.218
440.894	1370.33
444.911	1910.52
448.927	1935.78
452.94	2162.1
456.951	2319.47
460.961	2120.9
464.968	1185.38
468.974	697.843
472.978	309.593
476.98	154.719
480.98	83.024
484.978	56.675
488.974	74.659
492.968	87.238
496.961	175.621
500.952	144.71
504.94	223.284
508.927	281.528
512.912	380.693
516.895	351.819
520.876	523.931
524.856	748.051
528.833	890.206
532.809	1188.42
536.782	1405.71
540.754	1911.12
544.724	2797.73
548.692	4072.58
552.659	6187.66
556.623	10313
560.586	15368.5
564.546	17744.2
568.505	13869.9
572.462	9575.57
576.417	7531.25
580.37	6336.94
584.322	4822.53
588.271	3318.06
592.219	2178.51
596.165	1456.71
600.109	1181.24
604.051	733.487
607.991	609.655
611.93	363.745
615.866	274.757
619.801	125.691
623.734	82.545
627.665	22.724
631.594	160.182
635.522	121.19
639.447	43.58
643.371	104.942
647.293	105.197
651.213	6.194
655.131	13.156
659.048	140.684
662.962	134.457
666.875	253.263
670.786	387.026
674.695	711.749
678.602	1253.3
682.508	2104.26
686.412	3681.77
690.313	6903.22
694.213	11675.9
698.112	12098.1
702.008	7612.34
705.902	4082.77
709.795	2113.17
713.686	1201.52
717.575	871.835
721.463	512.104
725.348	276.33
729.232	173.516
733.114	146.663
736.994	108.772
740.872	53.845
744.748	94.885
748.623	5.896
752.496	3.145
756.367	137.754
760.236	151.632
764.104	134.491
767.969	134.338
771.833	157.173
775.695	250.999
779.556	392.655
783.414	434.742
787.271	368.383
791.126	316.482
794.979	378.614
798.831	267.502
802.68	359.69
806.528	279.391
810.374	179.037
814.218	187.633
818.061	267.911
821.901	176.557
825.74	103.312
829.577	20.17
833.413	0.191
837.246	38.597
841.078	81.758
844.908	103.263
848.736	42.153
852.563	111.503
856.388	4.162
860.211	129.95
864.032	179.864
867.851	192.905
871.669	98.076
875.485	249.382
879.299	254.836
883.112	312.444
886.922	452.191
890.731	687.03
894.538	910.696
898.344	1279.24
902.147	1781.76
905.949	2774.02
909.749	4677.65
913.548	6581.44
917.344	7185.38
921.139	6749.48
924.932	6803.75
928.724	8838.18
932.514	12642.8
936.301	18027.6
940.088	20472.6
943.872	17118.1
947.655	12003.9
951.436	8600.25
955.215	6638.41
958.993	5396.28
962.768	4383.75
966.542	3564.56
970.315	2817.01
974.085	2428.35
977.854	2186.52
981.621	1839.89
985.387	1424.63
989.15	1317
992.912	1218.25
996.672	1220.74
1000.43	1158.03
1004.19	992.823
1007.94	932.807
1011.7	782.556
1015.45	792.478
1019.2	762.51
1022.95	712.665
1026.69	703.183
1030.44	705.63
1034.18	576.431
1037.92	507.222
1041.66	460.035
1045.4	489.036
1049.13	650.333
1052.87	521.705
1056.6	572.895
1060.33	408.438
1064.06	234.008
1067.79	143.724
1071.52	122.541
1075.24	166.232
1078.96	176.888
1082.68	150.586
1086.4	124.582
1090.12	87.551
1093.84	153.209
1097.55	103.682
1101.26	103.709
1104.97	59.095
1108.68	9.681
1112.39	2.596
1116.1	51.162
1119.8	61.146
1123.5	239.181
1127.2	115.906
1130.9	17.129
1134.6	56.86
1138.3	39.101
1141.99	67.094
1145.68	106.394
1149.37	34.544
1153.06	5.174
1156.75	82.864
1160.43	148.327
1164.12	113.052
1167.8	97.257
1171.48	30.402
1175.16	10.634
1178.84	39.841
1182.51	105.918
1186.19	124.101
1189.86	200.598
1193.53	180.675
1197.2	180.42
1200.87	150.976
1204.53	85.264
1208.19	146.914
1211.86	145.563
1215.52	183.664
1219.18	141.273
1222.83	298.711
1226.49	276.915
1230.14	139.144
1233.8	147.147
1237.45	153.725
1241.1	170.192
1244.74	175.963
1248.39	211.645
1252.03	285.664
1255.68	220.189
1259.32	284.998
1262.96	54.177
1266.59	193.907
1270.23	227.897
1273.86	71.555
1277.5	40.169
1281.13	146.614
1284.76	181.912
1288.38	120.379
1292.01	17.688
1295.63	6.956
1299.26	93.843
1302.88	83.25
1306.5	156.993
1310.12	176.879
1313.73	106.543
1317.35	65.627
1320.96	243.542
1324.57	70.969
1328.18	29.243
1331.79	137.098
1335.4	64.711
1339	151.847
1342.61	118.451
1346.21	144.836
1349.81	150.936
1353.41	226.928
1357	212.479
1360.6	178.268
1364.19	172.187
1367.78	37.251
1371.37	72.101
1374.96	126.791
1378.55	132.839
1382.14	172.512
1385.72	321.438
1389.3	278.943
1392.88	285.933
1396.46	224.684
1400.04	308.322
1403.62	164.245
1407.19	60.836
1410.76	139.334
1414.34	280.139
1417.9	92.915
1421.47	236.567
1425.04	270.516
1428.6	261.814
1432.17	252.091
1435.73	173.926
1439.29	24.492
1442.85	166.316
1446.4	143.864
1449.96	140.786
1453.51	58.729
1457.07	207.108
1460.62	344.661
1464.16	399.776
1467.71	366.926
1471.26	303.002
1474.8	196.36
1478.35	171.568
1481.89	140.316
1485.43	7.333
1488.96	144.223
1492.5	181.255
1496.04	278.489
1499.57	126.647
1503.1	246.516
1506.63	298.308
1510.16	312.88
1513.69	338.048
1517.21	79.663
