Measurement: Raman, 514 nm, depolarized, Raman Data Processed
Mineral: Lazulite
Rruff sample: R050110
Ideal chemistry: MgAl_2_(PO_4_)_2_(OH)_2_
Locality: Rapid Creek, Yukon Territory, Canada
Source: Rock Currier
Description: Azure-blue stubby crystals with complex terminations
Measured chemistry: (Mg_0.84_Fe_0.16_)Al_2.00_(P_1.00_O_4_)_2_(OH)_2_
Pin_id: L00471
Orientation: Laser parallel to -b* (0 -1 0). Fiducial mark perpendicular to laser is parallel to -c [0 0 -1]
Raman shift (cm-1)	intensity
82.916	0
87.101	5.446
91.284	548.986
95.465	2057.6
99.644	8071.94
103.82	4756.9
107.995	1637.26
112.168	1631.85
116.339	1091.7
120.508	458.154
124.675	359.909
128.84	193.822
133.003	304.829
137.164	183.546
141.323	164.593
145.48	73.669
149.635	79.031
153.788	52.086
157.939	32.171
162.088	88.453
166.235	138.68
170.38	1091.02
174.523	1387.73
178.664	547.627
182.803	1405.51
186.94	6468.16
191.076	14944.4
195.209	6182.19
199.34	1630.99
203.47	634.857
207.597	598.556
211.722	669.393
215.846	1332.34
219.967	3731.31
224.087	6628.18
228.204	3918.78
232.32	845.132
236.434	26.273
240.545	39.758
244.655	410.866
248.763	2192.92
252.869	6876.78
256.973	5585.67
261.075	1598.88
265.175	869.187
269.273	902.486
273.369	1862.56
277.463	4260.45
281.556	7605.21
285.646	6031.57
289.734	2584.74
293.821	821.324
297.905	581.38
301.988	50.265
306.069	148.812
310.147	170.077
314.224	158.154
318.299	1524.46
322.372	2903.8
326.443	1230.42
330.512	463.424
334.579	369.094
338.645	337.592
342.708	425.61
346.769	466.737
350.829	475.473
354.887	415.128
358.942	325.513
362.996	595.63
367.048	1026.32
371.098	2029.94
375.146	4029.48
379.192	5624.08
383.236	3686.75
387.279	1772.54
391.319	932.541
395.358	802.786
399.394	1033.74
403.429	2045.45
407.462	7175.79
411.493	28659.9
415.522	31815.2
419.549	8525.23
423.575	5304.34
427.598	6546.1
431.619	3617.5
435.639	1552.51
439.657	810.055
443.673	523.201
447.687	482.12
451.699	585.836
455.709	760.375
459.717	1096.74
463.724	1279.1
467.728	1973.64
471.731	3949.53
475.732	7950.94
479.731	9377.75
483.728	4843.6
487.723	1910.59
491.716	754.643
495.708	284.52
499.697	148.781
503.685	160.908
507.671	109.625
511.655	33.014
515.637	131.89
519.617	188.397
523.596	203.771
527.572	158.111
531.547	234.195
535.52	526.465
539.491	630.89
543.46	492.308
547.427	251.389
551.393	58.897
555.356	103.771
559.318	88.415
563.278	18.94
567.236	28.393
571.192	83.7
575.147	131.887
579.099	31.984
583.05	53.981
586.999	94.132
590.946	38.497
594.891	148.293
598.834	408.668
602.776	962.244
606.715	2141.87
610.653	4453.5
614.589	5167.35
618.523	3488.5
622.456	2722.68
626.386	3543.76
630.315	5660.87
634.242	7358.73
638.167	7682.56
642.09	9175.46
646.012	11705.6
649.931	10478.6
653.849	6165.07
657.765	3131.89
661.679	1826.48
665.592	1104.35
669.502	739.154
673.411	443.416
677.318	274.55
681.223	136.85
685.126	23.066
689.028	42.859
692.927	109.819
696.825	81.074
700.721	110.862
704.616	55.751
708.508	184.326
712.399	105.127
716.288	132.998
720.175	208.726
724.06	360.852
727.944	681.511
731.825	936.911
735.705	1578.05
739.584	2057.54
743.46	2227.6
747.334	1717.8
751.207	1112.48
755.078	632.633
758.947	383.594
762.815	228.107
766.68	225.601
770.544	209.044
774.406	107.246
778.267	60.72
782.125	125.533
785.982	182.102
789.837	248.397
793.69	159.994
797.542	64.844
801.391	48.457
805.239	160.819
809.085	189.959
812.93	134.851
816.772	127.517
820.613	61.987
824.452	98.244
828.29	160.293
832.125	134.128
835.959	53.59
839.791	97.395
843.621	175.771
847.45	291.049
851.277	371.258
855.102	340.572
858.925	288.721
862.746	351.812
866.566	302.679
870.384	256.877
874.2	176.108
878.015	57.259
881.828	36.686
885.639	62.805
889.448	15.171
893.256	52.237
897.061	12.505
900.865	13.568
904.668	142.618
908.468	50.199
912.267	46.04
916.064	18.777
919.86	59.335
923.653	37.462
927.445	13.182
931.236	18.166
935.024	35.464
938.811	45.188
942.596	148.203
946.379	126.071
950.161	22.152
953.94	75.021
957.719	88.728
961.495	244.57
965.27	247.756
969.043	341.678
972.814	306.169
976.583	409.631
980.351	563.002
984.117	841.447
987.882	1207.42
991.644	1588.62
995.405	2181.84
999.165	3029.38
1002.92	4014.27
1006.68	3630.51
1010.43	2694.08
1014.18	2223.86
1017.93	2056.86
1021.68	2074.06
1025.43	2145.41
1029.18	2349.89
1032.92	2827.78
1036.66	3443.03
1040.4	4447.47
1044.14	6298.84
1047.88	10128.9
1051.62	18036.2
1055.35	34181.8
1059.08	51265.8
1062.81	39861.5
1066.54	19510.9
1070.27	9952.77
1073.99	5794.71
1077.72	4289.4
1081.44	3659.19
1085.16	3741.4
1088.88	4189.21
1092.59	5657.29
1096.31	9021.11
1100.02	13821.7
1103.73	13261.5
1107.44	8384.12
1111.15	5069.28
1114.86	3587.51
1118.57	3061.49
1122.27	3221.59
1125.97	3365
1129.67	4570.37
1133.37	7305.52
1137.07	10309.3
1140.76	7715.87
1144.45	4591.44
1148.15	3028.43
1151.84	2551.56
1155.53	1917.76
1159.21	1689.15
1162.9	1722.83
1166.58	1763.21
1170.26	1843.51
1173.94	1921.41
1177.62	2005.56
1181.3	1982.9
1184.97	1540.7
1188.65	1150.59
1192.32	815.465
1195.99	623.241
1199.66	729.438
1203.33	664.553
1206.99	617.547
1210.65	597.269
1214.32	554.017
1217.98	517.126
1221.64	423.569
1225.29	430.69
1228.95	409.081
1232.6	392.458
1236.26	266.552
1239.91	166.682
1243.56	50.787
1247.2	21.448
1250.85	46.178
1254.49	72.113
1258.13	113.639
1261.78	189.229
1265.41	193.573
1269.05	100.562
1272.69	53.19
1276.32	48.325
1279.95	33.043
1283.59	42.864
1287.21	26.139
1290.84	139.996
1294.47	103.816
1298.09	126.127
1301.72	75.294
1305.34	36.591
1308.96	56.893
1312.58	84.587
1316.19	1.555
1319.81	24.516
1323.42	124.125
1327.03	168.533
1330.64	143.731
1334.25	56.706
1337.86	55.485
1341.46	1.943
1345.07	46.563
1348.67	54.235
1352.27	35.741
1355.87	99.58
1359.46	153.508
1363.06	161.243
1366.65	213.842
1370.25	209.369
1373.84	73.103
1377.43	75.998
1381.02	17.755
1384.6	75.322
1388.18	101.825
1391.77	165.47
1395.35	220.85
1398.93	258.992
1402.51	299.2
1406.08	231.882
1409.66	170.105
1413.23	131.66
1416.8	116.491
1420.37	123.412
1423.94	117.054
1427.51	117.224
1431.08	211.8
1434.64	317.068
1438.2	286.833
1441.76	298.695
1445.32	309.246
1448.88	256.989
1452.43	157.469
1455.99	97.027
1459.54	10.212
1463.09	82.358
1466.64	87.828
1470.19	214.692
1473.74	255.629
1477.28	284.146
1480.83	375.296
1484.37	337.634
1487.91	234.617
1491.45	230.016
1494.98	114.467
1498.52	3.829
1502.05	28.968
1505.59	45.432
1509.12	119.42
1512.65	99.593
1516.17	199.341
1519.7	0
