Measurement: Raman, 514 nm, depolarized, Raman Data Processed
Mineral: Lazulite
Rruff sample: R060494
Ideal chemistry: MgAl_2_(PO_4_)_2_(OH)_2_
Locality: Champion mine, White Mountains, Mono County, California, USA
Source: Michael Scott
Description: Dark-blue coarsely crystalline mass
Measured chemistry: (Mg_0.67_Fe^2+^_0.33_)_Î£=1_Al_2.00_(P_1.00_O_4_)_2_(OH)_2_
Pin_id: M01822
Orientation: Laser parallel to a* (1 0 0). Fiducial mark perpendicular to laser is parallel to b [0 1 0]
Raman shift (cm-1)	intensity
145.622	0
150.544	5.41797
155.463	48.8066
160.38	87.2002
165.294	496.445
170.205	1085.31
175.114	1630.53
180.02	2153.29
184.923	4837.08
189.824	14513.4
194.722	11685.8
199.618	3504.44
204.51	1589.16
209.4	666.639
214.288	829.255
219.173	1216.31
224.055	1754.84
228.935	787.734
233.812	326.47
238.686	451.244
243.558	797.102
248.427	2301.57
253.293	5863.96
258.157	3016.11
263.018	1172.75
267.876	867.752
272.732	1267.13
277.585	2394.9
282.436	3249.14
287.284	1440.89
292.129	250.164
296.971	8.22266
301.811	174.366
306.649	197.844
311.483	129.056
316.316	594.736
321.145	1427.03
325.972	1502.81
330.796	1961.98
335.617	3214.27
340.436	5012.57
345.253	7896.95
350.066	5869.46
354.877	3024.27
359.686	1922.52
364.491	1936.58
369.294	2797.24
374.095	4800.77
378.893	6235.21
383.688	3776.99
388.48	1942.11
393.27	1158.55
398.058	770.299
402.842	1294.51
407.624	3454.39
412.404	9755.13
417.181	4778.64
421.955	1450.89
426.726	1455.55
431.495	639.469
436.261	105.651
441.025	112.29
445.786	35.8174
450.545	70.4062
455.3	275.275
460.053	813.805
464.804	1194.57
469.552	1698.57
474.297	3551.79
479.04	4414.23
483.78	1969.89
488.517	482.769
493.252	176.879
497.984	81.2041
502.714	120.715
507.441	301.402
512.165	269.31
516.887	354.447
521.606	472.891
526.322	586.574
531.036	649.51
535.748	633.696
540.456	713.311
545.162	448.435
549.866	236.477
554.566	331.736
559.265	266.703
563.96	415.848
568.653	589.947
573.343	624.31
578.031	844.71
582.716	573.286
587.399	336.795
592.078	399.008
596.756	824.295
601.43	1989.63
606.102	3780.99
610.772	5575.39
615.439	6210.87
620.103	5504.57
624.764	5738.44
629.423	6750.78
634.08	7871.75
638.734	7727.81
643.385	7592.61
648.033	6312.92
652.679	3640.42
657.323	1865.93
661.963	947.41
666.602	657.683
671.237	369.233
675.87	302.377
680.5	67.7041
685.128	34.083
689.753	98.2773
694.376	94.9238
698.996	77.333
703.613	245.438
708.228	202.537
712.84	351.22
717.449	623.57
722.056	814.61
726.661	1198.52
731.262	1689.29
735.862	2691.69
740.458	3421.3
745.052	3587.61
749.643	2665.81
754.232	1577.61
758.818	1065.95
763.402	555.652
767.983	538.448
772.561	517.878
777.137	344.15
781.71	572.002
786.281	448.144
790.849	386.874
795.414	457.507
799.977	363.844
804.538	353.725
809.095	253.059
813.65	370.083
818.203	391.974
822.753	378.738
827.3	172.758
831.845	357.479
836.387	289.157
840.926	199.922
845.463	304.62
849.998	388.617
854.53	485.132
859.059	242.175
863.585	317.748
868.109	268.856
872.631	182.505
877.15	67.6963
881.666	109.393
886.18	68.5147
890.691	21.915
895.2	32.5898
899.706	147.894
904.209	66.7578
908.71	13.7637
913.208	62.7148
917.704	51.8574
922.197	113.789
926.687	0.589844
931.175	149.121
935.661	15.5605
940.144	6.42578
944.624	33.3281
949.102	115.157
953.577	163.693
958.049	7.75293
962.519	58.668
966.986	214.917
971.451	58.8945
975.914	398.746
980.373	462.558
984.83	794.219
989.285	1220.47
993.737	1915.76
998.186	2707.08
1002.63	3055.52
1007.08	2965.08
1011.52	3260.65
1015.96	4014.88
1020.39	3429.13
1024.83	2776.62
1029.26	2316.38
1033.69	2365.63
1038.12	3269.72
1042.54	4817.28
1046.96	9088.94
1051.38	17947.2
1055.8	29432.6
1060.21	26354.1
1064.62	13333.8
1069.03	6193.16
1073.43	3869.46
1077.84	3416.52
1082.24	3445.41
1086.64	4175.98
1091.03	5752.58
1095.42	8584.33
1099.82	11064
1104.2	8309.08
1108.59	4608.6
1112.97	3010.17
1117.35	2574.13
1121.73	2493.95
1126.11	3007.34
1130.48	4362.18
1134.85	6435.38
1139.21	5654.16
1143.58	3566.91
1147.94	2299.55
1152.3	1954.9
1156.66	1699.98
1161.01	1380.67
1165.37	1244.37
1169.72	1295.72
1174.06	1096.94
1178.41	812.757
1182.75	1027.6
1187.09	815.96
1191.43	745.525
1195.76	629.597
1200.09	484.255
1204.42	820.723
1208.75	870.822
1213.07	935.124
1217.39	732.672
1221.71	766.583
1226.03	526.903
1230.35	282.998
1234.66	225.314
1238.97	85.9209
1243.27	3.43066
1247.58	105.244
1251.88	39.0068
1256.18	10.6055
1260.47	138.189
1264.77	33.332
1269.06	16.9971
1273.35	45.3662
1277.63	19.6699
1281.92	37.459
1286.2	94.2773
1290.48	22.7432
1294.75	123.559
1299.03	31.6348
1303.3	18.8525
1307.57	161.936
1311.83	78.2734
1316.1	23.0771
1320.36	212.83
1324.62	184.162
1328.87	192.171
1333.12	33.0879
1337.38	112.367
1341.62	12.4346
1345.87	55.9727
1350.11	45.0781
1354.35	138.794
1358.59	196.185
1362.83	146.329
1367.06	297.094
1371.29	342.875
1375.52	223.486
1379.75	254.299
1383.97	188.83
1388.19	265.304
1392.41	253.343
1396.62	197.155
1400.84	125.352
1405.05	392.524
1409.26	264.178
1413.46	106.881
1417.66	337.849
1421.86	242.382
1426.06	348.555
1430.26	165.418
1434.45	237.395
1438.64	331.772
1442.83	357.167
1447.02	188.266
1451.2	325.163
1455.38	333.548
1459.56	259.053
1463.73	126.995
1467.9	384.205
1472.08	178.876
1476.24	191.483
1480.41	235.461
1484.57	43.9668
1488.73	260.808
1492.89	247.744
1497.05	191.769
1501.2	134.634
1505.35	139.161
1509.5	140.685
1513.64	289.122
1517.79	143.227
1521.93	79.9814
1526.06	86.1025
1530.2	211.219
1534.33	102.434
1538.46	0
