Measurement: Raman, 514 nm, depolarized, Raman Data Processed
Mineral: Lazulite
Rruff sample: R060494
Ideal chemistry: MgAl_2_(PO_4_)_2_(OH)_2_
Locality: Champion mine, White Mountains, Mono County, California, USA
Source: Michael Scott
Description: Dark-blue coarsely crystalline mass
Measured chemistry: (Mg_0.67_Fe^2+^_0.33_)_Î£=1_Al_2.00_(P_1.00_O_4_)_2_(OH)_2_
Pin_id: M01007
Orientation: Laser parallel to c* (0 0 1). Fiducial mark perpendicular to laser is parallel to -a [-1 0 0]
Raman shift (cm-1)	intensity
140.698	0
145.622	5.19141
150.544	63.2978
155.463	153.847
160.38	288.881
165.294	1661.8
170.205	2677.65
175.114	4174
180.02	4978.99
184.923	11544
189.824	17368.2
194.722	14706.6
199.618	4514.09
204.51	2776.39
209.4	2442.63
214.288	4095.67
219.173	6401.51
224.055	7563.68
228.935	3704.44
233.812	1654.1
238.686	1553.42
243.558	2987.06
248.427	5532.76
253.293	9100.33
258.157	5502.2
263.018	2142.08
267.876	1473
272.732	1569.99
277.585	1807.11
282.436	2018.52
287.284	672.979
292.129	154.844
296.971	384.853
301.811	209.551
306.649	169.414
311.483	549.024
316.316	1416.9
321.145	2692.04
325.972	3326.28
330.796	4238.93
335.617	6768.8
340.436	9905.06
345.253	12343.9
350.066	9258.27
354.877	5320.4
359.686	3880.29
364.491	3696.11
369.294	4385.35
374.095	5632.37
378.893	5706.65
383.688	3584.16
388.48	2001.87
393.27	1512.78
398.058	1228.86
402.842	1996.2
407.624	4562.38
412.404	7254.76
417.181	2823.25
421.955	358.16
426.726	276.257
431.495	157.542
436.261	129.545
441.025	119.745
445.786	77.9277
450.545	0.587891
455.3	519.447
460.053	1528.91
464.804	2874.47
469.552	5578.13
474.297	9012.88
479.04	9130.76
483.78	4450.77
488.517	1398.93
493.252	498.262
497.984	353.765
502.714	601.455
507.441	876.354
512.165	1156.55
516.887	1451.1
521.606	1376.01
526.322	1504.28
531.036	1273.9
535.748	966.876
540.456	710.418
545.162	382.021
549.866	231.63
554.566	173.888
559.265	319.149
563.96	767.958
568.653	1037.81
573.343	1615.85
578.031	2052.11
582.716	1692.6
587.399	571.198
592.078	498.617
596.756	1770.44
601.43	3906.45
606.102	5673.23
610.772	5218.36
615.439	4621.19
620.103	3999.44
624.764	4295.08
629.423	5071.06
634.08	5609.3
638.734	5904.11
643.385	6843.16
648.033	6317.44
652.679	4136.17
657.323	2321.99
661.963	1444.89
666.602	1258.07
671.237	566.516
675.87	326.04
680.5	0.445313
685.128	183.249
689.753	241.291
694.376	136.06
698.996	143.282
703.613	376.847
708.228	869.419
712.84	1223.09
717.449	1477.99
722.056	1908.43
726.661	2781.34
731.262	3991.48
735.862	5839.78
740.458	7128.19
745.052	7037.93
749.643	5048.51
754.232	2991.47
758.818	2079.44
763.402	1376.22
767.983	1279.07
772.561	1018.53
777.137	810.346
781.71	740.843
786.281	734.698
790.849	631.644
795.414	670.293
799.977	593.394
804.538	550.676
809.095	478.394
813.65	619.521
818.203	392.401
822.753	389.29
827.3	306.747
831.845	230.099
836.387	428.532
840.926	154.832
845.463	75.5127
849.998	282.41
854.53	237.573
859.059	196.015
863.585	201.735
868.109	172.715
872.631	110.928
877.15	83.334
881.666	63.7607
886.18	137.323
890.691	132.013
895.2	24.251
899.706	79.4238
904.209	42.5625
908.71	19.5752
913.208	65.793
917.704	6.11035
922.197	95.8086
926.687	137.894
931.175	123.671
935.661	118.307
940.144	17.5137
944.624	64.6133
949.102	52.5361
953.577	51.0518
958.049	80.5361
962.519	106.717
966.986	211.631
971.451	49.291
975.914	28.8799
980.373	408.533
984.83	569.095
989.285	848.437
993.737	1363.15
998.186	1862.93
1002.63	2583.29
1007.08	2639.97
1011.52	3036.5
1015.96	3269.28
1020.39	3438.81
1024.83	3463.62
1029.26	3475.33
1033.69	3648.4
1038.12	4547.73
1042.54	7171.08
1046.96	13456.3
1051.38	25071.5
1055.8	35444.5
1060.21	29502
1064.62	15289.9
1069.03	8046.1
1073.43	5498.17
1077.84	4383.47
1082.24	4173.06
1086.64	4446.97
1091.03	5615.85
1095.42	8264.98
1099.82	9660.88
1104.2	7191.28
1108.59	5029.42
1112.97	4392.78
1117.35	4032.47
1121.73	4319.24
1126.11	5678.89
1130.48	6769.08
1134.85	9309.28
1139.21	8787.73
1143.58	6699.98
1147.94	5540.03
1152.3	4866.46
1156.66	4378.46
1161.01	4138.64
1165.37	4197.19
1169.72	4031.5
1174.06	4236.56
1178.41	4194.69
1182.75	3908.84
1187.09	2970.83
1191.43	2416.82
1195.76	2096.5
1200.09	1851.85
1204.42	2260.78
1208.75	2525.72
1213.07	2377.51
1217.39	2377.31
1221.71	2059.86
1226.03	1572.78
1230.35	934.391
1234.66	618.819
1238.97	223.42
1243.27	224.387
1247.58	111.256
1251.88	53.7764
1256.18	39.0322
1260.47	53.5635
1264.77	122.451
1269.06	51.4414
1273.35	14.0967
1277.63	58.5176
1281.92	3.28516
1286.2	40.4121
1290.48	20.7988
1294.75	80.4785
1299.03	57.6211
1303.3	70.8359
1307.57	44.6025
1311.83	138.923
1316.1	61.0391
1320.36	345.66
1324.62	102.097
1328.87	68.3018
1333.12	107.215
1337.38	430.111
1341.62	32.2139
1345.87	206.216
1350.11	200.903
1354.35	31.5234
1358.59	239.388
1362.83	466.987
1367.06	113.567
1371.29	349.628
1375.52	82.5547
1379.75	163.797
1383.97	456.781
1388.19	282.966
1392.41	291.793
1396.62	256.116
1400.84	215.285
1405.05	300.5
1409.26	244.576
1413.46	217.988
1417.66	279.92
1421.86	35.1641
1426.06	204.283
1430.26	105.006
1434.45	60.5254
1438.64	225.557
1442.83	255.092
1447.02	234.826
1451.2	250.832
1455.38	250.059
1459.56	383.76
1463.73	344.801
1467.9	218.391
1472.08	114.012
1476.24	323.508
1480.41	198.113
1484.57	46.4258
1488.73	6.60156
1492.89	251.18
1497.05	251.051
1501.2	186.557
1505.35	42.6465
1509.5	111.906
1513.64	191.514
1517.79	173.228
1521.93	246.139
1526.06	176.74
1530.2	114.289
1534.33	0
