Measurement: Raman, 514 nm, depolarized, Raman Data Processed
Mineral: Lazulite
Rruff sample: R060494
Ideal chemistry: MgAl_2_(PO_4_)_2_(OH)_2_
Locality: Champion mine, White Mountains, Mono County, California, USA
Source: Michael Scott
Description: Dark-blue coarsely crystalline mass
Measured chemistry: (Mg_0.67_Fe^2+^_0.33_)_Î£=1_Al_2.00_(P_1.00_O_4_)_2_(OH)_2_
Pin_id: M01648
Orientation: Laser parallel to b* (0 1 0). Fiducial mark perpendicular to laser is parallel to c [0 0 1]
Raman shift (cm-1)	intensity
161.609	0
166.522	27.9995
171.433	507.206
176.341	399.544
181.246	827.374
186.149	1707.3
191.049	3198.7
195.946	2764.5
200.841	2152.69
205.733	1975.25
210.623	1756.43
215.509	1719.81
220.394	1723.33
225.275	1576.56
230.154	814.175
235.03	466.928
239.904	414.543
244.775	785.909
249.643	956.49
254.509	1658.19
259.372	790.863
264.233	495.368
269.09	304.576
273.946	411.283
278.798	862.294
283.648	858.609
288.495	257.509
293.34	15.9463
298.182	90.1162
303.021	119.977
307.858	2.04688
312.692	104.554
317.523	172.241
322.352	458.246
327.178	165.256
332.002	197.848
336.822	140.784
341.641	274.961
346.456	382.119
351.269	329.088
356.079	641.36
360.887	373.158
365.692	246.935
370.495	335.716
375.294	565.53
380.092	578.315
384.886	214.079
389.678	212.001
394.467	171.309
399.254	284.753
404.038	834.539
408.819	2299.98
413.598	4283.29
418.374	1449.42
423.148	602.55
427.919	670.828
432.687	433.036
437.453	388.037
442.216	335.194
446.976	506.748
451.734	1086.62
456.489	3189.54
461.241	5573.49
465.991	6152.55
470.739	3338.68
475.483	2304.86
480.225	1716.09
484.965	807.356
489.701	475.657
494.435	149.995
499.167	206.353
503.896	162.744
508.622	76.1826
513.346	7.3291
518.067	98.1846
522.785	137.76
527.501	139.413
532.214	8.85059
536.925	120.606
541.633	146.546
546.338	79.3584
551.041	179.908
555.741	25.8555
560.439	19.9824
565.134	119.907
569.826	146.808
574.515	181.382
579.203	239.638
583.887	22.0625
588.569	181.025
593.248	149.688
597.925	253.619
602.599	681.686
607.27	848.727
611.939	998.739
616.605	904.715
621.268	747.659
625.929	918.57
630.588	1161.44
635.244	1353.27
639.897	1551.62
644.547	1638.82
649.195	1342.29
653.84	791.125
658.483	537.129
663.123	404.693
667.761	206.2
672.396	5.53711
677.028	75.0996
681.658	3.54297
686.285	35.124
690.909	45.79
695.531	6.21875
700.15	5.47168
704.767	11.7285
709.381	81.2129
713.993	12.1602
718.601	109.011
723.208	77.457
727.811	119.03
732.412	207.467
737.011	337.757
741.607	598.891
746.2	476.869
750.791	234.686
755.379	121.607
759.965	214.726
764.547	113.321
769.128	127.585
773.706	111.641
778.281	146.715
782.853	164.564
787.423	30.8193
791.991	197.277
796.555	191.408
801.118	178.583
805.677	218.577
810.234	301.264
814.789	228.285
819.34	259.004
823.89	7.31543
828.436	160.423
832.98	124.186
837.522	168.434
842.061	194.477
846.597	304.163
851.131	138.127
855.662	298.446
860.191	294.288
864.717	368.7
869.24	324.929
873.761	361.974
878.279	248.838
882.795	181.522
887.308	258.03
891.818	123.362
896.326	177.505
900.832	72.4658
905.334	295.25
909.835	95.8731
914.332	51.3301
918.827	192.135
923.32	96.085
927.81	271.006
932.297	175.282
936.782	34.749
941.264	180.05
945.744	11.8662
950.221	124.814
954.695	39.748
959.167	109.223
963.636	211.673
968.103	13.5176
972.567	54.8516
977.029	5.54688
981.488	137.438
985.944	338.356
990.398	343.278
994.849	571.394
999.298	733.639
1003.74	1004.83
1008.19	626.962
1012.63	590.054
1017.07	724.104
1021.5	642.121
1025.94	628.842
1030.37	544.181
1034.8	688.44
1039.22	857.694
1043.64	1399.56
1048.07	2721.04
1052.48	5145
1056.9	7145.16
1061.31	5417.95
1065.72	2741.92
1070.13	1281.35
1074.54	1006.49
1078.94	1045.4
1083.34	1132.77
1087.73	1304.71
1092.13	1177.59
1096.52	1648.78
1100.91	2106.78
1105.3	1126.6
1109.68	721.606
1114.07	288.685
1118.45	573.159
1122.82	616.291
1127.2	977.014
1131.57	1252.61
1135.94	1992.34
1140.31	1224.63
1144.67	890.194
1149.03	500.337
1153.39	499.633
1157.75	559.079
1162.1	353.684
1166.45	302.446
1170.8	307.368
1175.15	449.446
1179.49	533.692
1183.84	222.103
1188.17	225.711
1192.51	47.4902
1196.84	154.49
1201.18	220.701
1205.5	208.092
1209.83	65.7305
1214.15	219.723
1218.47	70.8711
1222.79	127.578
1227.11	66.5625
1231.42	24.7793
1235.73	77.2598
1240.04	37.3867
1244.35	120.314
1248.65	61.3672
1252.95	188.482
1257.25	76.209
1261.55	89.8945
1265.84	165.762
1270.13	166.719
1274.42	74.0234
1278.7	150.492
1282.99	198.022
1287.27	4.69727
1291.55	93.5176
1295.82	103.475
1300.1	237.57
1304.37	168.846
1308.63	327.238
1312.9	282.781
1317.16	250.473
1321.42	392.309
1325.68	134.293
1329.93	210.397
1334.19	93.5781
1338.44	166.898
1342.69	242.361
1346.93	117.973
1351.17	211.428
1355.41	226.965
1359.65	263.438
1363.89	75.5234
1368.12	158.385
1372.35	123.762
1376.58	329.701
1380.8	171.617
1385.03	128.916
1389.24	119.344
1393.46	258.295
1397.68	67.8262
1401.89	160.615
1406.1	119.053
1410.31	119.356
1414.51	137.35
1418.71	107.172
1422.91	107.555
1427.11	185.994
1431.31	142.197
1435.5	218.537
1439.69	271.01
1443.88	269.606
1448.06	458.322
1452.24	490.102
1456.42	416.16
1460.6	331.096
1464.78	162.09
1468.95	238.231
1473.12	209.613
1477.29	269.258
1481.45	247.955
1485.61	325.998
1489.77	53.3672
1493.93	210.137
1498.08	99.2715
1502.24	20.8906
1506.39	111.475
1510.53	119.699
1514.68	198.635
1518.82	96.7266
1522.96	324.789
1527.1	149.234
1531.23	29.9414
1535.37	146.184
1539.49	145.332
1543.62	107.055
1547.75	0
