Measurement: Raman, 514 nm, depolarized, Raman Data Processed
Mineral: Lazulite
Rruff sample: R050110
Ideal chemistry: MgAl_2_(PO_4_)_2_(OH)_2_
Locality: Rapid Creek, Yukon Territory, Canada
Source: Rock Currier
Description: Azure-blue stubby crystals with complex terminations
Measured chemistry: (Mg_0.84_Fe_0.16_)Al_2.00_(P_1.00_O_4_)_2_(OH)_2_
Pin_id: L00379
Orientation: Laser parallel to -c* (0 0 -1). Fiducial mark perpendicular to laser is parallel to a [1 0 0]
Raman shift (cm-1)	intensity
81.521	0
85.706	66.221
89.89	1086.33
94.071	2443.28
98.251	11740.1
102.428	14813.5
106.604	4220.44
110.777	2061.9
114.949	1672.09
119.119	755.859
123.286	765.709
127.452	454.318
131.615	401.309
135.777	221.222
139.937	250.247
144.094	32.521
148.25	25.669
152.403	119.477
156.555	60.868
160.705	80.758
164.853	199.575
168.998	1559.91
173.142	4497.13
177.284	2231.74
181.424	1824.22
185.562	8297.04
189.698	27060.8
193.831	22006.1
197.963	5496.25
202.093	1535.65
206.221	633.166
210.347	389.335
214.472	432.646
218.594	1379.14
222.714	4257.69
226.832	5087.23
230.948	1294.58
235.063	24.269
239.175	181.229
243.286	12.448
247.394	1253.03
251.501	5274.92
255.605	8917.5
259.708	2886.03
263.808	1070.95
267.907	796.808
272.004	1253.47
276.099	3185.24
280.192	7582.73
284.283	8828.03
288.372	3878.82
292.459	1235.57
296.544	381.402
300.627	33.425
304.709	62.645
308.788	114.261
312.865	672.52
316.941	2854.63
321.015	8190.51
325.086	6942.42
329.156	3504.81
333.224	3281.9
337.29	4915.06
341.354	10030.4
345.416	18393.9
349.476	14979.8
353.534	7002.95
357.591	3558.15
361.645	2544.79
365.698	2597.22
369.748	3600.85
373.797	6800.36
377.844	10968.1
381.889	8343.64
385.932	3534.08
389.973	1835.66
394.012	1277.55
398.049	779.101
402.084	488.312
406.118	1173.68
410.15	6693.61
414.179	16731.1
418.207	5382.21
422.233	2945.94
426.257	6142.31
430.279	5518.34
434.299	1925.08
438.318	834.527
442.334	615.727
446.349	524.71
450.361	766.526
454.372	1263.19
458.381	2270.09
462.388	2820.44
466.394	2587.35
470.397	2930.8
474.398	5413.01
478.398	8893.44
482.396	5936.08
486.391	2237.04
490.385	889.138
494.377	446.166
498.368	263.096
502.356	4.91
506.342	147.502
510.327	133.587
514.31	100.417
518.291	29.841
522.27	127.342
526.247	217.87
530.222	321.683
534.196	519.49
538.167	786.949
542.137	623.449
546.105	328.294
550.071	63.042
554.035	24.363
557.998	48.011
561.958	0.566
565.917	100.207
569.874	246.948
573.829	629.701
577.782	1668.54
581.733	1949.43
585.683	1054.43
589.63	584.504
593.576	662.617
597.52	1196.77
601.462	2607.93
605.402	4649.07
609.341	4812.17
613.277	5328.23
617.212	4370.21
621.145	4467.12
625.076	5196.11
629.006	6011.2
632.933	6666.24
636.859	5432.17
640.783	4518.65
644.705	4923.62
648.625	5330.14
652.543	3720.51
656.46	2153.73
660.375	1227.64
664.288	766.445
668.199	503.339
672.108	289.198
676.016	120.864
679.921	27.159
683.825	23.408
687.727	46.265
691.628	6.834
695.526	56.643
699.423	122.924
703.318	286.277
707.211	422.952
711.102	664.699
714.992	1012.72
718.879	1358.03
722.765	2038.92
726.649	3089.9
730.532	4773.18
734.412	7317.38
738.291	10869.7
742.168	13079.3
746.043	11027.3
749.916	7320
753.788	4683.34
757.658	3071.37
761.526	2171.22
765.392	1518.38
769.257	1150.65
773.119	914.039
776.98	684.97
780.839	532.749
784.697	494.25
788.552	394.535
792.406	369.603
796.258	295.456
800.108	276.095
803.957	239.522
807.804	194.738
811.649	169.744
815.492	131.56
819.333	60.29
823.173	49.127
827.011	31.036
830.847	55.936
834.681	7.292
838.514	67.457
842.345	68.748
846.174	7.035
850.001	56.452
853.827	105.578
857.651	68.821
861.473	138.872
865.293	83.794
869.112	64.659
872.928	26.53
876.744	24.053
880.557	48.585
884.369	50.7
888.178	96.321
891.987	72.483
895.793	59.173
899.598	9.328
903.401	23.887
907.202	24.841
911.001	32.106
914.799	29.642
918.595	1.429
922.389	23.597
926.182	84.511
929.972	88.337
933.761	59.081
937.549	91.75
941.334	126.351
945.118	158.89
948.9	192.372
952.681	241.804
956.459	212.191
960.236	211.539
964.012	306.853
967.785	327.884
971.557	399.577
975.327	466.705
979.095	586.72
982.862	663.959
986.627	955.268
990.39	1224.62
994.152	1605.87
997.912	2203.08
1001.67	3139.51
1005.43	3704.55
1009.18	3938.12
1012.93	4839.79
1016.68	6990.66
1020.43	7593.56
1024.18	5658.35
1027.93	4428.23
1031.67	4049.99
1035.42	4310.48
1039.16	5117.31
1042.9	6622.35
1046.63	9758.47
1050.37	16369.4
1054.11	30648.5
1057.84	53911.9
1061.57	58488.1
1065.3	32371.1
1069.03	15136.1
1072.75	8519.46
1076.47	5811.51
1080.2	4628.91
1083.92	4340.44
1087.64	4723.22
1091.36	5451.19
1095.07	5524.34
1098.79	5914.68
1102.5	6254.19
1106.21	4748.88
1109.92	3462.74
1113.62	2939.79
1117.33	3052.55
1121.04	3599.96
1124.74	4762.62
1128.44	6607.97
1132.14	11515.4
1135.83	19600.5
1139.53	19373.5
1143.22	11640.1
1146.92	6717.39
1150.61	4455.19
1154.3	3227.78
1157.98	2586.53
1161.67	2066.97
1165.35	1838.15
1169.04	1631.29
1172.72	1553.53
1176.4	1515.86
1180.07	1425.76
1183.75	1270.61
1187.42	1018.16
1191.1	791.785
1194.77	618.475
1198.44	526.287
1202.1	505.892
1205.77	620.545
1209.43	718.615
1213.1	716.127
1216.76	666.83
1220.42	552.1
1224.07	532.823
1227.73	451.948
1231.38	372.556
1235.04	261.544
1238.69	172.024
1242.34	94.967
1245.99	101.998
1249.63	91.133
1253.28	32.906
1256.92	30.956
1260.56	8.51
1264.2	39.35
1267.84	35.26
1271.48	3.534
1275.11	27.081
1278.74	50.843
1282.38	11.999
1286.01	0.355
1289.63	13.74
1293.26	16.144
1296.89	26.24
1300.51	7.987
1304.13	5.698
1307.75	16.177
1311.37	26.625
1314.99	25.867
1318.6	37.568
1322.22	37.462
1325.83	12.45
1329.44	2.8
1333.05	24.2
1336.66	23.186
1340.26	51.376
1343.87	43.418
1347.47	18.74
1351.07	33.908
1354.67	51.391
1358.27	41.719
1361.86	16.903
1365.46	53.94
1369.05	46.846
1372.64	42.768
1376.23	41.396
1379.82	32.895
1383.41	50.04
1386.99	40.574
1390.57	47.999
1394.16	67.69
1397.74	67.138
1401.32	86.535
1404.89	106.755
1408.47	73.166
1412.04	90.775
1415.61	118.925
1419.18	87.709
1422.75	96.942
1426.32	75.997
1429.89	49.012
1433.45	52.594
1437.01	29.742
1440.58	61.087
1444.13	22.692
1447.69	104.615
1451.25	96.382
1454.81	78.614
1458.36	50.373
1461.91	78.154
1465.46	55.522
1469.01	28.216
1472.56	18.138
1476.1	49.209
1479.64	55.906
1483.19	62.489
1486.73	142.843
1490.27	97.333
1493.81	61.925
1497.34	58.735
1500.88	78.621
1504.41	50.32
1507.94	32.018
1511.47	2.931
1515	7.541
1518.53	0
