Measurement: Raman, 514 nm, depolarized, Raman Data Processed
Mineral: Lazulite
Rruff sample: R050110
Ideal chemistry: MgAl_2_(PO_4_)_2_(OH)_2_
Locality: Rapid Creek, Yukon Territory, Canada
Source: Rock Currier
Description: Azure-blue stubby crystals with complex terminations
Measured chemistry: (Mg_0.84_Fe_0.16_)Al_2.00_(P_1.00_O_4_)_2_(OH)_2_
Pin_id: L00348
Orientation: Laser parallel to a* (1 0 0). Fiducial mark perpendicular to laser is parallel to b [0 1 0]
Raman shift (cm-1)	intensity
81.521	0
85.706	285.625
89.89	1840.25
94.071	1795.35
98.251	6608.14
102.428	7870.9
106.604	2380.34
110.777	3417.03
114.949	2174.2
119.119	1595
123.286	2028.83
127.452	1574.19
131.615	1609.86
135.777	1093.71
139.937	491.624
144.094	70.316
148.25	77.146
152.403	35.721
156.555	94.762
160.705	192.76
164.853	503.368
168.998	1057.44
173.142	1994.62
177.284	983.726
181.424	891.064
185.562	4800.88
189.698	15650.7
193.831	12192
197.963	3616.73
202.093	865.925
206.221	251.754
210.347	190.435
214.472	501.121
218.594	1861.79
222.714	5352.66
226.832	4885.36
230.948	924.565
235.063	329.332
239.175	572.083
243.286	344.457
247.394	636.357
251.501	4686.26
255.605	7478.5
259.708	2080.24
263.808	674.667
267.907	327.86
272.004	604.609
276.099	1376.08
280.192	3344.33
284.283	3750.85
288.372	1831.36
292.459	611.116
296.544	376.886
300.627	231.066
304.709	158.897
308.788	192.314
312.865	451.905
316.941	1291.9
321.015	2794.34
325.086	2240.25
329.156	1204.93
333.224	991.053
337.29	1106.26
341.354	1634.85
345.416	2630.02
349.476	2340.99
353.534	1586.51
357.591	1293.11
361.645	1355.85
365.698	1664.73
369.748	2536.45
373.797	4575.19
377.844	7390.38
381.889	5926.98
385.932	3249.82
389.973	2407.23
394.012	2293.06
398.049	1716.03
402.084	1432.31
406.118	2574.48
410.15	10954.8
414.179	22764
418.207	6723.96
422.233	2878.28
426.257	3818.73
430.279	2850.95
434.299	1146.94
438.318	580.501
442.334	435.01
446.349	411.182
450.361	475.28
454.372	660.597
458.381	1124.47
462.388	1520.16
466.394	1517.28
470.397	1934.63
474.398	3973.48
478.398	6201.9
482.396	3915.76
486.391	1551.73
490.385	632.087
494.377	350.471
498.368	237.117
502.356	66.407
506.342	38.763
510.327	63.618
514.31	117.693
518.291	151.123
522.27	229.526
526.247	353.801
530.222	518.271
534.196	614.929
538.167	794.952
542.137	664.809
546.105	518.898
550.071	349.505
554.035	331.388
557.998	320.223
561.958	303.425
565.917	384.244
569.874	499.508
573.829	617.678
577.782	862.647
581.733	827.444
585.683	682.176
589.63	415.07
593.576	527.117
597.52	803.222
601.462	1638.52
605.402	3045.23
609.341	4781.85
613.277	6594.78
617.212	6124.51
621.145	6706.83
625.076	6873.61
629.006	6769.17
632.933	7635.86
636.859	7433.7
640.783	7551.46
644.705	9411.08
648.625	9439.81
652.543	5845.35
656.46	3022.52
660.375	1670.8
664.288	958.967
668.199	597.778
672.108	334.306
676.016	145.583
679.921	13.173
683.825	26.291
687.727	119.012
691.628	123.789
695.526	95.769
699.423	135.815
703.318	82.502
707.211	6.508
711.102	56.435
714.992	144.254
718.879	185.51
722.765	285.457
726.649	521.924
730.532	844.135
734.412	1435.04
738.291	2129.09
742.168	2577.02
746.043	2240.16
749.916	1421.87
753.788	886.716
757.658	532.85
761.526	381.932
765.392	274.887
769.257	235.926
773.119	187.326
776.98	120.85
780.839	164.978
784.697	188.79
788.552	183.288
792.406	175.467
796.258	178.325
800.108	159.864
803.957	166.082
807.804	168.99
811.649	115.614
815.492	96.5
819.333	122.004
823.173	120.794
827.011	112.323
830.847	127.056
834.681	137.732
838.514	87.652
842.345	113.757
846.174	107.492
850.001	49.365
853.827	90.496
857.651	136.733
861.473	39.613
865.293	125.157
869.112	65.133
872.928	41.648
876.744	6.23
880.557	2.624
884.369	15.941
888.178	51.953
891.987	35.392
895.793	34.227
899.598	14.442
903.401	36.469
907.202	48.851
911.001	31.08
914.799	0.449
918.595	17.774
922.389	26.485
926.182	78.395
929.972	112.901
933.761	41.546
937.549	29.499
941.334	105.321
945.118	103.003
948.9	134.66
952.681	103.164
956.459	186.503
960.236	186.82
964.012	250.822
967.785	272.254
971.557	343.836
975.327	461.593
979.095	559.033
982.862	716.263
986.627	935.708
990.39	1277.68
994.152	1840.26
997.912	2489.72
1001.67	3487.49
1005.43	3793.11
1009.18	3473.49
1012.93	3803.82
1016.68	5133.56
1020.43	5404.43
1024.18	4067.97
1027.93	3188.32
1031.67	2946.28
1035.42	3159.92
1039.16	3758.71
1042.9	5029.34
1046.63	7380.08
1050.37	12562.6
1054.11	23586
1057.84	40910.8
1061.57	42003.9
1065.3	22812.9
1069.03	10931.4
1072.75	6479.43
1076.47	4623.98
1080.2	4011.3
1083.92	4126.89
1087.64	4915.67
1091.36	6002.63
1095.07	7736.8
1098.79	11447.2
1102.5	13421.8
1106.21	9282.54
1109.92	5339.53
1113.62	3523.71
1117.33	2829.14
1121.04	2766.81
1124.74	3123.73
1128.44	3847.92
1132.14	5885.31
1135.83	9221.32
1139.53	8669.33
1143.22	5332.71
1146.92	3315.82
1150.61	2403.83
1154.3	1847.52
1157.98	1624.03
1161.67	1466.22
1165.35	1365.91
1169.04	1402.41
1172.72	1462.59
1176.4	1625.76
1180.07	1693.89
1183.75	1516.16
1187.42	1150.16
1191.1	806.485
1194.77	614.753
1198.44	497.092
1202.1	473.792
1205.77	467.725
1209.43	610.727
1213.1	667.944
1216.76	663.265
1220.42	593.892
1224.07	634.019
1227.73	490.094
1231.38	360.726
1235.04	281.318
1238.69	175.705
1242.34	116.808
1245.99	70.216
1249.63	61.553
1253.28	72.679
1256.92	21.142
1260.56	35.11
1264.2	60.116
1267.84	64.896
1271.48	32.39
1275.11	17.714
1278.74	13.988
1282.38	61.67
1286.01	40.849
1289.63	53.144
1293.26	53.591
1296.89	6.936
1300.51	26.25
1304.13	19.511
1307.75	10.211
1311.37	48.497
1314.99	46.01
1318.6	32.712
1322.22	7.667
1325.83	13.787
1329.44	18.902
1333.05	3.443
1336.66	32.83
1340.26	31.112
1343.87	68.048
1347.47	53.083
1351.07	61.859
1354.67	5.506
1358.27	7.009
1361.86	16.442
1365.46	60.698
1369.05	67.129
1372.64	120.472
1376.23	88.912
1379.82	99.636
1383.41	65.307
1386.99	19.858
1390.57	56.265
1394.16	64.416
1397.74	81.675
1401.32	105.691
1404.89	94.948
1408.47	76.384
1412.04	93.178
1415.61	123.933
1419.18	82.137
1422.75	32.249
1426.32	46.27
1429.89	43.605
1433.45	53.499
1437.01	36.93
1440.58	51.358
1444.13	79.04
1447.69	83.222
1451.25	69.991
1454.81	117.642
1458.36	64.858
1461.91	53.634
1465.46	85.683
1469.01	53.678
1472.56	52.803
1476.1	49.4
1479.64	73.378
1483.19	111.48
1486.73	114.094
1490.27	113.876
1493.81	102.211
1497.34	83.751
1500.88	89.684
1504.41	34.988
1507.94	44.71
1511.47	8.02
