Measurement: Raman, 514 nm, depolarized, Raman Data Processed
Mineral: Lazulite
Rruff sample: R060494
Ideal chemistry: MgAl_2_(PO_4_)_2_(OH)_2_
Locality: Champion mine, White Mountains, Mono County, California, USA
Source: Michael Scott
Description: Dark-blue coarsely crystalline mass
Measured chemistry: (Mg_0.67_Fe^2+^_0.33_)_Î£=1_Al_2.00_(P_1.00_O_4_)_2_(OH)_2_
Pin_id: M01551
Orientation: Laser parallel to (1 0 1). Fiducial mark perpendicular to laser is parallel to b [0 1 0]
Raman shift (cm-1)	intensity
139.466	0
144.391	17.0942
149.314	39.6306
154.234	9.271
159.151	27.3799
164.066	215.01
168.978	534.036
173.887	1200.52
178.794	1396.91
183.698	3821.05
188.599	8005.16
193.498	11196.7
198.394	3422.84
203.287	1097.67
208.178	528.08
213.066	379.896
217.952	558.052
222.835	877.23
227.715	509.557
232.593	187.53
237.468	69.4937
242.34	542.558
247.21	1334.31
252.077	2906.89
256.941	2636.57
261.803	826.059
266.662	608.151
271.518	862.822
276.372	1697.07
281.223	2529.99
286.072	1676.36
290.918	564.861
295.761	106.599
300.602	93.5342
305.44	49.2476
310.275	56.063
315.108	552.331
319.938	1288.44
324.765	1466.31
329.59	1439.81
334.412	2191.88
339.232	3756.46
344.049	5930.55
348.863	5770.11
353.675	2792.56
358.484	1530.18
363.29	1604.08
368.094	2139.69
372.895	3688.08
377.693	5155.42
382.489	3926.51
387.282	1771.53
392.073	1143.89
396.861	882.57
401.646	1146.66
406.429	3636.14
411.209	8427.43
415.987	7854.24
420.761	2113
425.534	1359.06
430.303	992.281
435.07	381.864
439.834	150.806
444.596	94.4981
449.355	131.002
454.112	321.612
458.865	726.668
463.617	875.956
468.365	1166.46
473.111	2020.16
477.854	2545.05
482.595	1768.12
487.333	547.366
492.069	135.77
496.802	8.68604
501.532	53.2456
506.259	2.62744
510.984	11.9326
515.707	62.3574
520.426	6.76953
525.144	107.287
529.858	226.014
534.57	287.703
539.279	283.018
543.986	251.44
548.69	156.015
553.391	94.7002
558.09	59.398
562.786	121.19
567.48	140.363
572.171	110.381
576.859	181.391
581.545	211.384
586.228	280.387
590.909	242.581
595.587	472.855
600.262	800.084
604.935	1854.27
609.605	2965.38
614.272	3935.47
618.937	3815.6
623.599	4113.74
628.259	4501.91
632.916	5112.1
637.57	4781.92
642.222	4440.69
646.871	3811.93
651.518	2413.86
656.162	1182.04
660.803	592.55
665.442	269.787
670.078	150.969
674.712	157.221
679.343	51.3193
683.971	33.209
688.597	77.5713
693.22	2.67871
697.841	13.6977
702.459	60.9492
707.074	194.335
711.687	313.613
716.297	414.724
720.905	642.664
725.51	887.43
730.112	1519.02
734.712	2257.42
739.309	3219.34
743.904	3558.39
748.496	2766.82
753.085	1814.16
757.672	1150.68
762.256	724.78
766.838	547.01
771.417	508.209
775.993	317.609
780.567	311.066
785.139	187.51
789.707	272.657
794.273	98.3037
798.837	222.948
803.398	198.351
807.956	194.787
812.512	207.268
817.065	159.485
821.615	220.875
826.163	233.758
830.709	146.361
835.252	110.736
839.792	110.12
844.329	246.682
848.864	216.053
853.397	213.772
857.927	260.54
862.454	324.179
866.979	310.525
871.501	66.791
876.02	143.949
880.537	66.9106
885.052	40.6943
889.564	39.1343
894.073	58.7734
898.579	40.917
903.083	37.2036
907.585	61.8584
912.084	51.5454
916.58	46.7642
921.074	8.32422
925.565	13.1148
930.054	15.6138
934.54	23.0552
939.023	11.3213
943.504	44.1279
947.982	32.7407
952.458	0.022461
956.931	34.248
961.402	119.53
965.87	54.0073
970.335	99.666
974.798	169.416
979.259	204.181
983.716	283.957
988.171	540.753
992.624	799.615
997.074	1061.57
1001.52	1318.7
1005.97	1472
1010.41	1778.91
1014.85	2624.59
1019.29	2805.64
1023.72	2117.96
1028.15	1590.41
1032.58	1663.72
1037.01	2088.03
1041.43	2919.66
1045.86	5191.48
1050.28	10778
1054.69	19521.1
1059.11	21553.9
1063.52	12528.5
1067.93	5508.93
1072.33	2891.14
1076.74	2112.22
1081.14	2052.29
1085.54	2540.22
1089.93	3519.6
1094.33	4598.13
1098.72	5931.96
1103.11	5505.05
1107.49	3010.39
1111.88	1835.99
1116.26	1460.84
1120.63	1475.93
1125.01	1977.24
1129.38	3021.74
1133.76	4917.4
1138.12	5331.56
1142.49	2938.31
1146.85	1700.66
1151.21	1214.38
1155.57	938.911
1159.93	736.263
1164.28	708.005
1168.63	552.09
1172.98	524.646
1177.32	461.533
1181.66	437.041
1186.01	293.914
1190.34	347.634
1194.68	167.488
1199.01	238.556
1203.34	228.02
1207.67	265.514
1211.99	268.248
1216.32	462.103
1220.63	285.44
1224.95	272.805
1229.27	201.189
1233.58	77.5459
1237.89	24.4414
1242.2	25.9731
1246.5	110.581
1250.8	9.71973
1255.1	3.09033
1259.4	24.7471
1263.69	29.834
1267.99	70.3076
1272.28	53.7808
1276.56	45.9653
1280.85	37.5391
1285.13	19.9336
1289.41	83.3755
1293.68	58.5142
1297.96	37.7773
1302.23	2.00537
1306.5	8.88232
1310.77	83.1118
1315.03	57.0312
1319.29	80.8701
1323.55	48.646
1327.81	83.3179
1332.06	57.877
1336.31	32.376
1340.56	93.7485
1344.81	70.9604
1349.05	44.3887
1353.29	22.666
1357.53	142.664
1361.77	52.793
1366	69.3687
1370.23	95.8149
1374.46	118.165
1378.69	54.7041
1382.91	189.02
1387.13	111.511
1391.35	108.235
1395.57	60.728
1399.78	85.9307
1403.99	6.41113
1408.2	103.031
1412.41	58.874
1416.61	0.212402
1420.82	45.6313
1425.01	66.709
1429.21	85.999
1433.4	117.856
1437.59	46.7578
1441.78	217.894
1445.97	142.185
1450.15	264.413
1454.33	123.034
1458.51	145.25
1462.69	155.42
1466.86	143.075
1471.03	93.2183
1475.2	151.798
1479.37	49.4502
1483.53	144.005
1487.69	125.97
1491.85	81.1714
1496.01	91.6982
1500.16	151.133
1504.31	227.754
1508.46	110.504
1512.61	169.32
1516.75	13.1885
1520.89	150.101
1525.03	18.4639
1529.16	133.215
1533.3	160.016
1537.43	70.0981
1541.56	19.8604
1545.68	174.507
1549.81	132.39
1553.93	12.6709
1558.05	36.2817
1562.16	61.602
1566.28	6.13867
1570.39	146.342
1574.5	39.6392
