Measurement: Raman, 514 nm, depolarized, Raman Data Processed
Mineral: Lazulite
Rruff sample: R050110
Ideal chemistry: MgAl_2_(PO_4_)_2_(OH)_2_
Locality: Rapid Creek, Yukon Territory, Canada
Source: Rock Currier
Description: Azure-blue stubby crystals with complex terminations
Measured chemistry: (Mg_0.84_Fe_0.16_)Al_2.00_(P_1.00_O_4_)_2_(OH)_2_
Pin_id: L00543
Orientation: Laser parallel to (-1 0 -1). Fiducial mark perpendicular to laser is parallel to b [0 1 0]
Raman shift (cm-1)	intensity
80.125	0
84.311	157.535
88.496	401.553
92.678	1890.26
96.858	8113.54
101.036	21330.1
105.212	8374.77
109.387	2433.25
113.559	2161.21
117.729	957.489
121.897	111.404
126.063	39.959
130.228	28.116
134.39	44.671
138.55	92.314
142.709	193.025
146.865	296.011
151.019	311.636
155.171	182.158
159.322	171.76
163.47	411.718
167.617	1537.17
171.761	4890.31
175.904	4746.28
180.044	2231.12
184.183	5210.08
188.319	17144.7
192.454	24562.6
196.586	7237.49
200.717	2215.74
204.846	1478.24
208.972	1433.96
213.097	1620.88
217.22	3043.02
221.341	7947.27
225.46	12940.5
229.577	5515.77
233.692	1251.04
237.805	482.35
241.916	568.732
246.025	1384.31
250.132	4650.94
254.237	8319.75
258.34	5291.72
262.442	1752.47
266.541	1122.44
270.639	970.326
274.734	1755.23
278.828	3779.15
282.919	5346.1
287.009	3038.69
291.097	879.135
295.183	58.444
299.266	121.21
303.348	180.404
307.428	137.396
311.507	231.078
315.583	1648.41
319.657	5193.64
323.729	6589.79
327.8	3516.87
331.868	2977.87
335.935	4010.82
339.999	7049.7
344.062	12781.9
348.123	13821.2
352.182	7363.93
356.239	3853.64
360.294	2589.88
364.347	2178.02
368.398	2530.2
372.448	4023.46
376.495	6643.87
380.54	6354.48
384.584	3094.12
388.626	1341.78
392.666	696.588
396.704	348.784
400.74	70.008
404.774	76.644
408.806	747.207
412.836	2826.76
416.865	1057.29
420.891	120.784
424.916	1526.23
428.939	2876.62
432.959	1129.97
436.978	223.276
440.996	67.534
445.011	14.291
449.024	5.355
453.036	267.365
457.045	689.81
461.053	1351.32
465.059	1751.35
469.063	2790.74
473.065	5450.23
477.065	10480.9
481.063	9637.47
485.06	4099.08
489.054	1422.68
493.047	532.27
497.038	291.848
501.027	96.414
505.014	1.037
508.999	32.473
512.982	160.966
516.964	250.455
520.944	342.128
524.921	415.696
528.897	411.218
532.871	519.941
536.844	619.842
540.814	629.713
544.783	360.435
548.749	83.192
552.714	55.062
556.677	92.53
560.638	42.038
564.597	130.922
568.555	407.025
572.511	811.38
576.464	2028.9
580.416	3133.5
584.366	1912.32
588.315	932.262
592.261	676.315
596.206	1150.51
600.148	2791.39
604.089	5862.71
608.028	6266.33
611.965	5458.36
615.901	4317.68
619.834	3215.18
623.766	3071.24
627.696	4628.86
631.624	6265.69
635.551	5224.45
639.475	3712.15
643.398	3928.77
647.318	5075.32
651.237	4549.79
655.155	2884.18
659.07	1595.48
662.984	1021.25
666.895	749.984
670.805	533.429
674.713	272.601
678.62	148.676
682.524	27.146
686.427	33.257
690.328	59.263
694.227	53.506
698.124	98.95
702.02	281.075
705.913	450.794
709.805	822.909
713.695	1116.04
717.584	1507.06
721.47	2003.49
725.355	2892.13
729.238	4485.93
733.119	6859.08
736.998	9967.28
740.876	12858
744.752	12671.8
748.626	9000.18
752.498	5928.45
756.368	3860.9
760.237	2582.21
764.104	1848.75
767.969	1417.52
771.832	1132.72
775.693	948.336
779.553	729.136
783.411	694.69
787.267	601.999
791.122	518.454
794.974	424.489
798.825	437.833
802.674	400.91
806.522	293.719
810.367	286.261
814.211	246.536
818.053	214.549
821.893	188.307
825.732	183.792
829.568	97.005
833.403	151.928
837.236	98.146
841.068	106.307
844.898	46.534
848.726	58.284
852.552	30.659
856.376	28.34
860.199	67.045
864.02	31.503
867.839	49.804
871.656	18.015
875.472	29.205
879.286	30.893
883.098	74.163
886.909	48.032
890.717	22.472
894.524	76.421
898.33	68.869
902.133	97.817
905.935	47.298
909.735	7.608
913.533	11.528
917.33	42.903
921.124	11.587
924.918	8.539
928.709	58.502
932.499	110.315
936.286	64.989
940.073	110.532
943.857	94.953
947.64	110.26
951.421	106.46
955.2	169.033
958.978	185.562
962.753	209.557
966.527	261.311
970.3	314.079
974.071	357.611
977.84	556.819
981.607	673.811
985.372	892.377
989.136	1088.98
992.898	1489.62
996.659	2125.27
1000.42	3008.6
1004.17	3755.12
1007.93	3981.82
1011.68	3900.98
1015.43	4490.23
1019.18	5215.89
1022.93	4565.45
1026.68	3896.89
1030.42	3698.7
1034.17	3681.73
1037.91	4061.71
1041.65	4934.6
1045.39	6957.92
1049.12	11070.9
1052.86	19567
1056.59	36246.1
1060.33	45387.3
1064.06	29574.4
1067.78	14547.4
1071.51	8132.52
1075.23	5566.55
1078.96	4443.94
1082.68	3907.67
1086.4	3603.59
1090.12	3624.67
1093.83	3857.07
1097.55	4705.62
1101.26	5986.33
1104.97	5002.21
1108.68	3508.25
1112.39	2875.45
1116.1	2847.83
1119.8	3065.43
1123.5	3702.05
1127.2	4532.63
1130.9	6725.1
1134.6	11416.5
1138.3	13946.4
1141.99	10294.8
1145.69	6833.93
1149.38	5059.86
1153.07	4109.79
1156.76	3652.39
1160.44	3332.3
1164.13	3118.42
1167.81	3031.99
1171.49	3107.49
1175.17	3299.98
1178.85	3518.7
1182.52	3401.8
1186.2	2644.04
1189.87	2050.76
1193.54	1568.16
1197.21	1270.65
1200.88	1133.71
1204.55	1219.66
1208.21	1294.61
1211.88	1550.09
1215.54	1530.94
1219.2	1457.17
1222.86	1393.22
1226.51	1119.94
1230.17	795.762
1233.82	543.598
1237.47	369.08
1241.12	247.888
1244.77	195.728
1248.42	156.815
1252.06	147.927
1255.71	67.08
1259.35	61.204
1262.99	32.704
1266.63	16.242
1270.26	12.165
1273.9	6.141
1277.53	31.848
1281.16	26.836
1284.8	1.255
1288.42	31.571
1292.05	11.581
1295.68	47.739
1299.3	66.131
1302.92	59.762
1306.55	67.47
1310.16	30.397
1313.78	53.122
1317.4	11.515
1321.01	34.63
1324.62	13.469
1328.24	11.048
1331.85	62.585
1335.45	17.449
1339.06	12.504
1342.66	87.281
1346.27	57.888
1349.87	98.326
1353.47	108.598
1357.07	111.714
1360.66	30.684
1364.26	37.514
1367.85	62.224
1371.44	67.206
1375.04	64.759
1378.62	47.086
1382.21	148.188
1385.8	204.213
1389.38	196.087
1392.96	145.792
1396.54	181.216
1400.12	124.049
1403.7	114.529
1407.28	114.757
1410.85	123.982
1414.42	145.976
1417.99	115.207
1421.56	123.061
1425.13	128.656
1428.7	129.716
1432.26	66.755
1435.83	87.016
1439.39	66.433
1442.95	127.293
1446.51	15.495
1450.06	66.509
1453.62	100.569
1457.17	120.605
1460.73	92.937
1464.28	121.146
1467.83	114.525
1471.37	175.583
1474.92	135.292
1478.46	92.81
1482.01	52.161
1485.55	50.752
1489.09	101.542
1492.63	56.96
1496.16	91.372
1499.7	117.335
1503.23	120.185
1506.76	181.881
1510.29	111.016
1513.82	69.015
1517.35	41.579
1520.88	0
