Measurement: Raman, 514 nm, ccw, Raman Data Processed
Mineral: Legrandite
Rruff sample: R040151
Ideal chemistry: Zn^2+^_2_As^5+^O_4_(OH)H_2_O
Locality: Mapimi, Durango, Mexico
Source: University of Arizona Mineral Museum
Description: Yellow crystal fragments; same material used in McLean et al. (1971) study
Measured chemistry: Zn_1.88_Fe^2+^_0.04_As_1.03_O_4_(OH)Â·H_2_O
Pin_id: M01002
Orientation: Laser parallel to a* (1 0 0). Fiducial mark perpendicular to laser is parallel to -c [0 0 -1]
Raman shift (cm-1)	intensity
62.17	0
67.152	6.74341
72.13	5654.56
77.106	16390.1
82.079	14807.9
87.048	15406.2
92.015	10990.2
96.98	10397.5
101.941	6489.53
106.9	2860.15
111.855	617.437
116.808	139.029
121.758	232.698
126.705	238.557
131.649	1275.1
136.591	4412.36
141.529	6996.38
146.465	6192.58
151.398	6459.85
156.328	8958.51
161.256	13944.6
166.18	12554.1
171.102	5832.35
176.021	2547.74
180.937	1111.33
185.85	1599.2
190.76	3371.2
195.668	5128.12
200.572	5161.81
205.474	5297.44
210.374	6717.88
215.27	7167.57
220.163	5771.41
225.054	6127.78
229.942	7116.17
234.827	7760.72
239.709	10569
244.589	12267.1
249.465	11499.1
254.339	13430.9
259.21	18334.9
264.079	25506.6
268.944	36969.8
273.807	39445.5
278.667	28324.9
283.524	18722.5
288.378	12816.3
293.23	7635.14
298.079	4460.94
302.925	3583.17
307.768	3497.2
312.609	3561.62
317.446	3949.19
322.281	3835.7
327.113	3762.26
331.943	3825.56
336.769	4075.65
341.593	5527.67
346.414	9059.47
351.233	14811.1
356.048	18998.8
360.861	15957.8
365.671	9448.78
370.478	5597.95
375.283	4558.5
380.084	6374.89
384.883	9995.36
389.68	13329.5
394.473	12755.6
399.264	8320.15
404.052	4424.01
408.837	2298.4
413.62	1482.41
418.4	1280.23
423.177	997.012
427.951	465.518
432.722	88.125
437.491	535.269
442.257	494.403
447.021	201.051
451.781	131.053
456.539	396.062
461.294	389.617
466.047	399.238
470.797	344.671
475.544	314.621
480.288	187.718
485.03	204.485
489.768	164.759
494.504	76.293
499.238	28.6973
503.969	303.748
508.697	161.335
513.422	189.224
518.144	389.397
522.864	238.986
527.582	287.011
532.296	574.75
537.008	539.365
541.717	366.714
546.423	297.67
551.127	417.965
555.828	369.591
560.526	322.729
565.222	438.458
569.915	510.777
574.605	365.935
579.292	334.692
583.977	100.989
588.659	32.9893
593.339	173.272
598.016	245.578
602.69	244.928
607.361	201.427
612.03	265.441
616.696	193.723
621.359	216.656
626.02	16.7998
630.678	10.6455
635.333	6.26758
639.986	215.707
644.636	653.896
649.284	1336.13
653.928	2240.73
658.57	2434.05
663.21	1667.07
667.846	913.624
672.481	471.261
677.112	248.539
681.741	492.365
686.367	396.575
690.99	606.64
695.611	619.582
700.229	887.834
704.845	659.672
709.458	805.905
714.068	880.457
718.676	831.974
723.281	746.319
727.883	1000.38
732.483	1261.86
737.08	1132.68
741.674	1485.19
746.266	1632.33
750.855	2028.46
755.442	2309.48
760.025	2583.39
764.607	3412.35
769.185	4289.61
773.761	6367.63
778.335	9411.25
782.906	12479.4
787.474	14314.9
792.039	14830
796.602	14263
801.162	13233.7
805.72	13386.3
810.275	14987.4
814.828	17585.8
819.378	21737.6
823.925	26919.8
828.47	31934.5
833.012	39831.1
837.551	51517.1
842.088	64350.8
846.622	77136.2
851.154	104691
855.683	163324
860.209	210199
864.733	138715
869.254	64813.2
873.773	37488.6
878.289	26671.6
882.803	21058.1
887.314	18982.4
891.822	22757.8
896.328	36394.1
900.831	53180.8
905.332	44454.6
909.83	24354.2
914.325	14651.3
918.818	10316.3
923.308	8463.22
927.796	7419.82
932.281	5597.44
936.764	3994.41
941.244	3047.83
945.721	2140.09
950.196	1234.27
954.668	758.648
959.138	562.231
963.605	337.692
968.07	104.045
972.532	128.565
976.991	60.6221
981.448	118.635
985.903	112.159
990.355	130.868
994.804	252.728
999.251	65.1309
1003.7	70.1953
1008.14	73.8408
1012.58	233.355
1017.01	23.9248
1021.45	341.458
1025.88	529.452
1030.31	469.246
1034.73	589.521
1039.16	337.329
1043.58	176.041
1048	44.6289
1052.41	112.406
1056.83	91.1738
1061.24	51.3213
1065.65	42.9502
1070.05	38.2041
1074.46	35.8906
1078.86	74.8897
1083.26	139.16
1087.65	268.88
1092.05	161.949
1096.44	0.243164
1100.83	120.232
1105.21	266.459
1109.6	199.584
1113.98	218.981
1118.36	255.518
1122.73	226.523
1127.1	156.55
1131.47	285.357
1135.84	302.472
1140.21	199.505
1144.57	81.5557
1148.93	159.136
1153.29	281.845
1157.65	136.265
1162	217.291
1166.35	166.062
1170.7	449.728
1175.05	236.922
1179.39	261.286
1183.73	257.99
1188.07	297.663
1192.41	223.461
1196.74	307.496
1201.07	196.888
1205.4	261.945
1209.72	182.569
1214.05	294.615
1218.37	425.275
1222.69	180.923
1227.01	50.6719
1231.32	229.185
1235.63	289.264
1239.94	209.205
1244.24	205.4
1248.55	361.732
1252.85	209.402
1257.15	97.3096
1261.44	166.119
1265.74	285.13
1270.03	319.623
1274.32	148.059
1278.61	168.01
1282.89	227.894
1287.17	64.9404
1291.45	370.023
1295.73	25.5078
1300	98.2471
1304.27	204.023
1308.54	221.218
1312.81	237.203
1317.08	198.56
1321.34	289.483
1325.6	286.606
1329.85	95.0186
1334.11	117.785
1338.36	160.058
1342.61	70.0283
1346.86	189.071
1351.1	228.333
1355.35	127.098
1359.59	211.112
1363.82	16.1914
1368.06	86.8203
1372.29	195.843
1376.52	141.041
1380.75	149.697
1384.97	94.3281
1389.2	185.285
1393.42	252.464
1397.64	230.92
1401.85	127.542
1406.07	84.0996
1410.28	146.321
1414.49	292.58
1418.69	77.9473
1422.9	205.385
1427.1	237.878
1431.3	76.1172
1435.49	245.411
1439.69	69.335
1443.88	268.722
1448.07	335.228
1452.26	222.451
1456.44	350.458
1460.62	314.782
1464.8	280.509
1468.98	327.628
1473.15	229.953
1477.33	147.692
1481.5	163.798
1485.66	8.08105
1489.83	83.3926
1493.99	21.1641
1498.15	127.949
1502.31	52.3672
1506.47	91.7295
1510.62	141.17
1514.77	189.988
1518.92	193.238
1523.07	292.986
1527.21	239.201
1531.35	137.878
1535.49	192.217
1539.63	368.791
1543.76	232.685
1547.9	65.585
1552.03	83.6553
1556.15	63.3994
1560.28	252.907
1564.4	706.919
1568.52	25.3691
1572.64	102.556
1576.75	159.463
