Measurement: Raman, 514 nm, depolarized, Raman Data Processed
Mineral: Legrandite
Rruff sample: R040151
Ideal chemistry: Zn^2+^_2_As^5+^O_4_(OH)H_2_O
Locality: Mapimi, Durango, Mexico
Source: University of Arizona Mineral Museum
Description: Yellow crystal fragments; same material used in McLean et al. (1971) study
Measured chemistry: Zn_1.88_Fe^2+^_0.04_As_1.03_O_4_(OH)Â·H_2_O
Pin_id: M00379
Orientation: Laser parallel to (-1 0 -1). Fiducial mark perpendicular to laser is parallel to b [0 1 0]
Raman shift (cm-1)	intensity
51.231	0
55.447	158.425
59.66	374.529
63.871	360.391
68.079	115.99
72.286	7.02
76.49	62.914
80.692	2418.76
84.891	1897.97
89.089	2948.51
93.284	2751.68
97.477	2464.82
101.667	2546.01
105.856	2547.58
110.042	2577.24
114.226	2112.83
118.408	1199.2
122.588	937.282
126.765	1011.02
130.94	951.283
135.113	1161.96
139.284	1164.29
143.452	1463.44
147.618	1761.77
151.782	1477.65
155.944	1270.79
160.104	1601.27
164.261	2984.17
168.417	5169.52
172.57	2936.37
176.72	1639.72
180.869	1130.59
185.015	943.966
189.16	1163.82
193.302	1810.13
197.442	2334.65
201.579	2067.75
205.715	1707.2
209.848	1191.96
213.979	1174.98
218.108	1512.36
222.235	1449.08
226.359	1215.02
230.482	1454.8
234.602	1691.4
238.72	1472.04
242.836	1487.15
246.949	1918.31
251.061	1695.11
255.17	1240.38
259.277	979.084
263.382	973.098
267.485	1209.42
271.586	2047.02
275.684	3186.87
279.781	3398.93
283.875	2679.2
287.967	1974.64
292.057	1467.2
296.144	1086.82
300.23	855.527
304.313	613.263
308.395	422.981
312.474	279.522
316.551	311.881
320.625	198.104
324.698	64.145
328.769	165.007
332.837	184.567
336.903	103.794
340.968	44.341
345.03	288.139
349.089	709.215
353.147	1102.87
357.203	1936.08
361.256	2799.81
365.308	2652.06
369.357	1443.79
373.404	778.997
377.449	715.651
381.492	1064.74
385.533	1389.35
389.571	1797.5
393.608	2063.23
397.642	1852.94
401.675	1097.61
405.705	577.708
409.733	538.688
413.759	628.21
417.783	681.188
421.804	1126.58
425.824	1598.43
429.842	2043.56
433.857	2025.7
437.871	1753.49
441.882	1585.52
445.891	1625.95
449.898	1891.66
453.903	2493.46
457.906	3261.48
461.907	4215.28
465.906	4429.9
469.902	4062.54
473.897	3246.81
477.889	2427.43
481.88	1614.15
485.868	1105.69
489.854	644.351
493.839	676.084
497.821	952.143
501.801	931.147
505.779	1094.42
509.755	1359.62
513.729	1293.72
517.7	952.248
521.67	574.121
525.638	290.022
529.603	327.622
533.567	379.071
537.528	369.386
541.488	215.52
545.445	128.451
549.4	265.188
553.354	141.719
557.305	12.034
561.254	164.143
565.201	68.8
569.146	95.013
573.089	2.127
577.03	154.346
580.969	133.506
584.906	63.676
588.841	114.213
592.774	20.008
596.705	145.006
600.633	141.817
604.56	103.477
608.485	22.972
612.408	75.243
616.328	168.34
620.247	19.63
624.163	106.856
628.078	193.431
631.991	26.562
635.901	30.774
639.81	163.287
643.716	258.854
647.621	214.931
651.523	205.666
655.424	276.087
659.322	445.2
663.218	535.007
667.113	288.51
671.005	60.714
674.896	137.603
678.784	338.202
682.671	301.515
686.555	203.551
690.437	75.322
694.318	72.826
698.196	312.07
702.073	431.062
705.947	233.805
709.82	94.306
713.69	166.167
717.558	359.167
721.425	416.173
725.289	329.89
729.152	19.281
733.013	155.833
736.871	368.143
740.728	555.359
744.582	396.389
748.435	249.838
752.286	176.574
756.134	383.334
759.981	497.717
763.826	509.501
767.668	447.741
771.509	393.422
775.348	881.118
779.185	1292.93
783.02	1814.48
786.853	1793.42
790.684	1728.82
794.513	1809.31
798.34	2206.54
802.165	2410.92
805.988	2306.48
809.809	2342.51
813.628	2338.76
817.446	2845.23
821.261	3341.92
825.074	3928.37
828.886	4215.44
832.695	4692.82
836.503	5811.02
840.309	7839.11
844.112	9888.11
847.914	12146.9
851.714	15375.8
855.512	23434.8
859.308	42144.3
863.102	53353.8
866.894	33683.5
870.684	17523.7
874.472	10694.2
878.258	8455.23
882.043	7256.72
885.825	6638.69
889.606	6571.12
893.384	7504.03
897.161	11347.4
900.936	18601.4
904.709	20505.8
908.479	13340.8
912.248	8026.4
916.016	4974.84
919.781	3240.42
923.544	2850.32
927.305	2461.12
931.065	2539.57
934.822	1920.93
938.578	1369.87
942.332	819.156
946.083	748.821
949.833	755.176
953.581	787.716
957.328	700.396
961.072	484.782
964.814	201.448
968.555	26.305
972.293	59.562
976.03	228.64
979.765	387.451
983.497	245.971
987.228	13.894
990.958	53.627
994.685	45.131
998.41	90.745
1002.13	478.409
1005.86	406.354
1009.58	183.948
1013.29	87.791
1017.01	132.344
1020.72	237.521
1024.43	663.226
1028.14	928.789
1031.85	795.112
1035.56	562.69
1039.27	260.267
1042.97	185.016
1046.67	241.587
1050.37	397.822
1054.07	412.961
1057.76	257.955
1061.45	66.808
1065.15	175.451
1068.84	6.106
1072.52	172.447
1076.21	387.001
1079.89	381.439
1083.58	285.664
1087.26	119.945
1090.94	24.182
1094.61	107.683
1098.29	162.513
1101.96	356.51
1105.63	309.779
1109.3	292.822
1112.97	95.484
1116.63	72.073
1120.3	20.646
1123.96	202.481
1127.62	336.194
1131.28	459.658
1134.94	380.007
1138.59	331.022
1142.24	39.499
1145.89	11.044
1149.55	81.464
1153.19	271.797
1156.84	570.8
1160.48	614.842
1164.12	363.57
1167.76	63.509
1171.4	71.924
1175.04	50.166
1178.67	157.965
1182.31	345.462
1185.94	522.505
1189.57	480.696
1193.19	268.279
1196.82	236.47
1200.44	251.87
1204.07	56.849
1207.69	189.813
1211.3	405.367
1214.92	589.229
1218.54	650.287
1222.15	540.434
1225.76	324.415
1229.37	352.313
1232.98	307.725
1236.58	329.672
1240.19	464.636
1243.79	687.281
1247.39	756.3
1250.99	585.271
1254.59	412.186
1258.18	245.485
1261.77	129.083
1265.37	258.144
1268.95	327.65
1272.54	667.074
1276.13	852.82
1279.71	719.855
1283.3	702.673
1286.88	367.578
1290.46	0.928
1294.03	77.484
1297.61	30.669
1301.18	73.979
1304.75	258.837
1308.32	521.751
1311.89	671.726
1315.46	464.238
1319.02	505.778
1322.59	168.592
1326.15	108.734
1329.71	8.333
1333.27	70.49
1336.82	410.571
1340.38	610.632
1343.93	581.747
1347.48	600.515
1351.03	571.479
1354.58	310.18
1358.12	180.178
1361.66	180.871
1365.21	41.42
1368.75	95.748
1372.29	434.173
1375.82	796.248
1379.36	799.553
1382.89	782.482
1386.42	645.743
1389.95	428.24
1393.48	358.816
1397.01	1.208
1400.53	149.864
1404.05	208.529
1407.57	386.009
1411.09	806.488
1414.61	833.998
1418.13	872.684
1421.64	681.425
1425.15	485.865
1428.66	281.16
1432.17	29.373
1435.68	217.981
1439.19	187.396
1442.69	308.36
1446.19	318.973
1449.69	793.229
1453.19	877.704
1456.69	998.233
1460.18	952.348
1463.68	733.783
1467.17	519.027
1470.66	298.967
1474.15	221.144
1477.63	84.349
1481.12	240.706
1484.6	207.732
1488.08	475.912
1491.56	465.667
1495.04	738.184
1498.52	814.182
1501.99	919.284
1505.46	673.588
1508.94	529.03
1512.4	0
