Measurement: Raman, 514 nm, depolarized, Raman Data Processed
Mineral: Legrandite
Rruff sample: R040151
Ideal chemistry: Zn^2+^_2_As^5+^O_4_(OH)H_2_O
Locality: Mapimi, Durango, Mexico
Source: University of Arizona Mineral Museum
Description: Yellow crystal fragments; same material used in McLean et al. (1971) study
Measured chemistry: Zn_1.88_Fe^2+^_0.04_As_1.03_O_4_(OH)Â·H_2_O
Pin_id: M01002
Orientation: Laser parallel to a* (1 0 0). Fiducial mark perpendicular to laser is parallel to -c [0 0 -1]
Raman shift (cm-1)	intensity
62.17	0
67.152	24.157
72.13	3329.18
77.106	11015
82.079	9438.18
87.048	10013.5
92.015	7157.91
96.98	7559.82
101.941	6669.38
106.9	5288.78
111.855	3021.55
116.808	2387.01
121.758	2692.07
126.705	699.572
131.649	170.543
136.591	1003.59
141.529	2314.01
146.465	2425.56
151.398	3232.26
156.328	7121.37
161.256	15378.4
166.18	15128.5
171.102	7368.52
176.021	4151.34
180.937	4511.87
185.85	5550.52
190.76	7080.04
195.668	7919.69
200.572	5938.48
205.474	4034.21
210.374	3818.34
215.27	4193.23
220.163	4013.23
225.054	5526.02
229.942	6501.11
234.827	5245.81
239.709	6015.38
244.589	6175.56
249.465	4772.44
254.339	4662.95
259.21	5993.07
264.079	9188.19
268.944	14387
273.807	15779.2
278.667	11158.2
283.524	6676.85
288.378	3923.5
293.23	1793.92
298.079	556.241
302.925	55.5068
307.768	334.435
312.609	146.373
317.446	89.3984
322.281	286.137
327.113	257.885
331.943	127.618
336.769	62.6103
341.593	858.926
346.414	2877.82
351.233	5832
356.048	7736.86
360.861	6349.49
365.671	3554.38
370.478	1752.06
375.283	1870.05
380.084	3774.65
384.883	6555.11
389.68	8477.43
394.473	8169.46
399.264	5436.06
404.052	3090.07
408.837	2258.77
413.62	2639.94
418.4	4168.24
423.177	6364.97
427.951	8181.74
432.722	8726.86
437.491	7283.37
442.257	5346.79
447.021	4755.7
451.781	5534.42
456.539	6554.47
461.294	7074.51
466.047	7049.89
470.797	6075.03
475.544	3956.05
480.288	2340.69
485.03	1580.5
489.768	1338.3
494.504	1434.73
499.238	2099.8
503.969	2689.53
508.697	2481.76
513.422	1666.67
518.144	1146.21
522.864	880.285
527.582	896.841
532.296	949.814
537.008	881.293
541.717	738.952
546.423	476.18
551.127	351.274
555.828	261.441
560.526	262.215
565.222	219.91
569.915	49.5732
574.605	167.151
579.292	70.9346
583.977	73.4365
588.659	144.29
593.339	34.8252
598.016	200.572
602.69	50.8643
607.361	277.052
612.03	244.693
616.696	197.788
621.359	133.355
626.02	112.054
630.678	7.09668
635.333	17.2266
639.986	16.6084
644.636	468.125
649.284	716.856
653.928	1224.88
658.57	1475.26
663.21	898.058
667.846	611.337
672.481	267.163
677.112	222.601
681.741	61.7051
686.367	193.537
690.99	211.645
695.611	372.911
700.229	235.539
704.845	307.685
709.458	265.888
714.068	415.275
718.676	197.322
723.281	89.9824
727.883	215.407
732.483	222.519
737.08	364.556
741.674	411.573
746.266	359.849
750.855	556.938
755.442	649.856
760.025	984.687
764.607	1250
769.185	1623.52
773.761	2645.19
778.335	3772.54
782.906	5349.61
787.474	5996.94
792.039	6306.16
796.602	6355.48
801.162	6301.58
805.72	6700.69
810.275	7968.64
814.828	9765.02
819.378	13458
823.925	17269.6
828.47	19492.5
833.012	21748.6
837.551	27512.9
842.088	35147.3
846.622	46940.2
851.154	72541.6
855.683	130483
860.209	193980
864.733	143674
869.254	73934.9
873.773	48768.8
878.289	38833.7
882.803	30578.2
887.314	27639.6
891.822	35964.2
896.328	64427.3
900.831	104185
905.332	92658.1
909.83	51421.4
914.325	29674.8
918.818	20625.8
923.308	16721.2
927.796	14493.6
932.281	11378.5
936.764	8534.74
941.244	6344.79
945.721	4575.7
950.196	3260.73
954.668	2306.03
959.138	1587.2
963.605	1312.75
968.07	999.441
972.532	744.322
976.991	507.731
981.448	496.023
985.903	157.973
990.355	172.127
994.804	1.16602
999.251	56.8848
1003.7	2.67481
1008.14	48.2988
1012.58	33.6562
1017.01	53.0508
1021.45	419.89
1025.88	586.524
1030.31	865.956
1034.73	620.714
1039.16	276.373
1043.58	136.352
1048	89.4883
1052.41	119.71
1056.83	91.0215
1061.24	98.5527
1065.65	22.1641
1070.05	174.339
1074.46	62.9541
1078.86	71.9473
1083.26	70.125
1087.65	65.4307
1092.05	223.118
1096.44	120.197
1100.83	76.0332
1105.21	35.0147
1109.6	78.5859
1113.98	156.501
1118.36	22.7754
1122.73	300.368
1127.1	31.4688
1131.47	148.522
1135.84	130.662
1140.21	118.534
1144.57	402.813
1148.93	305.602
1153.29	280.253
1157.65	285.934
1162	369.21
1166.35	216.143
1170.7	447.562
1175.05	346.623
1179.39	517.244
1183.73	306.634
1188.07	331.659
1192.41	434.45
1196.74	503.214
1201.07	465.723
1205.4	427.249
1209.72	270.192
1214.05	423.489
1218.37	331.647
1222.69	362.871
1227.01	297.269
1231.32	290.372
1235.63	274.896
1239.94	321.098
1244.24	307.469
1248.55	421.615
1252.85	219.894
1257.15	202.576
1261.44	145.592
1265.74	307.643
1270.03	215.019
1274.32	236.496
1278.61	308.425
1282.89	216.861
1287.17	256.747
1291.45	413.151
1295.73	228.898
1300	264.666
1304.27	275.768
1308.54	208.067
1312.81	375.683
1317.08	241.067
1321.34	373.875
1325.6	183.591
1329.85	16.5859
1334.11	170.426
1338.36	458.62
1342.61	201.147
1346.86	170.545
1351.1	123.875
1355.35	253.501
1359.59	275.232
1363.82	240.95
1368.06	192.358
1372.29	170.224
1376.52	167.17
1380.75	132.498
1384.97	186.933
1389.2	15.7393
1393.42	197.54
1397.64	63.7305
1401.85	121.466
1406.07	3.4834
1410.28	23.2822
1414.49	82.1934
1418.69	42.0635
1422.9	273.894
1427.1	43.2559
1431.3	123.093
1435.49	72.1455
1439.69	292.66
1443.88	219.691
1448.07	254.599
1452.26	278.349
1456.44	226.462
1460.62	385.659
1464.8	160.773
1468.98	275.853
1473.15	230.371
1477.33	224.306
1481.5	180.4
1485.66	169.326
1489.83	164.781
1493.99	32.9238
1498.15	32.331
1502.31	60.7471
1506.47	87.293
1510.62	4.80273
1514.77	129.794
1518.92	236.696
1523.07	263.254
1527.21	110.467
1531.35	132.782
1535.49	305.68
1539.63	139.25
1543.76	248.06
1547.9	277.621
1552.03	288.313
1556.15	282.569
1560.28	209.966
1564.4	176.573
1568.52	11.2158
1572.64	277.795
1576.75	225.964
