Measurement: Raman, 514 nm, ccw, Raman Data Processed
Mineral: Legrandite
Rruff sample: R040151
Ideal chemistry: Zn^2+^_2_As^5+^O_4_(OH)H_2_O
Locality: Mapimi, Durango, Mexico
Source: University of Arizona Mineral Museum
Description: Yellow crystal fragments; same material used in McLean et al. (1971) study
Measured chemistry: Zn_1.88_Fe^2+^_0.04_As_1.03_O_4_(OH)Â·H_2_O
Pin_id: M01002
Orientation: Laser parallel to a* (1 0 0). Fiducial mark perpendicular to laser is parallel to -c [0 0 -1]
Raman shift (cm-1)	intensity
62.17	0
67.152	10.0049
72.13	5309.79
77.106	14062.9
82.079	11310.5
87.048	8850.22
92.015	5305.21
96.98	6768.58
101.941	6391.51
106.9	5188.09
111.855	6162.23
116.808	8163.89
121.758	9908.84
126.705	4184.1
131.649	598.723
136.591	562.517
141.529	1962.18
146.465	1772.98
151.398	5332.81
156.328	15546.2
161.256	36209.9
166.18	33129.1
171.102	18461.6
176.021	13443.1
180.937	16450.2
185.85	18607.6
190.76	20395.4
195.668	18029
200.572	11523
205.474	6071.83
210.374	4354.9
215.27	4753.74
220.163	6201.58
225.054	9883.37
229.942	11573.3
234.827	9604.86
239.709	9256.89
244.589	7853.77
249.465	4508.26
254.339	2383.44
259.21	1885.68
264.079	2689.49
268.944	4336.44
273.807	4419.04
278.667	2440.61
283.524	694.852
288.378	78.7178
293.23	252.906
298.079	7.60547
302.925	68.4404
307.768	436.248
312.609	636.861
317.446	370.744
322.281	232.308
327.113	66.2578
331.943	29.6973
336.769	272.918
341.593	1337.52
346.414	2965.41
351.233	4860.59
356.048	5224.45
360.861	4143.66
365.671	2866.27
370.478	3003.48
375.283	4551.88
380.084	8743.18
384.883	12936.2
389.68	15163.8
394.473	13971.5
399.264	10891.5
404.052	8748.26
408.837	8941.44
413.62	11221.9
418.4	16238.5
423.177	22952.2
427.951	29738.8
432.722	31202.1
437.491	25595.1
442.257	19711.9
447.021	16622.9
451.781	17834.8
456.539	21005.7
461.294	23524.3
466.047	23960.8
470.797	20591.4
475.544	13623.6
480.288	8478.98
485.03	5798.98
489.768	4936.02
494.504	5760.73
499.238	7882.81
503.969	10419.6
508.697	9774.98
513.422	6722.84
518.144	4514.28
522.864	3197.74
527.582	2479.99
532.296	1978.24
537.008	1748.21
541.717	1411.09
546.423	1211.42
551.127	964.545
555.828	1063.29
560.526	1041.99
565.222	924.865
569.915	761.635
574.605	640.091
579.292	473.364
583.977	420.557
588.659	384.769
593.339	173.237
598.016	162.785
602.69	42.6953
607.361	71.0732
612.03	28.7051
616.696	60.8008
621.359	126.688
626.02	126.62
630.678	19.8027
635.333	70.3916
639.986	67.7422
644.636	198.19
649.284	284.345
653.928	556.631
658.57	235.208
663.21	213.126
667.846	85.6592
672.481	92.3379
677.112	11.7598
681.741	142.144
686.367	97.9941
690.99	37.169
695.611	22.3672
700.229	189.532
704.845	194.48
709.458	83.9561
714.068	43.0586
718.676	15.4482
723.281	4.6709
727.883	26.0244
732.483	206.353
737.08	262.644
741.674	366.133
746.266	109.152
750.855	249.315
755.442	484.945
760.025	500.06
764.607	780.857
769.185	1196.92
773.761	1653.66
778.335	2067.97
782.906	2499.92
787.474	2598.74
792.039	2382.58
796.602	2951.79
801.162	3994.11
805.72	5457.7
810.275	6908.59
814.828	10079.1
819.378	15745.1
823.925	20170.8
828.47	19404.9
833.012	17967.8
837.551	19498.2
842.088	26761
846.622	43941.7
851.154	87831.1
855.683	191449
860.209	301194
864.733	221229
869.254	114124
873.773	76424.7
878.289	61180.9
882.803	49403
887.314	51303.8
891.822	79252.3
896.328	152898
900.831	245414
905.332	208916
909.83	114952
914.325	66232
918.818	45645.1
923.308	35419
927.796	28960.8
932.281	23959.9
936.764	18913.2
941.244	14257.5
945.721	10752.8
950.196	7982.1
954.668	6148.5
959.138	4999.43
963.605	4101.34
968.07	3091.99
972.532	2593.9
976.991	2091.58
981.448	1730.82
985.903	1455.54
990.355	1082.68
994.804	861.828
999.251	810.248
1003.7	788.746
1008.14	444.902
1012.58	515.654
1017.01	740.902
1021.45	1309.19
1025.88	1981.3
1030.31	2786.23
1034.73	1746.93
1039.16	1093.38
1043.58	610.867
1048	261.312
1052.41	221.113
1056.83	129.475
1061.24	106.01
1065.65	240.627
1070.05	187.67
1074.46	147.109
1078.86	4.42773
1083.26	102.506
1087.65	12.418
1092.05	103.297
1096.44	275.498
1100.83	203.76
1105.21	215.365
1109.6	19.2227
1113.98	138.06
1118.36	82.084
1122.73	66.6738
1127.1	102.959
1131.47	212.178
1135.84	128.193
1140.21	20.3828
1144.57	256.986
1148.93	107.891
1153.29	108.273
1157.65	326.467
1162	221.203
1166.35	325.041
1170.7	390.269
1175.05	393.856
1179.39	437.719
1183.73	360.051
1188.07	291.603
1192.41	359.56
1196.74	402.773
1201.07	530.182
1205.4	507.004
1209.72	639.633
1214.05	381.424
1218.37	454.934
1222.69	485.414
1227.01	549.65
1231.32	535.688
1235.63	554.283
1239.94	380.098
1244.24	666.418
1248.55	368.609
1252.85	304.484
1257.15	259.971
1261.44	436.375
1265.74	342.938
1270.03	412.213
1274.32	492.789
1278.61	466.545
1282.89	248.652
1287.17	223.049
1291.45	416.441
1295.73	415.315
1300	478.639
1304.27	526.383
1308.54	339.742
1312.81	391.184
1317.08	433.033
1321.34	331.238
1325.6	324.037
1329.85	257.574
1334.11	190.562
1338.36	246.023
1342.61	146.588
1346.86	256.588
1351.1	116.305
1355.35	136.426
1359.59	363.115
1363.82	192.82
1368.06	289.856
1372.29	110.287
1376.52	47.4434
1380.75	344.018
1384.97	270.484
1389.2	246.934
1393.42	209.818
1397.64	240.676
1401.85	210.191
1406.07	137.893
1410.28	33.3203
1414.49	112.883
1418.69	180.445
1422.9	77.7285
1427.1	33.2988
1431.3	55.1172
1435.49	191.195
1439.69	264.529
1443.88	363.578
1448.07	493.935
1452.26	273.721
1456.44	667.254
1460.62	315.215
1464.8	205.772
1468.98	290.902
1473.15	154.588
1477.33	178.68
1481.5	232.922
1485.66	33.6797
1489.83	220.807
1493.99	54.3418
1498.15	229.6
1502.31	158.918
1506.47	64.4609
1510.62	372.227
1514.77	200.848
1518.92	219.859
1523.07	176.478
1527.21	77.8887
1531.35	184.121
1535.49	164.615
1539.63	254.668
1543.76	150.863
1547.9	248.598
1552.03	241.662
1556.15	144.523
1560.28	262.764
1564.4	306.697
1568.52	270.777
1572.64	186.51
1576.75	404.562
