Measurement: Raman, 514 nm, ccw, Raman Data Processed
Mineral: Legrandite
Rruff sample: R040151
Ideal chemistry: Zn^2+^_2_As^5+^O_4_(OH)H_2_O
Locality: Mapimi, Durango, Mexico
Source: University of Arizona Mineral Museum
Description: Yellow crystal fragments; same material used in McLean et al. (1971) study
Measured chemistry: Zn_1.88_Fe^2+^_0.04_As_1.03_O_4_(OH)Â·H_2_O
Pin_id: M01002
Orientation: Laser parallel to a* (1 0 0). Fiducial mark perpendicular to laser is parallel to -c [0 0 -1]
Raman shift (cm-1)	intensity
62.17	0
67.152	1.49097
72.13	2743.97
77.106	6656.2
82.079	7102.16
87.048	8238.43
92.015	7747.29
96.98	8217.75
101.941	9094.16
106.9	7807.14
111.855	4654.27
116.808	3301.44
121.758	2782.29
126.705	1766.19
131.649	1184.05
136.591	1906.81
141.529	2766.25
146.465	3138.28
151.398	3505.27
156.328	5588.61
161.256	10298.9
166.18	9242.28
171.102	5015.76
176.021	3319.18
180.937	3807.35
185.85	4428.85
190.76	5778.54
195.668	6408.9
200.572	5361.93
205.474	4074.29
210.374	4133.27
215.27	4064.46
220.163	4558.92
225.054	5504.62
229.942	5245.6
234.827	4114.74
239.709	3905.16
244.589	3851.53
249.465	2859.8
254.339	2907.16
259.21	3751.04
264.079	5779.96
268.944	8365.7
273.807	8969.9
278.667	6306.19
283.524	3890.08
288.378	2557.68
293.23	1465.05
298.079	574.116
302.925	23.0186
307.768	84.6211
312.609	49.8691
317.446	106.103
322.281	200.365
327.113	364.652
331.943	338.695
336.769	280.371
341.593	436.055
346.414	1604.95
351.233	3541.64
356.048	4509.73
360.861	3680.44
365.671	1997.54
370.478	1070.51
375.283	1227.06
380.084	2549.93
384.883	4118.91
389.68	5140.82
394.473	4524.53
399.264	2801.92
404.052	1437.86
408.837	1108.9
413.62	1414.06
418.4	2484.38
423.177	3860.06
427.951	5054.71
432.722	5575.24
437.491	4447.2
442.257	3926.63
447.021	4067.06
451.781	4977.68
456.539	5682.72
461.294	5393.36
466.047	4990.63
470.797	4212.5
475.544	2813.11
480.288	1981.7
485.03	1276.73
489.768	915.755
494.504	986.29
499.238	1333.27
503.969	1842.92
508.697	1652.12
513.422	1074.86
518.144	685.695
522.864	776.568
527.582	785.41
532.296	1160.16
537.008	1269.29
541.717	916.175
546.423	542.466
551.127	55.2812
555.828	181.705
560.526	24.3721
565.222	203.145
569.915	75.9111
574.605	102.123
579.292	30.9736
583.977	29.2568
588.659	2.2793
593.339	128.49
598.016	71.9033
602.69	184.774
607.361	172.07
612.03	13.2979
616.696	125.307
621.359	98.8945
626.02	138.189
630.678	38.5068
635.333	270.44
639.986	56.3994
644.636	232.595
649.284	658.276
653.928	1132.52
658.57	1115.37
663.21	899.864
667.846	498.038
672.481	174.936
677.112	70.5586
681.741	39.8945
686.367	123.957
690.99	188.074
695.611	92.6484
700.229	49.9473
704.845	398.348
709.458	185.453
714.068	260.707
718.676	160.152
723.281	169.062
727.883	81.1016
732.483	102.934
737.08	137.609
741.674	180.727
746.266	301.887
750.855	308.586
755.442	395.353
760.025	480.691
764.607	789.996
769.185	940.488
773.761	1783.47
778.335	2355.4
782.906	3078.96
787.474	3637.07
792.039	3534.26
796.602	3754.56
801.162	3777.87
805.72	4198.31
810.275	4921.37
814.828	6013.42
819.378	8733.05
823.925	10771
828.47	12096.8
833.012	14109.2
837.551	17999.2
842.088	23500
846.622	32771.2
851.154	52350.5
855.683	92738.4
860.209	127530
864.733	91677.8
869.254	52286.9
873.773	39377.7
878.289	32928.9
882.803	25416.5
887.314	21773.8
891.822	27323.2
896.328	45993
900.831	69677.8
905.332	58259.7
909.83	32646.2
914.325	19762
918.818	14610.5
923.308	12164.7
927.796	11038.4
932.281	8364.45
936.764	6186.37
941.244	4269.08
945.721	3048
950.196	2253.81
954.668	1452.1
959.138	1155.34
963.605	922.734
968.07	689.607
972.532	492.094
976.991	397.203
981.448	142.4
985.903	52.6484
990.355	346.133
994.804	26.1055
999.251	64.4082
1003.7	176.244
1008.14	180.678
1012.58	80.4668
1017.01	198.773
1021.45	67.9629
1025.88	491.246
1030.31	683.762
1034.73	415.602
1039.16	215.732
1043.58	77.7598
1048	31.127
1052.41	239.941
1056.83	175.502
1061.24	9.29297
1065.65	96.0273
1070.05	94.9785
1074.46	41.8418
1078.86	438.801
1083.26	3.49609
1087.65	187.902
1092.05	158.551
1096.44	22.543
1100.83	43.3359
1105.21	81.7773
1109.6	137.955
1113.98	87.0664
1118.36	82.8418
1122.73	150.059
1127.1	132.606
1131.47	276.522
1135.84	253.666
1140.21	145.043
1144.57	133.609
1148.93	316.228
1153.29	300.897
1157.65	279.898
1162	205.772
1166.35	330.807
1170.7	485.945
1175.05	247.404
1179.39	221.709
1183.73	369.603
1188.07	330.935
1192.41	147.549
1196.74	387.445
1201.07	353.234
1205.4	202.783
1209.72	334.791
1214.05	261.338
1218.37	197.977
1222.69	381.131
1227.01	206.461
1231.32	170.223
1235.63	337.18
1239.94	176.643
1244.24	326.877
1248.55	370.955
1252.85	90.6523
1257.15	304.871
1261.44	34.3711
1265.74	262.365
1270.03	187.889
1274.32	249.773
1278.61	197.211
1282.89	147.086
1287.17	276.633
1291.45	200.193
1295.73	56.1973
1300	161.812
1304.27	199.857
1308.54	177.498
1312.81	316.723
1317.08	294.33
1321.34	388.588
1325.6	236.654
1329.85	175.332
1334.11	103.215
1338.36	151.478
1342.61	106.379
1346.86	70.8652
1351.1	249.992
1355.35	76.3789
1359.59	518.938
1363.82	148.094
1368.06	375.408
1372.29	218.91
1376.52	204.727
1380.75	51.8066
1384.97	146.978
1389.2	10.6797
1393.42	268.289
1397.64	150.621
1401.85	5.29297
1406.07	245.215
1410.28	96.3867
1414.49	182.291
1418.69	58.0859
1422.9	9.08984
1427.1	71.9004
1431.3	160.441
1435.49	209.387
1439.69	64.9297
1443.88	319.785
1448.07	187.988
1452.26	345.215
1456.44	525.732
1460.62	154.129
1464.8	268.713
1468.98	445.195
1473.15	355.846
1477.33	208.877
1481.5	135.348
1485.66	137.125
1489.83	18.5273
1493.99	119.252
1498.15	303.477
1502.31	102.041
1506.47	201.783
1510.62	150.641
1514.77	171.529
1518.92	353.49
1523.07	86.0391
1527.21	253.209
1531.35	351.58
1535.49	254.846
1539.63	391.18
1543.76	240.371
1547.9	542.736
1552.03	170.59
1556.15	279.07
1560.28	52.1934
1564.4	427.94
1568.52	58.9629
1572.64	267.635
1576.75	73.5488
