Measurement: Raman, 514 nm, depolarized, Raman Data Processed
Mineral: Legrandite
Rruff sample: R040151
Ideal chemistry: Zn^2+^_2_As^5+^O_4_(OH)H_2_O
Locality: Mapimi, Durango, Mexico
Source: University of Arizona Mineral Museum
Description: Yellow crystal fragments; same material used in McLean et al. (1971) study
Measured chemistry: Zn_1.88_Fe^2+^_0.04_As_1.03_O_4_(OH)Â·H_2_O
Pin_id: M00409
Orientation: Laser parallel to -c* (0 0 -1). Fiducial mark perpendicular to laser is parallel to b [0 1 0]
Raman shift (cm-1)	intensity
51.231	0
55.447	34.187
59.66	47.81
63.871	76.148
68.079	34.849
72.286	38.663
76.49	14.915
80.692	998.864
84.891	723.08
89.089	1211.1
93.284	1139.48
97.477	791.772
101.667	1064.42
105.856	761.088
110.042	490.63
114.226	794.917
118.408	1406.85
122.588	1117.37
126.765	1197.39
130.94	2178.86
135.113	4086.68
139.284	3592.18
143.452	2179.05
147.618	1705.24
151.782	1100.87
155.944	727.343
160.104	924.782
164.261	1872.03
168.417	3042.06
172.57	2074.91
176.72	1054.58
180.869	721.065
185.015	966.363
189.16	990.458
193.302	799.333
197.442	1082.96
201.579	1085.33
205.715	779.394
209.848	593.145
213.979	674.552
218.108	866.915
222.235	768.417
226.359	759.015
230.482	1108.5
234.602	1309
238.72	1175.09
242.836	1581.75
246.949	2181.75
251.061	1924.85
255.17	1557.94
259.277	1636.32
263.382	1623.56
267.485	1495.19
271.586	2152.91
275.684	2947.33
279.781	3000.41
283.875	2488.15
287.967	2212.53
292.057	1922.51
296.144	1362.06
300.23	1015.14
304.313	842.744
308.395	906.833
312.474	1030.38
316.551	955.357
320.625	904.768
324.698	763.575
328.769	718.737
332.837	696.234
336.903	532.056
340.968	315.189
345.03	318.62
349.089	388.338
353.147	724.328
357.203	1264.58
361.256	1709.08
365.308	1434.81
369.357	793.769
373.404	412.939
377.449	254.311
381.492	397.885
385.533	591.745
389.571	790.896
393.608	1025.34
397.642	1048.79
401.675	630.298
405.705	311.437
409.733	85.43
413.759	29.919
417.783	79.46
421.804	51.186
425.824	12.515
429.842	7.699
433.857	35.553
437.871	53.381
441.882	65.878
445.891	94.668
449.898	237.882
453.903	507.966
457.906	764.814
461.907	895.414
465.906	975.015
469.902	934.793
473.897	717.645
477.889	519.609
481.88	373.647
485.868	349.636
489.854	419.188
493.839	535.676
497.821	498.092
501.801	452.429
505.779	452.681
509.755	588.841
513.729	642.903
517.7	794.862
521.67	910.712
525.638	885.448
529.603	784.063
533.567	560.555
537.528	351.917
541.488	197.146
545.445	95.236
549.4	85.183
553.354	47.979
557.305	10.586
561.254	8.043
565.201	2.959
569.146	3.784
573.089	20.41
577.03	30.912
580.969	21.621
584.906	11.835
588.841	13.674
592.774	8.505
596.705	48.784
600.633	43.552
604.56	18.83
608.485	24.605
612.408	21.853
616.328	21.552
620.247	43.644
624.163	8.824
628.078	21.973
631.991	16.818
635.901	1.389
639.81	36.665
643.716	106.725
647.621	112.605
651.523	132.314
655.424	195.854
659.322	252.23
663.218	301.444
667.113	231.501
671.005	169.405
674.896	158.158
678.784	167.766
682.671	202.232
686.555	245.563
690.437	255.772
694.318	242.859
698.196	323.834
702.073	353.693
705.947	309.444
709.82	365.106
713.69	344.446
717.558	381.252
721.425	412.004
725.289	387.173
729.152	414.962
733.013	410.042
736.871	472.619
740.728	528.811
744.582	522.788
748.435	566.646
752.286	600.786
756.134	631.227
759.981	722.701
763.826	752.53
767.668	815.99
771.509	854.198
775.348	1021.36
779.185	1269.24
783.02	1659.32
786.853	1968.68
790.684	2222.44
794.513	2629.19
798.34	3374.94
802.165	4110.05
805.988	4363.33
809.809	4245.74
813.628	4071.34
817.446	4039.13
821.261	4274.08
825.074	5038.18
828.886	5445.44
832.695	5779.87
836.503	6831.6
840.309	8573.55
844.112	10510.6
847.914	12977.6
851.714	16904.2
855.512	26942.1
859.308	44209.1
863.102	52786.7
866.894	31514.8
870.684	15372.2
874.472	9140.24
878.258	7277.03
882.043	6154.02
885.825	4849.3
889.606	3913.57
893.384	3784.73
897.161	4414.89
900.936	6033.42
904.709	6065.23
908.479	3972.28
912.248	2570.22
916.016	1876.52
919.781	1429.13
923.544	1218.91
927.305	1035.63
931.065	994.146
934.822	824.634
938.578	679.943
942.332	464.967
946.083	403.783
949.833	309.435
953.581	257.029
957.328	243.401
961.072	136.026
964.814	114.375
968.555	65.355
972.293	58.931
976.03	53.628
979.765	84.384
983.497	91.803
987.228	19.896
990.958	45.009
994.685	4.872
998.41	5.489
1002.13	22.037
1005.86	4.786
1009.58	21.354
1013.29	23.251
1017.01	13.441
1020.72	26.406
1024.43	6.515
1028.14	74.407
1031.85	90.456
1035.56	64.664
1039.27	27.265
1042.97	11
1046.67	1.148
1050.37	9.233
1054.07	7.264
1057.76	6.856
1061.45	15.192
1065.15	20.218
1068.84	9.418
1072.52	11.996
1076.21	13.253
1079.89	2.422
1083.58	20.747
1087.26	19.788
1090.94	12.183
1094.61	38.238
1098.29	8.435
1101.96	0.888
1105.63	24.587
1109.3	9.125
1112.97	7.989
1116.63	9.044
1120.3	1.784
1123.96	4.23
1127.62	24.764
1131.28	67.042
1134.94	49.899
1138.59	62.866
1142.24	18.935
1145.89	2.319
1149.55	8.214
1153.19	45.537
1156.84	41.125
1160.48	81.372
1164.12	55.665
1167.76	30.127
1171.4	52.448
1175.04	35.814
1178.67	41.346
1182.31	35.555
1185.94	69.689
1189.57	85.414
1193.19	49.077
1196.82	91.67
1200.44	89.028
1204.07	54.015
1207.69	81.798
1211.3	98.203
1214.92	69.259
1218.54	133.349
1222.15	116.665
1225.76	79.051
1229.37	105.452
1232.98	112.421
1236.58	75.636
1240.19	81.468
1243.79	113.995
1247.39	137.199
1250.99	119.307
1254.59	101.796
1258.18	89.87
1261.77	62.247
1265.37	74.735
1268.95	55.53
1272.54	103.989
1276.13	83.199
1279.71	66.484
1283.3	130.812
1286.88	82.793
1290.46	54.427
1294.03	68.757
1297.61	56.883
1301.18	8.9
1304.75	10.798
1308.32	87.967
1311.89	74.567
1315.46	77.01
1319.02	79.707
1322.59	69.589
1326.15	19.026
1329.71	35.577
1333.27	24.582
1336.82	21.064
1340.38	35.541
1343.93	51.971
1347.48	111.259
1351.03	126.732
1354.58	68.313
1358.12	60.695
1361.66	47.283
1365.21	24.982
1368.75	31.682
1372.29	62.78
1375.82	33.284
1379.36	70.638
1382.89	77.191
1386.42	48.686
1389.95	76.006
1393.48	12.676
1397.01	47.048
1400.53	43.486
1404.05	11.389
1407.57	32.07
1411.09	47.069
1414.61	62.568
1418.13	103.203
1421.64	78.01
1425.15	55.191
1428.66	61.317
1432.17	17.69
1435.68	44.157
1439.19	19.779
1442.69	72.279
1446.19	26.275
1449.69	56.713
1453.19	74.194
1456.69	57.66
1460.18	133.074
1463.68	138.205
1467.17	102.652
1470.66	80
1474.15	42.731
1477.63	9.083
1481.12	39.576
1484.6	19.315
1488.08	26.158
1491.56	45.364
1495.04	29.819
1498.52	73.58
1501.99	104.996
1505.46	83.962
1508.94	98.09
1512.4	18.756
1515.87	0
