Measurement: Raman, 514 nm, depolarized, Raman Data Processed
Mineral: Legrandite
Rruff sample: R040151
Ideal chemistry: Zn^2+^_2_As^5+^O_4_(OH)H_2_O
Locality: Mapimi, Durango, Mexico
Source: University of Arizona Mineral Museum
Description: Yellow crystal fragments; same material used in McLean et al. (1971) study
Measured chemistry: Zn_1.88_Fe^2+^_0.04_As_1.03_O_4_(OH)Â·H_2_O
Pin_id: M00054
Orientation: Laser parallel to -b* (0 -1 0). Fiducial mark perpendicular to laser is parallel to c [0 0 1]
Raman shift (cm-1)	intensity
51.231	0
55.447	82.217
59.66	150.894
63.871	217.324
68.079	69.403
72.286	40.144
76.49	10.082
80.692	1238.04
84.891	869.126
89.089	1137.74
93.284	817.485
97.477	650.98
101.667	895.708
105.856	793.291
110.042	827.675
114.226	1552.62
118.408	1781.05
122.588	1663.91
126.765	2048.26
130.94	2479.01
135.113	3649.04
139.284	2822.01
143.452	1595.41
147.618	1107.86
151.782	647.547
155.944	525.895
160.104	1186.21
164.261	3156.2
168.417	5235.71
172.57	3097.99
176.72	1537.07
180.869	1041.94
185.015	1213.61
189.16	1511.06
193.302	1753.3
197.442	2049.55
201.579	1657.45
205.715	1017.88
209.848	478.007
213.979	346.822
218.108	578.827
222.235	639.995
226.359	671.031
230.482	950.821
234.602	1280.71
238.72	1042.31
242.836	1176.32
246.949	1551.06
251.061	1201.63
255.17	639.957
259.277	388.016
263.382	258.753
267.485	23.836
271.586	7.78
275.684	134.898
279.781	247.156
283.875	376.992
287.967	530.444
292.057	684.493
296.144	657.148
300.23	666.359
304.313	780.117
308.395	708.409
312.474	588.193
316.551	497.488
320.625	323.322
324.698	241.637
328.769	258.388
332.837	223.562
336.903	4.147
340.968	82.915
345.03	31.331
349.089	225.877
353.147	594.726
357.203	1192.9
361.256	1727.36
365.308	1372.06
369.357	782.006
373.404	414.191
377.449	512.599
381.492	733.223
385.533	879.089
389.571	933.219
393.608	874.639
397.642	611.699
401.675	293.832
405.705	253.224
409.733	281.757
413.759	500.487
417.783	761.004
421.804	1295.95
425.824	1955.46
429.842	2269.35
433.857	2024.61
437.871	1784.48
441.882	1442.5
445.891	1330.59
449.898	1251.15
453.903	1595.47
457.906	2119.9
461.907	2896.34
465.906	3376.16
469.902	3357.5
473.897	2651.25
477.889	1990.78
481.88	1243.28
485.868	731.597
489.854	463.455
493.839	532.438
497.821	670.562
501.801	854.383
505.779	1179.91
509.755	1475.92
513.729	1389.02
517.7	1245.48
521.67	1099.45
525.638	955.239
529.603	878.908
533.567	594.448
537.528	351.854
541.488	174.12
545.445	133.24
549.4	106.208
553.354	70.019
557.305	15.344
561.254	39.955
565.201	8.145
569.146	29.967
573.089	2.543
577.03	48.358
580.969	30.522
584.906	1.012
588.841	54.12
592.774	29.12
596.705	40.729
600.633	21.69
604.56	3.937
608.485	10.923
612.408	34.299
616.328	78.202
620.247	8.373
624.163	9.521
628.078	1.882
631.991	56.648
635.901	49.911
639.81	4.671
643.716	25.15
647.621	3.383
651.523	34.272
655.424	35.503
659.322	70.061
663.218	105.422
667.113	21.583
671.005	37.483
674.896	23.153
678.784	90.58
682.671	106.798
686.555	119.832
690.437	71.686
694.318	104.364
698.196	170.877
702.073	165.23
705.947	143.42
709.82	120.454
713.69	151.945
717.558	177.969
721.425	191.202
725.289	174.976
729.152	135.723
733.013	157.59
736.871	284.13
740.728	297.929
744.582	227.653
748.435	278.229
752.286	300.357
756.134	364.332
759.981	441.729
763.826	402.207
767.668	420.482
771.509	442.451
775.348	544.667
779.185	738.061
783.02	895.581
786.853	895.855
790.684	936.276
794.513	1160.2
798.34	1725.98
802.165	2237.49
805.988	2255.43
809.809	1973.67
813.628	1799.72
817.446	2017.36
821.261	2416.8
825.074	2956.62
828.886	3276.59
832.695	3702.95
836.503	4282.43
840.309	5129.06
844.112	6249.83
847.914	8406.23
851.714	12358.7
855.512	23146.8
859.308	43223.5
863.102	54916.2
866.894	32729.1
870.684	15802.2
874.472	9225.6
878.258	7019.25
882.043	6008.16
885.825	5261.32
889.606	4897.77
893.384	5633.47
897.161	8611.47
900.936	14496.8
904.709	16372.4
908.479	10648.3
912.248	6248.5
916.016	3962.04
919.781	2809.99
923.544	2328.67
927.305	1916.4
931.065	1782.46
934.822	1456.66
938.578	1052.25
942.332	800.66
946.083	666.115
949.833	606.274
953.581	598.3
957.328	467.654
961.072	325.731
964.814	218.936
968.555	174.612
972.293	173.789
976.03	169.285
979.765	173.736
983.497	128.65
987.228	83.176
990.958	16.829
994.685	46.659
998.41	67.208
1002.13	154.191
1005.86	143.58
1009.58	73.982
1013.29	82.277
1017.01	117.682
1020.72	223.011
1024.43	467.89
1028.14	619.325
1031.85	558.641
1035.56	373.267
1039.27	268.398
1042.97	208.583
1046.67	168.384
1050.37	160.131
1054.07	103.232
1057.76	3.859
1061.45	37.917
1065.15	79.324
1068.84	22.195
1072.52	19.634
1076.21	77.534
1079.89	84.266
1083.58	5.06
1087.26	18.286
1090.94	32.7
1094.61	33.104
1098.29	38.458
1101.96	48.874
1105.63	37.637
1109.3	50.937
1112.97	33.101
1116.63	60.384
1120.3	24.762
1123.96	39.521
1127.62	91.031
1131.28	61.729
1134.94	67.556
1138.59	67.287
1142.24	41.125
1145.89	14.258
1149.55	17.722
1153.19	44.737
1156.84	94.625
1160.48	153.989
1164.12	47.101
1167.76	16.626
1171.4	15.262
1175.04	30.685
1178.67	64.718
1182.31	60.632
1185.94	147.922
1189.57	123.014
1193.19	55.14
1196.82	26.188
1200.44	33.744
1204.07	1.021
1207.69	112.86
1211.3	129.777
1214.92	163.012
1218.54	209.492
1222.15	130.515
1225.76	105.289
1229.37	132.066
1232.98	192.587
1236.58	160.234
1240.19	182.372
1243.79	212.29
1247.39	244.116
1250.99	216.62
1254.59	135.455
1258.18	110.806
1261.77	77.214
1265.37	159.925
1268.95	86.325
1272.54	236.69
1276.13	232.669
1279.71	201.306
1283.3	170.414
1286.88	89.5
1290.46	52.313
1294.03	77.816
1297.61	12.57
1301.18	59.871
1304.75	57.113
1308.32	215.003
1311.89	154.181
1315.46	136.694
1319.02	157.847
1322.59	20.262
1326.15	60.906
1329.71	73.058
1333.27	105.896
1336.82	120.676
1340.38	114.146
1343.93	110.067
1347.48	184.217
1351.03	92.621
1354.58	82.647
1358.12	60.945
1361.66	73.384
1365.21	47.637
1368.75	14.397
1372.29	138.687
1375.82	192.714
1379.36	233.341
1382.89	162.995
1386.42	164.817
1389.95	109.43
1393.48	25.05
1397.01	42.484
1400.53	19.921
1404.05	62.081
1407.57	102.18
1411.09	190.086
1414.61	226.992
1418.13	196.873
1421.64	185.326
1425.15	100.286
1428.66	28.319
1432.17	16.126
1435.68	17.562
1439.19	37.567
1442.69	53.262
1446.19	136.793
1449.69	191.985
1453.19	216.142
1456.69	241.072
1460.18	179
1463.68	138.218
1467.17	83.363
1470.66	71.663
1474.15	44.822
1477.63	20.473
1481.12	124.829
1484.6	81.829
1488.08	111.209
1491.56	179.95
1495.04	148.034
1498.52	212.62
1501.99	172.778
1505.46	136.143
1508.94	84.362
1512.4	36.156
1515.87	0
