Measurement: Raman, 514 nm, ccw, Raman Data Processed
Mineral: Leucite
Rruff sample: R060300
Ideal chemistry: K(Si_2_Al)O_6_
Locality: Alban Hills, Rome Province, Latium, Italy
Source: Herb Obodda
Description: Colorless complete pseudocubic crystal showing trapezohedral faces
Measured chemistry: (K_0.98_Na_0.02_)_Î£=1_Al_1.00_Si_2.00_O_6_
Pin_id: M01338
Orientation: Laser parallel to a* (1 0 0). Fiducial mark perpendicular to laser is parallel to c [0 0 1]
Raman shift (cm-1)	intensity
66.51	0
71.485	168.098
76.456	2084.38
81.425	3315.55
86.391	2230.7
91.354	1219.27
96.315	795.564
101.272	607.992
106.227	764.421
111.179	920.687
116.129	1169.69
121.075	911.002
126.019	760.911
130.96	1227.43
135.898	2858.69
140.834	4585.04
145.766	6386.97
150.696	7950.81
155.623	8433.7
160.548	7786.41
165.469	6368.23
170.388	5446.94
175.304	6495.93
180.218	7846.62
185.128	6974.8
190.036	6035.64
194.941	3928.45
199.844	2814.17
204.743	2081.89
209.64	1824.83
214.534	1258.07
219.426	1172.53
224.314	704.71
229.2	241.255
234.083	20.7803
238.964	127.336
243.841	297.023
248.716	350.092
253.588	229.851
258.458	125.221
263.324	2.52051
268.188	177.968
273.05	156.275
277.908	415.671
282.764	369.443
287.617	634.852
292.467	1206.18
297.315	1912.34
302.16	2322.45
307.002	2195.01
311.841	1683.57
316.678	1410.99
321.512	1101.66
326.343	1259.24
331.172	1398.06
335.998	1531.05
340.821	1408.15
345.641	1215.42
350.459	797.881
355.274	861.613
360.086	1025.61
364.896	1082.62
369.702	1134.38
374.507	1257.19
379.308	1138.7
384.107	1259.37
388.903	1153.32
393.696	1027.48
398.487	814.533
403.275	449.873
408.06	195.321
412.843	201.762
417.622	427.185
422.4	618.084
427.174	969.724
431.946	1223.06
436.715	925.365
441.481	663.741
446.245	521.705
451.006	738.384
455.764	1059.9
460.52	1689.92
465.273	2582.32
470.023	4916.28
474.771	9745.78
479.516	16857.2
484.258	24453.3
488.998	31032.8
493.735	38713.3
498.469	39070.1
503.2	33733.8
507.929	31166.6
512.656	24850.8
517.379	20655.2
522.1	22272.9
526.818	28210.6
531.534	26629.4
536.247	16051.7
540.957	8685.58
545.665	5230.92
550.369	3512.53
555.072	2304.94
559.771	1753.21
564.468	1108.62
569.163	678.083
573.854	315.419
578.543	97.4394
583.23	254.997
587.913	145.048
592.594	139.549
597.273	0.411133
601.949	80.1328
606.622	10.0117
611.292	126.135
615.96	105.756
620.625	26.0547
625.288	33.6728
629.948	106.791
634.605	131.421
639.26	95.0762
643.912	85.4092
648.561	129.381
653.208	187.698
657.852	95.8242
662.493	36.9121
667.132	173.015
671.768	279.894
676.402	275.479
681.033	285.242
685.661	150.634
690.287	160.469
694.91	131.135
699.531	53.3232
704.149	27.3242
708.764	121.991
713.377	266.56
717.987	414.857
722.594	187.35
727.199	416.136
731.801	388.607
736.401	259.809
740.998	429.049
745.592	393.7
750.184	303.732
754.773	264.589
759.36	221.365
763.944	162.29
768.525	266.836
773.104	267.023
777.68	470.595
782.254	421.409
786.824	550.077
791.393	252.27
795.959	337.952
800.522	140.172
805.082	211.886
809.641	204.079
814.196	2.36621
818.749	79.3691
823.299	16.3994
827.847	110.441
832.392	151.408
836.934	63.1504
841.474	69.2227
846.012	21.6279
850.546	29.6875
855.079	66.1455
859.608	53.8418
864.135	70.9228
868.66	53.6025
873.182	2.07519
877.701	61.1016
882.218	103.533
886.732	76.6738
891.243	99.5137
895.753	174.035
900.259	105.531
904.763	111.709
909.264	237.559
913.763	295.103
918.259	313.361
922.753	467.369
927.244	375.121
931.733	286.738
936.219	629.621
940.702	894.736
945.183	956.955
949.661	1162.17
954.137	1264.3
958.611	1543.99
963.081	1500.14
967.549	1652.15
972.015	1575.58
976.478	1653.16
980.939	1395.92
985.397	1648.36
989.852	1697.83
994.305	1492.12
998.755	1798.11
1003.2	1677.46
1007.65	1785.41
1012.09	1790.09
1016.53	1647.3
1020.97	2004.07
1025.4	1938.28
1029.84	2128.31
1034.27	1917.4
1038.69	2083.4
1043.12	2167.69
1047.54	2495.18
1051.96	2437.21
1056.38	2587.56
1060.8	2667.4
1065.21	2753.78
1069.62	2479.98
1074.02	2392.62
1078.43	2188.19
1082.83	2022.16
1087.23	2187.01
1091.63	1961.69
1096.02	2189.63
1100.42	2303.72
1104.81	2071.74
1109.19	2001.8
1113.58	2002.56
1117.96	1831.71
1122.34	1750.12
1126.72	1746.96
1131.09	1505.06
1135.46	1323.63
1139.83	1246.31
1144.2	1104.49
1148.57	1074.44
1152.93	1021.65
1157.29	564.643
1161.64	400.123
1166	355.478
1170.35	365.807
1174.7	301.023
1179.05	86.2461
1183.39	39.918
1187.74	255.299
1192.08	21.0918
1196.41	211.109
1200.75	125.42
1205.08	113.061
1209.41	43.4941
1213.74	255.947
1218.06	165.508
1222.39	44.8574
1226.71	41.3672
1231.02	175.129
1235.34	7.40234
1239.65	55.5938
1243.96	73.7656
1248.27	324.787
1252.57	186.713
1256.88	153.617
1261.18	264.381
1265.47	129.07
1269.77	195.422
1274.06	266.555
1278.35	36.5938
1282.64	31.9336
1286.93	74.0859
1291.21	161.566
1295.49	79.6875
1299.77	19.9219
1304.04	17.5176
1308.32	111.852
1312.59	125.012
1316.86	143.975
1321.12	157.941
1325.38	182.4
1329.65	102.861
1333.9	100.859
1338.16	184.209
1342.41	60.5273
1346.66	60.2285
1350.91	108.666
1355.16	45.9766
1359.4	390.227
1363.64	246.098
1367.88	267.668
1372.12	524.023
1376.35	421.469
1380.59	310.93
1384.82	384.272
1389.04	46.5664
1393.27	112.969
1397.49	396.926
1401.71	14.0215
1405.92	203.603
1410.14	122.822
1414.35	184.106
1418.56	421.781
1422.77	284.967
1426.97	131.633
1431.17	150.674
1435.38	152.762
1439.57	240.256
1443.77	125.152
1447.96	101.885
1452.15	192.273
1456.34	12.3203
1460.53	301.211
1464.71	201.772
1468.89	155.232
1473.07	174.894
1477.24	31.4453
1481.42	216.031
1485.59	246.59
1489.76	177.059
1493.92	139.894
1498.09	94.6504
1502.25	349.658
1506.41	11.5996
1510.56	377.85
1514.72	152.477
1518.87	278.977
1523.02	235.254
1527.17	173.725
1531.31	38.418
1535.45	184.496
1539.59	191.129
1543.73	115.301
1547.87	49.125
1552	17.3633
1556.13	106.715
1560.26	26.7148
1564.38	41.4316
1568.51	83.6758
1572.63	71.6074
1576.74	69.2344
