Measurement: Raman, 514 nm, depolarized, Raman Data Processed
Mineral: Leucite
Rruff sample: R040107
Ideal chemistry: K(Si_2_Al)O_6_
Locality: Roccamonfina, Italy
Source: University of Arizona Mineral Museum
Description: Rounded colorless crystals embedded in an ash matrix
Measured chemistry: (K_0.95_Na_0.03_)Al_0.99_Si_2.01_O_6_
Pin_id: L00276
Orientation: Laser parallel to -a* (-1 0 0). Fiducial mark perpendicular to laser is parallel to c [0 0 1]
Raman shift (cm-1)	intensity
75.803	0
80.763	3089.22
85.722	9228.78
90.678	1385.71
95.631	564.686
100.581	62.2441
105.529	145.156
110.475	186.744
115.417	1950.2
120.358	3851.45
125.295	11988.1
130.23	2434.22
135.163	5327.38
140.092	9467.6
145.019	14001.5
149.944	18764.3
154.866	21238.2
159.785	21458.4
164.702	19126.7
169.616	16208.4
174.528	16087.5
179.437	18928.9
184.343	20201.2
189.247	16867.8
194.148	12484.5
199.046	8997.05
203.942	7137.57
208.835	6088.18
213.726	5783.35
218.614	4764.03
223.5	3057.52
228.382	1729.11
233.263	997.324
238.14	24.0234
243.015	388.922
247.888	662.027
252.758	548.217
257.625	209.367
262.49	94.3945
267.352	74.8965
272.211	887.461
277.068	801.809
281.922	913.582
286.773	1632.69
291.622	3129.96
296.469	5181.35
301.312	7055.82
306.154	7321.96
310.992	6177.04
315.828	5200.03
320.661	4656.78
325.492	4421.26
330.32	5014.4
335.145	5787.5
339.968	5881.42
344.789	5044.11
349.606	4044.62
354.421	3577.14
359.234	3395.92
364.043	3617.23
368.851	3895.83
373.655	4069.32
378.457	4330.29
383.256	4431.18
388.053	4552.87
392.847	4387.71
397.639	3816.38
402.428	2802.2
407.214	1882.69
411.998	1438.32
416.779	1297.28
421.557	1822.22
426.333	2518.69
431.106	3176.7
435.877	2895.6
440.645	1872.21
445.41	1581.56
450.173	1664.31
454.933	2553.81
459.691	4309.33
464.446	6899.45
469.198	11460.7
473.948	22352
478.695	38825.6
483.439	60819.6
488.181	80530.5
492.92	102452
497.657	115685
502.391	106042
507.122	95479.7
511.851	82895.3
516.577	66073.1
521.301	62125.7
526.022	72878.6
530.74	80170.6
535.456	60298.8
540.169	34565.8
544.879	19607.4
549.587	12509.3
554.292	8639.14
558.995	6073.26
563.695	4243.93
568.392	2495.2
573.087	1574.09
577.779	644.967
582.469	470.057
587.156	233.56
591.84	615.713
596.522	371.197
601.201	228.684
605.877	112.332
610.551	164.822
615.222	92.709
619.891	157.586
624.557	111.961
629.22	102.166
633.881	68.0449
638.539	129.885
643.195	54.4629
647.848	269.17
652.498	257.732
657.145	38.6406
661.791	267.826
666.433	443.312
671.073	816.023
675.71	1149.5
680.345	976.797
684.977	934.305
689.606	599.123
694.233	355.769
698.857	113.299
703.478	160.16
708.097	292.621
712.714	443.865
717.327	669.992
721.938	903.09
726.547	893.934
731.153	989.449
735.756	975.873
740.356	1137.34
744.954	984.773
749.55	929.789
754.142	758.447
758.733	826.834
763.32	786.836
767.905	952.877
772.487	984.725
777.067	1367.64
781.644	1714.83
786.218	1802.63
790.79	1713.62
795.359	1336.66
799.926	1515.94
804.49	1113.59
809.051	550.314
813.61	458.984
818.166	104.397
822.72	61.9883
827.271	154.662
831.819	14.4629
836.365	31.207
840.908	100.617
845.448	44.2969
849.986	81.3125
854.521	153.342
859.054	16.5059
863.584	82.1953
868.111	2.86914
872.636	108.769
877.158	96.4648
881.677	180.432
886.194	34.5352
890.709	107.469
895.22	206.25
899.729	252.129
904.236	323.375
908.74	596.025
913.241	823.311
917.739	1211.29
922.235	1245.26
926.729	1138.56
931.219	1545.23
935.708	1745.87
940.193	2057.27
944.676	2603.63
949.156	2869.76
953.634	3412.57
958.109	4126.38
962.582	4142.28
967.051	4337.78
971.519	4846.68
975.983	4824.16
980.445	4709.31
984.905	4760.43
989.362	5084
993.816	4677.48
998.267	5244.41
1002.72	4977.54
1007.16	5391.27
1011.61	5370.6
1016.05	5157.65
1020.49	5664.91
1024.92	5490.99
1029.36	5593.54
1033.79	6127.04
1038.21	6309.5
1042.64	6508.54
1047.06	6855.82
1051.48	7139.46
1055.9	7162.53
1060.32	6965.86
1064.73	7273.23
1069.14	7339.64
1073.55	7401.28
1077.95	6846.88
1082.35	6610.02
1086.75	6402.14
1091.15	6228.22
1095.54	6215.31
1099.93	6009.36
1104.32	6206.68
1108.71	5978.65
1113.09	5914.66
1117.47	5594.28
1121.85	5439.15
1126.23	4952.13
1130.6	4455.15
1134.97	3849.05
1139.34	3700.43
1143.7	3193.82
1148.07	2950.93
1152.43	2400.83
1156.79	2041.31
1161.14	1679.93
1165.49	1208.46
1169.84	546.445
1174.19	625.035
1178.54	379.137
1182.88	57.8945
1187.22	116.68
1191.55	71.0625
1195.89	4.93359
1200.22	399.484
1204.55	60.7031
1208.87	57.8125
1213.2	156.641
1217.52	47.9453
1221.84	71.2148
1226.15	77.1953
1230.47	59.6836
1234.78	225.695
1239.09	330.453
1243.39	38.4141
1247.69	42.5312
1251.99	84.8789
1256.29	211.266
1260.59	111.859
1264.88	406.188
1269.17	197.75
1273.46	50.2031
1277.74	303.414
1282.02	425.797
1286.3	484.043
1290.58	254.18
1294.86	21.1836
1299.13	378.996
1303.39	148.703
1307.66	224.297
1311.93	305.867
1316.19	396.242
1320.45	38.5117
1324.7	441.562
1328.96	197.473
1333.21	241.457
1337.45	529.731
1341.7	401.613
1345.94	236.898
1350.18	226.332
1354.42	276.707
1358.66	369.848
1362.89	59.8867
1367.12	277.457
1371.35	109.984
1375.57	136.512
1379.8	674.547
1384.02	285.102
1388.23	50.9336
1392.45	436.004
1396.66	7.40625
1400.87	908.684
1405.08	384.773
1409.28	240.098
1413.48	416.606
1417.68	281.562
1421.88	491.051
1426.07	207.578
1430.26	475.621
1434.45	466.684
1438.64	409.297
1442.82	673.828
1447	348.449
1451.18	494.43
1455.35	500.547
1459.53	359.121
1463.7	621.875
1467.87	620.848
1472.03	492.519
1476.19	382.914
1480.35	345.684
1484.51	107.695
1488.67	466.266
1492.82	347.188
1496.97	252.754
1501.12	248.789
1505.26	156.32
1509.4	505.121
1513.54	356.269
1517.68	471.816
1521.81	410.34
1525.94	738.211
1530.07	245.57
1534.2	569.477
1538.32	38.8438
1542.44	691.82
1546.56	270.727
1550.68	462.465
1554.79	335.371
1558.9	62.7656
1563.01	398.422
1567.12	19.125
1571.22	68.3281
1575.32	1.01172
