Measurement: Raman, 514 nm, ccw, Raman Data Processed
Mineral: Leucite
Rruff sample: R040107
Ideal chemistry: K(Si_2_Al)O_6_
Locality: Roccamonfina, Italy
Source: University of Arizona Mineral Museum
Description: Rounded colorless crystals embedded in an ash matrix
Measured chemistry: (K_0.95_Na_0.03_)Al_0.99_Si_2.01_O_6_
Pin_id: L01573
Orientation: Laser parallel to -c* (0 0 -1). Fiducial mark perpendicular to laser is parallel to -a [-1 0 0]
Raman shift (cm-1)	intensity
90.678	0
95.631	1239
100.581	963.906
105.529	321.951
110.475	954.283
115.417	3981.05
120.358	6654.09
125.295	10195.2
130.23	2779.83
135.163	6519.85
140.092	10898.4
145.019	15260.9
149.944	18750.6
154.866	19507.1
159.785	17496.9
164.702	14939
169.616	13957.3
174.528	17201.8
179.437	22911.4
184.343	22608
189.247	17756.3
194.148	12434.5
199.046	8507.05
203.942	6501.77
208.835	5512.41
213.726	4797
218.614	4292.86
223.5	3057.85
228.382	1643.84
233.263	231.943
238.14	470.965
243.015	936.301
247.888	950.057
252.758	717.984
257.625	407.082
262.49	352.391
267.352	513.525
272.211	1259.76
277.068	1030.62
281.922	1265.29
286.773	1828.55
291.622	3127.96
296.469	4940.08
301.312	6272.98
306.154	6112.27
310.992	5175.49
315.828	4213.86
320.661	3349.02
325.492	3010.04
330.32	2722.69
335.145	2672.04
339.968	2590.61
344.789	2249.14
349.606	1860.59
354.421	1768.95
359.234	1932.49
364.043	2052.49
368.851	2124.86
373.655	2367.66
378.457	2270.34
383.256	2000.8
388.053	1861.01
392.847	1719.31
397.639	1071.5
402.428	742.947
407.214	498.24
411.998	888.244
416.779	1322.46
421.557	2415.65
426.333	3702.26
431.106	4400.47
435.877	3867.84
440.645	2519.49
445.41	1884.25
450.173	2157.25
454.933	3056.67
459.691	4949.86
464.446	7072.3
469.198	11621.5
473.948	21425.8
478.695	38118.8
483.439	57352.5
488.181	72731.1
492.92	89239.4
497.657	96755.8
502.391	85361.3
507.122	79255.2
511.851	66368.8
516.577	53285.3
521.301	53280.7
526.022	64792.7
530.74	66321.1
535.456	44797.7
540.169	24853.7
544.879	14538
549.587	9666.98
554.292	6761.88
558.995	4573.45
563.695	3097.56
568.392	2011.12
573.087	1096.99
577.779	795.352
582.469	421.668
587.156	455.055
591.84	369.443
596.522	321.906
601.201	161.543
605.877	44.6777
610.551	63.8867
615.222	292.772
619.891	331.627
624.557	619.611
629.22	370.606
633.881	153.641
638.539	194.557
643.195	195.291
647.848	195.496
652.498	25.9512
657.145	236.812
661.791	74.8144
666.433	70.0703
671.073	345.051
675.71	693.777
680.345	613.287
684.977	511.523
689.606	368.918
694.233	213.789
698.857	110.547
703.478	4.99805
708.097	296.014
712.714	498.606
717.327	668.928
721.938	597.607
726.547	517.477
731.153	583.617
735.756	787.779
740.356	508.435
744.954	608.197
749.55	470.586
754.142	374.691
758.733	440.18
763.32	344.779
767.905	266.894
772.487	456.975
777.067	304.562
781.644	462.305
786.218	464.738
790.79	438.893
795.359	546.662
799.926	382.66
804.49	221.535
809.051	39.1152
813.61	46.7383
818.166	32.9102
822.72	38.8535
827.271	160.842
831.819	2.33008
836.365	87.8672
840.908	87.3184
845.448	216.666
849.986	47.9648
854.521	204.775
859.054	311.336
863.584	427.832
868.111	143.266
872.636	37.4648
877.158	16.4082
881.677	11.8789
886.194	212.17
890.709	13.3789
895.22	190.844
899.729	378.231
904.236	325.461
908.74	481.736
913.241	532.824
917.739	745.102
922.235	842.58
926.729	915.889
931.219	1062.49
935.708	1260.19
940.193	1544.77
944.676	1958.33
949.156	2359.93
953.634	2717.17
958.109	2800.96
962.582	2961.95
967.051	3143.61
971.519	2988.96
975.983	2924.58
980.445	3176.76
984.905	3342.44
989.362	3316.08
993.816	3107.78
998.267	3659.57
1002.72	4417.62
1007.16	3982.55
1011.61	4564.16
1016.05	3678.06
1020.49	3715.61
1024.92	4181.41
1029.36	4015.2
1033.79	4093.81
1038.21	4116.97
1042.64	4351.51
1047.06	4891.44
1051.48	5399.81
1055.9	5651.58
1060.32	5683.77
1064.73	5900.19
1069.14	5528.6
1073.55	5425.19
1077.95	5220.83
1082.35	4835.82
1086.75	4810.13
1091.15	4677.92
1095.54	4517.97
1099.93	4461.65
1104.32	4383.02
1108.71	4435.1
1113.09	4435.4
1117.47	4196.91
1121.85	3704.32
1126.23	3739.75
1130.6	3395.38
1134.97	3342.93
1139.34	3069.91
1143.7	2656.5
1148.07	2023.52
1152.43	2116.95
1156.79	1813.79
1161.14	1256
1165.49	1050.64
1169.84	834.475
1174.19	526.574
1178.54	363.924
1182.88	344.514
1187.22	19.3301
1191.55	129.356
1195.89	108.533
1200.22	131.428
1204.55	39.7695
1208.87	133.629
1213.2	38.4688
1217.52	44.6699
1221.84	163.045
1226.15	6.41406
1230.47	22.8203
1234.78	124.691
1239.09	3.64844
1243.39	32.8691
1247.69	238.857
1251.99	10.2852
1256.29	115.525
1260.59	258.74
1264.88	385.127
1269.17	431.565
1273.46	337.42
1277.74	355.838
1282.02	272.988
1286.3	277.984
1290.58	273.805
1294.86	428.443
1299.13	463.815
1303.39	411.098
1307.66	340.072
1311.93	225.791
1316.19	785.008
1320.45	379.408
1324.7	492.471
1328.96	317.734
1333.21	719.67
1337.45	229.461
1341.7	205.272
1345.94	95.1816
1350.18	338.369
1354.42	46.5234
1358.66	187.602
1362.89	116.121
1367.12	331.357
1371.35	111.467
1375.57	199.928
1379.8	249.174
1384.02	240.803
1388.23	185.66
1392.45	300.565
1396.66	50.5059
1400.87	290.826
1405.08	390.627
1409.28	200.434
1413.48	300.656
1417.68	351.066
1421.88	229.924
1426.07	242.57
1430.26	437.125
1434.45	752.58
1438.64	608.537
1442.82	1304.97
1447	1110.43
1451.18	1396.9
1455.35	1413.64
1459.53	1443.85
1463.7	1201.99
1467.87	834.408
1472.03	912.021
1476.19	481.213
1480.35	575.525
1484.51	743.967
1488.67	396.17
1492.82	432.918
1496.97	120.75
1501.12	300.525
1505.26	138.379
1509.4	109.533
1513.54	247.412
1517.68	70.25
1521.81	490.973
1525.94	636.719
1530.07	362.225
1534.2	454.523
1538.32	267.734
1542.44	383.027
1546.56	690.377
1550.68	387.231
1554.79	744.279
1558.9	232.582
1563.01	115.41
1567.12	93.1699
1571.22	355.606
1575.32	233.457
