Measurement: Raman, 514 nm, ccw, Raman Data Processed
Mineral: Leucite
Rruff sample: R040107
Ideal chemistry: K(Si_2_Al)O_6_
Locality: Roccamonfina, Italy
Source: University of Arizona Mineral Museum
Description: Rounded colorless crystals embedded in an ash matrix
Measured chemistry: (K_0.95_Na_0.03_)Al_0.99_Si_2.01_O_6_
Pin_id: L00276
Orientation: Laser parallel to -a* (-1 0 0). Fiducial mark perpendicular to laser is parallel to c [0 0 1]
Raman shift (cm-1)	intensity
75.803	0
80.763	5499.72
85.722	12419.9
90.678	3031.41
95.631	868.652
100.581	225.732
105.529	367.84
110.475	132.754
115.417	1016.39
120.358	2796.66
125.295	10618.8
130.23	1990.74
135.163	4949.68
140.092	10255.3
145.019	15601.4
149.944	21507
154.866	23891.6
159.785	23886.4
164.702	21245.9
169.616	17630.7
174.528	17081.2
179.437	19868.5
184.343	20991.5
189.247	17542.7
194.148	12541.2
199.046	9095.93
203.942	6494.98
208.835	5087.61
213.726	4280.39
218.614	3091.78
223.5	1961.1
228.382	1054.66
233.263	245.465
238.14	247.938
243.015	537.779
247.888	449.037
252.758	463.603
257.625	159.709
262.49	24.418
267.352	317.941
272.211	904.137
277.068	1033.82
281.922	1332.87
286.773	2121.58
291.622	3539.09
296.469	5829.48
301.312	8017.77
306.154	8130.01
310.992	6984.45
315.828	5761.9
320.661	5036.5
325.492	5066.17
330.32	5626.88
335.145	6198.7
339.968	6570.41
344.789	5703.9
349.606	4772.23
354.421	4201.61
359.234	4416.85
364.043	4268.23
368.851	4554.22
373.655	4940.81
378.457	4948.94
383.256	5160.5
388.053	5258.21
392.847	5136.31
397.639	4340.19
402.428	3227.04
407.214	2324.2
411.998	1754.98
416.779	1613.07
421.557	2057.7
426.333	2829.43
431.106	3446
435.877	3178
440.645	2575.85
445.41	2215.93
450.173	2428.37
454.933	2962.64
459.691	4506.09
464.446	7376.51
469.198	12972.1
473.948	24085.3
478.695	43432.7
483.439	67211.1
488.181	89475.3
492.92	113578
497.657	128860
502.391	118051
507.122	105976
511.851	91947.1
516.577	73477.7
521.301	69296.9
526.022	81606.1
530.74	88477.7
535.456	66711.7
540.169	38301.1
544.879	21864.6
549.587	13959.2
554.292	9608.44
558.995	6627.65
563.695	4493.7
568.392	2878.19
573.087	1750.68
577.779	1100.89
582.469	623.119
587.156	617.367
591.84	491.352
596.522	449.277
601.201	143.793
605.877	63.8848
610.551	424.244
615.222	313.711
619.891	51.3438
624.557	164.617
629.22	146.068
633.881	66.4531
638.539	90.1172
643.195	274.365
647.848	193.809
652.498	119.576
657.145	83.5273
661.791	444.256
666.433	692.727
671.073	992.979
675.71	1044.79
680.345	1193.86
684.977	1002.17
689.606	637.188
694.233	474.432
698.857	297.393
703.478	305.508
708.097	593.115
712.714	911.545
717.327	1236.72
721.938	1230.24
726.547	1163.52
731.153	1296.17
735.756	1147.94
740.356	1249.05
744.954	1261.16
749.55	1124.19
754.142	886.209
758.733	992.783
763.32	959.66
767.905	930.586
772.487	1045.68
777.067	1329.23
781.644	1339.5
786.218	1569.47
790.79	1288.18
795.359	1643.46
799.926	934.43
804.49	587.281
809.051	307.264
813.61	304.883
818.166	33.2891
822.72	131.053
827.271	51.7305
831.819	60.918
836.365	192.918
840.908	39.1426
845.448	34.2969
849.986	127.338
854.521	136.838
859.054	118.629
863.584	168.975
868.111	57.9043
872.636	20.5703
877.158	18.9238
881.677	23.8574
886.194	149.381
890.709	321.818
895.22	459.676
899.729	375.309
904.236	463.512
908.74	675.381
913.241	598.045
917.739	1028.83
922.235	970.934
926.729	1418.5
931.219	1668.29
935.708	1659.02
940.193	2132.55
944.676	2755.8
949.156	3353.13
953.634	3813.24
958.109	4478.51
962.582	4809.9
967.051	4940.91
971.519	5342.51
975.983	5368.27
980.445	5405.34
984.905	5595.88
989.362	5555.04
993.816	5421.66
998.267	5325.91
1002.72	5533.65
1007.16	5790.59
1011.61	5716.15
1016.05	5906.41
1020.49	6168.84
1024.92	6296.01
1029.36	6470.95
1033.79	6663.22
1038.21	6919.09
1042.64	7282.84
1047.06	7927.86
1051.48	7979.05
1055.9	8414.14
1060.32	8719.9
1064.73	8471.33
1069.14	8351.37
1073.55	7780.34
1077.95	7685.42
1082.35	7259.45
1086.75	7282.28
1091.15	6835.26
1095.54	7226.01
1099.93	6980.31
1104.32	6764.71
1108.71	6844.06
1113.09	6535.39
1117.47	6297.12
1121.85	5833.17
1126.23	5898.07
1130.6	5227.06
1134.97	4882.45
1139.34	4350.48
1143.7	3904.76
1148.07	3357.33
1152.43	2591.45
1156.79	2379.83
1161.14	1687.69
1165.49	1416.21
1169.84	1252.09
1174.19	454.984
1178.54	277.609
1182.88	354.934
1187.22	16.8555
1191.55	239.848
1195.89	78.1172
1200.22	39.2246
1204.55	110.232
1208.87	50.627
1213.2	143.949
1217.52	120.269
1221.84	36.584
1226.15	8.37695
1230.47	114.289
1234.78	125.164
1239.09	36.5391
1243.39	160.193
1247.69	49.8574
1251.99	17.4727
1256.29	78.2773
1260.59	43.7891
1264.88	270.244
1269.17	20.8184
1273.46	182.342
1277.74	136.941
1282.02	98.1621
1286.3	40.9141
1290.58	10.7656
1294.86	138.531
1299.13	242.623
1303.39	292.33
1307.66	175.352
1311.93	243.85
1316.19	285.606
1320.45	97.8516
1324.7	41.8984
1328.96	194.582
1333.21	420.742
1337.45	359.762
1341.7	417.481
1345.94	370.34
1350.18	293.457
1354.42	326.801
1358.66	367.309
1362.89	147.492
1367.12	426.969
1371.35	262.269
1375.57	151.199
1379.8	480.719
1384.02	68.0352
1388.23	254.019
1392.45	431.117
1396.66	278.32
1400.87	263.938
1405.08	838.539
1409.28	587.277
1413.48	192.152
1417.68	292.859
1421.88	345.824
1426.07	260.578
1430.26	384.316
1434.45	768.527
1438.64	391.348
1442.82	563.098
1447	473.285
1451.18	482.606
1455.35	520.766
1459.53	521.949
1463.7	377.422
1467.87	23.2461
1472.03	261.312
1476.19	226.254
1480.35	87.3164
1484.51	448.691
1488.67	599.672
1492.82	142.012
1496.97	356.481
1501.12	422.715
1505.26	281.988
1509.4	115.488
1513.54	546.34
1517.68	135.59
1521.81	504.84
1525.94	714.488
1530.07	29.9883
1534.2	167.996
1538.32	531.781
1542.44	269.445
1546.56	310.172
1550.68	455.676
1554.79	23.6289
1558.9	276.422
1563.01	275.203
1567.12	342.258
1571.22	7.79297
1575.32	116.414
