Measurement: Raman, 514 nm, ccw, Raman Data Processed
Mineral: Leucite
Rruff sample: R060300
Ideal chemistry: K(Si_2_Al)O_6_
Locality: Alban Hills, Rome Province, Latium, Italy
Source: Herb Obodda
Description: Colorless complete pseudocubic crystal showing trapezohedral faces
Measured chemistry: (K_0.98_Na_0.02_)_Î£=1_Al_1.00_Si_2.00_O_6_
Pin_id: M00574
Orientation: Laser parallel to -c* (0 0 -1). Fiducial mark perpendicular to laser is parallel to a [1 0 0]
Raman shift (cm-1)	intensity
83.908	0
88.873	222.801
93.835	818.513
98.794	829.249
103.75	152.58
108.704	354.987
113.654	1552.14
118.602	2021.63
123.547	1251.32
128.49	1001.44
133.429	2285.52
138.366	4059.51
143.3	5607.66
148.232	6821.2
153.16	7491.16
158.086	7174.82
163.009	5889.96
167.929	5250.69
172.847	5859.83
177.761	8175.07
182.673	9047.11
187.583	7600.27
192.489	5314.11
197.393	3509.04
202.294	2606.38
207.192	2074.02
212.088	1793.49
216.98	1428.59
221.87	1203.34
226.758	655.548
231.642	190.9
236.524	16.6636
241.403	222.198
246.279	250.834
251.153	256.226
256.023	223.615
260.891	54.5566
265.757	259.13
270.619	225.736
275.479	262.027
280.336	309.738
285.191	484.191
290.042	898.809
294.891	1452.95
299.738	2157.83
304.581	2208.54
309.422	1662.37
314.26	1497.91
319.095	1135.3
323.928	879.941
328.758	725.119
333.585	655.149
338.41	614.084
343.231	419.962
348.05	372.786
352.867	311.558
357.68	428.244
362.491	398.865
367.299	516.377
372.105	490.394
376.908	507.296
381.708	359.713
386.505	253.95
391.3	393.455
396.092	73.1694
400.881	120.454
405.668	0.400879
410.452	101.661
415.233	294.942
420.011	663.167
424.787	1201.49
429.56	1595.48
434.331	1651.06
439.098	1121.62
443.863	708.575
448.626	614.957
453.385	971.824
458.142	1575.29
462.897	2228.67
467.648	3399.1
472.397	6058.64
477.144	11527.2
481.887	18566.3
486.628	23824.3
491.366	29298.4
496.102	34037.2
500.835	30466.2
505.565	28034.1
510.293	24678.5
515.018	19096.1
519.74	17699.8
524.459	21381.4
529.176	24947.5
533.891	19020
538.602	10439.8
543.311	5865.15
548.017	3729.37
552.721	2604.54
557.422	1812.04
562.12	1168.81
566.816	792.895
571.509	409.465
576.199	229.45
580.887	128.58
585.572	202.459
590.254	115.451
594.934	72.7627
599.611	142.398
604.285	155.656
608.957	72.6016
613.626	9.5752
618.293	123.832
622.957	235.22
627.618	282.426
632.277	110.546
636.933	45.8535
641.586	4.47266
646.237	117.289
650.885	80.6006
655.53	0.463867
660.173	0.34375
664.813	26.1621
669.451	198.301
674.086	193.493
678.718	177.131
683.348	356.729
687.975	201.202
692.599	250.503
697.221	157.025
701.84	54.0596
706.457	109.406
711.071	196.255
715.682	343.241
720.291	198.902
724.897	290.934
729.5	208.57
734.101	259.433
738.7	172.712
743.295	203.432
747.888	199.376
752.479	130.992
757.067	45.3164
761.652	125.155
766.235	81.4805
770.815	21.9004
775.392	162.51
779.967	59.4004
784.539	2.39746
789.109	32.4316
793.676	196.53
798.241	111.578
802.803	105.245
807.362	84.3965
811.919	60.2568
816.473	32.7578
821.024	26.1982
825.573	56.4863
830.12	59.959
834.663	86.8203
839.205	62.9336
843.743	66.3984
848.279	60.4434
852.813	45.956
857.344	151.013
861.872	16.6738
866.398	143.938
870.921	115.841
875.442	96.1152
879.96	153.615
884.475	11.3818
888.988	29.3037
893.498	115.581
898.006	102.547
902.511	164.34
907.014	95.0068
911.514	156.233
916.012	283.245
920.507	334.656
924.999	405.827
929.489	355.337
933.976	276.589
938.461	479.775
942.943	567.453
947.423	620.224
951.9	883.12
956.374	842.519
960.846	1024.43
965.316	847.105
969.783	859.285
974.247	923.138
978.709	876.765
983.168	1029.88
987.625	976.766
992.079	1005.22
996.53	1095.15
1000.98	1376.1
1005.43	1235.87
1009.87	1223.1
1014.31	1143.48
1018.75	1302.44
1023.19	1181.75
1027.62	1490.73
1032.05	1419.93
1036.48	1278.53
1040.91	1384.66
1045.33	1546.76
1049.75	1706.23
1054.17	1965.77
1058.59	1824.22
1063	2102.29
1067.41	1846.1
1071.82	1872.29
1076.23	1633.57
1080.63	1667.69
1085.03	1519
1089.43	1462.05
1093.83	1418.1
1098.22	1488.29
1102.61	1350.79
1107	1317.71
1111.39	1352.14
1115.77	1387.02
1120.15	1262.7
1124.53	1081.11
1128.9	1180.61
1133.28	1029.63
1137.65	1025.52
1142.02	887.611
1146.38	933.188
1150.75	706.279
1155.11	715.374
1159.47	455.852
1163.82	469.707
1168.18	175.197
1172.53	169.879
1176.88	115.734
1181.22	32.2676
1185.57	0.166016
1189.91	37.0527
1194.24	142.378
1198.58	90.792
1202.91	101.743
1207.25	53.9199
1211.58	23.6172
1215.9	94.4307
1220.22	12.5264
1224.55	116.185
1228.87	73.2344
1233.18	22.1943
1237.49	106.876
1241.81	178.507
1246.12	52.9326
1250.42	32.4199
1254.72	70.2578
1259.03	25.1533
1263.33	52.8272
1267.62	198.199
1271.92	149.736
1276.21	151.586
1280.5	185.34
1284.78	37.0488
1289.07	137.67
1293.35	131.206
1297.63	187.382
1301.91	161.3
1306.18	116.473
1310.45	385.723
1314.72	206.519
1318.99	180.06
1323.25	185.179
1327.52	150.713
1331.78	34.1924
1336.03	9.05176
1340.29	207.028
1344.54	117.762
1348.79	69.7637
1353.04	145.272
1357.28	22.7266
1361.52	134.105
1365.77	243.077
1370	257.106
1374.24	115.018
1378.47	139.672
1382.7	152.029
1386.93	58.1904
1391.15	103.613
1395.38	126.941
1399.6	30.1982
1403.82	257.388
1408.03	46.582
1412.24	48.2676
1416.46	149.131
1420.66	87.9336
1424.87	125.707
1429.08	290.885
1433.28	284.691
1437.47	277.552
1441.67	410.492
1445.87	531.693
1450.06	414.069
1454.25	511.117
1458.43	499.091
1462.62	306.227
1466.8	264.624
1470.98	167.855
1475.15	199.907
1479.33	213.075
1483.5	207.403
1487.67	146.747
1491.84	218.139
1496.01	57.1406
1500.17	78.4883
1504.33	91.2705
1508.49	24.9639
1512.64	105.553
1516.79	100.981
1520.94	5.63672
1525.09	119.775
1529.24	102.968
1533.38	136.044
1537.52	123.46
1541.66	113.305
1545.8	72.6758
1549.93	275.662
1554.06	9.5293
1558.19	113.632
1562.32	63.294
1566.44	5.14062
1570.57	298.446
1574.69	63.8975
