Measurement: Raman, 514 nm, ccw, Raman Data Processed
Mineral: Leucite
Rruff sample: R040107
Ideal chemistry: K(Si_2_Al)O_6_
Locality: Roccamonfina, Italy
Source: University of Arizona Mineral Museum
Description: Rounded colorless crystals embedded in an ash matrix
Measured chemistry: (K_0.95_Na_0.03_)Al_0.99_Si_2.01_O_6_
Pin_id: L00276
Orientation: Laser parallel to -a* (-1 0 0). Fiducial mark perpendicular to laser is parallel to c [0 0 1]
Raman shift (cm-1)	intensity
74.562	0
79.523	774.42
84.483	7480.82
89.439	265.727
94.393	1024.1
99.344	852.582
104.293	536.387
109.239	902.668
114.182	2428.39
119.123	5217.25
124.061	14459.5
128.997	3912.22
133.93	6612.64
138.86	10177.7
143.788	14664.9
148.713	19222.4
153.636	22500.5
158.556	22684.5
163.473	21074.6
168.388	18091.4
173.3	17467.7
178.21	21068.2
183.117	23585.7
188.021	20663.5
192.923	15266.7
197.822	10983.6
202.718	8521.12
207.612	7344.15
212.504	7352.15
217.392	6711.42
222.279	4841.41
227.162	3151.65
232.043	1498.11
236.921	84.8047
241.797	428.959
246.67	595.379
251.54	774.785
256.408	420.842
261.274	80.7188
266.136	188.406
270.996	565.189
275.854	500.652
280.709	684.449
285.561	1202.67
290.41	2501.55
295.257	4388.24
300.102	6578.3
304.944	6993.74
309.783	6300.69
314.619	5216.31
319.453	4292.51
324.285	4090.48
329.113	4354.86
333.939	4918.93
338.763	5338.08
343.584	4807.55
348.402	3798.27
353.218	3213.64
358.031	2798.27
362.841	2905.97
367.649	3524.87
372.454	3521.87
377.257	3753.95
382.057	3929.22
386.854	3662.76
391.649	3740.12
396.441	2966.26
401.231	2221.01
406.018	1502.63
410.802	1064.23
415.584	1210.79
420.363	1546.56
425.139	2265.47
429.913	3155.18
434.684	3403.36
439.453	2281.49
444.219	1427.67
448.982	1477.54
453.743	2422.42
458.501	4045.7
463.257	6334.69
468.01	10273.1
472.76	18763.2
477.508	34874
482.253	57120.1
486.996	78566.3
491.736	99177.8
496.473	117526
501.207	112508
505.94	100265
510.669	89637.4
515.396	71390.8
520.12	63381.2
524.842	71452.9
529.561	83061.4
534.277	69490.5
538.991	40770.8
543.702	23015.2
548.41	14080
553.116	9688.58
557.819	6530.49
562.52	4632.55
567.218	2690.45
571.913	1406.23
576.606	739.893
581.296	493.592
585.984	440.799
590.669	601.652
595.351	607.062
600.031	477.875
604.708	6.95312
609.383	306.685
614.055	23.6953
618.724	39.8008
623.391	86.1387
628.055	122.436
632.716	137.504
637.375	182.234
642.031	19.5605
646.685	312.397
651.335	312.088
655.984	26.1992
660.63	0.292969
665.273	487.123
669.913	559.311
674.551	978.731
679.186	1019.71
683.819	1126.06
688.449	815.391
693.076	410.287
697.701	364.848
702.323	40.752
706.943	226.853
711.56	938.762
716.174	979.123
720.786	930.893
725.395	1132.83
730.001	892.18
734.605	1125.75
739.206	1124.96
743.805	1161.43
748.401	1255.57
752.995	783.66
757.585	766.621
762.173	989.707
766.759	916.6
771.342	1162.46
775.922	1552.16
780.5	1638.18
785.075	2080.77
789.648	1940.21
794.217	1782.68
798.785	1339.52
803.349	1104.09
807.911	839.781
812.471	554.576
817.027	240.352
821.582	132.83
826.133	84.7344
830.682	61.6191
835.228	91.6856
839.772	90.1992
844.313	37.3984
848.852	117.492
853.387	70.3125
857.921	68.5566
862.451	39.4199
866.979	22.7148
871.505	32.1445
876.028	20.5137
880.548	13.3398
885.065	24.9102
889.58	225.606
894.093	252.664
898.602	318.934
903.109	348.404
907.614	635.266
912.116	689.646
916.615	1018.67
921.112	1064.8
925.606	1646.7
930.097	1560.52
934.586	1796.58
939.072	1948.5
943.556	2384.24
948.037	2798.1
952.515	3419.84
956.991	3815.31
961.464	3724.01
965.934	4292.8
970.402	4198.6
974.867	4393.13
979.33	4510.58
983.79	4467.62
988.248	4799.9
992.702	4517.78
997.155	4855.57
1001.6	4997.26
1006.05	5400.06
1010.5	5112.27
1014.94	5396.7
1019.38	5576.32
1023.81	5278.18
1028.25	5628.04
1032.68	5730.09
1037.11	6044.88
1041.53	6270.9
1045.96	6709.55
1050.38	7110.32
1054.8	7600.07
1059.21	7665.76
1063.62	7603.5
1068.04	7435.81
1072.44	7348.99
1076.85	6742.58
1081.25	6448.54
1085.65	6317.53
1090.05	6187.64
1094.44	6075.98
1098.84	5637.02
1103.22	5823.02
1107.61	5910.87
1112	5854.7
1116.38	5156.86
1120.76	5111.15
1125.13	4932.54
1129.51	4240.45
1133.88	4284.82
1138.25	3484.3
1142.61	3423.88
1146.98	2982.73
1151.34	2488.75
1155.7	2028.43
1160.05	1377.31
1164.4	1529.69
1168.76	966.422
1173.1	708.086
1177.45	336.566
1181.79	281.586
1186.13	104.078
1190.47	65.3047
1194.8	14.668
1199.14	346.113
1203.46	4.94531
1207.79	12.0508
1212.12	303.066
1216.44	12.2852
1220.76	273
1225.08	141.453
1229.39	141.301
1233.7	63.2695
1238.01	73.1992
1242.32	128.035
1246.62	160.66
1250.92	315.055
1255.22	94.8438
1259.51	185.648
1263.81	53.5312
1268.1	384.297
1272.38	169.363
1276.67	273.234
1280.95	168.758
1285.23	352.004
1289.51	16.0195
1293.79	287.394
1298.06	72.1797
1302.33	412.504
1306.6	137.231
1310.86	315.457
1315.12	302.527
1319.38	357.273
1323.64	134.387
1327.89	609.816
1332.14	324.91
1336.39	186.68
1340.64	257.438
1344.88	312.199
1349.12	425.406
1353.36	187.695
1357.6	365.606
1361.83	68.5664
1366.06	235.719
1370.29	120.078
1374.52	273.856
1378.74	57.2617
1382.96	160.039
1387.18	211.852
1391.39	203.875
1395.61	386.504
1399.82	118.203
1404.02	35.6875
1408.23	225.144
1412.43	148.797
1416.63	142.641
1420.83	117.297
1425.02	447.125
1429.21	245.133
1433.4	232.457
1437.59	121.34
1441.77	329.723
1445.95	337.898
1450.13	389.371
1454.31	17.3516
1458.48	459.035
1462.65	325.164
1466.82	410.5
1470.99	36.543
1475.15	370.34
1479.31	260.793
1483.47	420.742
1487.63	269.113
1491.78	86.3164
1495.93	325.137
1500.08	344.258
1504.22	219.449
1508.37	319.793
1512.51	298.559
1516.64	241.137
1520.78	531.312
1524.91	198.09
1529.04	292.316
1533.17	321.098
1537.29	241.875
1541.41	435.641
1545.53	274.141
1549.65	446.641
1553.77	188.285
1557.88	349.547
1561.99	24.9961
1566.09	274.5
1570.2	124.426
1574.3	224.633
