Measurement: Raman, 514 nm, depolarized, Raman Data Processed
Mineral: Leucite
Rruff sample: R040107
Ideal chemistry: K(Si_2_Al)O_6_
Locality: Roccamonfina, Italy
Source: University of Arizona Mineral Museum
Description: Rounded colorless crystals embedded in an ash matrix
Measured chemistry: (K_0.95_Na_0.03_)Al_0.99_Si_2.01_O_6_
Pin_id: L01573
Orientation: Laser parallel to -c* (0 0 -1). Fiducial mark perpendicular to laser is parallel to -a [-1 0 0]
Raman shift (cm-1)	intensity
90.678	0
95.631	453.639
100.581	158.535
105.529	171.922
110.475	756.305
115.417	2501.43
120.358	4603.66
125.295	12367.2
130.23	1600.03
135.163	4123.3
140.092	7270.29
145.019	10868.2
149.944	14062.2
154.866	14790.7
159.785	13562
164.702	11483.4
169.616	10218.2
174.528	11909.2
179.437	15173.1
184.343	15117.1
189.247	12132.4
194.148	8495.82
199.046	6440.59
203.942	5020.17
208.835	4608.24
213.726	4483.58
218.614	3712.17
223.5	2225.6
228.382	1294.21
233.263	302.383
238.14	312.025
243.015	561.025
247.888	655.512
252.758	352.047
257.625	264.252
262.49	241.938
267.352	488.293
272.211	1021.93
277.068	691.675
281.922	758.465
286.773	1479.06
291.622	2477.76
296.469	3945.93
301.312	5171.53
306.154	5057.05
310.992	4343.94
315.828	3721.48
320.661	3194.72
325.492	3044.83
330.32	3457.6
335.145	3723.09
339.968	3816.21
344.789	3256.94
349.606	2623.28
354.421	2606.58
359.234	2318.55
364.043	2388.41
368.851	2745.28
373.655	2732.17
378.457	3021.52
383.256	2932.22
388.053	2885.17
392.847	2792.56
397.639	2147.3
402.428	1414.16
407.214	1023.99
411.998	785.043
416.779	1229.34
421.557	1545.73
426.333	2235.3
431.106	2672.24
435.877	2412.2
440.645	1625.72
445.41	1381.04
450.173	1463.28
454.933	2123.57
459.691	3367.19
464.446	5305.81
469.198	8857.06
473.948	16375.6
478.695	29441.9
483.439	44730.5
488.181	57853.4
492.92	72701.6
497.657	78994.4
502.391	70329.6
507.122	63807
511.851	53806.3
516.577	42889.4
521.301	42242.1
526.022	51283.2
530.74	53303
535.456	36560.8
540.169	20188.6
544.879	11801.5
549.587	7618.87
554.292	5433.63
558.995	3509.45
563.695	2532.7
568.392	1622.49
573.087	977.396
577.779	303.24
582.469	242.359
587.156	436.397
591.84	407.326
596.522	136.242
601.201	98.7266
605.877	125.588
610.551	26.5762
615.222	18.0605
619.891	163.715
624.557	263.736
629.22	276.359
633.881	112.301
638.539	63.5156
643.195	215.285
647.848	3.19922
652.498	61.0801
657.145	43.1309
661.791	127.938
666.433	166.191
671.073	189.047
675.71	216.478
680.345	342.94
684.977	240.793
689.606	268.287
694.233	118.193
698.857	20.334
703.478	169.76
708.097	30.7305
712.714	278.383
717.327	468.652
721.938	557.008
726.547	457.393
731.153	454.498
735.756	381.568
740.356	613.977
744.954	655.18
749.55	524.51
754.142	395.43
758.733	417.506
763.32	452.772
767.905	591.738
772.487	738.301
777.067	803.752
781.644	902.965
786.218	1027.12
790.79	825.854
795.359	845.633
799.926	612.945
804.49	375.625
809.051	448.19
813.61	82.3359
818.166	7.58789
822.72	243.838
827.271	213.785
831.819	39.0156
836.365	43.1406
840.908	12.2695
845.448	167.695
849.986	200.09
854.521	218.221
859.054	242.799
863.584	354.277
868.111	127.689
872.636	93.1875
877.158	118.582
881.677	110.379
886.194	186.125
890.709	34.0352
895.22	72.3848
899.729	448.344
904.236	276.621
908.74	287.109
913.241	501.559
917.739	781.25
922.235	867.982
926.729	854.357
931.219	992.232
935.708	1086.91
940.193	1525.18
944.676	1931.23
949.156	2300.52
953.634	2517.26
958.109	2949.39
962.582	2992.61
967.051	3111.85
971.519	2956.31
975.983	3235.39
980.445	3236.22
984.905	3179.51
989.362	3302.11
993.816	3185.8
998.267	3483.65
1002.72	4099.49
1007.16	3949.61
1011.61	3473.69
1016.05	3739.41
1020.49	3789.84
1024.92	3881.41
1029.36	3836.92
1033.79	3941.66
1038.21	4121.13
1042.64	4241.18
1047.06	4470.89
1051.48	4935.88
1055.9	5125.98
1060.32	5329.38
1064.73	5226.56
1069.14	5009.92
1073.55	5104.25
1077.95	4754.66
1082.35	4644.57
1086.75	4567.73
1091.15	4378.56
1095.54	4398.34
1099.93	4476.38
1104.32	4219.33
1108.71	4266.75
1113.09	4122.41
1117.47	3931.41
1121.85	3571.48
1126.23	3338.93
1130.6	3215.68
1134.97	2936.62
1139.34	2682.04
1143.7	2522.25
1148.07	2045.57
1152.43	1747.55
1156.79	1456.08
1161.14	1153.36
1165.49	822.238
1169.84	752.961
1174.19	435.027
1178.54	383.238
1182.88	430.582
1187.22	136.971
1191.55	153.353
1195.89	124.703
1200.22	18.6602
1204.55	81.6269
1208.87	41.9512
1213.2	20.9863
1217.52	4.77148
1221.84	161.477
1226.15	66.8594
1230.47	13.1758
1234.78	182.627
1239.09	99.3555
1243.39	38.9297
1247.69	110.777
1251.99	311.035
1256.29	170.307
1260.59	200.242
1264.88	281.008
1269.17	241.328
1273.46	202.723
1277.74	293.908
1282.02	405.879
1286.3	250.135
1290.58	269.789
1294.86	0.019531
1299.13	464.803
1303.39	364.397
1307.66	225.772
1311.93	411.982
1316.19	410.383
1320.45	416.107
1324.7	449.342
1328.96	421.441
1333.21	96.1094
1337.45	148.894
1341.7	186.924
1345.94	111.838
1350.18	163.488
1354.42	235.107
1358.66	182.178
1362.89	78.4785
1367.12	49.2695
1371.35	33.209
1375.57	65.4902
1379.8	333.172
1384.02	182.871
1388.23	172.318
1392.45	205.742
1396.66	540.221
1400.87	158.262
1405.08	74.5195
1409.28	18.4434
1413.48	344.227
1417.68	162.4
1421.88	241.397
1426.07	252.076
1430.26	492.162
1434.45	511.764
1438.64	437.185
1442.82	959.719
1447	961.586
1451.18	1158.35
1455.35	1437.06
1459.53	1072.2
1463.7	971.18
1467.87	814.477
1472.03	644.945
1476.19	577.906
1480.35	577.541
1484.51	581.953
1488.67	404.803
1492.82	1007.28
1496.97	168.916
1501.12	296.853
1505.26	136.644
1509.4	448.164
1513.54	569.648
1517.68	17.332
1521.81	74.5644
1525.94	441.523
1530.07	169.332
1534.2	226.09
1538.32	342.414
1542.44	414.467
1546.56	270.016
1550.68	522.094
1554.79	135.893
1558.9	575.32
1563.01	261.935
1567.12	254.322
1571.22	288.188
1575.32	0.546875
