Measurement: Raman, 514 nm, depolarized, Raman Data Processed
Mineral: Leucophanite
Rruff sample: R050004
Ideal chemistry: NaCaBeSi_2_O_6_F
Locality: Langesundfjord, Norway
Source: University of Arizona Mineral Museum
Description: Pale green massive
Measured chemistry: Ca_1.00_Ca_1.00_Na_2.00_Be_2.00_Si_4.00_O_12_(F_0.96_(OH)_0.04_)_2_
Pin_id: M00469
Orientation: Laser parallel to -c* (0 0 -1). Fiducial mark perpendicular to laser is parallel to -a [-1 0 0]
Raman shift (cm-1)	intensity
59.021	0
63.234	17.243
67.444	56.875
71.652	48.163
75.858	14.783
80.062	9.306
84.264	2.217
88.463	154.083
92.661	330.57
96.856	467.433
101.049	674.496
105.24	769.622
109.429	1039.19
113.616	919.41
117.8	935.876
121.983	970.959
126.163	840.609
130.342	892.793
134.518	878.489
138.692	821.684
142.864	754.359
147.034	868.49
151.201	939.839
155.367	935.178
159.53	919.822
163.692	827.883
167.851	862.13
172.008	975.574
176.163	750.25
180.316	628.156
184.467	544.281
188.616	558.613
192.762	516.68
196.907	525.056
201.049	592.221
205.189	540.583
209.328	516.215
213.464	400.23
217.598	404.513
221.73	418.902
225.86	456.894
229.988	367.943
234.113	426.269
238.237	476.445
242.359	435.242
246.478	345.001
250.595	389.257
254.711	409.785
258.824	321.359
262.935	244.116
267.044	365.993
271.151	354.898
275.256	253.993
279.359	251.319
283.46	235.009
287.559	182.266
291.656	158.425
295.75	164.616
299.843	257.015
303.933	364.382
308.022	558.849
312.108	1072.4
316.193	825.009
320.275	359.905
324.355	100.681
328.434	165.688
332.51	207.09
336.584	197.737
340.656	136.13
344.726	97.562
348.794	111.907
352.86	192.297
356.924	296.64
360.986	935.553
365.046	735.273
369.104	223.31
373.159	103.104
377.213	243.719
381.265	401.072
385.315	200.291
389.362	19.099
393.408	19.703
397.451	30.885
401.493	3.573
405.533	23.843
409.57	20.023
413.606	42.966
417.639	0.312
421.671	75.214
425.7	27.013
429.728	454.851
433.753	430.268
437.777	121.028
441.798	174.966
445.818	139.564
449.835	152.349
453.851	166.671
457.864	114.729
461.876	355.851
465.885	736.31
469.893	1033.38
473.898	649.912
477.902	328.499
481.903	247.554
485.903	152.45
489.9	5.435
493.896	49.173
497.889	203.252
501.881	195.057
505.87	141.831
509.858	54.799
513.844	22.66
517.827	85.158
521.809	33.209
525.789	5.153
529.766	99.058
533.742	269.893
537.716	234.38
541.688	96.576
545.657	28.49
549.625	105.976
553.591	210.549
557.555	333.714
561.517	555.035
565.477	488.285
569.435	328.092
573.391	204.838
577.345	60.591
581.297	28.003
585.248	3.599
589.196	74.919
593.142	19.386
597.086	69.641
601.029	0.604
604.969	64.466
608.908	158.772
612.844	56.28
616.779	68.367
620.712	75.655
624.642	193.246
628.571	153.434
632.498	115.678
636.423	11.592
640.346	253.017
644.267	383.101
648.186	474.986
652.103	487.349
656.019	667.874
659.932	972.935
663.843	1875.35
667.753	3498.48
671.66	7300.95
675.566	9881.74
679.47	6319.41
683.372	3416.81
687.271	2219.11
691.169	1557.86
695.065	1466.54
698.96	1846.31
702.852	2559.18
706.742	2662.38
710.631	1654.53
714.517	856.542
718.402	639.354
722.284	418.999
726.165	566.695
730.044	474.37
733.921	428.091
737.796	378.814
741.669	383.473
745.54	391.091
749.41	298.438
753.277	229.564
757.143	412.734
761.006	535.532
764.868	675.727
768.728	386.205
772.586	112.153
776.442	162.748
780.297	191.487
784.149	309.791
787.999	422.149
791.848	227.022
795.695	98.973
799.54	90.253
803.382	322.194
807.224	366.472
811.063	117.149
814.9	15.473
818.736	71.229
822.569	159.444
826.401	249.298
830.231	257.187
834.059	93.369
837.885	77.919
841.709	130.982
845.532	301.545
849.352	108.752
853.171	225.042
856.988	11.189
860.803	23.655
864.616	153.573
868.427	312.081
872.236	268.992
876.044	423.57
879.849	177.073
883.653	69.617
887.455	192.597
891.255	291.26
895.054	227.227
898.85	20.771
902.645	96.42
906.438	116.102
910.229	23.588
914.018	319.648
917.805	332.631
921.59	181.735
925.374	122.827
929.156	39.003
932.936	15.694
936.714	138.405
940.49	290.627
944.264	210.354
948.037	40.199
951.808	50.522
955.577	105.138
959.344	475.447
963.109	969.982
966.872	1050.73
970.634	463.893
974.394	185.063
978.152	403.207
981.908	579.374
985.663	618.52
989.415	477.587
993.166	475.603
996.915	593.981
1000.66	617.646
1004.41	631.564
1008.15	830.748
1011.89	1196.55
1015.63	1718.75
1019.37	3280.91
1023.11	5651.31
1026.84	2700.38
1030.57	1438.94
1034.31	844.521
1038.03	1031.59
1041.76	1127.15
1045.49	1380.6
1049.21	2103.02
1052.93	1399.94
1056.65	1310.05
1060.37	783.23
1064.09	759.199
1067.8	694.332
1071.52	547.102
1075.23	640.312
1078.94	409.344
1082.64	515.102
1086.35	702.297
1090.05	651.709
1093.76	433.107
1097.46	229.607
1101.16	216.551
1104.85	113.127
1108.55	327.865
1112.24	500.598
1115.93	314.719
1119.62	235.672
1123.31	123.438
1127	208.146
1130.68	483.658
1134.37	648.221
1138.05	852.66
1141.72	904.08
1145.4	1005.14
1149.08	696.887
1152.75	217.604
1156.42	115.297
1160.1	365.334
1163.76	682.701
1167.43	646.541
1171.1	804.047
1174.76	826.697
1178.42	501.385
1182.08	243.477
1185.74	64.402
1189.4	510.074
1193.05	646.242
1196.7	1025.37
1200.36	949.234
1204.01	561.959
1207.65	381.096
1211.3	402.398
1214.94	190.836
1218.59	308.746
1222.23	814.844
1225.87	1061.29
1229.5	1158.33
1233.14	1058.67
1236.77	783.195
1240.41	758.018
1244.04	427.299
1247.66	674.703
1251.29	878.439
1254.92	1395.58
1258.54	1438.52
1262.16	1150.39
1265.78	1058.96
1269.4	841.598
1273.02	598.953
1276.63	159.184
1280.25	419.016
1283.86	693.391
1287.47	762.871
1291.08	1284.95
1294.68	1071.16
1298.29	458.863
1301.89	714.68
1305.49	205.949
1309.09	193.352
1312.69	45.398
1316.29	595.066
1319.88	748.035
1323.47	623.785
1327.06	795.574
1330.65	670.555
1334.24	372.824
1337.83	50.957
1341.41	68.305
1344.99	279.227
1348.57	231.426
1352.15	645.875
1355.73	1236.55
1359.31	1147.21
1362.88	1445.5
1366.45	1224.62
1370.02	403.059
1373.59	282.422
1377.16	28.004
1380.73	356.852
1384.29	916.312
1387.85	731.668
1391.41	1456.72
1394.97	1818.44
1398.53	1821.72
1402.09	1430.75
1405.64	875.227
1409.19	815.926
1412.74	752.887
1416.29	54.742
1419.84	318.652
1423.38	997.316
1426.93	1076.15
1430.47	2031.07
1434.01	1673.34
1437.55	1482.61
1441.09	1703.15
1444.62	1186.14
1448.16	678.199
1451.69	553.941
1455.22	187.234
1458.75	494.648
1462.28	824.727
1465.8	1178.02
1469.33	1600.96
1472.85	2076.35
1476.37	2528.93
1479.89	1790.89
1483.4	1554.32
1486.92	919.684
1490.43	1037.59
1493.95	118.582
1497.46	3.762
