Measurement: Raman, 514 nm, ccw, Raman Data Processed
Mineral: Leucite
Rruff sample: R040107
Ideal chemistry: K(Si_2_Al)O_6_
Locality: Roccamonfina, Italy
Source: University of Arizona Mineral Museum
Description: Rounded colorless crystals embedded in an ash matrix
Measured chemistry: (K_0.95_Na_0.03_)Al_0.99_Si_2.01_O_6_
Pin_id: L01573
Orientation: Laser parallel to -c* (0 0 -1). Fiducial mark perpendicular to laser is parallel to -a [-1 0 0]
Raman shift (cm-1)	intensity
90.678	0
95.631	346.984
100.581	29.1758
105.529	514.975
110.475	232.764
115.417	1191.79
120.358	2756.35
125.295	9051.24
130.23	699.385
135.163	2588
140.092	5661.99
145.019	8708.93
149.944	11465.5
154.866	11734.5
159.785	10762.5
164.702	9399.26
169.616	8187.04
174.528	8828.66
179.437	11380.4
184.343	11489.7
189.247	9019.36
194.148	6413.98
199.046	4652.22
203.942	3632.87
208.835	3275.97
213.726	2864.69
218.614	2075.13
223.5	1422.93
228.382	764.004
233.263	88.5381
238.14	431.788
243.015	319.986
247.888	532.898
252.758	189.505
257.625	1.37793
262.49	178.781
267.352	477.753
272.211	598.41
277.068	602.561
281.922	894.57
286.773	1334.99
291.622	2299.01
296.469	3674.09
301.312	4320.76
306.154	4364.43
310.992	3756.9
315.828	3279.99
320.661	3011.02
325.492	2715.09
330.32	3296.35
335.145	3314.38
339.968	3378.07
344.789	3048.39
349.606	2506.85
354.421	2139.58
359.234	2112.77
364.043	2437.46
368.851	2534.04
373.655	2502.08
378.457	2732.08
383.256	2901.2
388.053	2706.86
392.847	2690
397.639	2158.91
402.428	1706.46
407.214	1269.86
411.998	978.119
416.779	1181.64
421.557	1390.1
426.333	1926.7
431.106	2288.3
435.877	2034.43
440.645	1482.6
445.41	1262.22
450.173	1484.04
454.933	1917.95
459.691	2796.31
464.446	4200.4
469.198	7115.99
473.948	13095.1
478.695	23389
483.439	35788.3
488.181	46215.7
492.92	58457.4
497.657	63634.2
502.391	56399.7
507.122	51477.5
511.851	43631.3
516.577	34644.5
521.301	34062.3
526.022	41063.9
530.74	42978.3
535.456	29656.9
540.169	16530.2
544.879	9622.08
549.587	7084.98
554.292	4492.49
558.995	2975.33
563.695	2037.31
568.392	1469.81
573.087	895.244
577.779	332.928
582.469	176.627
587.156	239.096
591.84	204.404
596.522	155.75
601.201	491.699
605.877	144.709
610.551	394.742
615.222	251.119
619.891	133.31
624.557	280.957
629.22	93.1016
633.881	26.3926
638.539	52.5566
643.195	176.51
647.848	20.4043
652.498	29.2129
657.145	117.943
661.791	114.42
666.433	365.19
671.073	304.74
675.71	298.242
680.345	328.059
684.977	299.682
689.606	267.568
694.233	27.6406
698.857	48.127
703.478	169.344
708.097	316.027
712.714	416.877
717.327	499.154
721.938	496.41
726.547	579.07
731.153	757.85
735.756	465.223
740.356	569.445
744.954	494.242
749.55	367.353
754.142	305.828
758.733	291.383
763.32	304.252
767.905	697.166
772.487	552.418
777.067	465.328
781.644	736.748
786.218	691.873
790.79	574.727
795.359	674.434
799.926	646.986
804.49	387.619
809.051	118.299
813.61	76.8789
818.166	103.133
822.72	130.06
827.271	6.32617
831.819	140.721
836.365	84.0273
840.908	70.6582
845.448	97.7519
849.986	187.773
854.521	122.443
859.054	189.066
863.584	117.391
868.111	199.746
872.636	78.9609
877.158	203.002
881.677	104.857
886.194	100.096
890.709	86.832
895.22	386.6
899.729	263.211
904.236	349.592
908.74	367.617
913.241	478.795
917.739	601.371
922.235	770.561
926.729	597.394
931.219	971.994
935.708	1235.27
940.193	1193.09
944.676	1554.08
949.156	1994.46
953.634	2432.25
958.109	2745.28
962.582	2905.7
967.051	2746.19
971.519	2741.14
975.983	2886.01
980.445	2899.09
984.905	2945.57
989.362	3161.87
993.816	2826.56
998.267	3250.82
1002.72	3294.17
1007.16	3393.26
1011.61	3198.1
1016.05	3245.85
1020.49	3271.03
1024.92	3461.45
1029.36	3327.21
1033.79	3611.93
1038.21	3518.02
1042.64	3884.52
1047.06	3869.3
1051.48	4264.36
1055.9	4609.73
1060.32	4631.4
1064.73	4370.12
1069.14	4257.17
1073.55	4031.09
1077.95	4126.57
1082.35	4160.58
1086.75	3907.58
1091.15	3811.99
1095.54	3898.28
1099.93	3939.55
1104.32	3891.07
1108.71	3938.61
1113.09	3702.82
1117.47	3488.72
1121.85	3296.08
1126.23	3097.65
1130.6	2832.53
1134.97	2759.8
1139.34	2387.35
1143.7	2303.34
1148.07	1964.89
1152.43	1596.67
1156.79	1303.8
1161.14	1109.54
1165.49	871.328
1169.84	548.137
1174.19	501.09
1178.54	375.963
1182.88	151.057
1187.22	95.0801
1191.55	138.662
1195.89	32.7266
1200.22	67.2441
1204.55	132.106
1208.87	16.6426
1213.2	159.707
1217.52	9.30859
1221.84	132.717
1226.15	5.34961
1230.47	120.639
1234.78	209.898
1239.09	127.789
1243.39	9.19922
1247.69	30.5996
1251.99	331.74
1256.29	299.111
1260.59	108.047
1264.88	201.793
1269.17	263.307
1273.46	770.043
1277.74	352.113
1282.02	514.996
1286.3	328.603
1290.58	203.275
1294.86	179.598
1299.13	46.5957
1303.39	210.504
1307.66	256.191
1311.93	314.082
1316.19	80.7519
1320.45	324.711
1324.7	149.793
1328.96	154.621
1333.21	308.129
1337.45	98.418
1341.7	281.953
1345.94	206.693
1350.18	132.959
1354.42	41.5879
1358.66	275.023
1362.89	11
1367.12	124.502
1371.35	103.09
1375.57	44.1387
1379.8	78.4668
1384.02	304.238
1388.23	260.9
1392.45	363.315
1396.66	118.707
1400.87	88.9102
1405.08	148.853
1409.28	67.0469
1413.48	139.039
1417.68	95.6035
1421.88	92.125
1426.07	155.576
1430.26	135.422
1434.45	450.184
1438.64	600.479
1442.82	820.727
1447	796.986
1451.18	908.062
1455.35	1077.41
1459.53	680.238
1463.7	577.639
1467.87	198.551
1472.03	190.115
1476.19	324.498
1480.35	331.363
1484.51	314.879
1488.67	382.877
1492.82	167.381
1496.97	19.877
1501.12	9.10352
1505.26	292.617
1509.4	155.424
1513.54	160.228
1517.68	327.162
1521.81	419.865
1525.94	283.672
1530.07	39.8887
1534.2	263.898
1538.32	351.779
1542.44	120.617
1546.56	269.81
1550.68	309.603
1554.79	628.731
1558.9	38.6484
1563.01	13.4121
1567.12	209.334
1571.22	197.309
1575.32	314.83
