Measurement: Raman, 514 nm, depolarized, Raman Data Processed
Mineral: Leucite
Rruff sample: R060300
Ideal chemistry: K(Si_2_Al)O_6_
Locality: Alban Hills, Rome Province, Latium, Italy
Source: Herb Obodda
Description: Colorless complete pseudocubic crystal showing trapezohedral faces
Measured chemistry: (K_0.98_Na_0.02_)_Î£=1_Al_1.00_Si_2.00_O_6_
Pin_id: M00574
Orientation: Laser parallel to -c* (0 0 -1). Fiducial mark perpendicular to laser is parallel to a [1 0 0]
Raman shift (cm-1)	intensity
76.456	0
81.425	814.753
86.391	550.951
91.354	651.363
96.315	314.076
101.272	171.685
106.227	104.875
111.179	316.29
116.129	1021.86
121.075	885.56
126.019	317.263
130.96	901.981
135.898	2343.05
140.834	3509.29
145.766	4794.55
150.696	5977.31
155.623	6179.34
160.548	5541.9
165.469	4681.94
170.388	4287.05
175.304	5063.75
180.218	6761.45
185.128	6184.38
190.036	4738.24
194.941	3336.16
199.844	2372.32
204.743	1698.49
209.64	1716.71
214.534	1477.61
219.426	1288.64
224.314	773.623
229.2	274.755
234.083	89.1064
238.964	144.67
243.841	243.902
248.716	319.854
253.588	151.806
258.458	96.8857
263.324	168.839
268.188	191.959
273.05	256.447
277.908	301.524
282.764	382.747
287.617	522.449
292.467	1114.95
297.315	1555.51
302.16	1897.01
307.002	1643.21
311.841	1525.02
316.678	1124.53
321.512	1013.77
326.343	991.377
331.172	1008.85
335.998	1192.55
340.821	1169.94
345.641	833.54
350.459	745.867
355.274	695.434
360.086	779.258
364.896	646.341
369.702	798.793
374.507	890.667
379.308	776.307
384.107	872.812
388.903	742.061
393.696	640.4
398.487	473.793
403.275	361.397
408.06	143.431
412.843	253.09
417.622	364.316
422.4	593.379
427.174	961.101
431.946	1192.74
436.715	1003.26
441.481	638.673
446.245	427.715
451.006	549.649
455.764	853.446
460.52	1331.91
465.273	2078.93
470.023	3611.95
474.771	7078.21
479.516	12670.9
484.258	18414.9
488.998	22908
493.735	29025.5
498.469	29636.5
503.2	25462.2
507.929	23628.5
512.656	19200.9
517.379	15749.9
522.1	16357.4
526.818	21036.3
531.534	20183.3
536.247	12813.4
540.957	6903.72
545.665	4143.22
550.369	2591.39
555.072	1859.61
559.771	1071.35
564.468	756.913
569.163	485.468
573.854	208.7
578.543	113.264
583.23	6.88184
587.913	25.251
592.594	50.6279
597.273	13.2744
601.949	145.19
606.622	50.54
611.292	69.5508
615.96	93.3916
620.625	98.1523
625.288	202.831
629.948	206.679
634.605	3.89551
639.26	6.88086
643.912	59.3594
648.561	97.6406
653.208	26.9541
657.852	62.3691
662.493	68.0654
667.132	21.4717
671.768	275.733
676.402	189.139
681.033	156.948
685.661	167.005
690.287	13.3291
694.91	58.0498
699.531	23.625
704.149	15.1172
708.764	132.981
713.377	263.569
717.987	217.262
722.594	262.293
727.199	168.451
731.801	233.79
736.401	259.149
740.998	187.428
745.592	175.599
750.184	113.128
754.773	34.4522
759.36	204.808
763.944	136.731
768.525	83.7617
773.104	165.807
777.68	207.128
782.254	334.665
786.824	261.343
791.393	201.511
795.959	283.308
800.522	273.995
805.082	134.578
809.641	140.225
814.196	94.168
818.749	169.444
823.299	19.833
827.847	62.7207
832.392	213.634
836.934	152.415
841.474	92.4482
846.012	9.75293
850.546	72.7227
855.079	100.712
859.608	264.011
864.135	217.013
868.66	128.408
873.182	209.015
877.701	15.0332
882.218	8.86328
886.732	14.2969
891.243	1.61719
895.753	208.062
900.259	53.7568
904.763	160.981
909.264	175.913
913.763	207.529
918.259	224.127
922.753	286.616
927.244	415.15
931.733	399.619
936.219	402.786
940.702	598
945.183	719.693
949.661	958.983
954.137	1131.34
958.611	1250.96
963.081	1237.95
967.549	1145.91
972.015	1289.61
976.478	1340.96
980.939	1404.42
985.397	1229.12
989.852	1198.52
994.305	1153.58
998.755	1445.61
1003.2	1493.75
1007.65	1390.58
1012.09	1550.79
1016.53	1397.04
1020.97	1394.29
1025.4	1444.07
1029.84	1516.81
1034.27	1502.48
1038.69	1420.07
1043.12	1583.86
1047.54	1713.02
1051.96	1691.53
1056.38	2197.78
1060.8	1948.9
1065.21	2072.68
1069.62	1782.11
1074.02	1702.99
1078.43	1694.61
1082.83	1654.53
1087.23	1706.49
1091.63	1509.7
1096.02	1743.2
1100.42	1517.28
1104.81	1486
1109.19	1606.38
1113.58	1474.19
1117.96	1362.44
1122.34	1382.28
1126.72	1154
1131.09	1148.92
1135.46	1155.06
1139.83	952.394
1144.2	965.988
1148.57	732.055
1152.93	510.402
1157.29	576.951
1161.64	448.551
1166	342.568
1170.35	324.799
1174.7	212.188
1179.05	9.09961
1183.39	183.779
1187.74	16.4277
1192.08	3.69336
1196.41	51.9395
1200.75	12.6426
1205.08	6.68359
1209.41	17.7793
1213.74	17.6934
1218.06	44.5176
1222.39	2.04297
1226.71	62.957
1231.02	56.6699
1235.34	53.5293
1239.65	132.41
1243.96	31.2969
1248.27	202.336
1252.57	104.144
1256.88	228.926
1261.18	288.736
1265.47	82.7773
1269.77	145.553
1274.06	272.488
1278.35	164.178
1282.64	129.828
1286.93	184.982
1291.21	220.471
1295.49	93.7207
1299.77	132.894
1304.04	70.0039
1308.32	52.0039
1312.59	192.805
1316.86	155.635
1321.12	346.394
1325.38	101.459
1329.65	119.967
1333.9	63.9629
1338.16	110.963
1342.41	132.127
1346.66	30.7148
1350.91	16.9082
1355.16	202.978
1359.4	163.453
1363.64	205.662
1367.88	87.8066
1372.12	1.89648
1376.35	63.875
1380.59	350.33
1384.82	118.336
1389.04	363.221
1393.27	119.424
1397.49	138.006
1401.71	107.551
1405.92	194.078
1410.14	73.5918
1414.35	190.086
1418.56	257.769
1422.77	58.0449
1426.97	140.31
1431.17	221.709
1435.38	253.598
1439.57	411.945
1443.77	438.715
1447.96	570.33
1452.15	636.289
1456.34	542.439
1460.53	474.982
1464.71	573.873
1468.89	293.371
1473.07	389.375
1477.24	285.246
1481.42	315.428
1485.59	117.131
1489.76	110.791
1493.92	223.688
1498.09	7.50391
1502.25	141.352
1506.41	118.166
1510.56	3.03711
1514.72	154.299
1518.87	97.2676
1523.02	270.898
1527.17	298.535
1531.31	329.617
1535.45	215.078
1539.59	338.957
1543.73	153.609
1547.87	209.088
1552	265.252
1556.13	346.549
1560.26	178.273
1564.38	75.957
1568.51	153.338
1572.63	258.652
1576.74	1.0957
