Measurement: Raman, 514 nm, depolarized, Raman Data Processed
Mineral: Leucophanite
Rruff sample: R050004
Ideal chemistry: NaCaBeSi_2_O_6_F
Locality: Langesundfjord, Norway
Source: University of Arizona Mineral Museum
Description: Pale green massive
Measured chemistry: Ca_1.00_Ca_1.00_Na_2.00_Be_2.00_Si_4.00_O_12_(F_0.96_(OH)_0.04_)_2_
Pin_id: M00290
Orientation: Laser parallel to -a* (-1 0 0). Fiducial mark perpendicular to laser is parallel to -b [0 -1 0]
Raman shift (cm-1)	intensity
59.021	0
63.234	26.239
67.444	93.63
71.652	90.975
75.858	4.078
80.062	0.427
84.264	72.021
88.463	111.307
92.661	92.997
96.856	160.84
101.049	229.634
105.24	349.235
109.429	706.036
113.616	493.611
117.8	468.263
121.983	473.419
126.163	425.986
130.342	490.892
134.518	481.102
138.692	653.553
142.864	780.232
147.034	758.252
151.201	913.678
155.367	873.333
159.53	687.548
163.692	575.149
167.851	549.928
172.008	539.724
176.163	365.528
180.316	309.393
184.467	367.228
188.616	346.013
192.762	434.76
196.907	349.506
201.049	402.303
205.189	292.392
209.328	275.254
213.464	258.856
217.598	332.397
221.73	382.194
225.86	336.508
229.988	297.03
234.113	379.178
238.237	591.717
242.359	683.561
246.478	602.227
250.595	722.357
254.711	738.753
258.824	527.988
262.935	511.608
267.044	630.604
271.151	855.712
275.256	968.884
279.359	657.467
283.46	419.652
287.559	442.076
291.656	469.275
295.75	393.132
299.843	279.909
303.933	423.08
308.022	799.218
312.108	1493.31
316.193	1067.33
320.275	489.583
324.355	288.26
328.434	190.812
332.51	239.661
336.584	268.312
340.656	170.501
344.726	166.362
348.794	104.095
352.86	164.017
356.924	384.791
360.986	1092.41
365.046	704.881
369.104	221.186
373.159	151.323
377.213	132.291
381.265	185.086
385.315	80.704
389.362	44.175
393.408	29.454
397.451	14.213
401.493	72.515
405.533	8.776
409.57	29.842
413.606	9.277
417.639	42.495
421.671	26.609
425.7	41.207
429.728	22.87
433.753	32.436
437.777	161.255
441.798	247.826
445.818	144.664
449.835	64.344
453.851	106.033
457.864	169.328
461.876	325.292
465.885	818.968
469.893	1162.38
473.898	644.318
477.902	326.115
481.903	226.74
485.903	211.619
489.9	139.224
493.896	120.565
497.889	129.595
501.881	139.324
505.87	204.718
509.858	342.525
513.844	397.131
517.827	361.562
521.809	360.694
525.789	583.542
529.766	1100.07
533.742	1839.24
537.716	1537.7
541.688	852.311
545.657	431.257
549.625	263.118
553.591	280.066
557.555	446.56
561.517	704.584
565.477	574.779
569.435	266.295
573.391	69.366
577.345	3.614
581.297	39.353
585.248	46.361
589.196	19.627
593.142	11.912
597.086	50.107
601.029	91.955
604.969	72.494
608.908	19.159
612.844	117.421
616.779	34.786
620.712	58.397
624.642	172.305
628.571	155.822
632.498	224.184
636.423	302.139
640.346	494.27
644.267	604.322
648.186	742.612
652.103	852.808
656.019	1120.42
659.932	1849.27
663.843	3239.03
667.753	6591.91
671.66	14170
675.566	17467.8
679.47	10188.6
683.372	5245.8
687.271	3243.24
691.169	2329.76
695.065	2319.17
698.96	2781.44
702.852	3831.53
706.742	3687.57
710.631	2301.99
714.517	1166.39
718.402	757.407
722.284	499.146
726.165	377.252
730.044	383.624
733.921	363.936
737.796	301.059
741.669	208.736
745.54	246.373
749.41	152.438
753.277	232.943
757.143	379.861
761.006	527.813
764.868	399.82
768.728	166.642
772.586	114.033
776.442	129.684
780.297	132.488
784.149	184.458
787.999	159.822
791.848	90.217
795.695	36.175
799.54	6.465
803.382	96.241
807.224	37.984
811.063	57.983
814.9	52.508
818.736	210.818
822.569	199.325
826.401	122.113
830.231	71.164
834.059	6.413
837.885	16.188
841.709	35.464
845.532	212.308
849.352	15.721
853.171	15.458
856.988	0.785
860.803	6.334
864.616	150.121
868.427	164.128
872.236	26.295
876.044	157.76
879.849	116.221
883.653	86.935
887.455	57.817
891.255	130.392
895.054	39.526
898.85	11.021
902.645	58.789
906.438	48.032
910.229	140.766
914.018	240.131
917.805	68.521
921.59	183.768
925.374	125.968
929.156	468.191
932.936	1098.81
936.714	1689.03
940.49	796.034
944.264	242.341
948.037	92.693
951.808	181.384
955.577	151.822
959.344	592.278
963.109	1061.07
966.872	1221.96
970.634	654.315
974.394	323.546
978.152	552.22
981.908	706.21
985.663	513.019
989.415	310.104
993.166	380.746
996.915	495.051
1000.66	596.879
1004.41	674.149
1008.15	1165.25
1011.89	1656.65
1015.63	3335.52
1019.37	8762.14
1023.11	12994.5
1026.84	5651.39
1030.57	2466.06
1034.31	1312.53
1038.03	1005
1041.76	1132.41
1045.49	1578.6
1049.21	2154.41
1052.93	1322.95
1056.65	1032.1
1060.37	647.449
1064.09	313.693
1067.8	218.6
1071.52	371.082
1075.23	271.41
1078.94	312.023
1082.64	334.926
1086.35	495.627
1090.05	306.379
1093.76	189.891
1097.46	216.107
1101.16	304.65
1104.85	280.803
1108.55	276.629
1112.24	403.75
1115.93	218.266
1119.62	7.117
1123.31	75.232
1127	223.252
1130.68	289.822
1134.37	678.896
1138.05	914.402
1141.72	637.74
1145.4	574.414
1149.08	534.994
1152.75	405.988
1156.42	349.434
1160.1	567.922
1163.76	564.197
1167.43	926.373
1171.1	371.105
1174.76	512.631
1178.42	353.49
1182.08	217.725
1185.74	267.834
1189.4	627.564
1193.05	726.307
1196.7	937.148
1200.36	560.615
1204.01	260.115
1207.65	276.32
1211.3	272.191
1214.94	281.299
1218.59	527.906
1222.23	979.564
1225.87	967.201
1229.5	803.209
1233.14	592.213
1236.77	734.598
1240.41	662.645
1244.04	616.139
1247.66	664.223
1251.29	1116.2
1254.92	1215.7
1258.54	1131
1262.16	671.826
1265.78	440.344
1269.4	476.449
1273.02	446.645
1276.63	144.383
1280.25	676.74
1283.86	791.475
1287.47	663.307
1291.08	939
1294.68	460.5
1298.29	147.375
1301.89	228.047
1305.49	93.211
1309.09	382.93
1312.69	447.891
1316.29	840.211
1319.88	815.492
1323.47	686.93
1327.06	381.898
1330.65	180.84
1334.24	7.66
1337.83	60.027
1341.41	26.387
1344.99	455.293
1348.57	800.676
1352.15	851.844
1355.73	1096.99
1359.31	568.324
1362.88	647.359
1366.45	393.535
1370.02	345.613
1373.59	268.738
1377.16	356.418
1380.73	423.484
1384.29	1067.66
1387.85	890.258
1391.41	1207.43
1394.97	1384.86
1398.53	1095.31
1402.09	426.984
1405.64	135.117
1409.19	140.992
1412.74	728.801
1416.29	664.441
1419.84	712.887
1423.38	1434.11
1426.93	1287.44
1430.47	1647.93
1434.01	1378.33
1437.55	876.992
1441.09	781.098
1444.62	465.988
1448.16	199.527
1451.69	404.285
1455.22	197.938
1458.75	953.871
1462.28	1620.45
1465.8	1555.9
1469.33	1932.05
1472.85	2105.92
1476.37	1793.52
1479.89	899.621
1483.4	511.445
1486.92	430.105
1490.43	370.684
1493.95	521.262
1497.46	711.199
1500.97	779.031
1504.47	1377.63
1507.98	1803.98
1511.48	1773.99
1514.99	1255.23
