Measurement: Raman, 514 nm, depolarized, Raman Data Processed
Mineral: Leucophanite
Rruff sample: R050004
Ideal chemistry: NaCaBeSi_2_O_6_F
Locality: Langesundfjord, Norway
Source: University of Arizona Mineral Museum
Description: Pale green massive
Measured chemistry: Ca_1.00_Ca_1.00_Na_2.00_Be_2.00_Si_4.00_O_12_(F_0.96_(OH)_0.04_)_2_
Pin_id: M00205
Orientation: Laser parallel to -b* (0 -1 0). Fiducial mark perpendicular to laser is parallel to c [0 0 1]
Raman shift (cm-1)	intensity
66.041	0
70.25	34.239
74.456	72.272
78.661	5.582
82.863	28.059
87.064	121.467
91.262	22.231
95.458	31.234
99.652	63.707
103.843	105.603
108.033	183.977
112.22	259.583
116.406	213.443
120.589	160.15
124.77	246.287
128.949	155.228
133.126	149.948
137.301	229.045
141.473	368.36
145.644	438.568
149.812	265.121
153.979	482.681
158.143	329.624
162.305	216.94
166.465	172.995
170.623	216.61
174.778	76.115
178.932	19.136
183.083	48.452
187.233	40.037
191.38	12.628
195.525	181.918
199.669	103.135
203.81	70.871
207.949	42.205
212.085	9.04
216.22	54.021
220.353	17.176
224.483	76.24
228.612	53.312
232.738	26.36
236.863	108.179
240.985	335.77
245.105	407.426
249.223	236.66
253.339	433.24
257.453	415.877
261.565	270.178
265.675	249.488
269.783	308.968
273.888	617.278
277.992	695.533
282.093	274.602
286.193	185.611
290.29	357.657
294.386	299.387
298.479	154.292
302.57	206.19
306.659	331.987
310.746	641.444
314.831	1062.66
318.914	617.644
322.995	406.555
327.074	202.216
331.151	109.405
335.226	192.04
339.299	280.735
343.37	115.051
347.438	25.503
351.505	83.525
355.57	161.447
359.632	309.631
363.693	830.729
367.751	346.985
371.808	140.202
375.862	96.461
379.914	68.075
383.965	132.374
388.013	122.281
392.06	26.231
396.104	11.723
400.146	2.88
404.186	73.387
408.225	33.268
412.261	25.589
416.295	39.501
420.327	48.76
424.357	60.103
428.386	34.96
432.412	108.059
436.436	152.635
440.458	235.033
444.478	215.386
448.496	77.865
452.513	134.67
456.527	157.513
460.539	173.013
464.549	328.229
468.557	894.509
472.563	965.346
476.567	441.816
480.57	162.718
484.57	171.216
488.568	281.905
492.564	225.998
496.558	43.017
500.551	87.185
504.541	240.076
508.529	260.919
512.515	317.788
516.5	290.662
520.482	326.987
524.462	446.604
528.441	495.918
532.417	804.301
536.391	1268.58
540.364	1006.91
544.334	587.605
548.303	244.383
552.269	106.804
556.234	278.155
560.197	608.318
564.157	689.929
568.116	296.395
572.073	69.059
576.027	215.704
579.98	98.606
583.931	53.542
587.88	6.769
591.827	15.813
595.772	171.316
599.715	148.78
603.656	13.255
607.595	27.15
611.532	63.912
615.468	167.169
619.401	164.811
623.332	0.22
627.262	119.205
631.189	267.971
635.115	418.871
639.039	247.261
642.96	257.424
646.88	444.529
650.798	701.665
654.714	841.108
658.628	901.637
662.54	1287.01
666.45	2739.47
670.358	6128.29
674.264	12497.1
678.169	10508.3
682.071	4744.11
685.972	2744.61
689.87	2211.58
693.767	1811.08
697.662	1573.91
701.555	1813.05
705.446	2610.18
709.335	2578.64
713.222	1379.69
717.107	647.102
720.99	323.756
724.872	402.169
728.751	594.567
732.629	552.796
736.504	300.207
740.378	131.514
744.25	203.883
748.12	365.323
751.988	582.744
755.854	411.892
759.719	276.29
763.581	286.471
767.442	459.069
771.3	602.917
775.157	357.351
779.012	133.813
782.865	15.594
786.716	135.157
790.565	373.911
794.413	484.544
798.258	243.142
802.102	53.685
805.943	70.332
809.783	332.046
813.621	601.501
817.457	442.044
821.292	88.677
825.124	10.003
828.954	120.693
832.783	331.933
836.61	408.615
840.435	224.687
844.258	37.327
848.079	13.273
851.898	321.375
855.715	494.028
859.531	502.066
863.345	199.899
867.157	60.354
870.967	32.207
874.775	351.952
878.581	646.585
882.386	360.854
886.188	54.854
889.989	112.655
893.788	101.462
897.585	470.751
901.38	648.459
905.174	357.034
908.965	45.536
912.755	57.465
916.543	208.946
920.329	542.371
924.113	825.678
927.895	435.824
931.676	375.935
935.454	705.186
939.231	705.111
943.006	629.549
946.78	825.949
950.551	639.483
954.32	198.588
958.088	58.083
961.854	363.246
965.618	1342.65
969.38	1365.84
973.141	1058.88
976.9	637.361
980.656	243.558
984.411	147.518
988.165	441.364
991.916	831.283
995.665	850.383
999.413	729.665
1003.16	423.825
1006.9	355.889
1010.65	930.518
1014.39	2003.6
1018.12	4513.74
1021.86	9840.66
1025.6	7505.74
1029.33	2268.75
1033.06	1039.93
1036.79	811.194
1040.52	1413.3
1044.25	2072.08
1047.97	2231.68
1051.69	1731.45
1055.41	505.719
1059.13	207.244
1062.85	545.92
1066.57	1097.53
1070.28	1580.32
1073.99	1291.69
1077.7	579.41
1081.41	121.357
1085.12	175.163
1088.82	774.808
1092.52	1591.35
1096.22	1607.4
1099.92	1332.86
1103.62	670.665
1107.32	86.146
1111.01	92.127
1114.7	67.779
1118.39	681.758
1122.08	1428.88
1125.77	1261.27
1129.45	840.992
1133.14	310.51
1136.82	185.457
1140.5	527.273
1144.18	946.529
1147.85	1491.91
1151.53	1764.19
1155.2	1365.96
1158.87	597.986
1162.54	218.422
1166.21	47.182
1169.88	612.602
1173.54	1397.62
1177.2	2058.71
1180.86	1825.68
1184.52	1280.88
1188.18	717.775
1191.83	64.186
1195.49	160.301
1199.14	430.133
1202.79	1374.03
1206.44	1926.09
1210.08	1951.29
1213.73	1300.13
1217.37	648.473
1221.01	285.535
1224.65	279.359
1228.29	536.398
1231.93	1785.78
1235.56	2463.55
1239.19	2240.51
1242.83	1658.07
1246.46	1094.32
1250.08	565.807
1253.71	117.842
1257.33	335.49
1260.96	1285.54
1264.58	1938.43
1268.19	2520.65
1271.81	2555.71
1275.43	2073.03
1279.04	1417.72
1282.65	456.164
1286.27	48.215
1289.87	478.043
1293.48	1202.18
1297.09	2259.94
1300.69	2896.02
1304.29	2624.56
1307.89	1649.62
1311.49	982.85
1315.09	265.473
1318.68	178.27
1322.28	193.527
1325.87	1066.72
1329.46	1854.75
1333.05	2365.84
1336.63	2584.39
1340.22	2539.2
1343.8	1689.79
1347.38	647.258
1350.96	20.137
1354.54	529.879
1358.12	474.883
1361.69	1283.15
1365.26	2825.48
1368.83	3220.5
1372.4	2404.73
1375.97	2680.17
1379.54	1814.12
1383.1	449.07
1386.66	108.547
1390.23	260.688
1393.79	255.75
1397.34	1239.73
1400.9	2286.5
1404.45	3889.11
1408.01	3685.47
1411.56	3553.03
1415.11	2953.22
1418.66	1907.71
1422.2	701.879
1425.75	127.777
1429.29	81.125
1432.83	959.566
1436.37	1921.83
1439.91	3462.79
1443.44	4508.37
1446.98	4743.74
1450.51	4040.6
1454.04	3488.49
1457.57	2104.02
1461.1	1132.77
1464.63	61.113
1468.15	253.398
1471.67	555.066
1475.19	1162.45
1478.71	3154.52
1482.23	4160.09
1485.75	4907.78
1489.26	4829.02
1492.78	4590.82
1496.29	3372.67
1499.8	2286.23
1503.31	1353.85
1506.81	249.711
1510.32	54.871
1513.82	276.945
1517.32	2.16
