Measurement: Raman, 514 nm, ccw, Raman Data Processed
Mineral: Leucite
Rruff sample: R060300
Ideal chemistry: K(Si_2_Al)O_6_
Locality: Alban Hills, Rome Province, Latium, Italy
Source: Herb Obodda
Description: Colorless complete pseudocubic crystal showing trapezohedral faces
Measured chemistry: (K_0.98_Na_0.02_)_Î£=1_Al_1.00_Si_2.00_O_6_
Pin_id: M00574
Orientation: Laser parallel to -c* (0 0 -1). Fiducial mark perpendicular to laser is parallel to a [1 0 0]
Raman shift (cm-1)	intensity
71.485	0
76.456	1619.26
81.425	3012.63
86.391	2350.34
91.354	1412.24
96.315	746.178
101.272	379.937
106.227	587.955
111.179	847.633
116.129	1216.87
121.075	696.743
126.019	432.762
130.96	681.973
135.898	1848.14
140.834	2948.28
145.766	4203.63
150.696	5113.71
155.623	5262.68
160.548	4793.42
165.469	4048.73
170.388	3517.93
175.304	4309.83
180.218	5460.07
185.128	4935.63
190.036	3950.58
194.941	2650.48
199.844	1843.9
204.743	1421.82
209.64	1369.29
214.534	1159.92
219.426	799.62
224.314	378.754
229.2	167.914
234.083	120.694
238.964	211.23
243.841	270.344
248.716	198.765
253.588	169.422
258.458	4.43164
263.324	65.8731
268.188	223.224
273.05	128.797
277.908	135.704
282.764	273.26
287.617	358.801
292.467	718.548
297.315	1279.67
302.16	1677.56
307.002	1418.49
311.841	1084.01
316.678	974.04
321.512	884.207
326.343	847.085
331.172	944.265
335.998	957.321
340.821	1007.47
345.641	922.446
350.459	746.709
355.274	601.277
360.086	744.23
364.896	777.639
369.702	857.366
374.507	854.118
379.308	816.175
384.107	822.459
388.903	727.94
393.696	566.611
398.487	524.071
403.275	343.965
408.06	115.015
412.843	233.17
417.622	341.517
422.4	523.255
427.174	862.335
431.946	1055.48
436.715	792.655
441.481	451.296
446.245	427.458
451.006	377.723
455.764	752.767
460.52	1193.01
465.273	1650.71
470.023	3013.44
474.771	5926.78
479.516	10563.5
484.258	15449
488.998	19743.4
493.735	24730.8
498.469	24969.5
503.2	21386.5
507.929	20183.6
512.656	16100.8
517.379	13271.5
522.1	13986
526.818	17700.3
531.534	17156.3
536.247	10524.9
540.957	5661.25
545.665	3330.02
550.369	2284.19
555.072	1420.04
559.771	1099.84
564.468	582.694
569.163	327.109
573.854	184.106
578.543	91.7158
583.23	5.61231
587.913	7.42969
592.594	99.542
597.273	14.6504
601.949	22.1436
606.622	50.8447
611.292	69.5176
615.96	12.5469
620.625	161.667
625.288	214.94
629.948	183.361
634.605	100.87
639.26	113.514
643.912	111.965
648.561	112.305
653.208	16.2402
657.852	90.1328
662.493	58.3955
667.132	56.794
671.768	107.913
676.402	184.288
681.033	83.2334
685.661	125.583
690.287	169.231
694.91	90.668
699.531	101.092
704.149	165.481
708.764	88.46
713.377	269.118
717.987	288.093
722.594	41.9492
727.199	213.88
731.801	198.36
736.401	215.466
740.998	223.231
745.592	293.166
750.184	287.362
754.773	299.438
759.36	213.456
763.944	281.247
768.525	181.388
773.104	202.344
777.68	204.727
782.254	224.264
786.824	193.864
791.393	236.264
795.959	251.984
800.522	105.293
805.082	38.8652
809.641	13.3008
814.196	23.2412
818.749	20.6865
823.299	75.8496
827.847	1.94141
832.392	32.5508
836.934	27.0684
841.474	13.7031
846.012	109.186
850.546	5.51074
855.079	252.915
859.608	170.481
864.135	54.0088
868.66	20.2295
873.182	91.9824
877.701	87.5478
882.218	90.8037
886.732	5.77051
891.243	175.641
895.753	52.7412
900.259	80.5254
904.763	90.5186
909.264	118.305
913.763	276.898
918.259	260.41
922.753	395.862
927.244	378.776
931.733	334.358
936.219	494.516
940.702	699.034
945.183	710.743
949.661	845.477
954.137	1048.92
958.611	1178.69
963.081	1312.45
967.549	1185.4
972.015	1062.62
976.478	1104.05
980.939	1162.84
985.397	1330.17
989.852	1228.4
994.305	1241.77
998.755	1421.6
1003.2	1522.77
1007.65	1375.2
1012.09	1331.77
1016.53	1312.26
1020.97	1442.12
1025.4	1315.4
1029.84	1229.04
1034.27	1525.91
1038.69	1391.47
1043.12	1467.75
1047.54	1611.27
1051.96	1657
1056.38	1907.97
1060.8	1819.56
1065.21	1815.12
1069.62	1799.83
1074.02	1637.61
1078.43	1682.2
1082.83	1645.33
1087.23	1652.2
1091.63	1464.37
1096.02	1344.39
1100.42	1680.83
1104.81	1499.13
1109.19	1509.97
1113.58	1523.96
1117.96	1255.34
1122.34	1459.75
1126.72	1354.32
1131.09	1218.85
1135.46	1169.05
1139.83	1031.14
1144.2	748.398
1148.57	710.845
1152.93	661.47
1157.29	623.236
1161.64	365.147
1166	332.032
1170.35	281.238
1174.7	97.5586
1179.05	149.987
1183.39	22.5205
1187.74	55.8516
1192.08	86.7471
1196.41	108.215
1200.75	12.4121
1205.08	7.98242
1209.41	83.6797
1213.74	169.484
1218.06	43.043
1222.39	190.232
1226.71	124.376
1231.02	63.6826
1235.34	236.675
1239.65	174.566
1243.96	124.348
1248.27	137.023
1252.57	172.679
1256.88	107.383
1261.18	38.0107
1265.47	196.438
1269.77	329.85
1274.06	165.224
1278.35	160.562
1282.64	176.871
1286.93	45.1504
1291.21	116.382
1295.49	156.557
1299.77	83.6787
1304.04	191.218
1308.32	86.7607
1312.59	168.717
1316.86	236.341
1321.12	305.066
1325.38	147.703
1329.65	225.924
1333.9	155.141
1338.16	77.709
1342.41	19.2695
1346.66	29.2227
1350.91	59.582
1355.16	1.55664
1359.4	80.0215
1363.64	171.055
1367.88	186.766
1372.12	125.939
1376.35	82.8203
1380.59	26.5059
1384.82	36.5605
1389.04	319.551
1393.27	199.846
1397.49	220.555
1401.71	237.877
1405.92	135.815
1410.14	197.176
1414.35	175.045
1418.56	23.8398
1422.77	239.893
1426.97	44.2773
1431.17	190.815
1435.38	246.211
1439.57	479.592
1443.77	429.908
1447.96	481.357
1452.15	562.215
1456.34	434.555
1460.53	118.353
1464.71	510.299
1468.89	209.359
1473.07	316.619
1477.24	223.17
1481.42	383.805
1485.59	96.4961
1489.76	334.457
1493.92	185.508
1498.09	271.607
1502.25	108.807
1506.41	177.129
1510.56	198.592
1514.72	84.1211
1518.87	76.9277
1523.02	186.432
1527.17	170.873
1531.31	146.707
1535.45	197
1539.59	278.207
1543.73	16.6504
1547.87	218.928
1552	326.131
1556.13	99.1152
1560.26	90.3965
1564.38	89.0879
1568.51	372.227
1572.63	157.719
1576.74	0.136719
