Measurement: Raman, 514 nm, ccw, Raman Data Processed
Mineral: Leucite
Rruff sample: R060300
Ideal chemistry: K(Si_2_Al)O_6_
Locality: Alban Hills, Rome Province, Latium, Italy
Source: Herb Obodda
Description: Colorless complete pseudocubic crystal showing trapezohedral faces
Measured chemistry: (K_0.98_Na_0.02_)_Î£=1_Al_1.00_Si_2.00_O_6_
Pin_id: M01338
Orientation: Laser parallel to a* (1 0 0). Fiducial mark perpendicular to laser is parallel to c [0 0 1]
Raman shift (cm-1)	intensity
66.51	0
71.485	80.4658
76.456	3191.69
81.425	4126.01
86.391	2225.05
91.354	975.8
96.315	269.992
101.272	85.0264
106.227	323.827
111.179	616.189
116.129	331.543
121.075	200.344
126.019	225.133
130.96	851.726
135.898	2346.14
140.834	4514.49
145.766	6501.59
150.696	8227.59
155.623	8556.9
160.548	7846.68
165.469	6095.79
170.388	5628.17
175.304	6698
180.218	7960.93
185.128	7417.97
190.036	5616.47
194.941	3815.38
199.844	2741.18
204.743	2019.33
209.64	1605.27
214.534	1370.88
219.426	956.43
224.314	450.351
229.2	114.793
234.083	52.7764
238.964	129.634
243.841	262.429
248.716	160.848
253.588	144.103
258.458	64.457
263.324	192.808
268.188	292.627
273.05	255.256
277.908	395.452
282.764	568.078
287.617	844.519
292.467	1508.95
297.315	2199.28
302.16	2675.52
307.002	2254.61
311.841	1950.48
316.678	1421.89
321.512	1246.66
326.343	1376.62
331.172	1599.42
335.998	1628.99
340.821	1583.34
345.641	1314.49
350.459	1077.52
355.274	1104.45
360.086	1045.35
364.896	1241.41
369.702	1363.01
374.507	1425.51
379.308	1301.86
384.107	1214.07
388.903	1514.09
393.696	1224.5
398.487	985.548
403.275	621.921
408.06	515.344
412.843	535.597
417.622	505.485
422.4	834.572
427.174	1235.06
431.946	1357.14
436.715	1028.18
441.481	989.009
446.245	747.237
451.006	842.016
455.764	1084.48
460.52	1701.7
465.273	2927.5
470.023	5557.67
474.771	10449.5
479.516	18043.1
484.258	25456.7
488.998	32097.8
493.735	40320.9
498.469	40236.3
503.2	34896.7
507.929	32324.2
512.656	25925.4
517.379	21663.1
522.1	23718.3
526.818	29316
531.534	27424.7
536.247	16624.7
540.957	9034.85
545.665	5524.05
550.369	3769.01
555.072	2732.85
559.771	1843.41
564.468	1339.38
569.163	811.416
573.854	493.159
578.543	268.545
583.23	221.457
587.913	64.5996
592.594	292.983
597.273	241.586
601.949	62.6406
606.622	68.9014
611.292	89.292
615.96	159.128
620.625	80.0664
625.288	144.405
629.948	194.36
634.605	71.2725
639.26	85.9219
643.912	35.3828
648.561	44.0723
653.208	16.0898
657.852	165.815
662.493	163.835
667.132	317.861
671.768	206.235
676.402	244.5
681.033	419.09
685.661	540.776
690.287	307.067
694.91	107.683
699.531	365.341
704.149	57.7295
708.764	404.746
713.377	399.67
717.987	548.235
722.594	467.891
727.199	481.418
731.801	539.816
736.401	426.688
740.998	548.164
745.592	552.176
750.184	190.318
754.773	226.684
759.36	385.859
763.944	132.842
768.525	233.879
773.104	581.979
777.68	341.633
782.254	381.43
786.824	539.365
791.393	456.943
795.959	304.613
800.522	178.453
805.082	87.6465
809.641	64.1582
814.196	95.9121
818.749	131.154
823.299	17.6699
827.847	21.5898
832.392	3.10352
836.934	37.2871
841.474	110.086
846.012	8.93164
850.546	77.166
855.079	58.8105
859.608	138.91
864.135	114.814
868.66	132.492
873.182	0.998047
877.701	192.84
882.218	130.953
886.732	155.471
891.243	108.838
895.753	130.432
900.259	99.0801
904.763	145.676
909.264	55.8516
913.763	230.709
918.259	162.398
922.753	322.697
927.244	601.123
931.733	544.356
936.219	730.322
940.702	754.955
945.183	894.477
949.661	1155.46
954.137	1393.72
958.611	1703.16
963.081	1666.76
967.549	1643.1
972.015	1691.91
976.478	1819.41
980.939	1653.28
985.397	1877.63
989.852	1907.3
994.305	1800.11
998.755	1912.3
1003.2	1656.97
1007.65	1754.62
1012.09	1890.92
1016.53	1939.74
1020.97	1941.56
1025.4	1997.39
1029.84	1945.47
1034.27	2018.99
1038.69	2391.66
1043.12	2137.51
1047.54	2351.94
1051.96	2296.84
1056.38	2869.28
1060.8	2873.14
1065.21	2754.41
1069.62	2476.02
1074.02	2449.59
1078.43	2378.62
1082.83	2341.27
1087.23	2238.66
1091.63	1961.08
1096.02	2145.45
1100.42	2143.41
1104.81	2174.88
1109.19	2144.84
1113.58	2007.48
1117.96	1965.22
1122.34	1891.68
1126.72	1497.47
1131.09	1531.08
1135.46	1183.58
1139.83	1542.17
1144.2	831.133
1148.57	980.83
1152.93	798.893
1157.29	598.143
1161.64	518.361
1166	412.158
1170.35	147.32
1174.7	228.301
1179.05	70.7324
1183.39	33.1836
1187.74	194.426
1192.08	213.955
1196.41	41.0352
1200.75	102.777
1205.08	76.6465
1209.41	37.3574
1213.74	251.969
1218.06	46.7383
1222.39	270.207
1226.71	78.457
1231.02	171.607
1235.34	257.857
1239.65	101.09
1243.96	44.3398
1248.27	15.4941
1252.57	28.2383
1256.88	129.947
1261.18	22.8887
1265.47	16.1348
1269.77	125.102
1274.06	188.018
1278.35	9.83984
1282.64	104.353
1286.93	30.2266
1291.21	122.861
1295.49	10.4043
1299.77	10.0352
1304.04	252.945
1308.32	233.455
1312.59	60.4199
1316.86	96.082
1321.12	271.391
1325.38	148.478
1329.65	145.406
1333.9	41.9609
1338.16	100.65
1342.41	110.346
1346.66	170.111
1350.91	377.422
1355.16	251.603
1359.4	351.66
1363.64	151.586
1367.88	172.383
1372.12	176.057
1376.35	325.148
1380.59	354.973
1384.82	100.353
1389.04	387.076
1393.27	336.603
1397.49	283.856
1401.71	272.469
1405.92	303.766
1410.14	209.193
1414.35	174.551
1418.56	376.272
1422.77	162.938
1426.97	409.588
1431.17	161.068
1435.38	162.57
1439.57	210.606
1443.77	107.426
1447.96	206.119
1452.15	319.795
1456.34	124.992
1460.53	124.477
1464.71	226.109
1468.89	213.641
1473.07	288.99
1477.24	236.242
1481.42	411.549
1485.59	444.834
1489.76	157.051
1493.92	376.408
1498.09	65.0586
1502.25	342.449
1506.41	229.912
1510.56	295.539
1514.72	148.945
1518.87	302.893
1523.02	162.438
1527.17	331.748
1531.31	179.055
1535.45	558.391
1539.59	400.904
1543.73	427.685
1547.87	397.768
1552	510.482
1556.13	412.869
1560.26	341.508
1564.38	176.416
1568.51	389.857
1572.63	455.295
