Measurement: Raman, 514 nm, ccw, Raman Data Processed
Mineral: Leucite
Rruff sample: R040107
Ideal chemistry: K(Si_2_Al)O_6_
Locality: Roccamonfina, Italy
Source: University of Arizona Mineral Museum
Description: Rounded colorless crystals embedded in an ash matrix
Measured chemistry: (K_0.95_Na_0.03_)Al_0.99_Si_2.01_O_6_
Pin_id: L00276
Orientation: Laser parallel to -a* (-1 0 0). Fiducial mark perpendicular to laser is parallel to c [0 0 1]
Raman shift (cm-1)	intensity
75.803	0
80.763	1841.38
85.722	7564.82
90.678	190.734
95.631	566.148
100.581	274.363
105.529	42.5117
110.475	430.389
115.417	2536.71
120.358	5514.73
125.295	13643.2
130.23	3718.8
135.163	6949.41
140.092	11748
145.019	17051.5
149.944	21079.5
154.866	24059.4
159.785	24166.9
164.702	21885.1
169.616	18867.6
174.528	18936.4
179.437	22829.8
184.343	23647.9
189.247	19675.2
194.148	14483.9
199.046	11030.8
203.942	8989.81
208.835	8803.02
213.726	8655.98
218.614	7711.19
223.5	5283.14
228.382	3180.2
233.263	1372.67
238.14	259.852
243.015	487.803
247.888	686.473
252.758	572.67
257.625	407.244
262.49	24.5059
267.352	248.688
272.211	928.088
277.068	948.479
281.922	963.326
286.773	2035.76
291.622	3668.73
296.469	5914.58
301.312	7941.53
306.154	8580.03
310.992	7283.66
315.828	5965.56
320.661	5130.4
325.492	5256.07
330.32	5929.86
335.145	7311.38
339.968	7511.87
344.789	6347.28
349.606	5187.67
354.421	4106.23
359.234	4103.13
364.043	4299.85
368.851	4822.81
373.655	4964.58
378.457	5182.69
383.256	5309.43
388.053	5558.57
392.847	5229.35
397.639	4520.66
402.428	3313.35
407.214	2080.7
411.998	1880.83
416.779	1738.62
421.557	2231.09
426.333	2803.33
431.106	3447.87
435.877	3330.95
440.645	2153.4
445.41	1541.25
450.173	1715.69
454.933	2899.1
459.691	5327.89
464.446	7739.36
469.198	13325.7
473.948	24519.6
478.695	44638.1
483.439	69843.1
488.181	92942.7
492.92	117499
497.657	133545
502.391	121883
507.122	109567
511.851	94568.9
516.577	75953.3
521.301	71425.2
526.022	84304.6
530.74	91555.1
535.456	68647.7
540.169	39315.9
544.879	23098.4
549.587	14250.4
554.292	10083.4
558.995	6882.74
563.695	4663.41
568.392	3147.69
573.087	1841.24
577.779	899.76
582.469	650.176
587.156	513.273
591.84	337.088
596.522	348.309
601.201	182.957
605.877	69.9141
610.551	371.75
615.222	224.824
619.891	285.824
624.557	106.654
629.22	183.984
633.881	129.117
638.539	64.9121
643.195	149.822
647.848	355.914
652.498	203.307
657.145	52.6875
661.791	264.94
666.433	501.998
671.073	1017.4
675.71	1004.01
680.345	1036.18
684.977	1219.43
689.606	554.904
694.233	149.184
698.857	83.9219
703.478	30.4473
708.097	403.676
712.714	861.428
717.327	1057.7
721.938	1232.19
726.547	1272.21
731.153	1090.74
735.756	1177.27
740.356	1434.87
744.954	1234.45
749.55	1229.83
754.142	1187.4
758.733	986.686
763.32	1427.08
767.905	1381.98
772.487	1826.17
777.067	2112.1
781.644	2671.75
786.218	2806.64
790.79	2571.95
795.359	2352.72
799.926	1911.16
804.49	1535.7
809.051	1104.33
813.61	791.016
818.166	506.705
822.72	134.203
827.271	129.938
831.819	185.301
836.365	18.6465
840.908	313.406
845.448	56.1016
849.986	8.28711
854.521	51.1289
859.054	50.2344
863.584	81.1426
868.111	154.512
872.636	35.2969
877.158	126.463
881.677	3.89648
886.194	74.2012
890.709	116.178
895.22	204.236
899.729	386.367
904.236	378.451
908.74	607.943
913.241	1068
917.739	1317.79
922.235	1299.81
926.729	1719.44
931.219	1917.44
935.708	2009.73
940.193	2571.66
944.676	2843.79
949.156	3520.79
953.634	3957.07
958.109	4351.61
962.582	4671.57
967.051	5023.32
971.519	5302.96
975.983	5516.03
980.445	5254.08
984.905	5221.35
989.362	5338.62
993.816	5614.37
998.267	6141.91
1002.72	6188.55
1007.16	6100.52
1011.61	6183.27
1016.05	6164.54
1020.49	6171.84
1024.92	6499.59
1029.36	6564.58
1033.79	6891.31
1038.21	7473.86
1042.64	7782.56
1047.06	8014.45
1051.48	8458.88
1055.9	8771.84
1060.32	8779.03
1064.73	8704.69
1069.14	8606.51
1073.55	8210.91
1077.95	7834.12
1082.35	7439.51
1086.75	7222.77
1091.15	7181.75
1095.54	6890.93
1099.93	6944.13
1104.32	6835.28
1108.71	6948.6
1113.09	6733.03
1117.47	6438.6
1121.85	5768.77
1126.23	5410.98
1130.6	5171.34
1134.97	4840.49
1139.34	3930.85
1143.7	3498.59
1148.07	3310.53
1152.43	2570.18
1156.79	2389.53
1161.14	1821.66
1165.49	1455.13
1169.84	823.016
1174.19	1330.6
1178.54	322.652
1182.88	285.531
1187.22	236.699
1191.55	21.1484
1195.89	68.6094
1200.22	221.258
1204.55	150.816
1208.87	12.8594
1213.2	8.93359
1217.52	374.324
1221.84	22.5859
1226.15	104.535
1230.47	301.516
1234.78	128.223
1239.09	33.8984
1243.39	142.438
1247.69	17.3359
1251.99	85.3672
1256.29	136.106
1260.59	81.6914
1264.88	7.01953
1269.17	143.137
1273.46	145.547
1277.74	46.8828
1282.02	120.223
1286.3	295.555
1290.58	312.644
1294.86	188.738
1299.13	395.894
1303.39	310.438
1307.66	139.508
1311.93	425.234
1316.19	3.30078
1320.45	237.481
1324.7	424.254
1328.96	285.211
1333.21	303.18
1337.45	502.008
1341.7	378.574
1345.94	450.918
1350.18	241.008
1354.42	217.856
1358.66	253.148
1362.89	145.644
1367.12	871.848
1371.35	326.852
1375.57	348.184
1379.8	46.6211
1384.02	164.137
1388.23	368.777
1392.45	137.793
1396.66	185.109
1400.87	70.4492
1405.08	188.191
1409.28	358.383
1413.48	202.703
1417.68	184.879
1421.88	419.797
1426.07	397.672
1430.26	616.195
1434.45	488.402
1438.64	196.199
1442.82	725.41
1447	452.644
1451.18	395.301
1455.35	759.516
1459.53	62.8516
1463.7	577.828
1467.87	404.945
1472.03	319.047
1476.19	488.012
1480.35	399.074
1484.51	289.742
1488.67	120.332
1492.82	359.664
1496.97	516.438
1501.12	316.293
1505.26	203.863
1509.4	441.289
1513.54	421.969
1517.68	256.891
1521.81	476.68
1525.94	554.695
1530.07	231.023
1534.2	604.828
1538.32	453.359
1542.44	616.094
1546.56	563.191
1550.68	298.449
1554.79	716.84
1558.9	449.41
1563.01	221.406
1567.12	449.453
1571.22	527.684
1575.32	231.738
