Measurement: Raman, 514 nm, ccw, Raman Data Processed
Mineral: Leucite
Rruff sample: R060300
Ideal chemistry: K(Si_2_Al)O_6_
Locality: Alban Hills, Rome Province, Latium, Italy
Source: Herb Obodda
Description: Colorless complete pseudocubic crystal showing trapezohedral faces
Measured chemistry: (K_0.98_Na_0.02_)_Î£=1_Al_1.00_Si_2.00_O_6_
Pin_id: M00574
Orientation: Laser parallel to -c* (0 0 -1). Fiducial mark perpendicular to laser is parallel to a [1 0 0]
Raman shift (cm-1)	intensity
87.632	0
92.595	284.536
97.554	303.967
102.511	131.778
107.465	179.507
112.417	747.575
117.365	1658.6
122.311	1147.32
127.254	624.008
132.195	1478.95
137.132	2993.91
142.067	4319.09
146.999	5763.37
151.928	6927.7
156.855	7098.8
161.778	6270.37
166.699	5236.68
171.618	4918.69
176.533	6257.82
181.446	7009.92
186.356	6330.47
191.263	4882.53
196.167	3536.03
201.069	2795.06
205.968	2588.99
210.864	2601.25
215.757	2577.77
220.648	1883.64
225.536	1152.97
230.421	521.878
235.304	72.9853
240.183	80.2129
245.06	255.356
249.934	145.714
254.806	8.16211
259.675	248.115
264.541	161.95
269.404	118.809
274.265	182.971
279.122	244.213
283.977	306.321
288.83	501.62
293.679	1397.55
298.526	1985.45
303.371	2277.53
308.212	1840.79
313.051	1657.33
317.887	1368.58
322.72	1292.85
327.551	1441.63
332.379	1744.68
337.204	1887.82
342.026	1745.37
346.846	1423.32
351.663	989.714
356.477	806.587
361.289	1127.07
366.098	1026.16
370.904	1088.91
375.707	1212.28
380.508	1394.68
385.306	1299.46
390.101	1317.21
394.894	1087.2
399.684	791.732
404.471	478.178
409.256	184.578
414.038	177.234
418.817	311.227
423.593	548.024
428.367	821.171
433.138	954.05
437.907	623.932
442.672	380.273
447.435	448.886
452.196	593.26
456.953	998.45
461.708	1699.9
466.461	2662.47
471.21	5027.13
475.957	9875.22
480.702	17257.5
485.443	23642.2
490.182	30223
494.918	37535.8
499.652	35741
504.383	31281.9
509.111	28496.4
513.837	22141.8
518.56	19261.8
523.28	21804.2
527.997	27044.8
532.712	23079.3
537.425	13271.7
542.134	7207.69
546.841	4304.33
551.545	3031.53
556.247	1983.9
560.946	1405.48
565.642	826.781
570.336	463.44
575.027	243.789
579.715	271.309
584.401	211.281
589.084	64.6289
593.764	181.234
598.442	123.198
603.117	139.442
607.79	128.041
612.459	0.063477
617.127	65.3926
621.791	250.903
626.453	186.228
631.112	30.8877
635.769	60.291
640.423	96.4219
645.074	116.182
649.723	16.0361
654.369	5.12695
659.013	52.419
663.653	26.8086
668.292	119.475
672.927	126.673
677.56	286.06
682.19	309.659
686.818	97.5469
691.443	100.826
696.066	48.8603
700.686	64.3701
705.303	55.748
709.917	44.585
714.529	277.622
719.139	189.331
723.746	142.559
728.35	368.415
732.951	430.72
737.55	387.43
742.147	287.16
746.74	266.312
751.331	266.462
755.92	249.845
760.506	135.775
765.089	397.627
769.67	383.533
774.248	510.9
778.824	658.666
783.397	814.746
787.967	777.442
792.535	616.338
797.1	583.447
801.662	476.698
806.222	248.155
810.78	225.655
815.334	245.528
819.887	0.169922
824.436	74.96
828.983	81.3018
833.528	5.30566
838.07	31.3271
842.609	37.6738
847.146	142.476
851.68	110.139
856.211	155.978
860.74	543.096
865.267	80.4248
869.79	212.445
874.312	329.443
878.83	234.84
883.346	7.01562
887.86	20.375
892.371	41.3086
896.879	124.811
901.385	60.625
905.889	105.256
910.389	183.35
914.887	203.166
919.383	295.803
923.876	466.256
928.367	284.441
932.854	586.438
937.34	503.273
941.823	740.146
946.303	870.732
950.781	1233.4
955.256	1020.02
959.728	1266.06
964.199	1147.63
968.666	1301.99
973.131	1312.12
977.593	1141.3
982.053	1497.01
986.511	1636.35
990.966	1799.93
995.418	1461.06
999.868	1971.53
1004.32	1737.65
1008.76	1615.65
1013.2	1454.72
1017.64	1807.04
1022.08	1712.35
1026.51	1650.62
1030.94	1890.76
1035.37	1878.16
1039.8	1968.88
1044.22	2001.52
1048.65	2027.36
1053.07	2289.86
1057.48	2383.56
1061.9	2381.97
1066.31	2194.57
1070.72	2131.58
1075.13	2126.93
1079.53	2133.63
1083.93	2172.36
1088.33	2283.35
1092.73	1918.36
1097.12	2084.63
1101.51	1801.83
1105.9	2100.44
1110.29	1891.25
1114.67	1825.59
1119.06	1519.76
1123.43	1480.78
1127.81	1382.01
1132.18	1269.41
1136.56	1074.29
1140.93	1225.07
1145.29	935.293
1149.66	758.652
1154.02	640.174
1158.38	439.889
1162.73	378.5
1167.09	365.586
1171.44	310.525
1175.79	73.9941
1180.14	273.57
1184.48	93.1328
1188.82	61.7715
1193.16	152.447
1197.5	134.152
1201.83	142.518
1206.16	184.506
1210.49	64.291
1214.82	69.666
1219.14	186.381
1223.47	13.1367
1227.79	46.2305
1232.1	210.603
1236.42	234.992
1240.73	269.279
1245.04	8.63281
1249.35	206.035
1253.65	161.086
1257.95	231.103
1262.25	552.037
1266.55	338.934
1270.84	25.7266
1275.13	385.182
1279.42	254.772
1283.71	154.336
1288	197.779
1292.28	161.945
1296.56	35.0977
1300.84	37.9473
1305.11	160.557
1309.38	334.394
1313.65	315.607
1317.92	178.67
1322.19	218.06
1326.45	261.277
1330.71	63.2383
1334.97	152.652
1339.22	298.635
1343.48	110.356
1347.73	95.5352
1351.97	10.6836
1356.22	219.742
1360.46	182.906
1364.7	116.022
1368.94	91.6523
1373.18	69.7168
1377.41	216.562
1381.64	169.426
1385.87	76.8144
1390.1	336.484
1394.32	211.438
1398.54	20.041
1402.76	82.0996
1406.98	132.65
1411.19	192.441
1415.4	114.018
1419.61	53.6758
1423.82	377.318
1428.02	77.5117
1432.23	113.627
1436.42	409.1
1440.62	574.086
1444.82	598.037
1449.01	633.805
1453.2	655.996
1457.39	446.185
1461.57	716.695
1465.75	354.424
1469.93	355.85
1474.11	308.65
1478.29	264.269
1482.46	256.586
1486.63	493.672
1490.8	285.072
1494.96	45.5996
1499.13	93.0781
1503.29	203.514
1507.45	312.4
1511.6	296.398
1515.76	164.498
1519.91	216.783
1524.06	94.3223
1528.2	149.498
1532.35	326.26
1536.49	328.91
1540.63	240.353
1544.77	326.519
1548.9	180.709
1553.03	278.469
1557.16	201.654
1561.29	12.7656
1565.41	246.129
1569.54	138.893
1573.66	42.7715
1577.77	0
