Measurement: Raman, 514 nm, ccw, Raman Data Processed
Mineral: Leucite
Rruff sample: R060300
Ideal chemistry: K(Si_2_Al)O_6_
Locality: Alban Hills, Rome Province, Latium, Italy
Source: Herb Obodda
Description: Colorless complete pseudocubic crystal showing trapezohedral faces
Measured chemistry: (K_0.98_Na_0.02_)_Î£=1_Al_1.00_Si_2.00_O_6_
Pin_id: M01338
Orientation: Laser parallel to a* (1 0 0). Fiducial mark perpendicular to laser is parallel to c [0 0 1]
Raman shift (cm-1)	intensity
70.241	0
75.214	1635.02
80.183	2216.11
85.15	1206.18
90.114	1229.57
95.075	1644.12
100.033	1247.47
104.989	841.883
109.942	1123.98
114.892	2355.28
119.839	2224.58
124.783	1568.63
129.725	2009.18
134.664	3495.14
139.6	5571.95
144.533	7349.25
149.464	8747.94
154.392	9460.26
159.317	9105.84
164.239	7473.89
169.159	6548.82
174.076	7722.48
178.99	9943.98
183.901	9781.36
188.81	7370.06
193.715	5114.43
198.618	3674.73
203.519	3048.89
208.416	2987.01
213.311	2782.92
218.203	2386.62
223.092	1433.75
227.979	839.261
232.863	137.538
237.744	137.402
242.622	242.002
247.498	350.071
252.371	494.941
257.241	209.755
262.108	68.0195
266.973	92.5225
271.835	146.592
276.694	74.5264
281.55	288.151
286.404	582.959
291.255	1316.35
296.103	2007.58
300.949	2529.4
305.792	2403.79
310.632	2020.55
315.469	1562.2
320.304	1406.99
325.136	1407.79
329.965	1378.48
334.791	1672.38
339.615	1408.33
344.436	1259.33
349.255	993.433
354.07	897.672
358.883	713.115
363.693	986.84
368.501	970.863
373.306	978.692
378.108	1223.6
382.907	1207.23
387.704	968.378
392.498	1039.8
397.289	665.341
402.078	411.166
406.864	220.273
411.647	237.846
416.428	292.133
421.205	562.186
425.981	1177.11
430.753	1603.25
435.523	1266.91
440.29	579.044
445.054	592.506
449.816	708.465
454.575	1172.07
459.331	1938.46
464.085	2742.18
468.836	4783.33
473.584	9615.38
478.33	17101.8
483.073	26379.8
487.813	33174.7
492.551	41661.3
497.286	44093.8
502.018	38488
506.747	36097.7
511.474	29839.2
516.198	23866.2
520.92	24367.5
525.639	31332.1
530.355	31677.2
535.069	20767.5
539.78	11160.1
544.488	6579.26
549.194	4482.77
553.896	3173.68
558.597	2125.05
563.294	1599.38
567.989	760.629
572.682	562.564
577.371	231.828
582.058	242.205
586.743	326.863
591.424	215.912
596.103	241.525
600.78	27.5098
605.454	134.846
610.125	93.4414
614.793	60.373
619.459	28.2754
624.122	218.43
628.783	37.0605
633.441	105.537
638.096	18.6738
642.749	189.785
647.399	198.238
652.046	18.0352
656.691	164.978
661.333	64.2188
665.973	264.619
670.61	420.156
675.244	200.463
679.876	523.426
684.505	426.039
689.131	214.381
693.755	209.127
698.376	147.754
702.994	235.838
707.61	350.184
712.224	335.275
716.834	493.613
721.443	715.396
726.048	550.68
730.651	593.93
735.251	675.143
739.849	459.154
744.444	490.672
749.036	528.312
753.626	382.143
758.213	393.33
762.798	431.281
767.38	451.703
771.959	561.32
776.536	620.699
781.11	724.967
785.682	730.144
790.251	691.646
794.817	766.164
799.381	549.973
803.943	509.518
808.501	343.91
813.057	69.7344
817.611	267.938
822.162	1.48242
826.71	14.1426
831.256	108.365
835.799	153.441
840.34	9.77734
844.878	40.0684
849.413	235.525
853.946	76.9824
858.476	183.26
863.004	177.705
867.529	3.5957
872.051	143.188
876.571	6.67969
881.089	174.83
885.604	93.5762
890.116	73.7617
894.626	276.469
899.133	64.7383
903.637	288.508
908.139	182.014
912.639	239.185
917.136	449.113
921.63	470.049
926.122	475.92
930.611	578.586
935.098	791.994
939.582	795.684
944.063	1102.22
948.542	1246.6
953.019	1263
957.492	1682.1
961.964	1526.13
966.433	1831.2
970.899	1645.42
975.363	1795.24
979.824	1941.03
984.282	1825.98
988.738	2049.75
993.192	1938.06
997.643	1805.36
1002.09	2003.11
1006.54	2186.2
1010.98	2387.98
1015.42	2050.61
1019.86	1994.81
1024.3	2323.88
1028.73	2326.27
1033.16	2233.33
1037.59	2489.05
1042.01	2593.72
1046.44	2549.96
1050.86	2836.48
1055.28	2889.27
1059.69	3167.62
1064.1	2998.43
1068.52	2895.09
1072.92	2683.79
1077.33	2612.47
1081.73	2552.19
1086.13	2437.18
1090.53	2384.83
1094.92	2223.59
1099.32	2455.45
1103.71	2032.46
1108.1	2206.91
1112.48	1965.2
1116.87	2202.96
1121.24	1925.91
1125.62	1715.81
1130	1643.74
1134.37	1679.9
1138.74	1442.7
1143.11	1426.89
1147.47	1167.42
1151.84	845.42
1156.2	911.828
1160.56	554.545
1164.91	400.057
1169.26	414.25
1173.62	322.678
1177.96	158.32
1182.31	84.1738
1186.65	41.7695
1190.99	142.44
1195.33	12.1113
1199.66	136.723
1204	55.4727
1208.33	72.4277
1212.66	28.1992
1216.98	181.916
1221.31	44.2109
1225.63	88.5
1229.94	1.46094
1234.26	33.0605
1238.57	43.7266
1242.88	17.6387
1247.19	35.6914
1251.5	108.262
1255.8	62.6934
1260.1	24.1289
1264.4	29.4297
1268.7	347
1272.99	107.893
1277.28	176.555
1281.57	245.603
1285.86	66.1602
1290.14	242.172
1294.42	249.043
1298.7	85.4238
1302.97	218.418
1307.25	223.207
1311.52	224.602
1315.79	187.924
1320.06	354.922
1324.32	176.922
1328.58	160.506
1332.84	33.2109
1337.1	159.199
1341.35	154.498
1345.6	151.197
1349.85	77.5019
1354.1	72.8438
1358.34	463.932
1362.59	98.0332
1366.82	264.035
1371.06	314.947
1375.3	147.596
1379.53	231.807
1383.76	397.188
1387.98	116.82
1392.21	354.738
1396.43	23.6504
1400.65	120.883
1404.87	295.416
1409.09	255.963
1413.3	88.5293
1417.51	44.1172
1421.72	354.158
1425.92	121.961
1430.12	144.414
1434.33	258.443
1438.52	205.744
1442.72	409.312
1446.91	6.85352
1451.1	235.144
1455.29	445.32
1459.48	132.438
1463.66	191.514
1467.84	217.723
1472.02	244.006
1476.2	215.91
1480.37	249.844
1484.55	416.361
1488.71	436.725
1492.88	493.773
1497.05	326.43
1501.21	487.514
1505.37	293.578
1509.53	361.65
1513.68	213.775
1517.83	469.227
1521.98	225.371
1526.13	364.828
1530.28	420.066
1534.42	512.732
1538.56	364.264
1542.7	267.701
1546.83	179.207
1550.97	286.363
1555.1	369.484
1559.22	139.941
1563.35	134.647
1567.47	95.375
1571.6	104.975
1575.72	78.6269
