Measurement: Raman, 514 nm, ccw, Raman Data Processed
Mineral: Leucite
Rruff sample: R040107
Ideal chemistry: K(Si_2_Al)O_6_
Locality: Roccamonfina, Italy
Source: University of Arizona Mineral Museum
Description: Rounded colorless crystals embedded in an ash matrix
Measured chemistry: (K_0.95_Na_0.03_)Al_0.99_Si_2.01_O_6_
Pin_id: L01573
Orientation: Laser parallel to -c* (0 0 -1). Fiducial mark perpendicular to laser is parallel to -a [-1 0 0]
Raman shift (cm-1)	intensity
90.678	0
95.631	909.898
100.581	697.877
105.529	421.643
110.475	477.203
115.417	2023.62
120.358	4224.98
125.295	10261.8
130.23	1920.04
135.163	4112.38
140.092	7275.57
145.019	10516.3
149.944	13281.1
154.866	14890.2
159.785	14026.4
164.702	12281.8
169.616	10747.2
174.528	11218
179.437	14158.8
184.343	13524.4
189.247	10978.2
194.148	8351.09
199.046	6540.06
203.942	5895.12
208.835	5826.44
213.726	6261.61
218.614	5066.47
223.5	3346.24
228.382	1757.16
233.263	633.512
238.14	205.195
243.015	395.518
247.888	631.908
252.758	390.125
257.625	289.537
262.49	168.555
267.352	178.168
272.211	367.539
277.068	78.0039
281.922	278.756
286.773	1016.38
291.622	2035.93
296.469	3693.51
301.312	4957.88
306.154	5012.59
310.992	4127.15
315.828	3609.38
320.661	3251.68
325.492	3594.83
330.32	4250.66
335.145	5135.13
339.968	4936.4
344.789	4017.14
349.606	3287.37
354.421	2498.13
359.234	2633.6
364.043	2893
368.851	3054.41
373.655	3143.96
378.457	3500.8
383.256	3673.72
388.053	3726.38
392.847	3646.98
397.639	2798.07
402.428	2091.25
407.214	1114.42
411.998	696.436
416.779	787.894
421.557	931.166
426.333	1375.75
431.106	1831.79
435.877	1433.84
440.645	785.684
445.41	557.693
450.173	852.969
454.933	1650.61
459.691	3059.78
464.446	5196.79
469.198	8947.89
473.948	16939.8
478.695	30478.9
483.439	46770
488.181	61517.4
492.92	78059.3
497.657	86669.1
502.391	76119.4
507.122	68403.4
511.851	57720.3
516.577	46005.6
521.301	45347.2
526.022	54650.7
530.74	56656.1
535.456	39087.4
540.169	22124.3
544.879	12521.4
549.587	8335.18
554.292	5529.36
558.995	3963.5
563.695	2641.34
568.392	1868.74
573.087	1065.17
577.779	301.623
582.469	266.162
587.156	443.693
591.84	454.148
596.522	375.717
601.201	277.234
605.877	68.2988
610.551	3.80859
615.222	74.8711
619.891	340.211
624.557	357.334
629.22	186.197
633.881	67.7305
638.539	86.8418
643.195	165.709
647.848	66.2617
652.498	45.8203
657.145	233.387
661.791	203.861
666.433	74.2812
671.073	613.08
675.71	545.732
680.345	543.486
684.977	390.156
689.606	307.531
694.233	165.902
698.857	44.3555
703.478	124.16
708.097	271.846
712.714	384.504
717.327	340.9
721.938	450.947
726.547	638.617
731.153	657.633
735.756	788.332
740.356	853.703
744.954	813.826
749.55	621.697
754.142	701.453
758.733	1073.57
763.32	837.254
767.905	1115.14
772.487	1394.38
777.067	1507.08
781.644	1753.03
786.218	1868.86
790.79	1961.14
795.359	1655.9
799.926	1286.29
804.49	879.467
809.051	495.481
813.61	326.312
818.166	92.9062
822.72	82.0352
827.271	108.859
831.819	77.5801
836.365	76.0195
840.908	192.227
845.448	130.185
849.986	42.2578
854.521	290.039
859.054	152.25
863.584	140.156
868.111	8.49219
872.636	45.3555
877.158	41.166
881.677	38.4844
886.194	360.606
890.709	131.629
895.22	225.56
899.729	225.426
904.236	362.174
908.74	313.287
913.241	664.459
917.739	639.627
922.235	778.635
926.729	1124.37
931.219	1244.45
935.708	1419.45
940.193	1522.79
944.676	1630.55
949.156	2106.15
953.634	2407.61
958.109	2707.79
962.582	3005.59
967.051	2998.81
971.519	2777.74
975.983	3022.68
980.445	2801.5
984.905	3161.75
989.362	3053.99
993.816	3117.73
998.267	3842.51
1002.72	3942.35
1007.16	3699.91
1011.61	4078.65
1016.05	3834.1
1020.49	4077.82
1024.92	4016.73
1029.36	4025.38
1033.79	4476.36
1038.21	4687.27
1042.64	4628.51
1047.06	5004.45
1051.48	5575.69
1055.9	5643.2
1060.32	5602.06
1064.73	5573.86
1069.14	5321.77
1073.55	5037.91
1077.95	5029.83
1082.35	4855.7
1086.75	4851.15
1091.15	4673.84
1095.54	4690.33
1099.93	4646.92
1104.32	4649.67
1108.71	4434.35
1113.09	4312.43
1117.47	4075.58
1121.85	3960.23
1126.23	3420.89
1130.6	3010.03
1134.97	2712.93
1139.34	2474.31
1143.7	2213.9
1148.07	1744.93
1152.43	1676.31
1156.79	1514.99
1161.14	1165.18
1165.49	895.566
1169.84	748.096
1174.19	317.185
1178.54	346.92
1182.88	138.902
1187.22	247.783
1191.55	129.297
1195.89	29.6699
1200.22	165.598
1204.55	130.9
1208.87	198.475
1213.2	105.326
1217.52	148.984
1221.84	34.9219
1226.15	126.551
1230.47	167.551
1234.78	265.906
1239.09	54.0703
1243.39	97.9102
1247.69	188.648
1251.99	9.91797
1256.29	380.809
1260.59	91.1211
1264.88	279.555
1269.17	233.688
1273.46	188.766
1277.74	518.84
1282.02	304.035
1286.3	574.606
1290.58	333.098
1294.86	307.434
1299.13	177.664
1303.39	596.426
1307.66	47.7227
1311.93	483.602
1316.19	413.168
1320.45	303.586
1324.7	493.328
1328.96	281.523
1333.21	272.211
1337.45	286.453
1341.7	379.949
1345.94	166.219
1350.18	268.254
1354.42	371.789
1358.66	84.8828
1362.89	219.512
1367.12	194.316
1371.35	17.3633
1375.57	164.16
1379.8	43.582
1384.02	6.73047
1388.23	65.4648
1392.45	303.078
1396.66	196.356
1400.87	267.668
1405.08	14.1992
1409.28	69.8203
1413.48	82.4375
1417.68	86.8477
1421.88	155.981
1426.07	37.9844
1430.26	390.574
1434.45	469.367
1438.64	720.594
1442.82	793.984
1447	768.363
1451.18	732.82
1455.35	887.027
1459.53	571.703
1463.7	786.051
1467.87	537.148
1472.03	338.004
1476.19	422.227
1480.35	314.004
1484.51	481.66
1488.67	232.703
1492.82	260.852
1496.97	158.606
1501.12	70.2852
1505.26	16.1406
1509.4	220.285
1513.54	191.269
1517.68	245.277
1521.81	251.414
1525.94	298.82
1530.07	273.742
1534.2	472.801
1538.32	325.934
1542.44	603.695
1546.56	302.637
1550.68	340.324
1554.79	579.996
1558.9	200.941
1563.01	39.0859
1567.12	103.629
1571.22	75.1758
1575.32	279.949
