Measurement: Raman, 514 nm, depolarized, Raman Data Processed
Mineral: Leucite
Rruff sample: R060300
Ideal chemistry: K(Si_2_Al)O_6_
Locality: Alban Hills, Rome Province, Latium, Italy
Source: Herb Obodda
Description: Colorless complete pseudocubic crystal showing trapezohedral faces
Measured chemistry: (K_0.98_Na_0.02_)_Î£=1_Al_1.00_Si_2.00_O_6_
Pin_id: M01338
Orientation: Laser parallel to a* (1 0 0). Fiducial mark perpendicular to laser is parallel to c [0 0 1]
Raman shift (cm-1)	intensity
66.51	0
71.485	268.838
76.456	2617.43
81.425	3569.06
86.391	2318.32
91.354	1120.72
96.315	592.257
101.272	514.855
106.227	654.211
111.179	861.338
116.129	1078.66
121.075	957.154
126.019	667.785
130.96	1232.4
135.898	2960.74
140.834	4911.69
145.766	6949.63
150.696	8496.02
155.623	9075.44
160.548	8518.91
165.469	6895.53
170.388	5927.03
175.304	7081.23
180.218	8660.74
185.128	8127.93
190.036	6082.3
194.941	4259.09
199.844	3015.23
204.743	2117.82
209.64	1904.5
214.534	1607.63
219.426	1209.61
224.314	637.34
229.2	173.673
234.083	15.2969
238.964	302.486
243.841	321.798
248.716	401.532
253.588	260.968
258.458	73.5654
263.324	138.671
268.188	205.579
273.05	221.129
277.908	310.033
282.764	471.324
287.617	787.361
292.467	1412.41
297.315	2274.23
302.16	2555.37
307.002	2479.02
311.841	1820.78
316.678	1499.33
321.512	1470.46
326.343	1349.99
331.172	1571.43
335.998	1778.74
340.821	1524.99
345.641	1263.19
350.459	963.386
355.274	913.604
360.086	1034.85
364.896	1103.78
369.702	1303.03
374.507	1240.96
379.308	1231.33
384.107	1461.36
388.903	1233.26
393.696	1229.42
398.487	885.318
403.275	474.124
408.06	327.4
412.843	285.496
417.622	485.316
422.4	745.727
427.174	1111.88
431.946	1334.5
436.715	985.732
441.481	686.083
446.245	615.86
451.006	668.144
455.764	1053.13
460.52	1868.89
465.273	3036.7
470.023	5362.82
474.771	10432.1
479.516	18773.5
484.258	26655.8
488.998	33494
493.735	42219.3
498.469	41948.5
503.2	36507.1
507.929	33888.4
512.656	27236.3
517.379	22327.5
522.1	24161.5
526.818	30540.6
531.534	28855.8
536.247	17926.7
540.957	9571.46
545.665	5824.52
550.369	3779.82
555.072	2646.64
559.771	1863.36
564.468	1273.5
569.163	741.67
573.854	393.672
578.543	375.346
583.23	261.551
587.913	54.209
592.594	159.426
597.273	158.072
601.949	152.084
606.622	15.5469
611.292	108.744
615.96	58.0195
620.625	30.4688
625.288	276.603
629.948	74.3887
634.605	38.8184
639.26	214.775
643.912	16.4941
648.561	31.6797
653.208	50.9473
657.852	94.7519
662.493	166.121
667.132	375.316
671.768	332.965
676.402	264.58
681.033	571.113
685.661	304.727
690.287	439.883
694.91	286.535
699.531	221.856
704.149	316.44
708.764	448.277
713.377	402.592
717.987	484.916
722.594	566.613
727.199	434.789
731.801	424.703
736.401	474.156
740.998	594.92
745.592	490.549
750.184	417.137
754.773	435.205
759.36	309.963
763.944	233.553
768.525	247.633
773.104	424.24
777.68	416.469
782.254	472.658
786.824	614.758
791.393	489.293
795.959	180.883
800.522	378.769
805.082	338.088
809.641	231.836
814.196	11.2773
818.749	64.2539
823.299	51.6406
827.847	16.5156
832.392	81.75
836.934	39.5996
841.474	26.6152
846.012	109
850.546	35.3438
855.079	10.291
859.608	16.1836
864.135	3.875
868.66	68.6875
873.182	140.875
877.701	71.4688
882.218	160.445
886.732	118.99
891.243	75.1777
895.753	30.4805
900.259	99.9082
904.763	54.5078
909.264	130.955
913.763	267.453
918.259	298.678
922.753	368.717
927.244	310.625
931.733	514.092
936.219	941.262
940.702	963.938
945.183	1203.88
949.661	1357.97
954.137	1685.41
958.611	1596.34
963.081	1485.79
967.549	1763.83
972.015	1835.81
976.478	1797.5
980.939	1649.27
985.397	2052.87
989.852	1775.16
994.305	1631.89
998.755	1937.12
1003.2	1728.63
1007.65	1804.63
1012.09	2039.53
1016.53	1865.27
1020.97	1996.78
1025.4	2057.44
1029.84	2132.45
1034.27	2201.86
1038.69	2348.17
1043.12	2195.2
1047.54	2546.46
1051.96	2678.64
1056.38	2860.28
1060.8	2826.99
1065.21	2765.48
1069.62	2619.17
1074.02	2603.23
1078.43	2447.35
1082.83	2323.43
1087.23	2445.07
1091.63	2269.33
1096.02	2270.55
1100.42	2302.26
1104.81	2406.27
1109.19	2250.6
1113.58	2040.8
1117.96	1859.4
1122.34	1915.54
1126.72	1647.31
1131.09	1419.76
1135.46	1490.89
1139.83	1497.94
1144.2	1187.21
1148.57	998.367
1152.93	699.219
1157.29	593.562
1161.64	523.379
1166	365.887
1170.35	159.766
1174.7	141.414
1179.05	99.8027
1183.39	67.4492
1187.74	181.758
1192.08	145.012
1196.41	103.367
1200.75	0.160156
1205.08	39.0879
1209.41	89.3262
1213.74	0.501953
1218.06	72.0195
1222.39	37.6719
1226.71	47.5723
1231.02	167.885
1235.34	48.1621
1239.65	175.455
1243.96	234.713
1248.27	78.3086
1252.57	68.5801
1256.88	140.842
1261.18	16.2109
1265.47	48.4375
1269.77	38.9551
1274.06	220.807
1278.35	93.9688
1282.64	252.865
1286.93	198.549
1291.21	163.065
1295.49	107.477
1299.77	162.713
1304.04	76.6953
1308.32	135.555
1312.59	105.348
1316.86	29.002
1321.12	421.812
1325.38	185.498
1329.65	147.328
1333.9	88.4297
1338.16	0.496094
1342.41	45.7637
1346.66	62.1309
1350.91	458.023
1355.16	306.731
1359.4	330.404
1363.64	237.359
1367.88	404.619
1372.12	367.623
1376.35	125.84
1380.59	185.904
1384.82	360.83
1389.04	241.744
1393.27	433.44
1397.49	11.8711
1401.71	332.283
1405.92	230.924
1410.14	312.99
1414.35	162.014
1418.56	330.688
1422.77	362.838
1426.97	282.824
1431.17	268.273
1435.38	198.623
1439.57	340.324
1443.77	318.346
1447.96	155.125
1452.15	254.516
1456.34	248.412
1460.53	273.572
1464.71	250.127
1468.89	463.057
1473.07	167.836
1477.24	175.041
1481.42	401.352
1485.59	316.828
1489.76	353.498
1493.92	383.176
1498.09	391.133
1502.25	170.033
1506.41	186.135
1510.56	441.617
1514.72	130.293
1518.87	338.014
1523.02	284.529
1527.17	255.477
1531.31	269.84
1535.45	459.07
1539.59	262.568
1543.73	234.236
1547.87	68.7949
1552	182.397
1556.13	246.154
1560.26	124.115
1564.38	339.15
1568.51	178.379
1572.63	85.9434
1576.74	45.6504
