Measurement: Raman, 514 nm, depolarized, Raman Data Processed
Mineral: Levyne-Na
Rruff sample: R060021
Ideal chemistry: Na_6_(Si_12_Al_6_)O_36_18H_2_O
Locality: Dallas, Oregon, USA
Source: Bob Downs
Description: White tabular hexagonal-shaped crystals associated with analcime, R060023
Measured chemistry: (Na_0.70_Ca_0.26_K_0.04_)_6_(Si_0.58_Al_0.42_)_18_O_36_Â·18H_2_O
Pin_id: L00788
Orientation: Laser parallel to c* (0 0 1). Fiducial mark perpendicular to laser is parallel to a [1 0 0]
Raman shift (cm-1)	intensity
88.154	0
93.114	774.019
98.072	952.174
103.026	2708.06
107.978	5703.35
112.926	7068.31
117.872	8658.56
122.815	7266.59
127.755	2969.2
132.691	2119.86
137.625	1610.71
142.557	1085.19
147.485	887.83
152.41	1100.7
157.332	1925.91
162.252	2440.53
167.168	2155.31
172.082	2112.46
176.992	2055.95
181.9	2217.79
186.805	2564.74
191.707	1839.49
196.606	1358.62
201.503	798.644
206.396	280.588
211.287	45.8935
216.174	404.813
221.059	508.364
225.941	509.591
230.82	402.175
235.696	35.8838
240.569	772.401
245.44	1641.81
250.307	2465.28
255.172	3176.26
260.034	3194.93
264.893	3167.2
269.749	3037.9
274.603	3253.76
279.453	4268.58
284.301	5650.62
289.146	7424.23
293.988	8027.52
298.827	6173.01
303.663	3911.94
308.497	3160.91
313.327	3358.51
318.155	4061.75
322.98	4313.96
327.803	4187.08
332.622	5025.37
337.439	5925.08
342.253	6946.89
347.064	7237.42
351.872	6996.33
356.678	6363.33
361.48	6045.34
366.28	7082.48
371.077	9287.66
375.872	11510.6
380.663	10852.8
385.452	7189.11
390.238	4690.68
395.021	3352.61
399.802	2295.7
404.58	1519.98
409.355	1030.65
414.127	901.872
418.896	391.398
423.663	546.851
428.427	655.017
433.188	1228.53
437.947	2061.54
442.702	3348.32
447.455	4714.31
452.206	6377.89
456.953	7874.28
461.698	9493.2
466.44	10926.6
471.179	11737.2
475.916	12247.3
480.65	13826.4
485.381	16932
490.109	21553.2
494.835	26526
499.558	30016.5
504.278	29615.9
508.996	23578.1
513.711	15884.7
518.423	10171
523.133	6611.25
527.84	4630.67
532.544	3408.76
537.245	2527.21
541.944	2144.11
546.64	1920.89
551.333	1750.62
556.024	1826.12
560.712	2255.92
565.398	2632.18
570.08	2572.32
574.76	2220.31
579.438	1623.05
584.112	1190.34
588.784	774.01
593.454	444.277
598.121	379.44
602.785	84.4688
607.446	73.9268
612.105	71.54
616.761	126.377
621.415	241.231
626.066	110.444
630.714	62.6289
635.359	178.832
640.002	58.9844
644.643	66.6885
649.281	35.0713
653.916	52.334
658.548	82.0967
663.178	254.293
667.805	478.269
672.43	558.072
677.052	747.952
681.672	1222.76
686.288	1637.71
690.903	1694.15
695.514	1835.95
700.123	1651.43
704.73	1047.1
709.334	905.543
713.935	667.027
718.534	521.971
723.13	386.134
727.723	246.657
732.314	332.018
736.903	245.299
741.488	382.965
746.072	349.5
750.652	505.864
755.23	552.791
759.806	479.913
764.379	355.788
768.949	528.835
773.517	447.088
778.082	406.575
782.645	319.194
787.205	472.161
791.763	154.593
796.318	161.073
800.871	170.832
805.421	78.9228
809.968	88.5068
814.513	31.2402
819.056	16.0586
823.596	36.6201
828.133	23.5977
832.668	12.4941
837.2	5.13769
841.73	0.582031
846.257	26.4209
850.782	66.1016
855.305	46.7207
859.824	9.97266
864.342	62.085
868.856	16.0625
873.369	94.5186
877.878	15.7715
882.386	64.1387
886.891	151.844
891.393	176.429
895.893	145.635
900.39	127.329
904.885	127.132
909.377	176.274
913.867	295.007
918.355	425.017
922.839	633.709
927.322	1252.38
931.802	1551
936.279	1629.58
940.755	1735.56
945.227	1647.92
949.697	1774.77
954.165	1737.68
958.63	1507.63
963.093	1407.23
967.553	1149.69
972.011	805.804
976.467	964.565
980.92	1127.16
985.37	1592.87
989.818	2290.39
994.264	2748.29
998.707	2631.06
1003.15	2190.08
1007.59	1545.58
1012.02	1216.19
1016.46	1233.4
1020.89	1175.77
1025.32	1042.52
1029.74	923.336
1034.17	936.982
1038.59	820.629
1043.01	829.719
1047.42	719.106
1051.84	708.779
1056.25	630.957
1060.66	563.095
1065.07	605.898
1069.47	748.672
1073.87	840.227
1078.27	1186.13
1082.67	1417.37
1087.07	1816.47
1091.46	2213.45
1095.85	2489.34
1100.24	2605.95
1104.62	2694.73
1109.01	2393.72
1113.39	2291.88
1117.76	2164.44
1122.14	2377.94
1126.51	2201.58
1130.88	2004.4
1135.25	1656.34
1139.62	1539.87
1143.98	1513.58
1148.35	1499.55
1152.71	1620.6
1157.06	1377.4
1161.42	1456.07
1165.77	1142.52
1170.12	1160.4
1174.47	1153.96
1178.82	1054.74
1183.16	696.512
1187.5	645.892
1191.84	342.427
1196.17	397.666
1200.51	121.998
1204.84	114.982
1209.17	160.582
1213.49	16.5273
1217.82	26.3535
1222.14	69.5088
1226.46	72.1162
1230.78	94.9941
1235.09	106.546
1239.41	21.4619
1243.72	9.64453
1248.03	30.3096
1252.33	134.412
1256.64	139.851
1260.94	32.5215
1265.24	83.0508
1269.53	130.128
1273.83	199.234
1278.12	111.401
1282.41	165.42
1286.7	66.1807
1290.98	215.522
1295.27	181.932
1299.55	104.956
1303.83	251.132
1308.1	143.758
1312.38	210.868
1316.65	315.676
1320.92	115.123
1325.19	201.279
1329.45	237.133
1333.71	294.201
1337.97	345.489
1342.23	236.562
1346.49	251.346
1350.74	107.412
1354.99	112.518
1359.24	159.818
1363.49	156.362
1367.74	127.376
1371.98	143.815
1376.22	46.5986
1380.46	159.484
1384.69	14.7402
1388.93	85.4121
1393.16	68.9453
1397.39	207.802
1401.61	155.117
1405.84	81.5322
1410.06	2.76269
1414.28	226.957
1418.5	123.715
1422.71	27.8369
1426.93	53.3086
1431.14	97.4082
1435.35	200.406
1439.56	140.636
1443.76	181.047
1447.96	188.04
1452.16	112.002
1456.36	113.631
1460.56	130.167
1464.75	85.7061
1468.94	86.6953
1473.13	156.916
1477.32	150.189
1481.51	105.876
1485.69	89.0254
1489.87	115.482
1494.05	160.559
1498.22	75.3193
1502.4	127.797
1506.57	13.4971
1510.74	144.966
1514.91	82.3691
1519.07	279.106
1523.24	78.0762
1527.4	185.69
1531.56	255.491
1535.71	38.5566
1539.87	42.7607
1544.02	45.2998
1548.17	119.796
1552.32	834.34
1556.47	467.481
1560.61	157.653
1564.75	80.8135
1568.89	115.696
1573.03	134.107
1577.16	0
