Measurement: Raman, 514 nm, ccw, Raman Data Processed
Mineral: Levyne-Na
Rruff sample: R060021
Ideal chemistry: Na_6_(Si_12_Al_6_)O_36_18H_2_O
Locality: Dallas, Oregon, USA
Source: Bob Downs
Description: White tabular hexagonal-shaped crystals associated with analcime, R060023
Measured chemistry: (Na_0.70_Ca_0.26_K_0.04_)_6_(Si_0.58_Al_0.42_)_18_O_36_Â·18H_2_O
Pin_id: L00788
Orientation: Laser parallel to c* (0 0 1). Fiducial mark perpendicular to laser is parallel to a [1 0 0]
Raman shift (cm-1)	intensity
88.154	0
93.114	379.727
98.072	746.777
103.026	2700.84
107.978	6067.69
112.926	7754.51
117.872	8640.11
122.815	9072.47
127.755	2718.46
132.691	1752.23
137.625	1369.39
142.557	1051.49
147.485	823.108
152.41	1053.58
157.332	1868.11
162.252	2449.67
167.168	2135.86
172.082	1841.16
176.992	1919.73
181.9	2201.93
186.805	2148.44
191.707	1912.52
196.606	1013.22
201.503	762.188
206.396	149.653
211.287	34.8799
216.174	495.848
221.059	493.228
225.941	533.298
230.82	272.956
235.696	126.782
240.569	994.047
245.44	1572.5
250.307	2467.57
255.172	2990.03
260.034	3115.25
264.893	2975.17
269.749	3064.03
274.603	3281.45
279.453	3942.73
284.301	5569.53
289.146	7322.08
293.988	7254.4
298.827	5578.86
303.663	3539.48
308.497	2911.69
313.327	3131.67
318.155	3848.58
322.98	4190.54
327.803	3983.62
332.622	4566.13
337.439	5623.65
342.253	6553.79
347.064	6944.91
351.872	6589.58
356.678	6031.3
361.48	5727.35
366.28	6796.26
371.077	8952.92
375.872	10965.4
380.663	9956.2
385.452	7408.53
390.238	4217.97
395.021	2968.25
399.802	2264.31
404.58	1567.61
409.355	1063.31
414.127	644.591
418.896	701.678
423.663	317.788
428.427	621.084
433.188	1177.74
437.947	1919.92
442.702	3129.92
447.455	4559.13
452.206	6072.9
456.953	7542.33
461.698	9177.66
466.44	10575.6
471.179	11063.6
475.916	11815.5
480.65	13303.7
485.381	16373.3
490.109	20713.2
494.835	25774.4
499.558	28888.1
504.278	27722.9
508.996	21715.8
513.711	14510.5
518.423	9371.24
523.133	6014.76
527.84	4174.83
532.544	3186.43
537.245	2316.75
541.944	1990.8
546.64	1731.68
551.333	1699.51
556.024	1998.17
560.712	2029.35
565.398	2391.16
570.08	2413.52
574.76	1897.98
579.438	1412.12
584.112	935.696
588.784	566.502
593.454	317.001
598.121	126.295
602.785	59.5557
607.446	17.6104
612.105	41.4512
616.761	105.711
621.415	202.11
626.066	97.3281
630.714	59.1533
635.359	62.6924
640.002	29.3486
644.643	71.0205
649.281	89.8457
653.916	58.9775
658.548	7.32324
663.178	139.352
667.805	366.34
672.43	488.235
677.052	735.914
681.672	1083.9
686.288	1399.85
690.903	1593.05
695.514	1715.01
700.123	1326.59
704.73	889.712
709.334	868.874
713.935	462.834
718.534	425.867
723.13	338.09
727.723	266.348
732.314	376.224
736.903	150.587
741.488	274.593
746.072	490.551
750.652	413.24
755.23	526.89
759.806	274.932
764.379	450.094
768.949	414.141
773.517	368.847
778.082	490.815
782.645	387.949
787.205	372.137
791.763	324.519
796.318	119.118
800.871	41.5029
805.421	81.3623
809.968	94.1894
814.513	8.56543
819.056	2.62207
823.596	118.18
828.133	80.0439
832.668	53.167
837.2	53.46
841.73	101.672
846.257	25.252
850.782	0.064453
855.305	161.074
859.824	33.417
864.342	25.9795
868.856	185.658
873.369	203.99
877.878	225.847
882.386	23.8281
886.891	181.286
891.393	60.8242
895.893	112.564
900.39	150.174
904.885	126.408
909.377	245.615
913.867	331.636
918.355	584.118
922.839	699.324
927.322	949.627
931.802	1410.35
936.279	1591.42
940.755	1462.47
945.227	1563.66
949.697	1653.62
954.165	1706.06
958.63	1450.22
963.093	1223.29
967.553	830.267
972.011	800.105
976.467	847.705
980.92	1020.94
985.37	1659.93
989.818	2272.45
994.264	2476.91
998.707	2324.73
1003.15	2039.44
1007.59	1480.57
1012.02	1358.95
1016.46	1127.55
1020.89	1154.94
1025.32	854.752
1029.74	998.818
1034.17	843.924
1038.59	771.231
1043.01	806.799
1047.42	629.635
1051.84	752.754
1056.25	658.158
1060.66	835.85
1065.07	769.856
1069.47	843.247
1073.87	930.148
1078.27	1027.46
1082.67	1283.81
1087.07	1629.02
1091.46	2126.49
1095.85	2266.31
1100.24	2390.15
1104.62	2456.18
1109.01	2484.81
1113.39	2394.88
1117.76	2210.13
1122.14	2116.87
1126.51	2019.35
1130.88	1896.5
1135.25	1613.45
1139.62	1608.58
1143.98	1538.82
1148.35	1476.05
1152.71	1330.75
1157.06	1311.67
1161.42	1329.61
1165.77	1180.83
1170.12	1202.11
1174.47	1052.6
1178.82	862.223
1183.16	667.969
1187.5	561.826
1191.84	404.568
1196.17	319.904
1200.51	191.098
1204.84	83.2822
1209.17	102.517
1213.49	74.835
1217.82	10.0312
1222.14	23.1299
1226.46	36.9805
1230.78	113.473
1235.09	17.4258
1239.41	14.2139
1243.72	102.161
1248.03	17.9824
1252.33	32.8359
1256.64	47.3545
1260.94	1.86621
1265.24	83.2822
1269.53	46.7734
1273.83	3.81641
1278.12	77.8799
1282.41	58.377
1286.7	132.741
1290.98	79.1045
1295.27	215.633
1299.55	127.277
1303.83	297.838
1308.1	310.776
1312.38	221.78
1316.65	221.618
1320.92	218.911
1325.19	272.07
1329.45	334.484
1333.71	284.512
1337.97	128.862
1342.23	151.416
1346.49	108.758
1350.74	167.671
1354.99	133.971
1359.24	110.938
1363.49	206.645
1367.74	84.0342
1371.98	242.428
1376.22	70.9336
1380.46	24.0605
1384.69	85.1934
1388.93	81.3574
1393.16	215.944
1397.39	23.3584
1401.61	71.7432
1405.84	173.572
1410.06	151.064
1414.28	120.828
1418.5	116.369
1422.71	273.475
1426.93	46.2539
1431.14	151.635
1435.35	231.671
1439.56	63.6631
1443.76	223.224
1447.96	203.037
1452.16	184.173
1456.36	210.372
1460.56	149.238
1464.75	47.6992
1468.94	47.9228
1473.13	30.2178
1477.32	33.7315
1481.51	24.0928
1485.69	171.435
1489.87	17.96
1494.05	179.701
1498.22	55.2588
1502.4	117.036
1506.57	81.2822
1510.74	158.226
1514.91	150.81
1519.07	164.226
1523.24	238.828
1527.4	212.116
1531.56	144.425
1535.71	123.296
1539.87	26.3594
1544.02	244.941
1548.17	55.6514
1552.32	266.478
1556.47	334.065
1560.61	84.499
1564.75	118.541
1568.89	284.19
1573.03	74.0107
1577.16	0
