Measurement: Raman, 514 nm, ccw, Raman Data RAW
Mineral: Levyne-Na
Rruff sample: R060021
Ideal chemistry: Na_6_(Si_12_Al_6_)O_36_18H_2_O
Locality: Dallas, Oregon, USA
Source: Bob Downs
Description: White tabular hexagonal-shaped crystals associated with analcime, R060023
Measured chemistry: (Na_0.70_Ca_0.26_K_0.04_)_6_(Si_0.58_Al_0.42_)_18_O_36_Â·18H_2_O
Pin_id: L00788
Orientation: Laser parallel to c* (0 0 1). Fiducial mark perpendicular to laser is parallel to a [1 0 0]
Raman shift (cm-1)	intensity
88.154	23091
93.114	24370
98.072	24367
103.026	25712
107.978	28178
112.926	28949
117.872	29970
122.815	27868
127.755	22796
132.691	21278
137.625	20258
142.557	19263
147.485	18490
152.41	17682
157.332	17322
162.252	17030
167.168	16550
172.082	16438
176.992	16310
181.9	16394
186.805	16660
191.707	15853
196.606	15292
201.503	14656.7
206.396	14069
211.287	13678
216.174	13259
221.059	13101
225.941	13056
230.82	13137
235.696	13453
240.569	14090
245.44	14786
250.307	15441
255.172	15991
260.034	15858
264.893	15688
269.749	15427
274.603	15524
279.453	16431.4
284.301	17716
289.146	19400
293.988	19923
298.827	18008
303.663	15709
308.497	14937
313.327	15122
318.155	15817
322.98	16063
327.803	15926.3
332.622	16750.3
337.439	17642.5
342.253	18664.2
347.064	18973.7
351.872	18778
356.678	18253
361.48	18123
366.28	19384
371.077	21804
375.872	24223
380.663	23692.3
385.452	20066
390.238	17574
395.021	16228
399.802	15161
404.58	14377
409.355	13881
414.127	13747
418.896	13232.5
423.663	13385
428.427	13491
433.188	14063
437.947	14895
442.702	16181
447.455	17546
452.206	19208
456.953	20702
461.698	22317.6
466.44	23744
471.179	24546
475.916	25029
480.65	26570
485.381	29639
490.109	34234
494.835	39186
499.558	42641
504.278	42187
508.996	36113
513.711	28386
518.423	22622
523.133	19022.8
527.84	17007
532.544	15748.8
537.245	14830
541.944	14409
546.64	14147
551.333	13937
556.024	13972
560.712	14360.6
565.398	14694.9
570.08	14592
574.76	14196
579.438	13554
584.112	13075
588.784	12608
593.454	12227
598.121	12111
602.785	11765
607.446	11557
612.105	11510
616.761	11407
621.415	11245
626.066	11330
630.714	11457
635.359	11171
640.002	11247
644.643	11196
649.281	11256
653.916	11127
658.548	11219
663.178	11349
667.805	11523
672.43	11554
677.052	11701
681.672	12120.1
686.288	12473
690.903	12486.7
695.514	12572
700.123	12338
704.73	11688
709.334	11491
713.935	11212
718.534	11026
723.13	10855
727.723	10679
732.314	10736
736.903	10621
741.488	10733.8
746.072	10683
750.652	10822
755.23	10874
759.806	10822
764.379	10705
768.949	10876
773.517	10801.9
778.082	10766.7
782.645	10707
787.205	10862
791.763	10549
796.318	10565
800.871	10575
805.421	10479
809.968	10486
814.513	10427.6
819.056	10413
823.596	10436
828.133	10380
832.668	10397
837.2	10412
841.73	10427
846.257	10411
850.782	10384
855.305	10511
859.824	10471
864.342	10565
868.856	10509
873.369	10643
877.878	10587
882.386	10658
886.891	10768
891.393	10815
895.893	10806.6
900.39	10811
904.885	10834
909.377	10906
913.867	11048
918.355	11202
922.839	11434
927.322	12078
931.802	12403
936.279	12509
940.755	12652
945.227	12600.3
949.697	12760
954.165	12768.6
958.63	12590
963.093	12526.8
967.553	12317
972.011	12015
976.467	12212.7
980.92	12427
985.37	12931
989.818	13660.3
994.264	14152
998.707	14068
1003.15	13656
1007.59	13039
1012.02	12736.5
1016.46	12779
1020.89	12746
1025.32	12636.7
1029.74	12540.7
1034.17	12577
1038.59	12483
1043.01	12514.2
1047.42	12425.4
1051.84	12436.6
1056.25	12380
1060.66	12333.1
1065.07	12396.5
1069.47	12559.5
1073.87	12670.8
1078.27	13036
1082.67	13286
1087.07	13702.4
1091.46	14114
1095.85	14395
1100.24	14523
1104.62	14617.5
1109.01	14319
1113.39	14216
1117.76	14089
1122.14	14305
1126.51	14132
1130.88	13947
1135.25	13610
1139.62	13505
1143.98	13490
1148.35	13487
1152.71	13615
1157.06	13382.2
1161.42	13471
1165.77	13167.4
1170.12	13195
1174.47	13198
1178.82	13108
1183.16	12759
1187.5	12717.5
1191.84	12423
1196.17	12487
1200.51	12220
1204.84	12221.7
1209.17	12275.9
1213.49	12138.1
1217.82	12156.5
1222.14	12069
1226.46	12075
1230.78	12061
1235.09	12059
1239.41	12154
1243.72	12175
1248.03	12164
1252.33	12071
1256.64	12357.5
1260.94	12260.3
1265.24	12323
1269.53	12382
1273.83	12464
1278.12	12389
1282.41	12451
1286.7	12361
1290.98	12522
1295.27	12497
1299.55	12432
1303.83	12591
1308.1	12498
1312.38	12580
1316.65	12700
1320.92	12515
1325.19	12617
1329.45	12669
1333.71	12742
1337.97	12810
1342.23	12718
1346.49	12750.6
1350.74	12630
1354.99	12665
1359.24	12736
1363.49	12761
1367.74	12758
1371.98	12808
1376.22	12743
1380.46	12893
1384.69	12768
1388.93	12859
1393.16	12864
1397.39	13024
1401.61	12991
1405.84	12939
1410.06	12880
1414.28	13129
1418.5	13047
1422.71	12974
1426.93	13023
1431.14	13091
1435.35	13218.3
1439.56	13183.6
1443.76	13249
1447.96	13282.1
1452.16	13233
1456.36	13259
1460.56	13301
1464.75	13280.3
1468.94	13305.6
1473.13	13399.4
1477.32	13418.8
1481.51	13397.3
1485.69	13406
1489.87	13456
1494.05	13532
1498.22	13480
1502.4	13569
1506.57	13483
1510.74	13640
1514.91	13602.8
1519.07	13826
1523.24	13651
1527.4	13786
1531.56	13885
1535.71	13621
1539.87	13737
1544.02	13770
1548.17	13874
1552.32	14625
1556.47	14291
1560.61	14046
1564.75	14013
1568.89	14099
1573.03	14182
1577.16	14224
