Measurement: Raman, 514 nm, ccw, Raman Data Processed
Mineral: Levyne-Na
Rruff sample: R060021
Ideal chemistry: Na_6_(Si_12_Al_6_)O_36_18H_2_O
Locality: Dallas, Oregon, USA
Source: Bob Downs
Description: White tabular hexagonal-shaped crystals associated with analcime, R060023
Measured chemistry: (Na_0.70_Ca_0.26_K_0.04_)_6_(Si_0.58_Al_0.42_)_18_O_36_Â·18H_2_O
Pin_id: L00788
Orientation: Laser parallel to c* (0 0 1). Fiducial mark perpendicular to laser is parallel to a [1 0 0]
Raman shift (cm-1)	intensity
88.154	0
93.114	1046.29
98.072	880.021
103.026	2743
107.978	5362.43
112.926	6835.26
117.872	9519.02
122.815	8965.55
127.755	3262.42
132.691	2238.6
137.625	1599.42
142.557	1230.45
147.485	1066.41
152.41	1497.83
157.332	1989.06
162.252	2585.82
167.168	2342.68
172.082	2114.49
176.992	1959.05
181.9	2192.78
186.805	2216.32
191.707	1795.06
196.606	1119.07
201.503	697.33
206.396	29.0586
211.287	134.249
216.174	387.967
221.059	287.968
225.941	445.559
230.82	453.496
235.696	148.46
240.569	635.8
245.44	1763.76
250.307	2387.48
255.172	3038.67
260.034	3119.8
264.893	3198.54
269.749	3236.48
274.603	3689.87
279.453	4217.44
284.301	5772.84
289.146	7363.45
293.988	7388.72
298.827	5532.02
303.663	3591.24
308.497	2988.77
313.327	3257.95
318.155	3839.07
322.98	4297.84
327.803	4211.43
332.622	4832.68
337.439	5641.97
342.253	6886.05
347.064	7108.36
351.872	6910.68
356.678	6148.98
361.48	6096.69
366.28	7065.64
371.077	9262.28
375.872	11097.6
380.663	10017.3
385.452	7043.72
390.238	4257.8
395.021	2931.27
399.802	2130.07
404.58	1550.29
409.355	1166.44
414.127	725.446
418.896	397.705
423.663	479.641
428.427	628.486
433.188	1086.46
437.947	2109.77
442.702	3336.78
447.455	4848.94
452.206	6548.63
456.953	8244.98
461.698	9805.08
466.44	11050.9
471.179	11797.6
475.916	12447.2
480.65	14061.1
485.381	16878.9
490.109	21432.6
494.835	26482.1
499.558	29740.6
504.278	27856.5
508.996	22109.6
513.711	14962.9
518.423	9583.59
523.133	6275.83
527.84	4469.09
532.544	3109.11
537.245	2556.91
541.944	1959.47
546.64	1937.85
551.333	1641.91
556.024	1904.71
560.712	2185.41
565.398	2270.18
570.08	2371.89
574.76	2073.9
579.438	1414.71
584.112	1009.53
588.784	612.873
593.454	334.765
598.121	261.637
602.785	94.7686
607.446	28.748
612.105	135.676
616.761	134.282
621.415	174.378
626.066	161.841
630.714	27.9463
635.359	77.9668
640.002	45.4844
644.643	102.49
649.281	118.394
653.916	133.45
658.548	54.7256
663.178	171.692
667.805	223.235
672.43	614.517
677.052	583.264
681.672	1118.85
686.288	1300.67
690.903	1647.24
695.514	1586.93
700.123	1298.62
704.73	1162.55
709.334	810.913
713.935	560.829
718.534	359.492
723.13	338.087
727.723	157.19
732.314	315.525
736.903	251.003
741.488	337.513
746.072	363.815
750.652	414.442
755.23	405.358
759.806	446.318
764.379	470.066
768.949	541.576
773.517	342.157
778.082	429.582
782.645	436.757
787.205	357.909
791.763	345.295
796.318	208.995
800.871	154.398
805.421	14.081
809.968	45.5693
814.513	69.1299
819.056	135.801
823.596	310.915
828.133	40.5576
832.668	12.498
837.2	6.48731
841.73	48.7461
846.257	68.4443
850.782	25.2109
855.305	60.8975
859.824	116.035
864.342	12.1611
868.856	93.5938
873.369	41.4287
877.878	55.1807
882.386	2.67578
886.891	36.0586
891.393	46.0605
895.893	113.772
900.39	233.578
904.885	90.7041
909.377	192.851
913.867	389.405
918.355	479.361
922.839	823.091
927.322	1018.69
931.802	1398.3
936.279	1548.43
940.755	1573.39
945.227	1696.58
949.697	1689.61
954.165	1640.57
958.63	1401.74
963.093	1148.99
967.553	858.123
972.011	765.199
976.467	876.206
980.92	1061.46
985.37	1651.92
989.818	2073.38
994.264	2420.55
998.707	2329.11
1003.15	2057.88
1007.59	1614.7
1012.02	1300.68
1016.46	1134.93
1020.89	1039
1025.32	1100.47
1029.74	869.141
1034.17	945.635
1038.59	958.341
1043.01	635.41
1047.42	791.766
1051.84	621.419
1056.25	647.356
1060.66	686.581
1065.07	712.117
1069.47	768.218
1073.87	953.334
1078.27	927.342
1082.67	1406.9
1087.07	1826.35
1091.46	2231.59
1095.85	2420.28
1100.24	2531.06
1104.62	2593.81
1109.01	2453.42
1113.39	2200.49
1117.76	2273.43
1122.14	2117.18
1126.51	2030.2
1130.88	1917.35
1135.25	2048.19
1139.62	1572.98
1143.98	1433.1
1148.35	1358.34
1152.71	1554.63
1157.06	1475.39
1161.42	1326.78
1165.77	1177.83
1170.12	1240.82
1174.47	895.838
1178.82	778.424
1183.16	522.593
1187.5	675.892
1191.84	348.46
1196.17	367.17
1200.51	115.2
1204.84	132.348
1209.17	36.168
1213.49	19.9873
1217.82	15.165
1222.14	57.2471
1226.46	57.0166
1230.78	42.1592
1235.09	10.5098
1239.41	24.5664
1243.72	24.6621
1248.03	59.9258
1252.33	80.3955
1256.64	2.25488
1260.94	52.831
1265.24	35.5801
1269.53	6.47949
1273.83	23.4033
1278.12	97.6143
1282.41	50.4912
1286.7	104.641
1290.98	29.1572
1295.27	263.923
1299.55	259.591
1303.83	90.3223
1308.1	168.365
1312.38	239.709
1316.65	97.5381
1320.92	117.644
1325.19	188.554
1329.45	217.96
1333.71	263.093
1337.97	314.959
1342.23	332.196
1346.49	202.32
1350.74	241.224
1354.99	180.118
1359.24	115.513
1363.49	371.335
1367.74	128.671
1371.98	274.883
1376.22	52.4336
1380.46	154.575
1384.69	50.7607
1388.93	128.569
1393.16	55.4795
1397.39	216.25
1401.61	114.665
1405.84	318.629
1410.06	268.913
1414.28	113.877
1418.5	27.7568
1422.71	156.471
1426.93	6.17285
1431.14	51.7275
1435.35	113.411
1439.56	261.945
1443.76	104.533
1447.96	205.856
1452.16	179.216
1456.36	231.539
1460.56	251.162
1464.75	234.248
1468.94	240.085
1473.13	192.342
1477.32	152.356
1481.51	77.5186
1485.69	163.137
1489.87	46.0586
1494.05	125.863
1498.22	53.1631
1502.4	130.735
1506.57	237.326
1510.74	54.7422
1514.91	167.605
1519.07	239.242
1523.24	305.588
1527.4	185.081
1531.56	134.135
1535.71	181.03
1539.87	154.145
1544.02	143.018
1548.17	105.821
1552.32	297.178
1556.47	327.21
1560.61	108.267
1564.75	25.8916
1568.89	135.562
1573.03	171.778
1577.16	0
