Measurement: Raman, 514 nm, depolarized, Raman Data Processed
Mineral: Levyne-Na
Rruff sample: R060021
Ideal chemistry: Na_6_(Si_12_Al_6_)O_36_18H_2_O
Locality: Dallas, Oregon, USA
Source: Bob Downs
Description: White tabular hexagonal-shaped crystals associated with analcime, R060023
Measured chemistry: (Na_0.70_Ca_0.26_K_0.04_)_6_(Si_0.58_Al_0.42_)_18_O_36_Â·18H_2_O
Pin_id: L01578
Orientation: Laser parallel to a* (1 0 0). Fiducial mark perpendicular to laser is parallel to -c [0 0 -1]
Raman shift (cm-1)	intensity
69.526	0
74.497	3338.14
79.466	5704.53
84.431	6449.78
89.394	6023.33
94.354	7018.17
99.31	6945.63
104.264	7621
109.215	8942.32
114.163	9383.73
119.108	8237.02
124.05	5385.63
128.989	3324.55
133.925	2804.81
138.858	2422.73
143.789	2383.45
148.716	2336.27
153.641	2575.16
158.562	2478.4
163.481	2163.9
168.397	1428.4
173.31	907.528
178.22	646.169
183.127	918.471
188.031	940.784
192.932	1011.13
197.831	846.452
202.726	675.951
207.619	46.75
212.509	285.325
217.396	657.84
222.28	610.644
227.161	884.213
232.039	688.211
236.915	193.913
241.787	903.102
246.657	2284.58
251.524	2986.19
256.388	3148.65
261.249	2365.52
266.107	1123.41
270.963	442.835
275.815	533.362
280.665	1643.42
285.512	3536.41
290.356	5261.79
295.198	4948.73
300.036	3543.87
304.872	2977.16
309.705	4247.95
314.535	6247.09
319.362	7945.92
324.186	7548.33
329.008	6438.76
333.827	6222.19
338.643	6447.44
343.456	6225.46
348.266	5510.59
353.074	5153.41
357.879	4924.72
362.681	6086.54
367.48	9218.8
372.276	12807.1
377.07	13915.9
381.861	10690.7
386.649	6879.47
391.434	4537.82
396.217	3455.66
400.997	2611
405.774	1557.88
410.548	904.37
415.32	208.703
420.088	83.0908
424.854	123.071
429.618	26.2979
434.378	733.845
439.136	1527.52
443.891	2845.56
448.643	3893.17
453.393	4065.38
458.14	4310.22
462.884	4844.72
467.625	5416.9
472.364	6371.26
477.1	8184.4
481.833	10720.3
486.563	14926.6
491.291	21168.7
496.016	28977.3
500.738	35604.8
505.458	35634.9
510.175	28320.5
514.889	19326.1
519.601	13034.1
524.31	9216.44
529.016	7098.59
533.719	5647.47
538.42	4900.18
543.118	4319.6
547.814	4104.97
552.506	4295.43
557.196	4763
561.884	5162.42
566.568	5261.29
571.251	4655.68
575.93	3809.15
580.607	2663.62
585.281	1836.66
589.952	1147.04
594.621	881.947
599.287	550.592
603.95	483.929
608.611	252.898
613.269	217.471
617.925	12.6895
622.578	99.3447
627.228	64.0142
631.875	100.529
636.52	121.534
641.163	30.8271
645.802	29.9795
650.44	39.8945
655.074	194.597
659.706	316.319
664.335	570.463
668.962	764
673.586	1148.03
678.207	1773.02
682.826	2307
687.442	2989.94
692.056	3321.79
696.667	3102.87
701.275	2405.56
705.881	1720.58
710.484	1028.81
715.085	791.921
719.683	512.057
724.278	347.299
728.871	360.356
733.461	244.386
738.049	278.4
742.634	229.791
747.217	434.679
751.797	489.009
756.374	661.839
760.949	821.938
765.522	894.369
770.091	867.142
774.659	554.684
779.223	436.879
783.785	387.538
788.345	272.617
792.902	191.748
797.457	136.434
802.009	189.71
806.558	72.7148
811.105	7.25195
815.649	25.7651
820.191	68.5864
824.73	76.7061
829.267	67.959
833.801	17.106
838.333	13.6992
842.862	62.7559
847.389	22.7178
851.913	39.5562
856.435	32.7617
860.954	47.5688
865.471	30.728
869.985	19.6562
874.496	23.4751
879.006	4.20264
883.512	22.2256
888.016	31.3486
892.518	139.87
897.017	121.255
901.514	180.216
906.008	121.773
910.5	45.0889
914.989	277.184
919.476	324.742
923.96	496.291
928.442	744.931
932.922	1065.45
937.398	1022.78
941.873	1037.56
946.345	1183.61
950.814	1173.19
955.281	1107.27
959.746	995.791
964.208	696.655
968.668	491.972
973.125	592.186
977.58	802.029
982.032	1065.52
986.482	1806.27
990.93	2352.52
995.375	2670.82
999.818	2071.92
1004.26	1651.58
1008.7	1118.4
1013.13	886.415
1017.56	757.004
1021.99	762.537
1026.42	801.305
1030.85	699.97
1035.27	729.54
1039.69	768.871
1044.11	766.392
1048.53	728.583
1052.94	803.971
1057.35	971.627
1061.76	923.6
1066.17	1024.92
1070.57	1321.6
1074.97	1543.25
1079.37	1991.3
1083.77	2479.48
1088.16	3286.45
1092.56	4074.49
1096.94	4267.61
1101.33	4306.73
1105.72	3907.5
1110.1	3238.36
1114.48	2820.09
1118.86	2382.57
1123.23	2035.94
1127.61	2108.73
1131.98	1814.04
1136.35	1727.68
1140.71	1752.71
1145.08	1777.26
1149.44	1927.99
1153.8	2021.21
1158.15	2307.83
1162.51	2387.66
1166.86	2584.86
1171.21	2567.38
1175.56	2327.15
1179.9	2025.18
1184.24	1721.41
1188.58	1366.84
1192.92	880.46
1197.26	564.249
1201.59	487.19
1205.92	340.271
1210.25	130.508
1214.58	39.8535
1218.9	68.5283
1223.22	57.0781
1227.54	115.778
1231.86	166.531
1236.17	109.818
1240.48	127.597
1244.8	18.3711
1249.1	101.398
1253.41	151.846
1257.71	93.6856
1262.01	71.8272
1266.31	3.05957
1270.61	117.909
1274.9	3.61816
1279.19	50.5664
1283.48	12.4922
1287.77	167.095
1292.06	156.784
1296.34	205.968
1300.62	267.626
1304.9	282.715
1309.17	379.649
1313.45	399.88
1317.72	370.424
1321.99	521.505
1326.25	408.913
1330.52	386.691
1334.78	318.139
1339.04	350.64
1343.3	256.088
1347.55	259.202
1351.81	95.5205
1356.06	282.37
1360.31	61.5059
1364.55	156.655
1368.8	109.434
1373.04	34.9697
1377.28	126.995
1381.52	76.9531
1385.75	81.3828
1389.98	150.703
1394.21	144.275
1398.44	109.087
1402.67	41.2119
1406.89	177.585
1411.12	120.189
1415.34	140.253
1419.55	59.2471
1423.77	116.693
1427.98	137.184
1432.19	61.331
1436.4	83.1738
1440.61	71.5176
1444.81	141.511
1449.01	100.966
1453.21	159.47
1457.41	245.553
1461.61	178.016
1465.8	188.992
1469.99	127.542
1474.18	141.818
1478.37	133.21
1482.55	81.1025
1486.73	26.2373
1490.91	5.53418
1495.09	57.9473
1499.27	81.8613
1503.44	116.053
1507.61	74.6719
1511.78	98.8047
1515.95	79.3272
1520.11	192.134
1524.28	191.369
1528.44	147.91
1532.6	59.4228
1536.75	68.9336
1540.91	34.0742
1545.06	49.9453
1549.21	80.79
1553.36	178.239
1557.5	74.4277
1561.64	100.408
1565.79	12.7705
1569.93	170.363
1574.06	22.6973
