Measurement: Raman, 514 nm, ccw, Raman Data Processed
Mineral: Levyne-Na
Rruff sample: R060021
Ideal chemistry: Na_6_(Si_12_Al_6_)O_36_18H_2_O
Locality: Dallas, Oregon, USA
Source: Bob Downs
Description: White tabular hexagonal-shaped crystals associated with analcime, R060023
Measured chemistry: (Na_0.70_Ca_0.26_K_0.04_)_6_(Si_0.58_Al_0.42_)_18_O_36_Â·18H_2_O
Pin_id: L01578
Orientation: Laser parallel to a* (1 0 0). Fiducial mark perpendicular to laser is parallel to -c [0 0 -1]
Raman shift (cm-1)	intensity
69.526	0
74.497	5296.28
79.466	9796.28
84.431	9642.75
89.394	8135.69
94.354	6829.63
99.31	5981.3
104.264	6032.02
109.215	6463.9
114.163	7100.41
119.108	6226.15
124.05	3985.22
128.989	4405.33
133.925	4514.03
138.858	4383.99
143.789	4410.58
148.716	3985.23
153.641	3604.01
158.562	3254.05
163.481	2488.52
168.397	1182.38
173.31	391.699
178.22	412.134
183.127	966.248
188.031	833.94
192.932	526.416
197.831	228.193
202.726	2.92676
207.619	238.77
212.509	69.5156
217.396	72.2559
222.28	252.644
227.161	90.3662
232.039	301.018
236.915	1367.61
241.787	3385.67
246.657	5549.29
251.524	6146.54
256.388	4570.35
261.249	2883.12
266.107	1101.78
270.963	179.183
275.815	32.8096
280.665	604.232
285.512	1518.92
290.356	2730.82
295.198	3045.89
300.036	3956.7
304.872	6125.64
309.705	9968.02
314.535	15616.4
319.362	19377.4
324.186	17877.9
329.008	13821.4
333.827	11751.2
338.643	10638.3
343.456	8322.47
348.266	6314.17
353.074	5809.31
357.879	7082.56
362.681	9945.3
367.48	14515.6
372.276	18663.1
377.07	19351.4
381.861	14282.2
386.649	9320.04
391.434	7346.54
396.217	6713.25
400.997	5221.51
405.774	3421.46
410.548	2059.13
415.32	1053.81
420.088	285.184
424.854	180.142
429.618	96.4316
434.378	74.6602
439.136	532.898
443.891	1425.46
448.643	2246.58
453.393	2930.46
458.14	3600.13
462.884	4422.69
467.625	5190.51
472.364	6487.67
477.1	8214.7
481.833	11575.8
486.563	17078.3
491.291	26097.7
496.016	37600.8
500.738	48172.9
505.458	50276.1
510.175	41664.5
514.889	29868.9
519.601	21452.5
524.31	16284.6
529.016	11858.2
533.719	9687.41
538.42	8584.32
543.118	7892.05
547.814	7710.71
552.506	8055.49
557.196	8943.25
561.884	9988.03
566.568	10141.5
571.251	9149.21
575.93	6897.14
580.607	4932.5
585.281	3553.29
589.952	2426.64
594.621	1653.46
599.287	1251.1
603.95	794.047
608.611	719.658
613.269	379.066
617.925	316.29
622.578	88.6465
627.228	77.1231
631.875	92.374
636.52	69.1728
641.163	117.483
645.802	34.3877
650.44	106.211
655.074	114.103
659.706	246.214
664.335	600.037
668.962	1041.08
673.586	1636.47
678.207	2420.05
682.826	3807.63
687.442	5196.02
692.056	5539.82
696.667	4755.76
701.275	3383.14
705.881	2228.16
710.484	1256.23
715.085	868.243
719.683	458.524
724.278	257.843
728.871	64.2876
733.461	166.393
738.049	47.335
742.634	4.12891
747.217	386.455
751.797	573.792
756.374	875.761
760.949	1240.8
765.522	1678.8
770.091	1364.79
774.659	869.408
779.223	600.154
783.785	519.081
788.345	314.777
792.902	445.845
797.457	280.474
802.009	262.332
806.558	142.959
811.105	91.4189
815.649	8.3457
820.191	16.4824
824.73	113.205
829.267	39.9214
833.801	52.3227
838.333	59.7095
842.862	44.771
847.389	139.717
851.913	18.9463
856.435	90.999
860.954	40.4692
865.471	39.8408
869.985	6.97803
874.496	25.0093
879.006	59.2842
883.512	140.286
888.016	97.7651
892.518	72.522
897.017	130.222
901.514	78.083
906.008	42.7651
910.5	125.653
914.989	47.3926
919.476	65.4927
923.96	17.73
928.442	73.9536
932.922	166.476
937.398	210.594
941.873	256.164
946.345	184.764
950.814	178.439
955.281	477.784
959.746	245.925
964.208	467.933
968.668	302.747
973.125	465.157
977.58	536.085
982.032	816.495
986.482	1286.02
990.93	1789.94
995.375	1686.78
999.818	1400.68
1004.26	1156.56
1008.7	886.649
1013.13	653.515
1017.56	741.023
1021.99	857.237
1026.42	865.028
1030.85	987.592
1035.27	1145.2
1039.69	1324.4
1044.11	1408.96
1048.53	1478.57
1052.94	1495.97
1057.35	1592.68
1061.76	1738.93
1066.17	1986.85
1070.57	2304.49
1074.97	2775.59
1079.37	3404.04
1083.77	4404.91
1088.16	5549.28
1092.56	6699.28
1096.94	7221.45
1101.33	6971.69
1105.72	6076.66
1110.1	4967.67
1114.48	4139.54
1118.86	3314.3
1123.23	2829.77
1127.61	2575.25
1131.98	2460.55
1136.35	2322.9
1140.71	2368.69
1145.08	2685.35
1149.44	2998.34
1153.8	3482.8
1158.15	3985.03
1162.51	4355.32
1166.86	4614.11
1171.21	4520.96
1175.56	4459.98
1179.9	3912.15
1184.24	3273.32
1188.58	2460.78
1192.92	1719.6
1197.26	1275.73
1201.59	766.105
1205.92	502.692
1210.25	431.244
1214.58	156.533
1218.9	141.761
1223.22	37.4111
1227.54	60.207
1231.86	13.0078
1236.17	1.92969
1240.48	127.996
1244.8	141.232
1249.1	82.041
1253.41	47.2022
1257.71	10.7305
1262.01	68.7051
1266.31	31.9707
1270.61	53.9795
1274.9	3.18652
1279.19	64.2383
1283.48	52.0322
1287.77	166.737
1292.06	132.999
1296.34	121.592
1300.62	276.761
1304.9	172.696
1309.17	375.879
1313.45	399.349
1317.72	286.908
1321.99	329.496
1326.25	328.864
1330.52	327.637
1334.78	253.112
1339.04	159.203
1343.3	152.033
1347.55	93.6904
1351.81	194.945
1356.06	211.435
1360.31	345.389
1364.55	203.226
1368.8	166.409
1373.04	164.926
1377.28	227.066
1381.52	147.469
1385.75	48.3086
1389.98	7.85059
1394.21	57.2685
1398.44	104.444
1402.67	30.7969
1406.89	9.33887
1411.12	105.012
1415.34	79.7861
1419.55	75.6914
1423.77	16.1885
1427.98	119.269
1432.19	35.9316
1436.4	77.6768
1440.61	131.794
1444.81	22.0244
1449.01	39.8232
1453.21	141.606
1457.41	253.227
1461.61	161.154
1465.8	162.053
1469.99	266.072
1474.18	343.153
1478.37	177.79
1482.55	135.292
1486.73	89.0615
1490.91	65.9541
1495.09	71.0859
1499.27	24.6641
1503.44	179.983
1507.61	30.4883
1511.78	165.052
1515.95	71.5478
1520.11	147.72
1524.28	153.476
1528.44	10.834
1532.6	87.5527
1536.75	29.0283
1540.91	125.443
1545.06	107.54
1549.21	199.083
1553.36	412.784
1557.5	124.914
1561.64	36.2266
1565.79	38.1572
1569.93	59.4551
1574.06	78.4316
