Measurement: Raman, 514 nm, ccw, Raman Data Processed
Mineral: Levyne-Na
Rruff sample: R060021
Ideal chemistry: Na_6_(Si_12_Al_6_)O_36_18H_2_O
Locality: Dallas, Oregon, USA
Source: Bob Downs
Description: White tabular hexagonal-shaped crystals associated with analcime, R060023
Measured chemistry: (Na_0.70_Ca_0.26_K_0.04_)_6_(Si_0.58_Al_0.42_)_18_O_36_Â·18H_2_O
Pin_id: L01578
Orientation: Laser parallel to a* (1 0 0). Fiducial mark perpendicular to laser is parallel to -c [0 0 -1]
Raman shift (cm-1)	intensity
69.526	0
74.497	2561.57
79.466	4457.68
84.431	5325.45
89.394	5552.96
94.354	6619.89
99.31	6711.47
104.264	7497.52
109.215	7888.35
114.163	8263.84
119.108	6714.35
124.05	4275.21
128.989	2997.15
133.925	2114.22
138.858	2052.89
143.789	1457.36
148.716	1524.57
153.641	1752.37
158.562	1507.47
163.481	1111.58
168.397	743.061
173.31	230.575
178.22	311.055
183.127	769.395
188.031	1304.74
192.932	1415.91
197.831	1846.85
202.726	1548.45
207.619	967.682
212.509	253.528
217.396	250.998
222.28	405.69
227.161	878.793
232.039	972.808
236.915	597.309
241.787	195.616
246.657	1422.37
251.524	2019.15
256.388	2729.15
261.249	2333.45
266.107	1236.18
270.963	329.712
275.815	305.637
280.665	1001.39
285.512	2542.05
290.356	3904.95
295.198	3581.17
300.036	2315.81
304.872	1741.79
309.705	2091.59
314.535	3411.17
319.362	4602.16
324.186	4441.3
329.008	3514.89
333.827	3611.06
338.643	4307.39
343.456	4231.59
348.266	3726.66
353.074	3568.78
357.879	3221.8
362.681	4019.7
367.48	6095.88
372.276	8790.35
377.07	9804.38
381.861	7630.3
386.649	4725.43
391.434	3120.35
396.217	2610.74
400.997	2048.18
405.774	1551.07
410.548	749.991
415.32	224.744
420.088	123.459
424.854	116.533
429.618	180.379
434.378	654.106
439.136	1640.1
443.891	2918.58
448.643	3755.74
453.393	3773.64
458.14	3587.3
462.884	3765.74
467.625	4229.98
472.364	5252
477.1	6110.66
481.833	8017.06
486.563	10858.7
491.291	15188.3
496.016	21199.6
500.738	25515.1
505.458	25217.2
510.175	19819.2
514.889	13672.9
519.601	9410.39
524.31	6744.35
529.016	5062.02
533.719	4195.6
538.42	3631.48
543.118	3242.9
547.814	3085.72
552.506	3126.64
557.196	3458.16
561.884	3513.09
566.568	3552.23
571.251	2974.65
575.93	2362.44
580.607	1616.54
585.281	1202.45
589.952	745.701
594.621	553.634
599.287	422.094
603.95	500.743
608.611	260.341
613.269	229.392
617.925	75.5908
622.578	35.2627
627.228	64.4228
631.875	88.1299
636.52	199.49
641.163	30.3384
645.802	103.143
650.44	130.957
655.074	197.184
659.706	276.794
664.335	332.539
668.962	665.535
673.586	812.82
678.207	1160.59
682.826	1717.93
687.442	2120.91
692.056	2503.34
696.667	2300.16
701.275	1809.86
705.881	1357.99
710.484	927.94
715.085	707.748
719.683	513.13
724.278	348.398
728.871	294.465
733.461	254.263
738.049	154.475
742.634	190.238
747.217	241.684
751.797	349.644
756.374	422.33
760.949	667.728
765.522	652.216
770.091	624.23
774.659	396.094
779.223	283.045
783.785	268.376
788.345	117.775
792.902	211.482
797.457	222.809
802.009	81.2129
806.558	81.5488
811.105	55.5571
815.649	48.021
820.191	79.1977
824.73	90.2061
829.267	41.4253
833.801	90.6982
838.333	72.6279
842.862	93.7002
847.389	86.124
851.913	10.8184
856.435	33.5806
860.954	25.4019
865.471	141.697
869.985	5.91357
874.496	1.06885
879.006	137.421
883.512	12.8716
888.016	41.312
892.518	0.055664
897.017	102.896
901.514	77.4497
906.008	161.91
910.5	70.249
914.989	120.01
919.476	238.263
923.96	446.247
928.442	694.788
932.922	938.329
937.398	897.668
941.873	974.948
946.345	1060.09
950.814	1149.33
955.281	1142.21
959.746	844.668
964.208	710.191
968.668	604.812
973.125	450.268
977.58	584.127
982.032	865.918
986.482	1316.47
990.93	1820.08
995.375	1838.09
999.818	1641.38
1004.26	1169.14
1008.7	962.823
1013.13	724.977
1017.56	597.107
1021.99	678.234
1026.42	507.574
1030.85	577.06
1035.27	694.889
1039.69	554.66
1044.11	630.578
1048.53	516.04
1052.94	743.151
1057.35	728.505
1061.76	713.134
1066.17	717.039
1070.57	1091.25
1074.97	1230.81
1079.37	1443.74
1083.77	1992.88
1088.16	2412.78
1092.56	3014.5
1096.94	3349.17
1101.33	3233.64
1105.72	3078.44
1110.1	2605.84
1114.48	2320.18
1118.86	2047.18
1123.23	1858.8
1127.61	1805.67
1131.98	1673.08
1136.35	1459.92
1140.71	1540.2
1145.08	1388.91
1149.44	1674.77
1153.8	1850.69
1158.15	1816.17
1162.51	2027.14
1166.86	2214.83
1171.21	2192.64
1175.56	2066.85
1179.9	1815.36
1184.24	1368.19
1188.58	1234.26
1192.92	755.58
1197.26	481.174
1201.59	296.09
1205.92	183.226
1210.25	21.5566
1214.58	49.0752
1218.9	67.3779
1223.22	71.9678
1227.54	75.0693
1231.86	54.5176
1236.17	18.9941
1240.48	92.6894
1244.8	42.4756
1249.1	145.653
1253.41	30.416
1257.71	114.023
1262.01	299.519
1266.31	374.431
1270.61	476.04
1274.9	408.043
1279.19	589.363
1283.48	500.795
1287.77	613.358
1292.06	682.524
1296.34	717.154
1300.62	860.652
1304.9	924.079
1309.17	1032.64
1313.45	919.043
1317.72	920.196
1321.99	1014.45
1326.25	784.18
1330.52	717.094
1334.78	651.138
1339.04	523.983
1343.3	588.185
1347.55	458.703
1351.81	404.617
1356.06	279.307
1360.31	281.576
1364.55	225.172
1368.8	140.356
1373.04	106.195
1377.28	109.724
1381.52	66.5664
1385.75	116.131
1389.98	73.71
1394.21	131.657
1398.44	18.998
1402.67	132.259
1406.89	32.9434
1411.12	30.041
1415.34	176.126
1419.55	98.7529
1423.77	127.398
1427.98	14.9551
1432.19	118.999
1436.4	81.5068
1440.61	108.74
1444.81	51.1143
1449.01	101.738
1453.21	21.1357
1457.41	20.0527
1461.61	79.5361
1465.8	16.999
1469.99	114.186
1474.18	98.6875
1478.37	309.191
1482.55	66.0938
1486.73	93.6309
1490.91	72.6787
1495.09	110.768
1499.27	59.833
1503.44	92.9316
1507.61	34.8584
1511.78	249.294
1515.95	1.51953
1520.11	138.621
1524.28	244.392
1528.44	112.272
1532.6	76.7002
1536.75	134.945
1540.91	239.293
1545.06	128.933
1549.21	171.241
1553.36	142.711
1557.5	171.365
1561.64	41.833
1565.79	43.2461
1569.93	207.816
1574.06	78.5938
