Measurement: Raman, 514 nm, ccw, Raman Data Processed
Mineral: Levyne-Na
Rruff sample: R060021
Ideal chemistry: Na_6_(Si_12_Al_6_)O_36_18H_2_O
Locality: Dallas, Oregon, USA
Source: Bob Downs
Description: White tabular hexagonal-shaped crystals associated with analcime, R060023
Measured chemistry: (Na_0.70_Ca_0.26_K_0.04_)_6_(Si_0.58_Al_0.42_)_18_O_36_Â·18H_2_O
Pin_id: L01578
Orientation: Laser parallel to a* (1 0 0). Fiducial mark perpendicular to laser is parallel to -c [0 0 -1]
Raman shift (cm-1)	intensity
69.526	0
74.497	2132.92
79.466	4141.82
84.431	5264.77
89.394	5590.8
94.354	6447.24
99.31	7352.09
104.264	10087.4
109.215	12918.8
114.163	14993.8
119.108	13019
124.05	8653.2
128.989	5997.63
133.925	4623.81
138.858	3883.98
143.789	3894.84
148.716	3873.66
153.641	3949.5
158.562	3920.82
163.481	4024.82
168.397	3463.95
173.31	3401.47
178.22	3686.45
183.127	4408.47
188.031	3887.68
192.932	2819.28
197.831	1452.35
202.726	554.938
207.619	88.9209
212.509	617.348
217.396	755.566
222.28	686.027
227.161	686.404
232.039	686.111
236.915	118.943
241.787	702.318
246.657	1807.34
251.524	2607.55
256.388	3038.41
261.249	2613.32
266.107	1772.47
270.963	1779
275.815	2703.42
280.665	5221.44
285.512	9121.96
290.356	12696.7
295.198	11187
300.036	6697.93
304.872	3988.05
309.705	2702.08
314.535	3246.86
319.362	3962.28
324.186	4092.23
329.008	4074.64
333.827	4874.51
338.643	6555.3
343.456	7575.26
348.266	7618.46
353.074	7087.32
357.879	6026.2
362.681	6338.6
367.48	9686.91
372.276	15362
377.07	19198
381.861	14884.5
386.649	8735.92
391.434	5151.72
396.217	3745.48
400.997	2539.22
405.774	1966.98
410.548	1092.84
415.32	336.856
420.088	125.921
424.854	176.066
429.618	383.162
434.378	985.107
439.136	2263.49
443.891	3762.71
448.643	5101.89
453.393	5798.05
458.14	6464.19
462.884	7398.3
467.625	8824.35
472.364	10015.2
477.1	12107.2
481.833	15775
486.563	20914.7
491.291	28973.2
496.016	38367.5
500.738	45608.9
505.458	43277.1
510.175	32141.9
514.889	20499.8
519.601	12854.5
524.31	8436.48
529.016	5804.05
533.719	4273.27
538.42	3226.13
543.118	2768.64
547.814	2634.77
552.506	2727.5
557.196	3151.89
561.884	3493.78
566.568	3871.58
571.251	3608.98
575.93	2908.29
580.607	2119.86
585.281	1490.6
589.952	961.911
594.621	692.396
599.287	466.583
603.95	229.684
608.611	197.423
613.269	94.3345
617.925	34.7695
622.578	199.349
627.228	133.763
631.875	146.407
636.52	26.2266
641.163	93.7476
645.802	53.6592
650.44	159.577
655.074	109.773
659.706	344.267
664.335	689.678
668.962	1006.87
673.586	1404.78
678.207	1904.45
682.826	2345.9
687.442	2880.77
692.056	3291.95
696.667	3017.38
701.275	2371.01
705.881	1844.25
710.484	1153.32
715.085	863.794
719.683	773
724.278	568.343
728.871	514.36
733.461	461.864
738.049	490.345
742.634	498.457
747.217	545.446
751.797	743.65
756.374	709.644
760.949	705.215
765.522	622.42
770.091	549.049
774.659	310.566
779.223	386.794
783.785	306.981
788.345	206.346
792.902	120.59
797.457	89.6816
802.009	114.689
806.558	105.008
811.105	1.83496
815.649	18.646
820.191	60.5454
824.73	3.47266
829.267	80.541
833.801	14.7471
838.333	4.76953
842.862	18.3721
847.389	12.5596
851.913	47.9834
856.435	7.979
860.954	81.4258
865.471	115.114
869.985	123.436
874.496	180.21
879.006	95.8276
883.512	88.793
888.016	61.7607
892.518	118.999
897.017	204.761
901.514	148.969
906.008	242.13
910.5	329.394
914.989	378.55
919.476	685.451
923.96	1278.13
928.442	2000.02
932.922	2279.08
937.398	2112.74
941.873	2002.81
946.345	2171.21
950.814	2114.86
955.281	1970.71
959.746	1681.16
964.208	1364.47
968.668	1037.25
973.125	1098.16
977.58	1331.43
982.032	2123.89
986.482	3262.83
990.93	4209.39
995.375	4442.47
999.818	3726.01
1004.26	2831.62
1008.7	2187.9
1013.13	1579.42
1017.56	1284.14
1021.99	1141.96
1026.42	997.697
1030.85	899.505
1035.27	928.795
1039.69	695.854
1044.11	717.19
1048.53	522.827
1052.94	698.774
1057.35	586.061
1061.76	757.711
1066.17	854.783
1070.57	1007.01
1074.97	1200.35
1079.37	1407.04
1083.77	1944.83
1088.16	2598.02
1092.56	3043.2
1096.94	3454.61
1101.33	3487.63
1105.72	3097.78
1110.1	2719.62
1114.48	2441.04
1118.86	2121.93
1123.23	1929.24
1127.61	1677.66
1131.98	1439.43
1136.35	1291.55
1140.71	1313.02
1145.08	1166.8
1149.44	1343.93
1153.8	1271.46
1158.15	1304.33
1162.51	1380.48
1166.86	1170.95
1171.21	1170.61
1175.56	972.219
1179.9	728.932
1184.24	755.386
1188.58	598.898
1192.92	250.732
1197.26	103.712
1201.59	11.1992
1205.92	8.0249
1210.25	31.1577
1214.58	29.667
1218.9	79.9321
1223.22	48.2832
1227.54	56.248
1231.86	9.69971
1236.17	48.2363
1240.48	0.87207
1244.8	96.2578
1249.1	23.7705
1253.41	128.387
1257.71	88.7886
1262.01	207.968
1266.31	126.126
1270.61	223.81
1274.9	259.97
1279.19	319.59
1283.48	457.994
1287.77	388.082
1292.06	532.226
1296.34	626.409
1300.62	702.267
1304.9	875.099
1309.17	778.703
1313.45	954.881
1317.72	837.263
1321.99	797.486
1326.25	760.707
1330.52	594.942
1334.78	547.91
1339.04	534.724
1343.3	447.763
1347.55	275.116
1351.81	278.253
1356.06	181.296
1360.31	202.343
1364.55	180.949
1368.8	190.708
1373.04	119.505
1377.28	47.4731
1381.52	57.5127
1385.75	160.86
1389.98	111.527
1394.21	134.258
1398.44	28.314
1402.67	17.7388
1406.89	59.0605
1411.12	148.356
1415.34	34.2983
1419.55	120.769
1423.77	206.638
1427.98	125.66
1432.19	131.103
1436.4	184.188
1440.61	184.722
1444.81	234.853
1449.01	36.8935
1453.21	113.866
1457.41	187.398
1461.61	121.509
1465.8	201.819
1469.99	265.256
1474.18	125.265
1478.37	145.75
1482.55	72.1318
1486.73	201.816
1490.91	146.888
1495.09	116.911
1499.27	49.7285
1503.44	40.9551
1507.61	112.802
1511.78	20.2822
1515.95	58.2647
1520.11	137.664
1524.28	68.6494
1528.44	115.478
1532.6	103.924
1536.75	61.2363
1540.91	111.217
1545.06	25.3799
1549.21	152.089
1553.36	145.805
1557.5	75.6582
1561.64	47.2324
1565.79	146.056
1569.93	119.357
1574.06	98.4365
