Measurement: Raman, 514 nm, depolarized, Raman Data Processed
Mineral: Ludlamite
Rruff sample: R040152
Ideal chemistry: Fe^2+^_3_(PO_4_)_2_4H_2_O
Locality: Cobalt, Lemhi County, Idaho, USA
Source: University of Arizona Mineral Museum
Description: Green tabular single crystals
Measured chemistry: Fe_3.01_(P_1.00_O_4_)_2_Â·4H_2_O
Pin_id: S00410
Orientation: Laser parallel to -a* (-1 0 0). Fiducial mark perpendicular to laser is parallel to b [0 1 0]
Raman shift (cm-1)	intensity
76.635	0
80.823	5.106
85.009	17.081
89.193	80.624
93.375	468.461
97.554	1881.4
101.732	4039.5
105.908	3104.25
110.082	835.822
114.254	522.937
118.424	317.95
122.592	207.593
126.758	303.976
130.922	782.496
135.083	2450.77
139.243	5583.51
143.401	7599.53
147.557	6403.65
151.711	2996.75
155.863	1029.13
160.013	1243.8
164.161	2612.92
168.308	3105.68
172.452	2353.34
176.594	1442.05
180.734	1015.9
184.872	895.941
189.008	665.195
193.143	1235.68
197.275	2407.4
201.405	3765.36
205.534	3982.54
209.66	3990.94
213.784	2401.54
217.907	1020.34
222.027	379.331
226.146	155.497
230.263	94.64
234.377	59.482
238.49	124.531
242.601	150.878
246.709	365.365
250.816	572.219
254.921	932.418
259.024	1478.86
263.125	1788.17
267.224	2078.2
271.321	1935.84
275.416	1560.97
279.51	1900.55
283.601	2896.51
287.69	3379.79
291.778	2675.37
295.863	2464.19
299.947	3152.25
304.029	3350.51
308.108	2599.95
312.186	1711.57
316.262	1203.34
320.336	902.242
324.408	600.229
328.478	456.281
332.546	450.4
336.612	554.589
340.677	722.848
344.739	639.174
348.799	407.565
352.858	177.016
356.915	135.523
360.969	64.083
365.022	106.692
369.073	68.345
373.122	13.039
377.169	35.255
381.215	77.623
385.258	71.607
389.299	78.782
393.339	74.732
397.376	39.187
401.412	42.122
405.446	32.363
409.478	64.386
413.508	88.295
417.536	117.348
421.562	142.604
425.586	309.993
429.609	391.503
433.629	544.152
437.648	738.936
441.665	1042.88
445.68	1587.93
449.693	2577.09
453.704	4069.3
457.713	5947.55
461.721	6293.06
465.726	5082.16
469.73	3148.47
473.731	1902.77
477.731	1465.06
481.729	1329.34
485.725	1494.6
489.72	1971.85
493.712	2698.07
497.703	2940.28
501.691	2620.46
505.678	2053.61
509.663	1513.74
513.646	1171.84
517.627	1069.9
521.607	1206.93
525.584	1535.93
529.56	2076.89
533.534	2430.81
537.506	2662.37
541.476	3426.26
545.444	4801.09
549.41	5780.96
553.375	5475.43
557.337	5588.52
561.298	5903.7
565.257	5316.94
569.214	3864.59
573.17	2695.55
577.123	1963.8
581.075	1449.27
585.024	1003.45
588.972	658.764
592.918	406.627
596.863	341.906
600.805	261.254
604.746	268.125
608.685	246.843
612.621	236.2
616.557	311.559
620.49	406.326
624.421	479.46
628.351	576.53
632.279	686.536
636.205	779.477
640.129	778.353
644.051	757.165
647.972	655.912
651.89	638.595
655.807	582.214
659.722	608.77
663.636	511.262
667.547	407.692
671.457	368.061
675.365	281.367
679.271	220.614
683.175	166.657
687.077	82.931
690.978	74.003
694.877	45.07
698.774	50.223
702.669	21.497
706.562	28.834
710.454	19.28
714.344	4.811
718.232	54.371
722.118	31.905
726.002	5.405
729.885	2.763
733.766	37.052
737.645	23.135
741.522	7.622
745.397	58.789
749.271	76.438
753.143	41.354
757.013	0.462
760.881	4.91
764.748	28.446
768.613	4.09
772.476	17.128
776.337	7.349
780.196	37.49
784.054	58.616
787.91	77.727
791.764	76.828
795.616	109.921
799.467	98.009
803.316	109.094
807.163	103.181
811.008	65.272
814.851	44.372
818.693	88.485
822.533	109.617
826.371	23.767
830.208	95.938
834.042	90.143
837.875	116.401
841.706	113.52
845.536	114.147
849.363	137.427
853.189	126.95
857.013	159.147
860.836	175.232
864.656	205.955
868.475	270.742
872.292	280.476
876.108	288.775
879.922	377.308
883.733	413.89
887.544	497.922
891.352	528.11
895.159	651.517
898.964	863.091
902.767	1135.06
906.568	1630.99
910.368	2453.23
914.166	3457.15
917.962	3586.23
921.757	3019.53
925.55	2902.7
929.341	3264.39
933.13	4186.61
936.918	6435.96
940.703	10692.4
944.488	21134
948.27	44618.8
952.051	55061.7
955.83	32514.7
959.607	16578.9
963.383	9399.32
967.156	6126.92
970.928	4525.98
974.699	3344.85
978.468	2469.89
982.234	1999.11
986	1681.48
989.763	1606.76
993.525	1552.36
997.285	1282.1
1001.04	992.681
1004.8	865.364
1008.55	817.192
1012.31	799.661
1016.06	834.457
1019.81	912.307
1023.56	1148.66
1027.31	1428.4
1031.05	1235.45
1034.79	917.131
1038.53	815.995
1042.27	898.088
1046.01	878.383
1049.75	834.916
1053.48	1032.66
1057.22	1223.64
1060.95	1597.93
1064.68	2125.32
1068.4	2707.87
1072.13	2828.54
1075.86	2399.04
1079.58	1768.09
1083.3	1211.21
1087.02	799.731
1090.74	545.069
1094.45	400.673
1098.17	308.333
1101.88	169.425
1105.59	130.578
1109.3	124.277
1113.01	35.366
1116.71	13.097
1120.42	40.602
1124.12	111.189
1127.82	10.758
1131.52	1.283
1135.22	7.975
1138.91	41.935
1142.61	74.228
1146.3	20.394
1149.99	18.488
1153.68	19.806
1157.37	17.13
1161.06	36.94
1164.74	37.226
1168.42	22.954
1172.1	12.917
1175.78	22.577
1179.46	1.276
1183.14	29.385
1186.81	68.04
1190.48	44.907
1194.15	44.144
1197.83	34.003
1201.49	47.552
1205.16	67.136
1208.82	83.987
1212.49	69.097
1216.15	58.998
1219.81	1.073
1223.46	0.667
1227.12	32.2
1230.78	10.999
1234.43	34.912
1238.08	22.306
1241.73	40.523
1245.38	24.661
1249.03	34.454
1252.67	31.378
1256.31	9.196
1259.95	14.202
1263.6	40.513
1267.23	20.975
1270.87	51.297
1274.51	65.331
1278.14	27.062
1281.77	46.494
1285.4	18.052
1289.03	1.787
1292.66	27.817
1296.28	0.672
1299.91	30.829
1303.53	25.58
1307.15	30.657
1310.77	1.323
1314.38	51.922
1318	9.463
1321.61	36.66
1325.23	41.892
1328.84	43.565
1332.45	1.045
1336.06	15.622
1339.66	42.707
1343.27	29.548
1346.87	71.155
1350.47	92.573
1354.07	95.855
1357.67	91.622
1361.26	69.26
1364.86	70.02
1368.45	103.573
1372.04	90.13
1375.63	47.738
1379.22	57.024
1382.81	73.105
1386.39	90.487
1389.98	74.998
1393.56	101.543
1397.14	51.652
1400.72	114.305
1404.3	90.144
1407.87	66.322
1411.45	96.553
1415.02	56.396
1418.59	86.639
1422.16	105.152
1425.73	48.827
1429.29	59.104
1432.86	88.959
1436.42	59.593
1439.98	95.939
1443.54	88.906
1447.1	26.822
1450.66	90.875
1454.21	110.342
1457.77	104.67
1461.32	14.453
1464.87	42.076
1468.42	69.846
1471.96	68.993
1475.51	4.643
1479.06	4.586
1482.6	70.738
1486.14	42.811
1489.68	0.385
1493.22	0
