Measurement: Raman, 514 nm, depolarized, Raman Data Processed
Mineral: Ludlamite
Rruff sample: R040152
Ideal chemistry: Fe^2+^_3_(PO_4_)_2_4H_2_O
Locality: Cobalt, Lemhi County, Idaho, USA
Source: University of Arizona Mineral Museum
Description: Green tabular single crystals
Measured chemistry: Fe_3.01_(P_1.00_O_4_)_2_Â·4H_2_O
Pin_id: M00387
Orientation: Laser parallel to -c* (0 0 -1). Fiducial mark perpendicular to laser is parallel to a [1 0 0]
Raman shift (cm-1)	intensity
85.009	0
89.193	53.179
93.375	395.791
97.554	1490.35
101.732	4311.09
105.908	4052.61
110.082	841.717
114.254	412.23
118.424	110.075
122.592	21.129
126.758	47.036
130.922	284.216
135.083	1127.6
139.243	3558.32
143.401	5479.75
147.557	4249.18
151.711	2028.05
155.863	566.306
160.013	682.987
164.161	1792.44
168.308	3387.75
172.452	5340.01
176.594	3805.29
180.734	1299.95
184.872	492.818
189.008	231.868
193.143	653.161
197.275	2125.73
201.405	4079.58
205.534	3237.72
209.66	2350.13
213.784	1241.8
217.907	432.709
222.027	91.833
226.146	55.155
230.263	122.657
234.377	209.322
238.49	487.399
242.601	843.686
246.709	891.955
250.816	800.3
254.921	727.084
259.024	995.139
263.125	1049.47
267.224	1005.38
271.321	927.064
275.416	732.416
279.51	848.406
283.601	1617.53
287.69	2161.24
291.778	1569.39
295.863	1098.99
299.947	1080.93
304.029	1269.16
308.108	918.643
312.186	631.339
316.262	471.219
320.336	404.258
324.408	235.432
328.478	103.717
332.546	48.069
336.612	81.446
340.677	117.84
344.739	305.247
348.799	118.66
352.858	160.076
356.915	219.491
360.969	237.897
365.022	525.291
369.073	464.664
373.122	347.011
377.169	233.326
381.215	133.699
385.258	70.068
389.299	82.566
393.339	72.327
397.376	19.848
401.412	76.114
405.446	32.401
409.478	55.357
413.508	118.006
417.536	159.015
421.562	249.629
425.586	121.32
429.609	24.932
433.629	7.667
437.648	57.224
441.665	143.721
445.68	193.163
449.693	373.551
453.704	658.863
457.713	1062.09
461.721	1570.23
465.726	1900.31
469.73	1433.28
473.731	998.144
477.731	705.902
481.729	842.543
485.725	1097.06
489.72	1530.46
493.712	2229.73
497.703	2587.87
501.691	2338.89
505.678	1840.81
509.663	1316.65
513.646	1067.41
517.627	1118.05
521.607	1031.55
525.584	1309.91
529.56	1819.12
533.534	2363.19
537.506	2570.46
541.476	3256.23
545.444	4717.07
549.41	5776.97
553.375	4987.2
557.337	4418.26
561.298	4050.69
565.257	3717.6
569.214	2732.64
573.17	1956.06
577.123	1411.28
581.075	1190.2
585.024	1109.9
588.972	1248.17
592.918	1319.34
596.863	1876.48
600.805	2011.14
604.746	1618.42
608.685	1098.94
612.621	874.211
616.557	865.351
620.49	970.776
624.421	1097.66
628.351	1365.58
632.279	1344.4
636.205	1197.93
640.129	1191.3
644.051	1176.49
647.972	1014.69
651.89	867.82
655.807	934.045
659.722	633.32
663.636	538.211
667.547	489.891
671.457	370.729
675.365	293.041
679.271	248.24
683.175	244.33
687.077	169.312
690.978	98.193
694.877	113.912
698.774	31.593
702.669	7.303
706.562	116.84
710.454	63.932
714.344	6.799
718.232	45.542
722.118	68.189
726.002	21.063
729.885	46.807
733.766	21.445
737.645	117.422
741.522	54.797
745.397	28.212
749.271	1.714
753.143	54.626
757.013	23.932
760.881	12.188
764.748	135.387
768.613	47.554
772.476	0.306
776.337	178.775
780.196	100.794
784.054	31.793
787.91	43.764
791.764	43.72
795.616	40.665
799.467	86.604
803.316	4.459
807.163	14.528
811.008	5.606
814.851	89.291
818.693	86.863
822.533	93.109
826.371	66.557
830.208	57.791
834.042	60.955
837.875	37.719
841.706	287.726
845.536	253.828
849.363	212.688
853.189	317.759
857.013	439.651
860.836	449.558
864.656	494.691
868.475	425.996
872.292	348.365
876.108	337.55
879.922	306.078
883.733	370.541
887.544	488.145
891.352	543.555
895.159	711.4
898.964	793.844
902.767	1074.47
906.568	1439.34
910.368	2037.28
914.166	2989.53
917.962	3324.72
921.757	2998
925.55	2659.17
929.341	2715.46
933.13	3401.05
936.918	4649.55
940.703	7621.12
944.488	14230
948.27	31738.9
952.051	46806
955.83	30090
959.607	15171.9
963.383	8631.1
967.156	5966.76
970.928	4716.26
974.699	3999.34
978.468	3311.03
982.234	2906.27
986	2733.94
989.763	2653.11
993.525	2355.87
997.285	1946.29
1001.04	1732.45
1004.8	1268.87
1008.55	898.387
1012.31	836.119
1016.06	939.745
1019.81	1015.1
1023.56	1298.61
1027.31	1813.08
1031.05	1937.99
1034.79	2148.58
1038.53	3329.19
1042.27	5847.41
1046.01	6314.55
1049.75	3796.41
1053.48	2354.17
1057.22	1716.43
1060.95	1540.49
1064.68	1572.56
1068.4	1899.9
1072.13	2247.52
1075.86	2216.92
1079.58	2204.4
1083.3	1522.99
1087.02	1142.22
1090.74	771.783
1094.45	521.7
1098.17	396.869
1101.88	156.103
1105.59	295.829
1109.3	142.606
1113.01	62.041
1116.71	112.844
1120.42	54.042
1124.12	325.524
1127.82	108.431
1131.52	130.619
1135.22	18.179
1138.91	135.313
1142.61	16.274
1146.3	60.137
1149.99	63.42
1153.68	134.67
1157.37	83.214
1161.06	108.962
1164.74	45.838
1168.42	50.984
1172.1	20.357
1175.78	14.268
1179.46	93.94
1183.14	114.043
1186.81	122.483
1190.48	43.54
1194.15	37.84
1197.83	145.373
1201.49	46.249
1205.16	124.339
1208.82	13.382
1212.49	125.87
1216.15	120.301
1219.81	113.075
1223.46	54.595
1227.12	159.521
1230.78	154.243
1234.43	223.503
1238.08	259.698
1241.73	254.326
1245.38	154.625
1249.03	82.854
1252.67	62.211
1256.31	226.324
1259.95	211.223
1263.6	148.329
1267.23	170.913
1270.87	128.311
1274.51	290.225
1278.14	204.562
1281.77	163.491
1285.4	126.772
1289.03	144.697
1292.66	8.945
1296.28	202.731
1299.91	180.021
1303.53	90.211
1307.15	162.041
1310.77	306.795
1314.38	62.844
1318	251.125
1321.61	297.838
1325.23	194.508
1328.84	41.09
1332.45	149.542
1336.06	103.263
1339.66	22.647
1343.27	22.041
1346.87	54.619
1350.47	178.874
1354.07	203.908
1357.67	175.209
1361.26	169.5
1364.86	185.919
1368.45	125.964
1372.04	136.614
1375.63	180.162
1379.22	66.369
1382.81	175.812
1386.39	232.694
1389.98	130.048
1393.56	111.873
1397.14	188.254
1400.72	84.282
1404.3	129.438
1407.87	3.265
1411.45	57.312
1415.02	64.749
1418.59	8.106
1422.16	199.339
1425.73	5.134
1429.29	105.734
1432.86	31.647
