Measurement: Raman, 514 nm, depolarized, Raman Data Processed
Mineral: Ludlamite
Rruff sample: R040152
Ideal chemistry: Fe^2+^_3_(PO_4_)_2_4H_2_O
Locality: Cobalt, Lemhi County, Idaho, USA
Source: University of Arizona Mineral Museum
Description: Green tabular single crystals
Measured chemistry: Fe_3.01_(P_1.00_O_4_)_2_Â·4H_2_O
Pin_id: S00001
Orientation: Laser parallel to b* (0 1 0). Fiducial mark perpendicular to laser is parallel to -c [0 0 -1]
Raman shift (cm-1)	intensity
76.635	0
80.823	16.937
85.009	211.064
89.193	505.432
93.375	1391.38
97.554	4560.43
101.732	11088.3
105.908	6944.76
110.082	1453.44
114.254	581.878
118.424	421.514
122.592	300.53
126.758	338.668
130.922	574.914
135.083	1184.57
139.243	2805.12
143.401	4697.2
147.557	4873.49
151.711	2094.89
155.863	858.383
160.013	708.232
164.161	1325.94
168.308	2511.12
172.452	4359.76
176.594	2725.76
180.734	2047.2
184.872	1448.17
189.008	749.699
193.143	1054.8
197.275	2131.47
201.405	3117.71
205.534	2024.49
209.66	1353.8
213.784	656.599
217.907	250.879
222.027	59.616
226.146	6.212
230.263	54.552
234.377	149.1
238.49	430.995
242.601	954.268
246.709	1722.21
250.816	1873.1
254.921	1189.98
259.024	1261.53
263.125	1393.06
267.224	1474.14
271.321	1294.24
275.416	887.756
279.51	1003.13
283.601	1738.25
287.69	2158.02
291.778	1691.38
295.863	1731.25
299.947	2413.59
304.029	2603.35
308.108	1820.5
312.186	1135
316.262	594.831
320.336	396.96
324.408	264.338
328.478	225.924
332.546	287.709
336.612	467.688
340.677	629.854
344.739	630.204
348.799	450.728
352.858	336.419
356.915	373.271
360.969	593.273
365.022	557.419
369.073	392.7
373.122	187.108
377.169	112.636
381.215	5.268
385.258	32.025
389.299	61.396
393.339	105.823
397.376	56.568
401.412	120.793
405.446	115.622
409.478	50.543
413.508	30.424
417.536	57.228
421.562	38.982
425.586	20.355
429.609	26.879
433.629	155.583
437.648	253.478
441.665	385.531
445.68	544.778
449.693	953.159
453.704	1565.65
457.713	2436.25
461.721	2628.96
465.726	2081.74
469.73	1304.59
473.731	846.519
477.731	792.531
481.729	980.646
485.725	1182.81
489.72	1832.03
493.712	2625.29
497.703	2629.64
501.691	2048.02
505.678	1403.43
509.663	1070.87
513.646	972.341
517.627	853.819
521.607	1064.3
525.584	1249.78
529.56	1784.26
533.534	2349.74
537.506	3517.26
541.476	5695.85
545.444	8641.98
549.41	9672.41
553.375	6740.4
557.337	4011.83
561.298	2596.24
565.257	1664.44
569.214	1129.1
573.17	748.976
577.123	464.316
581.075	432.953
585.024	373.554
588.972	391.629
592.918	421.329
596.863	499.453
600.805	504.177
604.746	541.616
608.685	592.404
612.621	594.974
616.557	762.669
620.49	951.043
624.421	1415.81
628.351	1696.43
632.279	1950.81
636.205	2133.98
640.129	1764.08
644.051	1470.61
647.972	1239.84
651.89	1125.26
655.807	831.464
659.722	738.532
663.636	717.577
667.547	483.843
671.457	438.908
675.365	367.94
679.271	321.741
683.175	276.52
687.077	156.214
690.978	192.856
694.877	56.445
698.774	67.979
702.669	24.518
706.562	105.131
710.454	17.911
714.344	41.789
718.232	71.791
722.118	60.043
726.002	73.066
729.885	129.152
733.766	75.231
737.645	28.315
741.522	15.314
745.397	5.831
749.271	16.83
753.143	66.333
757.013	104.67
760.881	16.202
764.748	8.208
768.613	72.673
772.476	98.436
776.337	95.075
780.196	35.653
784.054	36.838
787.91	105.521
791.764	32.251
795.616	38.816
799.467	52.812
803.316	54.745
807.163	26.452
811.008	40.208
814.851	64.828
818.693	74.386
822.533	129.867
826.371	27.305
830.208	50.714
834.042	26.098
837.875	63.497
841.706	69.904
845.536	100.351
849.363	165.745
853.189	137.052
857.013	165.216
860.836	225.79
864.656	183.209
868.475	256.658
872.292	293.006
876.108	240.206
879.922	342.646
883.733	327.001
887.544	411.294
891.352	503.716
895.159	466.477
898.964	599.899
902.767	960.15
906.568	1251.4
910.368	1692.66
914.166	2404.3
917.962	2519
921.757	2229.75
925.55	2249.99
929.341	2682.52
933.13	3593.57
936.918	5386.93
940.703	9087.4
944.488	18237.5
948.27	38949.8
952.051	48253.1
955.83	27775.7
959.607	14178.3
963.383	8718.93
967.156	6396.67
970.928	5350.75
974.699	5114.54
978.468	4746.97
982.234	4530.21
986	4143.08
989.763	3769.04
993.525	3162.48
997.285	2486.79
1001.04	1688.09
1004.8	1324.5
1008.55	983.341
1012.31	874.857
1016.06	901.444
1019.81	992.587
1023.56	1243.44
1027.31	1315.79
1031.05	1195.18
1034.79	931.644
1038.53	1075.32
1042.27	1341.16
1046.01	1177.95
1049.75	752.735
1053.48	523.368
1057.22	538.235
1060.95	601.884
1064.68	590.582
1068.4	659.417
1072.13	982.495
1075.86	1336.27
1079.58	1421.26
1083.3	1024.54
1087.02	517.456
1090.74	267.347
1094.45	232.3
1098.17	151.335
1101.88	147.406
1105.59	4.91
1109.3	117.688
1113.01	37.237
1116.71	13.229
1120.42	79.936
1124.12	84.348
1127.82	20.608
1131.52	68.188
1135.22	8.409
1138.91	2.845
1142.61	65.069
1146.3	28.703
1149.99	91.206
1153.68	59.946
1157.37	34.971
1161.06	56.545
1164.74	89.145
1168.42	42.967
1172.1	12.121
1175.78	34.896
1179.46	31.743
1183.14	99.494
1186.81	149.552
1190.48	80.107
1194.15	115.14
1197.83	161.939
1201.49	249.332
1205.16	95.885
1208.82	136.92
1212.49	161.231
1216.15	54.376
1219.81	137.545
1223.46	97.104
1227.12	20.331
1230.78	35.064
1234.43	44.594
1238.08	110.097
1241.73	146.112
1245.38	116.209
1249.03	69.27
1252.67	55.049
1256.31	22.57
1259.95	112.277
1263.6	78.005
1267.23	109.681
1270.87	139.447
1274.51	103.142
1278.14	83.185
1281.77	128.718
1285.4	97.746
1289.03	1.959
1292.66	58.865
1296.28	4.346
1299.91	53.215
1303.53	44.489
1307.15	72.032
1310.77	18.309
1314.38	14.44
1318	1.695
1321.61	3.519
1325.23	59.918
1328.84	6.345
1332.45	41.12
1336.06	16.234
1339.66	80.507
1343.27	16.529
1346.87	121.394
1350.47	90.962
1354.07	163.649
1357.67	104.993
1361.26	37.249
1364.86	110.792
1368.45	153.549
1372.04	144.171
1375.63	159.58
1379.22	46.618
1382.81	137.498
1386.39	64.768
1389.98	260.106
1393.56	146.782
1397.14	70.178
1400.72	104.562
1404.3	41.685
1407.87	154.521
1411.45	136.996
1415.02	239.531
1418.59	208.096
1422.16	140.646
1425.73	109.297
1429.29	156.345
1432.86	153.799
1436.42	178.068
1439.98	201.204
1443.54	273.776
1447.1	235.237
1450.66	282.494
1454.21	340.934
1457.77	340.785
1461.32	244.586
1464.87	173.977
1468.42	141.355
1471.96	219.375
1475.51	145.964
1479.06	99.604
1482.6	238.567
1486.14	100.858
1489.68	4.201
1493.22	207.747
1496.75	10.074
1500.29	72.788
1503.82	58.396
1507.35	10.379
1510.88	131.074
1514.41	60.005
1517.94	63.48
1521.46	0
