Measurement: Raman, 514 nm, depolarized, Raman Data Processed
Mineral: Ludlamite
Rruff sample: R040152
Ideal chemistry: Fe^2+^_3_(PO_4_)_2_4H_2_O
Locality: Cobalt, Lemhi County, Idaho, USA
Source: University of Arizona Mineral Museum
Description: Green tabular single crystals
Measured chemistry: Fe_3.01_(P_1.00_O_4_)_2_Â·4H_2_O
Pin_id: M00398
Orientation: Laser parallel to (1 0 1). Fiducial mark perpendicular to laser is parallel to b [0 1 0]
Raman shift (cm-1)	intensity
82.218	0
86.404	15.542
90.587	125.562
94.768	207.61
98.947	735.828
103.124	2337.17
107.3	659.88
111.473	244.424
115.644	486.329
119.813	192.906
123.981	184.33
128.146	374.154
132.309	1030.26
136.47	3574.9
140.63	10484.6
144.787	9213.05
148.942	7241.96
153.096	1850.12
157.247	819.426
161.396	1680.8
165.544	4233.04
169.689	2735.21
173.833	2833.93
177.974	1947.52
182.114	2944.15
186.251	1449.9
190.387	779.834
194.52	1324.97
198.652	3349.32
202.782	4274.89
206.909	4804.67
211.035	4357.64
215.159	1766.79
219.281	594.098
223.4	181.56
227.518	90.713
231.634	132.495
235.748	199.818
239.86	345.979
243.97	707.15
248.079	1368.97
252.185	1041.84
256.289	1133.08
260.391	1324.18
264.492	1418.63
268.59	2122.1
272.687	1704.39
276.781	1149.34
280.874	1527.84
284.964	2698.78
289.053	2526.12
293.14	1415.77
297.225	1189.69
301.308	1430.83
305.389	1348.17
309.468	919.683
313.545	544.477
317.62	397.12
321.693	324.011
325.765	71.979
329.834	55.969
333.902	9.962
337.967	79.963
342.031	227.974
346.093	532.994
350.153	60.02
354.21	22.047
358.267	70.071
362.321	209.087
366.373	223.092
370.423	114.079
374.471	38.045
378.518	16.008
382.563	30.064
386.605	103.289
390.646	54.745
394.685	116.431
398.722	88.72
402.757	21.704
406.79	3.679
410.821	5.515
414.851	72.058
418.878	69.372
422.904	110.743
426.927	316.153
430.949	353.605
434.969	487.088
438.987	723.583
443.003	979.113
447.018	1464.62
451.03	2371.1
455.041	3898.6
459.049	5634.12
463.056	5977.62
467.061	4521.05
471.064	2442.4
475.065	1422.69
479.064	1091.99
483.062	1139.23
487.057	1365.38
491.051	1939.43
495.043	2808.4
499.032	2861.27
503.02	2215.04
507.007	1680.71
510.991	1142.27
514.973	972.729
518.954	828.084
522.933	878.347
526.91	1173.5
530.885	1542.55
534.858	1570.82
538.829	1603.69
542.799	2052.4
546.766	2876.83
550.732	3503.04
554.696	4031.11
558.658	5093.9
562.618	5927.23
566.576	4993.43
570.533	3328.03
574.488	2326.18
578.44	1665.56
582.391	1242.56
586.341	877.728
590.288	782.158
594.233	737.423
598.177	643.998
602.119	602.092
606.059	448.832
609.997	393.172
613.933	347.546
617.868	391.694
621.801	445.388
625.731	823.045
629.66	956.975
633.588	1174.4
637.513	1221.48
641.437	962.495
645.358	749.378
649.278	564.146
653.196	602.068
657.113	354.7
661.027	442.149
664.94	413.656
668.851	236.818
672.76	194.994
676.667	151.363
680.572	178.802
684.476	135.513
688.378	101.06
692.278	84.486
696.176	13.31
700.072	59.758
703.967	3.147
707.86	70.996
711.751	6.188
715.64	6.539
719.527	24.887
723.413	28.108
727.297	59.169
731.179	3.035
735.059	77.758
738.937	2.646
742.814	80.785
746.689	105.043
750.562	3.881
754.433	26.999
758.303	26.694
762.17	74.25
766.036	45.342
769.901	51.783
773.763	84.696
777.624	56.476
781.482	55.183
785.339	42.192
789.195	92.244
793.048	52.471
796.9	140.601
800.75	83.672
804.598	167.678
808.445	29.603
812.289	62.476
816.132	4.301
819.973	90.121
823.813	91.91
827.65	92.657
831.486	110.347
835.32	15.023
839.152	95.72
842.983	131.454
846.812	65.898
850.639	169.952
854.464	85.746
858.288	147.729
862.11	133.864
865.93	194.04
869.748	252.886
873.564	195.178
877.379	209.68
881.192	261.462
885.004	363.551
888.813	443.917
892.621	424.367
896.427	606.039
900.232	707.164
904.034	1010.25
907.835	1488.04
911.634	2250.29
915.432	3390.01
919.227	3403.38
923.021	2826.54
926.813	2732.47
930.604	3174.71
934.393	4251.93
938.18	6569.94
941.965	10901.1
945.749	22207.7
949.53	47974.2
953.311	53058.8
957.089	27270.5
960.866	13665.2
964.641	8327.87
968.414	5892.02
972.185	4694.74
975.955	3955.72
979.723	3175.65
983.49	3000.19
987.254	2714.9
991.017	2597.93
994.779	2309.02
998.538	1780
1002.3	1098.41
1006.05	777.553
1009.81	654.846
1013.56	655.066
1017.31	645.423
1021.06	686.801
1024.81	977.789
1028.55	1180.09
1032.3	1153.68
1036.04	1142.09
1039.78	1496.02
1043.52	2120.52
1047.26	1737.45
1050.99	1183.26
1054.73	1039.65
1058.46	1114.96
1062.19	1623.89
1065.92	2077.24
1069.65	2599.23
1073.37	2792.11
1077.1	2399.57
1080.82	1788.5
1084.54	1266.69
1088.26	751.848
1091.97	456.662
1095.69	526.547
1099.4	210.062
1103.12	134.979
1106.83	64.111
1110.54	126.175
1114.24	35.188
1117.95	36.968
1121.65	47.938
1125.35	202.236
1129.06	23.896
1132.75	61.288
1136.45	104.94
1140.15	93.911
1143.84	50.302
1147.53	29.66
1151.22	4.423
1154.91	28.241
1158.6	55.946
1162.28	51.747
1165.97	54.236
1169.65	41.744
1173.33	76.616
1177.01	33.067
1180.69	43.379
1184.36	146.936
1188.04	86.887
1191.71	35.836
1195.38	18.253
1199.05	75.122
1202.71	153.821
1206.38	183.859
1210.04	77.466
1213.71	200.507
1217.37	55.093
1221.03	170.469
1224.68	18.31
1228.34	116.785
1231.99	88.747
1235.65	154.613
1239.3	63.834
1242.95	168.723
1246.59	120.412
1250.24	238.081
1253.88	121.125
1257.53	17.179
1261.17	8.662
1264.81	157.247
1268.45	109.394
1272.08	13.615
1275.72	14.212
1279.35	100.717
1282.98	123.397
1286.61	70.43
1290.24	4.16
1293.87	11.403
1297.49	80.208
1301.11	59.066
1304.73	98.188
1308.36	2.288
1311.97	21.046
1315.59	47.273
1319.2	31.204
1322.82	70.703
1326.43	69.378
1330.04	164.115
1333.65	95.587
1337.26	49.623
1340.86	151.948
1344.47	29.131
1348.07	8.725
1351.67	121.905
1355.27	209.424
1358.87	158.119
1362.46	168.689
1366.06	163.269
1369.65	232.572
1373.24	228.403
1376.83	134.199
1380.42	232.61
1384	239.055
1387.59	180.762
1391.17	226.659
1394.75	263.408
1398.33	182.433
1401.91	152.058
1405.49	178.688
1409.06	170.554
1412.64	256.804
1416.21	333.062
1419.78	361.457
1423.35	165.198
1426.91	219.989
1430.48	194.597
1434.05	218.839
1437.61	235.707
1441.17	272.744
1444.73	254.751
1448.29	318.579
1451.84	403.503
1455.4	425.84
1458.95	338.194
1462.5	86.562
1466.05	165.959
1469.6	121.502
1473.15	45.049
1476.69	31.28
1480.24	106.784
1483.78	268.721
1487.32	27.563
1490.86	153.464
1494.39	323.848
1497.93	219.297
1501.46	9.162
1505	194.604
1508.53	107.514
1512.06	117.434
1515.59	1.624
1519.11	4.015
