Measurement: Raman, 514 nm, ccw, Raman Data Processed
Mineral: Magnetite
Rruff sample: R060222
Ideal chemistry: Fe^2+^Fe^3+^_2_O_4_
Locality: Cerro Hua√±aquino, Potosi Department, Bolivia
Source: Rock Currier
Description: Black octahedra, the surface is hematite and the interior is magnetite
Measured chemistry: (Fe^2+^_0.95_Mg_0.05_)(Fe^3+^_0.99_Al_0.01_)_2_O_4_
Pin_id: L01600
Orientation: Laser parallel to a* (1 0 0). Fiducial mark perpendicular to laser is parallel to b [0 1 0]
Raman shift (cm-1)	intensity
132.725	9.23438
137.656	616.994
142.583	638.363
147.508	583.127
152.431	709.613
157.35	130.596
162.267	867.771
167.181	521.646
172.092	524.164
177.001	1458.74
181.907	898.045
186.81	1682.87
191.711	1724.27
196.608	2061.7
201.503	2148.6
206.395	867.961
211.285	507.75
216.172	632.863
221.056	474.049
225.937	668.436
230.816	225.176
235.692	9.98828
240.565	88.6172
245.436	65.1856
250.304	720.127
255.169	688.293
260.031	97.2852
264.891	227.656
269.748	318.281
274.602	172.978
279.454	424.836
284.303	689.438
289.149	1129.83
293.992	1126.94
298.833	1117.1
303.671	1094.93
308.507	1136.45
313.339	869.406
318.169	867.473
322.996	993.119
327.821	690.127
332.643	622.289
337.462	494.055
342.279	560.852
347.092	234.977
351.904	386.865
356.712	41.3613
361.518	21.1465
366.321	57.5742
371.121	216.199
375.919	136.002
380.714	49.8047
385.506	30.3301
390.296	48.0508
395.083	83.0078
399.867	69.791
404.649	296.381
409.428	257.893
414.204	299.705
418.978	172.625
423.749	217.129
428.517	240.871
433.282	62.4629
438.045	31.4336
442.806	19.4316
447.563	19.2422
452.318	377.447
457.07	84.7988
461.82	160.353
466.567	338.197
471.311	332.385
476.053	382.674
480.792	465.717
485.528	415.766
490.262	567.039
494.992	741.291
499.721	1093.12
504.446	1252.33
509.169	1437.86
513.89	1163.47
518.607	1510.6
523.322	1541.08
528.035	1950.39
532.745	1801.59
537.452	1895.28
542.156	2358.23
546.858	2354.65
551.557	2594.89
556.254	2408.69
560.947	2392.95
565.639	2580.51
570.327	2605.45
575.013	2291.91
579.697	1722.85
584.377	981.041
589.055	416.269
593.731	607.039
598.403	976.312
603.074	1152.68
607.741	1378.18
612.406	1381.43
617.068	1688.53
621.728	2069.9
626.385	2564.23
631.039	2966.44
635.691	3653.52
640.34	4486.44
644.987	5726.65
649.63	7312.9
654.272	8956.19
658.91	10655.5
663.546	12398.5
668.18	13269.9
672.81	13528.8
677.439	12383.3
682.064	10895
686.687	9071.27
691.307	7324.6
695.925	6250.78
700.54	4327.66
705.153	3842.99
709.763	2814.49
714.37	2107.72
718.974	1953.38
723.577	1251
728.176	1048.27
732.773	777.346
737.367	717.322
741.959	263.926
746.548	242.793
751.134	390.447
755.718	216.867
760.299	256.902
764.878	227.244
769.454	279.584
774.028	43.2715
778.598	37.5488
783.167	108.051
787.732	194.617
792.295	51.7734
796.856	74.0781
801.414	28.6172
805.969	60.0781
810.522	78.9043
815.072	240.221
819.62	235.773
824.165	125.719
828.707	54.6367
833.247	69.5078
837.784	17.0469
842.319	14.4668
846.851	114.812
851.381	61.5938
855.908	186.273
860.432	110.041
864.954	264.592
869.473	271.709
873.99	159.781
878.504	240.971
883.015	343.34
887.524	380.889
892.031	293.631
896.535	479.584
901.036	236.178
905.535	302.832
910.031	546.217
914.524	593.779
919.015	680.863
923.504	447.975
927.99	653.301
932.473	393.816
936.954	485.582
941.432	499.057
945.908	445.232
950.381	578.828
954.852	584.18
959.32	518.723
963.785	460.641
968.248	384.174
972.708	605.965
977.166	573.244
981.622	642.152
986.074	667.248
990.525	471.961
994.972	513.606
999.417	433.324
1003.86	628.371
1008.3	456.307
1012.74	522.945
1017.17	601.557
1021.61	496.594
1026.04	537.281
1030.46	724.258
1034.89	614.303
1039.31	678.721
1043.73	905.307
1048.15	956.762
1052.56	1054.24
1056.97	1127.14
1061.38	947.17
1065.79	915.047
1070.19	774.137
1074.6	992.537
1079	979.029
1083.39	980.928
1087.79	781.172
1092.18	825.158
1096.57	732.574
1100.96	1057.41
1105.34	809.258
1109.72	672.178
1114.1	755
1118.48	650.633
1122.85	517.244
1127.22	688.785
1131.6	405.42
1135.96	287.225
1140.33	488.312
1144.69	319.232
1149.05	304.815
1153.4	182.643
1157.76	129.697
1162.11	147.062
1166.46	38.7012
1170.81	4.38086
1175.15	153.756
1179.49	88.9258
1183.83	192.473
1188.17	5.01562
1192.5	295.59
1196.84	26.5449
1201.16	16.0703
1205.49	220.252
1209.82	249.356
1214.14	321.566
1218.46	122.844
1222.77	300.625
1227.09	204.736
1231.4	69.1152
1235.71	177.027
1240.02	124.281
1244.32	65.6816
1248.62	259.012
1252.92	55.0703
1257.22	384.59
1261.51	52.5098
1265.81	175.557
1270.1	21.2734
1274.38	459.971
1278.67	400.106
1282.95	291.555
1287.23	449.209
1291.51	502.947
1295.78	497.037
1300.05	554.852
1304.32	712.043
1308.59	467.152
1312.86	621.32
1317.12	634.893
1321.38	699.033
1325.63	593.586
1329.89	441.641
1334.14	696.393
1338.39	630.682
1342.64	410.932
1346.88	370.014
1351.13	551.381
1355.37	343.709
1359.61	341.33
1363.84	429.904
1368.07	326.039
1372.3	429.731
1376.53	33.6797
1380.76	211.055
1384.98	350.51
1389.2	243.787
1393.42	19.8086
1397.64	38.6367
1401.85	200.57
1406.06	82.0879
1410.27	22.6973
1414.47	97.1621
1418.68	79.8184
1422.88	59.2676
1427.08	135.062
1431.27	197.324
1435.47	273.803
1439.66	24.1016
1443.85	300.133
1448.03	107.232
1452.22	29.9121
1456.4	216.531
1460.58	166.088
1464.76	5.05859
1468.93	180.111
1473.1	76.1406
1477.27	111.291
1481.44	123.611
1485.6	169.596
1489.77	22.1992
1493.92	226.621
1498.08	11.5371
1502.24	416.631
1506.39	374.404
1510.54	53.4121
1514.69	75.5859
1518.83	200.914
1522.97	199.562
1527.12	185.941
1531.25	77.375
1535.39	157.957
1539.52	368.172
1543.65	87.2246
1547.78	215.084
1551.91	333.793
1556.03	107.713
1560.15	351.34
1564.27	67.8184
1568.39	397.627
1572.5	220.586
1576.61	131.658
