Measurement: Raman, 514 nm, depolarized, Raman Data Processed
Mineral: Magnesio-hastingsite
Rruff sample: R040010
Ideal chemistry: NaCa_2_(Mg_4_Fe^3+^)Si_6_Al_2_O_22_(OH)_2_
Locality: Amity, New York, USA
Source: University of Arizona Mineral Museum
Description: Group of black prismatic crystals
Measured chemistry: (Na_0.50_K_0.43_[box]_0.07_)_Σ=1_(Ca_1.77_Na_0.23_)_Σ=2_(Mg_1.74_Fe_1.22_Fe^3+^_0.79_Mn_0.57_Al_0.30_Zn_0.25_Ti_0.13_)_Σ=5_(Si_5.95_Al_2.05_)_Σ=8_O_22_((OH)_1.75_F_0.22_Cl_0.03_)_Σ=2_; OH estimated by charge balance
Pin_id: L00374
Orientation: Laser parallel to a [1 0 0]. Fiducial mark perpendicular to laser is parallel to -b* (0 -1 0)
Raman shift (cm-1)	intensity
168.313	0
173.235	180.246
178.155	622.508
183.071	1466.76
187.985	2238.7
192.896	2258.03
197.803	2959.26
202.709	2493.09
207.611	332.668
212.51	509.891
217.407	1086.19
222.301	1927.82
227.192	2514.45
232.08	1854.62
236.965	1364.79
241.848	1050.04
246.728	417.461
251.604	298.273
256.479	320.109
261.35	175.824
266.218	275.32
271.084	420.019
275.947	411.082
280.807	871.652
285.664	1368.76
290.518	1780.38
295.37	1779.58
300.219	1474.37
305.065	1037.76
309.908	869.793
314.749	691.023
319.586	507.344
324.421	443.852
329.253	290.926
334.083	520.41
338.909	670.602
343.733	553.742
348.554	761.09
353.372	946.812
358.187	1154.19
363	1438.36
367.81	1565.3
372.617	1638.08
377.421	1914.32
382.223	2049.32
387.022	1469.94
391.818	1375.16
396.611	1156.88
401.401	1108.26
406.189	845.75
410.974	1066.67
415.756	1260.06
420.536	1478.94
425.312	1707.54
430.086	2086.04
434.858	1978.75
439.626	1422.84
444.392	920.519
449.155	784.793
453.915	161.672
458.672	107.465
463.427	7.48438
468.179	228.629
472.928	412.031
477.675	251.394
482.419	368.578
487.16	495.969
491.898	1217.1
496.634	2219.1
501.367	2658.7
506.097	3635.02
510.825	4139.04
515.549	4918.77
520.271	5456.22
524.991	6675.37
529.707	7597.22
534.421	7629.89
539.132	7509.02
543.841	6595
548.547	5933.69
553.25	5312.28
557.95	4611.12
562.648	4148.66
567.343	3522.27
572.035	2974.32
576.724	1889.41
581.411	1463.45
586.095	587.359
590.777	276.988
595.456	129.383
600.132	117.625
604.805	193.738
609.476	187.609
614.144	41.3555
618.809	615.231
623.472	778.461
628.132	1221.38
632.789	1524.02
637.444	2067.37
642.096	2565.76
646.745	3116.08
651.392	3409.41
656.036	5143.36
660.677	5387.92
665.316	4634.06
669.952	4086.77
674.585	3426.03
679.216	3124.82
683.844	3262.12
688.469	2633.17
693.092	1798.06
697.712	1244.63
702.329	1767.1
706.944	1863.78
711.556	2507.35
716.166	3477.32
720.773	4329.03
725.377	4720.78
729.978	5153.32
734.577	5683.07
739.173	5132.91
743.767	4894.28
748.358	4034.73
752.946	3213.31
757.532	2234.8
762.115	2080.36
766.695	2094.91
771.273	2630.27
775.848	2437.64
780.421	2570.77
784.991	2335.62
789.558	1882.58
794.123	1621.46
798.685	1359.41
803.245	1167.03
807.802	1092.29
812.356	616.199
816.907	531.723
821.456	317.852
826.003	59.4453
830.547	26.8281
835.088	177.731
839.627	106.535
844.163	389.66
848.696	47.6719
853.227	255.734
857.755	219.231
862.281	63.9766
866.804	380.055
871.324	465.512
875.842	782.531
880.357	833.754
884.87	825.512
889.38	1139.49
893.888	1279.02
898.393	1230.08
902.895	1662.25
907.395	1546.34
911.892	1931.77
916.387	2238.89
920.879	2294.62
925.368	2072.94
929.855	2702.83
934.339	2485.55
938.821	2774.97
943.301	3025.98
947.777	2722.72
952.251	2903.02
956.723	3377.91
961.192	3419.45
965.658	3009.7
970.122	3262.84
974.583	3524.97
979.042	3320.25
983.498	3584.77
987.952	3670.31
992.403	3946.08
996.852	4465.14
1001.3	4375.22
1005.74	4576.17
1010.18	4830.22
1014.62	4845.52
1019.06	4969
1023.49	4424.35
1027.92	4330.76
1032.35	4076.89
1036.78	3812.44
1041.2	3934.29
1045.62	3563.61
1050.04	3205.45
1054.45	3250.39
1058.87	2735.94
1063.28	2832.16
1067.68	2723.05
1072.09	2889.74
1076.49	2411.5
1080.89	2549.65
1085.29	2264.8
1089.69	2044.91
1094.08	1698.43
1098.47	1342.23
1102.86	1320.45
1107.24	790.012
1111.63	655.949
1116.01	395.977
1120.38	485.434
1124.76	436.801
1129.13	403.641
1133.5	30.5508
1137.87	222.215
1142.24	100.906
1146.6	42.9844
1150.96	143.617
1155.32	18.7227
1159.67	42.8828
1164.03	84.1602
1168.38	216.59
1172.72	104.289
1177.07	99.5039
1181.41	566.93
1185.75	111.086
1190.09	295.465
1194.43	238.356
1198.76	5.97266
1203.09	189.719
1207.42	142.106
1211.75	170.992
1216.07	234.914
1220.39	249.566
1224.71	152.848
1229.02	163.742
1233.34	229.344
1237.65	88.7461
1241.96	117.231
1246.26	468.227
1250.57	426.414
1254.87	284.957
1259.17	54.8398
1263.46	277.598
1267.76	469.93
1272.05	170.84
1276.34	353.512
1280.62	405.027
1284.91	378.856
1289.19	311.332
1293.47	308.352
1297.74	35.418
1302.02	401.816
1306.29	369.363
1310.56	116.086
1314.83	326.281
1319.09	49.3789
1323.35	70.7227
1327.61	281.894
1331.87	485.894
1336.12	449.359
1340.38	345.098
1344.63	252.023
1348.87	152.012
1353.12	210.106
1357.36	178.074
1361.6	348.559
1365.84	79.5352
1370.08	219.629
1374.31	454.012
1378.54	255.957
1382.77	189.336
1386.99	283.656
1391.22	138.106
1395.44	255.008
1399.66	247.57
1403.87	94.5938
1408.09	14.9062
1412.3	118.777
1416.51	139.992
1420.71	214.312
1424.92	369.606
1429.12	307.414
1433.32	201.535
1437.51	419.082
1441.71	392.941
1445.9	322.602
1450.09	339.332
1454.28	238.973
1458.46	203.316
1462.65	553.812
1466.83	146.32
1471	524.129
1475.18	212.113
1479.35	749.762
1483.52	88.0117
1487.69	359.441
1491.86	346.016
1496.02	470.004
1500.18	614.16
1504.34	433.285
1508.5	230.449
1512.65	394.394
1516.8	338.273
1520.95	465.469
1525.1	151.18
1529.24	494.691
1533.39	330.184
1537.53	336.703
1541.66	513.359
1545.8	508.164
1549.93	549.137
1554.06	313.387
1558.19	499.598
1562.32	407.398
1566.44	275.344
1570.56	0
