Measurement: Raman, 514 nm, depolarized, Raman Data Processed
Mineral: Magnetite
Rruff sample: R060191
Ideal chemistry: Fe^2+^Fe^3+^_2_O_4_
Locality: Merrry Widow mine, Vancouver Island, British Columbia, Canada
Source: Lloyd Twaites
Description: Grayish-black octahedral crystals
Measured chemistry: (Fe^2+^_0.97_Mg_0.03_)(Fe^3+^_0.97_Al_0.03_)_2_O_4_
Pin_id: M01451
Orientation: Laser parallel to -a* (-1 0 0). Fiducial mark perpendicular to laser is parallel to -c [0 0 -1]
Raman shift (cm-1)	intensity
126.529	0
131.464	702.598
136.395	375.492
141.324	900.176
146.251	511.961
151.175	1038.07
156.096	842.418
161.015	389.723
165.931	541.836
170.844	1012.21
175.755	765.793
180.663	683.984
185.569	1390.78
190.472	2347.8
195.373	2600.2
200.27	2512.97
205.166	1111.93
210.058	688.465
214.948	334.82
219.836	580.535
224.721	315.516
229.603	105.91
234.482	184.023
239.359	70.4766
244.234	199.715
249.106	194.324
253.975	36.4102
258.841	1540.97
263.705	152.496
268.567	333.938
273.425	341.723
278.281	661.121
283.135	955.785
287.986	1345.09
292.834	1579.43
297.68	1857.22
302.523	1884.52
307.363	1842.5
312.201	1773.04
317.037	1824.39
321.869	1569.19
326.699	1098.01
331.527	940.129
336.351	839.426
341.174	635.363
345.993	644.188
350.81	743.844
355.625	546.008
360.436	73.3867
365.245	28.7031
370.052	233.332
374.856	105.117
379.657	74.4062
384.456	13.7734
389.252	189.707
394.045	279.266
398.836	256.062
403.625	143.977
408.41	8.61328
413.193	46.0547
417.974	307.469
422.751	486.75
427.527	183.543
432.299	243.258
437.069	321.219
441.836	146.559
446.601	549.602
451.363	486.82
456.123	592.516
460.88	729.027
465.634	554.66
470.386	587.609
475.135	772.027
479.881	881.981
484.625	1259.6
489.366	1601.94
494.105	1774.97
498.84	2067.84
503.574	2609.24
508.305	2304.15
513.033	3171.93
517.758	3405.08
522.481	3965.14
527.201	4736.29
531.919	4894.68
536.634	5160.88
541.346	5925.84
546.056	5805.5
550.763	6148.77
555.468	6407.26
560.17	5951.41
564.869	6202.22
569.566	5845.12
574.26	5374.78
578.952	4436.56
583.641	2810.35
588.327	1983.28
593.011	1910.55
597.692	1831.12
602.37	2205.94
607.046	2373.69
611.719	2794.88
616.39	3493.92
621.058	4270.59
625.723	5131.92
630.386	6119.8
635.046	7322.21
639.703	9042.39
644.358	12695.7
649.01	14388.4
653.66	17894.1
658.307	21467
662.951	25447
667.593	28001.9
672.232	28789.4
676.869	27151.9
681.503	24130.7
686.134	20472
690.763	16509.7
695.389	13305.6
700.013	10646
704.633	8624.5
709.252	6387.03
713.867	4977.09
718.48	4104.74
723.091	3197.73
727.698	2514.04
732.304	1606.21
736.906	1603.29
741.506	1165.37
746.103	870.59
750.698	990.387
755.29	259.754
759.88	199.531
764.467	156.879
769.051	117.625
773.632	176.512
778.211	98.4492
782.788	63.2148
787.362	131.898
791.933	1.92578
796.501	192.16
801.067	128.613
805.631	277.781
810.191	119.535
814.749	147.707
819.305	115.922
823.858	25.2188
828.408	12.1367
832.956	137.273
837.501	14.6445
842.043	25.5977
846.583	273.086
851.12	383.293
855.654	319.586
860.186	23.082
864.716	280.363
869.242	402.828
873.766	137.445
878.288	410.32
882.807	538.617
887.323	582.332
891.837	548.539
896.348	748.231
900.856	653.984
905.362	665.031
909.865	471.231
914.366	594.984
918.864	686.457
923.359	654.121
927.852	636.727
932.342	695.066
936.829	663.512
941.314	816.578
945.796	696.082
950.276	708.012
954.753	788.269
959.228	796.188
963.699	839.926
968.169	854.539
972.635	851.871
977.099	1006.88
981.56	828.555
986.019	555.652
990.475	732.613
994.929	958.992
999.38	780.121
1003.83	821.488
1008.27	739.621
1012.72	983.981
1017.16	713.012
1021.6	1069.5
1026.03	652.219
1030.46	1010.92
1034.89	828.207
1039.32	995.551
1043.74	1187.2
1048.17	1090.71
1052.59	1219.3
1057	1336.93
1061.42	1425.07
1065.83	1118.7
1070.24	1072.86
1074.65	1249.08
1079.05	1347.5
1083.45	1321.3
1087.85	1447.57
1092.25	1198.31
1096.64	1232.38
1101.03	1170.71
1105.42	1148.66
1109.8	1097.98
1114.19	984.441
1118.57	615.531
1122.95	1050.84
1127.32	851.555
1131.69	776.875
1136.06	771.359
1140.43	477.246
1144.8	501.242
1149.16	365.535
1153.52	299.043
1157.87	317.898
1162.23	215.117
1166.58	317.832
1170.93	198.016
1175.28	202.773
1179.62	44.4805
1183.96	356.344
1188.3	194.102
1192.64	179.074
1196.97	158.258
1201.3	153.648
1205.63	116.211
1209.95	265.129
1214.28	235.297
1218.6	109.168
1222.92	13.9336
1227.23	75.1914
1231.55	30.9727
1235.86	12.2656
1240.16	187.254
1244.47	54.8555
1248.77	176.625
1253.07	31.4805
1257.37	215.551
1261.66	497.531
1265.95	224.531
1270.24	540.559
1274.53	470.699
1278.81	236.969
1283.09	318.359
1287.37	515.879
1291.65	376.547
1295.92	502.332
1300.19	161.398
1304.46	236.832
1308.73	517.438
1312.99	565.938
1317.25	679.391
1321.51	791.273
1325.77	419.523
1330.02	406.883
1334.27	410.711
1338.52	435.574
1342.76	453.207
1347	335.184
1351.24	461.945
1355.48	491.144
1359.72	167.516
1363.95	307.199
1368.18	804.309
1372.4	375.231
1376.63	299.426
1380.85	138.977
1385.07	311.879
1389.29	212.172
1393.5	97.8516
1397.71	357.066
1401.92	373.867
1406.13	161.648
1410.33	284.836
1414.53	133.367
1418.73	184.836
1422.92	312.176
1427.12	454.719
1431.31	147.508
1435.5	50.707
1439.68	95.0508
1443.87	344.828
1448.05	373.074
1452.22	456.949
1456.4	147.551
1460.57	270.148
1464.74	294.727
1468.91	524.844
1473.07	532.695
1477.23	595.574
1481.39	314.035
1485.55	144.859
1489.7	564.93
1493.86	260.914
1498.01	58.9336
1502.15	43.9375
1506.3	306.91
1510.44	112.672
1514.58	219.258
1518.71	230.91
1522.85	469.461
1526.98	199.609
1531.11	81.25
1535.23	282.969
1539.35	167.867
1543.47	262.293
