Measurement: Raman, 514 nm, ccw, Raman Data Processed
Mineral: Magnesio-hastingsite
Rruff sample: R070288
Ideal chemistry: NaCa_2_(Mg_4_Fe^3+^)Si_6_Al_2_O_22_(OH)_2_
Locality: Dallas Gem Mine (Gem Mine; Benitoite Mine), New Idria District, San Benito County, California, USA
Source: Michael Scott
Description: Dark brown to black prismatic crystals frozen in albite
Measured chemistry: (Na_0.51_[box]_0.33_K_0.16_)_Σ=1_(Ca_1.75_Na_0.25_)_Σ=2_(Mg_3.02_Fe^2+^_0.61_Ti_0.37_)_Σ=4_(Fe^3+^_0.73_Al_0.27_)_Σ=1_Si_5.84_Al_2.16_O_22_(OH)_2_; (OH) estimated by difference
Pin_id: M01310
Orientation: Laser parallel to c* (0 0 1). Fiducial mark perpendicular to laser is parallel to a [1 0 0]
Raman shift (cm-1)	intensity
87.632	0
92.595	496.548
97.554	178.794
102.511	80.0469
107.465	845.366
112.417	1361.03
117.365	2969.29
122.311	2676.01
127.254	1046.81
132.195	654.069
137.132	381.875
142.067	429.347
146.999	973.956
151.928	2536.95
156.855	6495.82
161.778	12107.8
166.699	10836.8
171.618	7000.3
176.533	5141.76
181.446	5191.95
186.356	5581.95
191.263	5485.09
196.167	5234.34
201.069	5382.35
205.968	6521.15
210.864	9761.61
215.757	16061.7
220.648	24438.2
225.536	29527.8
230.421	23133.3
235.304	13154.9
240.183	7461.06
245.06	4949.27
249.934	3482.75
254.806	2694.84
259.675	1711.86
264.541	1457.25
269.404	1192.59
274.265	1036.53
279.122	1071.84
283.977	1498.3
288.83	1972.63
293.679	2926.47
298.526	3243.4
303.371	3578.47
308.212	3713.42
313.051	3780.89
317.887	4053.29
322.72	4061.23
327.551	4037.45
332.379	3437.94
337.204	3283.57
342.026	2846.64
346.846	2684.32
351.663	2365.53
356.477	2231.21
361.289	2422.41
366.098	2546.66
370.904	2732.32
375.707	2775.19
380.508	2900.23
385.306	2645.75
390.101	2468.89
394.894	1992.77
399.684	1453.29
404.471	1304.16
409.256	1131.32
414.038	889.664
418.817	658.133
423.593	381.653
428.367	42.8359
433.138	144.605
437.907	305.47
442.672	278.223
447.435	170.605
452.196	129.852
456.953	143.33
461.708	269.41
466.461	390.876
471.21	365.788
475.957	344.207
480.702	429.634
485.443	569.145
490.182	712.717
494.918	810.325
499.652	1158.95
504.383	1395.85
509.111	1563.17
513.837	1768.73
518.56	2154.24
523.28	2325.69
527.997	2812.06
532.712	3148.34
537.425	3136.5
542.134	3199.53
546.841	3015.4
551.545	3049.12
556.247	2956.68
560.946	2817.06
565.642	2709.27
570.336	2709.4
575.027	2023.46
579.715	1094.26
584.401	347.096
589.084	162.72
593.764	325.476
598.442	320.727
603.117	200.5
607.79	129.11
612.459	813.327
617.127	1448.14
621.791	2444.53
626.453	4028.14
631.112	6258.01
635.769	9183.16
640.423	12761.6
645.074	16652
649.723	20190.7
654.369	22903.4
659.013	25525.5
663.653	26654.2
668.292	24435.4
672.927	19387.2
677.56	14382.6
682.19	11475.8
686.818	10002.7
691.443	8028.33
696.066	6263.02
700.686	3772.72
705.303	2513.33
709.917	1789.66
714.529	1479.09
719.139	976.689
723.746	999.891
728.35	958.811
732.951	906.607
737.55	688.477
742.147	572.948
746.74	527.364
751.331	504.789
755.92	632.77
760.506	666.59
765.089	1099.26
769.67	1410.83
774.248	2362.34
778.824	2696.84
783.397	3619.37
787.967	4304.96
792.535	4944.66
797.1	4922.5
801.662	4998.51
806.222	4853.53
810.78	4338.18
815.334	4652.9
819.887	4554.91
824.436	4397.24
828.983	4042.92
833.528	3418.96
838.07	2534.39
842.609	1487.23
847.146	785.489
851.68	265.19
856.211	213.657
860.74	202.561
865.267	349.446
869.79	246.252
874.312	129.672
878.83	382.179
883.346	1036.91
887.86	1505.89
892.371	2234.75
896.879	2770.4
901.385	3183.79
905.889	3540.01
910.389	3608.19
914.887	3437.92
919.383	2897.17
923.876	2495.94
928.367	2143.16
932.854	1957.79
937.34	2114.79
941.823	2298.06
946.303	2440.59
950.781	2776.36
955.256	3046.3
959.728	3564.4
964.199	3797.6
968.666	4034.87
973.131	4366.17
977.593	4790.44
982.053	5164.65
986.511	5751.76
990.966	6427.83
995.418	7339.6
999.868	8974.05
1004.32	10287.5
1008.76	11549.1
1013.2	11801.7
1017.64	11557.9
1022.08	10729.7
1026.51	9751.14
1030.94	8861.28
1035.37	8162.83
1039.8	7191.33
1044.22	6546.9
1048.65	6182.15
1053.07	5533.31
1057.48	4773.81
1061.9	4108.6
1066.31	3335.06
1070.72	2701.48
1075.13	2181.66
1079.53	1813.94
1083.93	1467.25
1088.33	1153.71
1092.73	944.687
1097.12	747.12
1101.51	541.442
1105.9	461.109
1110.29	280.079
1114.67	172.673
1119.06	15.2026
1123.43	11.9658
1127.81	3.18115
1132.18	2.36719
1136.56	2.35498
1140.93	103.044
1145.29	45.3306
1149.66	47.0806
1154.02	67.791
1158.38	55.3091
1162.73	85.5693
1167.09	13.2549
1171.44	54.3447
1175.79	158.475
1180.14	61.6631
1184.48	13.9839
1188.82	28.8032
1193.16	131.195
1197.5	147.194
1201.83	347.899
1206.16	259.561
1210.49	227.708
1214.82	307.856
1219.14	270.519
1223.47	247.909
1227.79	429.056
1232.1	374.053
1236.42	427.798
1240.73	406.377
1245.04	531.799
1249.35	466.274
1253.65	471.519
1257.95	467.066
1262.25	416.381
1266.55	375.548
1270.84	374.299
1275.13	362.332
1279.42	338.633
1283.71	344.774
1288	366.72
1292.28	359.632
1296.56	245.49
1300.84	355.378
1305.11	193.844
1309.38	306.483
1313.65	415.473
1317.92	379.85
1322.19	314.16
1326.45	165.682
1330.71	112.565
1334.97	226.407
1339.22	156.343
1343.48	226.269
1347.73	277.47
1351.97	201.86
1356.22	185.723
1360.46	188.163
1364.7	265.45
1368.94	237.149
1373.18	33.5884
1377.41	204.813
1381.64	198.884
1385.87	113.943
1390.1	156.231
1394.32	15.8467
1398.54	102.889
1402.76	96.9453
1406.98	97.9072
1411.19	68.5684
1415.4	70.7266
1419.61	112.079
1423.82	80.978
1428.02	78.1187
1432.23	100.286
1436.42	84.0513
1440.62	92.8433
1444.82	75.4204
1449.01	82.2124
1453.2	80.4102
1457.39	55.6309
1461.57	146.462
1465.75	77.7134
1469.93	30.3008
1474.11	124.186
1478.29	54.083
1482.46	136.685
1486.63	108.527
1490.8	119.395
1494.96	123.746
1499.13	48.6089
1503.29	82.1089
1507.45	68.4048
1511.6	30.9863
1515.76	10.8481
1519.91	45.0386
1524.06	3.75147
1528.2	154.955
1532.35	9.78809
1536.49	136.242
1540.63	47.4048
1544.77	86.751
1548.9	141.096
1553.03	89.6846
1557.16	109.96
1561.29	79.3227
1565.41	111.911
1569.54	156.032
1573.66	118.087
1577.77	0
