Measurement: Raman, 514 nm, ccw, Raman Data Processed
Mineral: Magnesioferrite
Rruff sample: R060869
Ideal chemistry: MgFe^3+^_2_O_4_
Locality: Langban, Filipstad, Varmland, Sweden
Source: Michael Scott
Description: Black semimetallic massive
Measured chemistry: (Mg_0.67_Mn^2+^_0.30_Fe^2+^_0.03_)_Σ=1_(Fe^3+^_1.97_Al_0.03_)_Σ=2_O_4_
Pin_id: L00748
Orientation: Laser parallel to a* (1 0 0). Fiducial mark perpendicular to laser is parallel to b [0 1 0]
Raman shift (cm-1)	intensity
126.558	0
131.492	34.3955
136.423	550.611
141.352	380.861
146.277	741.932
151.2	428.727
156.121	287.678
161.038	690.492
165.953	616.784
170.865	431.167
175.774	865.812
180.681	1038.01
185.585	1095.12
190.486	1321.5
195.384	1393.65
200.28	1360.61
205.173	1094.78
210.063	778.448
214.95	586.424
219.835	581.167
224.717	370.58
229.597	44.0068
234.473	40.5566
239.347	47.9883
244.218	63.3613
249.087	206.118
253.953	70.4014
258.816	32.6191
263.676	9.69824
268.534	86.3389
273.389	65.5195
278.241	93.6201
283.091	118.487
287.938	319.321
292.782	273.813
297.623	227.137
302.462	439.831
307.298	773.686
312.131	844.641
316.962	1052.81
321.79	1461.29
326.615	1845.69
331.438	1959.27
336.258	2265.83
341.075	2387.89
345.889	2236.47
350.701	1837.27
355.51	1777.6
360.317	1368.78
365.12	1339.04
369.921	1032.72
374.72	802.231
379.515	708.729
384.309	577.256
389.099	409.812
393.886	218.851
398.671	313.367
403.454	134.356
408.233	14.2559
413.01	112.689
417.785	54.4629
422.556	100.7
427.325	67.3193
432.091	63.3877
436.855	13.6855
441.616	233.191
446.374	70.2451
451.13	140.054
455.883	85.2598
460.633	108.474
465.38	210.764
470.125	407.198
474.868	420.857
479.607	586.827
484.344	757.178
489.078	779.965
493.81	1020.24
498.539	1027.05
503.265	1156.43
507.989	1136.48
512.71	1147.44
517.428	1240.64
522.144	1703
526.857	1811.73
531.567	1859.94
536.275	1973.66
540.98	2422.64
545.683	2540.06
550.383	3142.15
555.08	3766.76
559.774	4057.65
564.466	4343.12
569.155	5106.08
573.842	6098.71
578.526	7106.73
583.207	8295.53
587.886	10084.3
592.562	13121.7
597.235	16939.5
601.906	22916.2
606.574	26688
611.24	31127.7
615.903	33827.2
620.563	33869.4
625.221	32052.4
629.876	28577.1
634.528	24265.2
639.178	20366.2
643.825	16702.4
648.47	13942.1
653.112	12326.2
657.751	10899.7
662.388	9840.21
667.022	9123.23
671.653	8398.03
676.282	7719.18
680.908	7204.02
685.532	6798.81
690.153	6331.15
694.771	6189.64
699.387	5862.67
704	5382.85
708.61	4942.22
713.218	4286.57
717.824	3562.61
722.426	2974.07
727.026	2442.58
731.624	1816.41
736.219	1546.59
740.811	1093.31
745.401	1018.79
749.988	621.964
754.572	500.568
759.154	341.315
763.734	127.216
768.31	175.522
772.884	43.6299
777.456	7.81738
782.025	23.2949
786.591	18.8418
791.155	9.87988
795.716	55.6914
800.275	121.685
804.831	60.1445
809.384	38.0586
813.935	3.1084
818.483	12.1895
823.029	119.059
827.572	44.8935
832.112	22.7021
836.65	2.66113
841.186	60.2676
845.718	32.1826
850.249	63.5742
854.776	9.45117
859.301	43.8467
863.824	50.6738
868.344	50.7783
872.861	175.174
877.376	11.0527
881.888	72.0127
886.397	172.987
890.904	146.93
895.409	191.394
899.911	356.382
904.41	306.038
908.907	321.398
913.401	250.264
917.893	360.933
922.382	240.385
926.869	319.885
931.353	381.956
935.834	365.886
940.313	344.55
944.789	411.982
949.263	359.81
953.734	307.438
958.203	223.203
962.669	189.582
967.133	188.892
971.594	255.94
976.052	212.242
980.508	224.736
984.961	274.797
989.412	232.171
993.861	143.951
998.306	410.146
1002.75	328.419
1007.19	271.029
1011.63	175.227
1016.06	381.679
1020.5	112.581
1024.93	281.945
1029.36	191.769
1033.78	183.596
1038.2	251.715
1042.62	95.4648
1047.04	293.765
1051.46	49.7373
1055.87	407.001
1060.28	137.753
1064.69	211.852
1069.09	256.008
1073.5	150.606
1077.9	338.438
1082.29	370.864
1086.69	123.61
1091.08	111.98
1095.47	135.102
1099.86	120.035
1104.24	105.63
1108.63	18.9561
1113.01	61.9307
1117.38	3.46875
1121.76	49.7353
1126.13	185.56
1130.5	57.8926
1134.87	15.3135
1139.23	15.2764
1143.6	3.0918
1147.96	101.288
1152.32	78.8037
1156.67	79.6269
1161.02	119.233
1165.37	218.596
1169.72	146.666
1174.07	423.507
1178.41	480.949
1182.75	542.287
1187.08	493.345
1191.42	544.128
1195.75	896.862
1200.08	790.099
1204.41	783.954
1208.73	875.677
1213.06	895.329
1217.38	1259.86
1221.69	1084.12
1226.01	943.379
1230.32	997.13
1234.63	1164.61
1238.94	962.919
1243.24	966.04
1247.55	971.793
1251.85	857.523
1256.14	935.153
1260.44	904.895
1264.73	866.734
1269.02	578.922
1273.31	574.909
1277.6	724.684
1281.88	687.176
1286.16	481.859
1290.44	615.251
1294.71	682.081
1298.98	560.055
1303.26	675.958
1307.52	600.727
1311.79	595.828
1316.05	562.742
1320.31	430.511
1324.57	453.044
1328.83	451.003
1333.08	381.461
1337.33	381.671
1341.58	525.677
1345.82	352.226
1350.07	265.094
1354.31	201.822
1358.55	195.575
1362.78	378.337
1367.02	436.574
1371.25	299.614
1375.48	366.749
1379.7	301.392
1383.92	387.365
1388.15	119.439
1392.37	403.531
1396.58	261.994
1400.8	16.373
1405.01	307.935
1409.22	163.774
1413.42	68.8144
1417.63	30.5205
1421.83	79.3037
1426.03	17.8291
1430.22	65.7881
1434.42	196.19
1438.61	97.6758
1442.8	254.48
1446.99	12.1865
1451.17	47.7852
1455.35	108.158
1459.53	100.378
1463.71	109.439
1467.89	98.1992
1472.06	14.2451
1476.23	43.5527
1480.4	53.1465
1484.56	38.8447
1488.72	54.3906
1492.88	7.44238
1497.04	73.8857
1501.2	9.33301
1505.35	19.4736
1509.5	111.481
1513.65	101.031
1517.8	329.84
1521.94	265.11
1526.08	139.279
1530.22	247.691
1534.36	217.175
1538.49	279.129
1542.62	194.316
1546.75	0.571289
1550.88	204.643
1555	240.358
1559.12	15.7383
1563.24	64.7715
1567.36	210.453
1571.47	151.099
1575.58	29.3779
