Measurement: Raman, 514 nm, depolarized, Raman Data Processed
Mineral: Magnesio-hastingsite
Rruff sample: R040010
Ideal chemistry: NaCa_2_(Mg_4_Fe^3+^)Si_6_Al_2_O_22_(OH)_2_
Locality: Amity, New York, USA
Source: University of Arizona Mineral Museum
Description: Group of black prismatic crystals
Measured chemistry: (Na_0.50_K_0.43_[box]_0.07_)_Σ=1_(Ca_1.77_Na_0.23_)_Σ=2_(Mg_1.74_Fe_1.22_Fe^3+^_0.79_Mn_0.57_Al_0.30_Zn_0.25_Ti_0.13_)_Σ=5_(Si_5.95_Al_2.05_)_Σ=8_O_22_((OH)_1.75_F_0.22_Cl_0.03_)_Σ=2_; OH estimated by charge balance
Pin_id: L00491
Orientation: Laser parallel to [1 0 1]. Fiducial mark perpendicular to laser is parallel to b* (0 1 0)
Raman shift (cm-1)	intensity
162.156	0
167.082	12.4922
172.005	340.006
176.925	670.613
181.842	1204.03
186.757	1432.95
191.668	1263.39
196.577	1407.52
201.483	1943.38
206.386	159.393
211.286	727.18
216.183	3004.6
221.078	3935.45
225.969	3430.26
230.858	2277.28
235.744	1280.33
240.628	556.646
245.508	338.973
250.386	57.8105
255.26	24.7168
260.132	86.791
265.001	8.16406
269.868	9.5918
274.731	204.279
279.592	849.545
284.45	882.656
289.305	949.797
294.157	1262.79
299.007	766.391
303.854	472.574
308.698	428.565
313.539	174.023
318.377	184.606
323.213	89.4805
328.046	397.758
332.876	555.986
337.703	489.408
342.527	669.061
347.349	768.957
352.168	967.531
356.984	1606.44
361.797	2007.71
366.608	2224.37
371.415	1950.43
376.22	1706.84
381.023	1706.58
385.822	1552.64
390.619	1086.97
395.413	908.902
400.204	503.859
404.992	486.336
409.778	772.816
414.561	482.926
419.341	941.523
424.118	1492.15
428.893	1850.96
433.665	1664.98
438.434	1303.25
443.201	1164.75
447.964	693.535
452.725	454.309
457.483	129.785
462.239	209.625
466.991	6.96094
471.741	116.891
476.489	104.356
481.233	530.289
485.975	804.125
490.714	1666.86
495.45	2261.48
500.184	3273.02
504.915	3742.48
509.643	4217.88
514.368	4785.82
519.091	5594.55
523.811	6319.78
528.528	7050.94
533.243	7116.01
537.955	6625.99
542.664	5966.01
547.37	5357.09
552.074	5042.32
556.775	4206.31
561.473	3791.57
566.169	3206.37
570.862	2610.5
575.552	1687.06
580.24	925.898
584.925	577.652
589.607	357.211
594.286	133.512
598.963	158.547
603.637	245.043
608.309	54.1055
612.977	158.492
617.643	171.59
622.307	383.586
626.967	1001.15
631.625	1396.11
636.281	2136.85
640.933	2662.38
645.583	2971.7
650.231	3696.78
654.875	4346.66
659.517	4723.32
664.157	4736.75
668.793	3977.97
673.427	4076.97
678.059	3308.75
682.687	2915.31
687.313	2382.65
691.937	1665.48
696.557	1317.03
701.175	1818.59
705.791	2562.02
710.403	2808.13
715.014	3430.4
719.621	4239.72
724.226	4503.42
728.828	4974.66
733.428	5012.1
738.025	5011.06
742.619	4236.57
747.21	3586.22
751.799	2804.63
756.386	2442.05
760.969	2026.85
765.551	1628.48
770.129	2129.96
774.705	1807.29
779.278	1728.49
783.849	1854.56
788.417	1465.53
792.982	1336.41
797.545	1181.21
802.105	1015.95
806.663	916.625
811.217	701.266
815.77	649.871
820.319	134.461
824.867	39.9648
829.411	185.363
833.953	391.91
838.492	57.1367
843.029	111.453
847.563	196.301
852.094	307.769
856.623	204.949
861.15	102.75
865.673	235.668
870.194	580.824
874.713	459.816
879.229	658.684
883.742	814.84
888.253	593.891
892.761	593.504
897.267	415.559
901.77	767.938
906.27	1011.67
910.768	1007.66
915.263	1038.16
919.756	981.352
924.246	1170.93
928.734	1364.23
933.219	1231.97
937.701	1499.1
942.181	1600.68
946.658	1804.82
951.133	1885.29
955.605	2022.77
960.075	2129.69
964.542	2358.95
969.006	2538.83
973.468	2831.35
977.928	3028.47
982.385	3024.57
986.839	3431.9
991.291	3780.66
995.74	4157.39
1000.19	4342.69
1004.63	4476.56
1009.07	4774.4
1013.51	4918.82
1017.95	4854.92
1022.38	4705.85
1026.81	4603.14
1031.24	3953.71
1035.67	4075.9
1040.09	3780.21
1044.51	3468.39
1048.93	3371.32
1053.35	3103.08
1057.76	3092.86
1062.17	2831.95
1066.58	2576.89
1070.99	2659.51
1075.39	2763.69
1079.79	2647.38
1084.19	2431.64
1088.59	2203.08
1092.98	1863.91
1097.37	1594.28
1101.76	1430.55
1106.15	1339.23
1110.53	1151.88
1114.91	837.402
1119.29	872.644
1123.67	770.203
1128.04	684.391
1132.41	257.289
1136.78	224.742
1141.15	165.019
1145.51	11.4531
1149.87	45.7266
1154.23	210.508
1158.59	57.25
1162.94	245.527
1167.29	95.0352
1171.64	12.3086
1175.98	214.609
1180.33	211.957
1184.67	68.2188
1189.01	120.602
1193.34	197.035
1197.68	235.402
1202.01	421.508
1206.34	32.8828
1210.66	282.047
1214.99	228.113
1219.31	225.57
1223.63	316.914
1227.94	453.516
1232.26	356.434
1236.57	662.148
1240.88	344.719
1245.19	423.445
1249.49	461.176
1253.79	238.684
1258.09	142.418
1262.39	366.012
1266.68	326.457
1270.97	336.211
1275.26	314.637
1279.55	113.629
1283.84	419.019
1288.12	313.566
1292.4	161.484
1296.67	131.805
1300.95	562.82
1305.22	251.914
1309.49	267.758
1313.76	221.731
1318.03	195.348
1322.29	181.871
1326.55	54.9961
1330.81	277.043
1335.06	336.301
1339.31	400.816
1343.56	426.238
1347.81	98.7617
1352.06	294.102
1356.3	31.918
1360.54	543.363
1364.78	90.8633
1369.02	44.1797
1373.25	431.07
1377.48	94.2383
1381.71	143.586
1385.94	197.254
1390.16	193.164
1394.38	164.238
1398.6	171.168
1402.82	363.359
1407.03	141.289
1411.24	214.656
1415.45	204.785
1419.66	99.1211
1423.87	415.039
1428.07	107.231
1432.27	355.883
1436.46	84.4727
1440.66	143.055
1444.85	5.49219
1449.04	393.809
1453.23	195.715
1457.42	651.039
1461.6	390.672
1465.78	107.934
1469.96	287.481
1474.14	355.199
1478.31	229.734
1482.48	193.918
1486.65	283.289
1490.82	265.086
1494.98	353.758
1499.14	115.562
1503.3	270.344
1507.46	335.199
1511.61	412.988
1515.77	597.938
1519.92	268.445
1524.06	153.309
1528.21	850.168
1532.35	273.902
1536.49	221.926
1540.63	389.734
1544.77	398.953
1548.9	355.574
1553.03	185.617
1557.16	370.359
1561.29	422.957
1565.41	193.406
1569.53	3.05078
