Measurement: Raman, 514 nm, depolarized, Raman Data Processed
Mineral: Magnesite
Rruff sample: R040114
Ideal chemistry: MgCO_3_
Locality: Snarum, Norway
Source: University of Arizona Mineral Museum
Description: Tan colored cleavage fragment
Measured chemistry: (Mg_0.98_Fe_0.01_)C_1.00_O_3_
Pin_id: L00410
Orientation: Laser parallel to -c* (0 0 -1). Fiducial mark perpendicular to laser is parallel to -a [-1 0 0]
Raman shift (cm-1)	intensity
100.34	0
104.516	77.078
108.691	162.535
112.864	198.73
117.034	437.095
121.203	236.815
125.369	56.977
129.534	108.187
133.696	38.648
137.857	89.699
142.016	71.424
146.172	50.065
150.327	41.34
154.48	128.719
158.63	39.387
162.779	46.336
166.926	93.049
171.07	334.188
175.213	585.059
179.354	452.335
183.493	231.815
187.63	128.855
191.765	96.821
195.898	134.634
200.029	193.779
204.158	604.036
208.285	1823.39
212.41	3814.74
216.533	1843.01
220.654	369.17
224.773	76.175
228.891	48.982
233.006	3.883
237.119	34.802
241.231	9.997
245.34	17.917
249.448	13.937
253.553	1.231
257.657	7.22
261.758	32.62
265.858	3.302
269.956	24.102
274.052	9.786
278.146	68.886
282.237	105.474
286.327	156.12
290.416	234.598
294.502	425.496
298.586	696.312
302.668	591.625
306.749	373.855
310.827	335.94
314.903	323.154
318.978	620.385
323.051	2114.66
327.121	6014
331.19	9278.81
335.257	3136.6
339.322	1227.52
343.385	455.245
347.446	325.383
351.505	244.225
355.563	189.438
359.618	143.47
363.672	136.875
367.723	117.172
371.773	80.358
375.821	102.43
379.866	126.388
383.91	111.234
387.952	86.709
391.992	123.683
396.031	132.533
400.067	44.097
404.101	43.954
408.134	84.997
412.165	31.709
416.193	52.256
420.22	38.056
424.245	56.133
428.268	33.859
432.289	54.637
436.309	12.157
440.326	43.609
444.342	6.025
448.355	4.218
452.367	36.831
456.377	9.931
460.385	46.548
464.391	48.855
468.395	15.323
472.398	43.915
476.398	29.949
480.397	12.056
484.394	59.744
488.389	42.256
492.382	53.68
496.373	80.1
500.362	73.437
504.349	60.612
508.335	52.751
512.319	57.799
516.3	135.74
520.28	185.208
524.259	173.169
528.235	179.533
532.209	140.757
536.182	165.079
540.152	78.275
544.121	92.274
548.088	65.031
552.053	71.165
556.017	67.88
559.978	44.927
563.938	10.444
567.895	49.158
571.851	19.721
575.805	21.369
579.758	52.894
583.708	4.385
587.657	56.102
591.603	3.484
595.548	15.089
599.491	40.454
603.432	44.791
607.372	11.04
611.309	25.162
615.245	11.674
619.179	68.453
623.111	23.609
627.041	38.429
630.97	64.198
634.896	22.68
638.821	24.918
642.744	88.755
646.665	93.021
650.584	67.464
654.502	33.517
658.418	65.697
662.331	84.248
666.244	103.474
670.154	64.427
674.062	86.717
677.969	122.615
681.874	124.473
685.777	143.842
689.678	157.124
693.577	194.816
697.475	190.547
701.371	211.121
705.265	299.286
709.157	353.604
713.047	403.143
716.936	543.274
720.823	924.256
724.708	1292.16
728.591	1824.14
732.472	2538.68
736.352	3410.84
740.23	3424.25
744.106	2518.09
747.98	1521.85
751.853	887.837
755.723	529.656
759.592	336.958
763.459	216.394
767.325	123.859
771.188	111.431
775.05	95.674
778.91	80.206
782.768	18.218
786.625	5.662
790.479	9.661
794.332	8.341
798.183	2.026
802.033	35.593
805.88	56.605
809.726	10.592
813.57	14.663
817.413	15.673
821.253	6.583
825.092	2.461
828.929	33.299
832.764	57.086
836.598	81.841
840.429	25.556
844.259	15.232
848.088	3.869
851.914	15.478
855.739	11.062
859.562	15.61
863.383	28.114
867.203	13.439
871.02	42.964
874.836	48.352
878.65	49.73
882.463	81.097
886.274	30.448
890.083	2.769
893.89	5.041
897.695	76.299
901.499	54.55
905.301	23.786
909.102	36.01
912.9	39.753
916.697	22.564
920.492	43.62
924.285	22.855
928.077	31.032
931.867	38.268
935.655	13.422
939.442	54.375
943.226	71.231
947.009	18.084
950.791	7.196
954.57	104.542
958.348	45.27
962.124	45.332
965.899	34.446
969.671	75.317
973.442	71.44
977.211	53.71
980.979	117.061
984.745	114.591
988.509	159.159
992.271	91.181
996.032	155.237
999.791	195.864
1003.55	171.525
1007.3	134.252
1011.06	162.409
1014.81	153.398
1018.56	201.249
1022.31	251.619
1026.06	237.298
1029.8	287.405
1033.55	372.539
1037.29	362.992
1041.03	451.475
1044.77	511.041
1048.5	590.519
1052.24	743.865
1055.97	943.072
1059.7	1105.56
1063.43	1369.59
1067.16	1866.17
1070.89	2628.71
1074.61	3711.27
1078.34	5514.03
1082.06	8591.89
1085.78	15400.8
1089.5	29261.6
1093.21	47468.2
1096.93	49101.8
1100.64	32857.5
1104.35	19311.1
1108.06	11712.1
1111.77	7008
1115.48	4182.01
1119.18	2491.42
1122.89	2166.76
1126.59	1193.38
1130.29	750.734
1133.99	566.096
1137.68	500.011
1141.38	405.319
1145.07	306.458
1148.76	273.714
1152.45	318.726
1156.14	195.884
1159.83	243.65
1163.51	134.973
1167.19	124.872
1170.88	94.479
1174.56	113.403
1178.23	89.142
1181.91	92.698
1185.59	95.061
1189.26	20.11
1192.93	0.896
1196.6	50.942
1200.27	83.711
1203.94	50.13
1207.6	15.064
1211.27	31.521
1214.93	76.691
1218.59	68.686
1222.25	33.172
1225.9	35.828
1229.56	42.563
1233.21	14.253
1236.86	75.002
1240.51	98.516
1244.16	51.976
1247.81	35.307
1251.45	19.727
1255.1	42.999
1258.74	7.899
1262.38	24.226
1266.02	13.237
1269.66	52.518
1273.29	17.936
1276.93	76.769
1280.56	93.326
1284.19	31.329
1287.82	95.085
1291.45	35.688
1295.07	68.165
1298.7	61.534
1302.32	48.768
1305.94	41.837
1309.56	18.783
1313.18	91.403
1316.8	104.167
1320.41	79.566
1324.02	15.824
1327.63	5.067
1331.24	29.897
1334.85	7.671
1338.46	41.85
1342.06	65.692
1345.67	92.121
1349.27	20.447
1352.87	45.449
1356.47	63.47
1360.07	133.523
1363.66	74.971
1367.25	65.644
1370.85	116.443
1374.44	134.936
1378.03	60.805
1381.61	143.822
1385.2	149.596
1388.78	88.234
1392.37	62.212
1395.95	59.282
1399.53	107.706
1403.1	74.716
1406.68	162.293
1410.26	37.188
1413.83	63.83
1417.4	82.082
1420.97	116.116
1424.54	97.092
1428.1	158.399
1431.67	142.785
1435.23	195.566
1438.8	283.673
1442.36	553.963
1445.91	1259.42
1449.47	1115.22
1453.03	479.731
1456.58	326.025
1460.13	265.793
1463.68	325.767
1467.23	210.617
1470.78	321.266
1474.33	169.26
1477.87	144.895
1481.42	136.41
1484.96	120.37
1488.5	103.373
1492.04	113.677
1495.57	114.691
1499.11	9.296
1502.64	4.589
1506.17	7.888
1509.71	9.071
1513.23	92.099
1516.76	47.844
