Measurement: Raman, 514 nm, ccw, Raman Data Processed
Mineral: Magnesiochromite
Rruff sample: R060796
Ideal chemistry: MgCr^3+^_2_O_4_
Locality: State Line Chrome mine (Low's mine), Cecil County, Maryland, USA
Source: California Institute of Technology
Description: Black massive
Measured chemistry: (Mg_0.57_Fe^2+^_0.43_)_Σ=1_(Cr_1.52_Al_0.41_Fe^3+^_0.07_)_Σ=2_O_4_
Pin_id: L00965
Orientation: Laser parallel to b* (0 1 0). Fiducial mark perpendicular to laser is parallel to c [0 0 1]
Raman shift (cm-1)	intensity
133.958	0
138.888	2.34863
143.815	328.99
148.739	282.949
153.661	400.58
158.58	46.581
163.496	425.335
168.409	296.664
173.32	232.202
178.228	318.368
183.133	347.808
188.035	303.524
192.935	502.736
197.832	420.626
202.727	382.584
207.618	215
212.507	296.802
217.393	473.774
222.277	572.975
227.157	575.177
232.035	639.712
236.911	601.336
241.783	643.184
246.653	613.767
251.52	551.161
256.385	481.359
261.246	468.701
266.105	567.208
270.962	376.337
275.815	166.547
280.666	247.131
285.514	39.8833
290.36	96.5312
295.203	78.5772
300.043	74.4893
304.88	47.1445
309.715	5.48389
314.547	154.567
319.376	91.3696
324.203	50.8804
329.027	88.0498
333.848	27.0405
338.667	36.5791
343.482	103.832
348.296	52.5293
353.106	66.5156
357.914	47.168
362.719	139.156
367.521	14.668
372.321	63.769
377.118	8.43213
381.912	50.8818
386.704	73.168
391.493	48.7402
396.279	109.125
401.063	128.488
405.844	27.3232
410.622	48.335
415.398	79.1055
420.171	15.3096
424.941	54.7798
429.709	108.894
434.473	167.793
439.236	242.617
443.995	294.682
448.752	318.285
453.506	269.478
458.258	261.684
463.007	326.443
467.753	392.894
472.497	511.584
477.238	626.656
481.976	522.516
486.712	402.093
491.445	441.519
496.175	484.755
500.902	677.57
505.627	810.898
510.35	1303.93
515.069	1719.79
519.786	2363.42
524.501	3318.27
529.213	4489.77
533.922	5941.18
538.628	7471.61
543.332	8775.92
548.033	9823.35
552.731	10583.4
557.427	10768.9
562.121	11039.5
566.811	11285.4
571.499	11010.4
576.184	10282.9
580.867	9058.45
585.547	7841.66
590.224	6923.1
594.899	6296.12
599.571	5618.79
604.241	5178.6
608.908	4249.16
613.572	3190.43
618.233	2424.42
622.892	2096.16
627.549	2690.6
632.202	4196.76
636.853	6275.34
641.502	7694.42
646.148	8372.95
650.791	8695.46
655.432	8621.56
660.069	9208.77
664.705	10585.4
669.338	12267.4
673.968	14774.1
678.595	18019
683.22	21104.6
687.842	23400.3
692.462	24550.6
697.079	23379.7
701.694	19927.6
706.305	15807.9
710.915	12047.4
715.521	9098.41
720.125	6650.11
724.727	4955.61
729.325	3561.52
733.922	2686.89
738.515	2103.1
743.106	1323.82
747.695	1296.61
752.28	724.346
756.864	532.846
761.444	517.032
766.022	276.897
770.598	90.4248
775.17	154.307
779.741	101.3
784.308	86.207
788.873	58.8428
793.436	4.42383
797.996	106.348
802.553	46.21
807.108	69.3477
811.66	58.6357
816.209	40.5596
820.756	83.4658
825.301	29.334
829.842	76.3862
834.382	29.0166
838.918	114.922
843.452	18.8706
847.984	30.0322
852.513	119.738
857.039	22.7451
861.563	152.894
866.084	57.8364
870.603	66.915
875.119	82.1753
879.632	112.058
884.143	114.938
888.651	115.87
893.157	164.898
897.66	256.328
902.161	270.141
906.659	128.809
911.154	302.619
915.647	144.931
920.138	320.418
924.626	282.168
929.111	187.275
933.594	233.875
938.074	248.998
942.551	242.872
947.026	180.024
951.499	209.855
955.969	187.914
960.436	216.855
964.901	107.856
969.363	69.8023
973.823	3.79736
978.28	140.65
982.735	39.855
987.187	91.0674
991.637	44.7607
996.084	178.5
1000.53	106.008
1004.97	9.17383
1009.41	13.2881
1013.85	53.3721
1018.28	18.5913
1022.71	22.9116
1027.14	16.1377
1031.57	56.853
1035.99	93.0591
1040.41	63.3931
1044.83	100.005
1049.25	132.853
1053.66	173.132
1058.08	81.1226
1062.48	219.852
1066.89	332.207
1071.3	176.667
1075.7	335.232
1080.1	489.332
1084.49	371.486
1088.89	618.696
1093.28	533.267
1097.67	528.123
1102.05	603.219
1106.44	597.083
1110.82	623.328
1115.2	666.253
1119.57	769.31
1123.95	670.141
1128.32	701.115
1132.69	708.004
1137.05	606.779
1141.42	581.133
1145.78	568.474
1150.14	492.036
1154.49	445.762
1158.85	337.087
1163.2	452.734
1167.55	310.478
1171.89	314.513
1176.24	284.925
1180.58	262.971
1184.92	122.611
1189.25	128.875
1193.59	231.787
1197.92	131.339
1202.25	198.537
1206.57	162.422
1210.9	139.957
1215.22	111.176
1219.54	61.0996
1223.85	246.465
1228.17	80.9126
1232.48	119.346
1236.79	93.2104
1241.09	138.264
1245.4	159.39
1249.7	17.498
1254	80.8589
1258.29	127.964
1262.59	18.8076
1266.88	25.4746
1271.17	94.5737
1275.45	241.664
1279.74	206.186
1284.02	184.522
1288.3	198.514
1292.58	190.477
1296.85	211.434
1301.12	178.326
1305.39	150.823
1309.66	108.883
1313.92	147.488
1318.18	151.621
1322.44	11.2661
1326.7	126.407
1330.95	250.25
1335.2	97.1274
1339.45	147.778
1343.7	133.609
1347.95	352.554
1352.19	226.436
1356.43	182.699
1360.66	288.28
1364.9	388.346
1369.13	272.733
1373.36	387.015
1377.59	330.286
1381.81	399.179
1386.04	291.627
1390.26	294.22
1394.47	338.582
1398.69	328.605
1402.9	398.358
1407.11	327.373
1411.32	301.448
1415.53	291.832
1419.73	270.87
1423.93	262.327
1428.13	287.638
1432.32	271.526
1436.52	201.004
1440.71	129.125
1444.89	177.006
1449.08	100.488
1453.26	41.9399
1457.44	70.0093
1461.62	0.638184
1465.8	57.3335
1469.97	30.7983
1474.14	34.1133
1478.31	40.3184
1482.48	58.1802
1486.64	27.7988
1490.81	16.8296
1494.96	16.0684
1499.12	10.2007
1503.28	48.1528
1507.43	8.79785
1511.58	100.842
1515.72	135.9
1519.87	54.8862
1524.01	304.957
1528.15	177.658
1532.29	133.65
1536.42	186.147
1540.55	152.325
1544.68	178.726
1548.81	167.31
1552.94	87.3457
1557.06	152.584
1561.18	162.621
1565.3	174.951
1569.41	138.516
1573.53	65.251
1577.64	0
