Measurement: Raman, 514 nm, ccw, Raman Data Processed
Mineral: Magnesiochromite
Rruff sample: R060797
Ideal chemistry: MgCr^3+^_2_O_4_
Locality: Benbow mine, Stillwater Complex, Mount Wood area, Stillwater County, Montana, USA
Source: California Institute of Technology
Description: Black granular massive
Measured chemistry: (Mg_0.55_Fe^2+^_0.45_)_Σ=1_(Cr_1.28_Al_0.58_Fe^3+^_0.14_)_Σ=2_O_4_
Pin_id: M01281
Orientation: Laser parallel to -a* (-1 0 0). Fiducial mark perpendicular to laser is parallel to c [0 0 1]
Raman shift (cm-1)	intensity
125.295	0
130.23	432.734
135.163	371.297
140.092	987.082
145.019	626.049
149.944	540.795
154.866	623.541
159.785	738.637
164.702	474.236
169.616	763.42
174.528	574.521
179.437	733.842
184.343	1062.88
189.247	1141.21
194.148	1307.71
199.046	1458.71
203.942	960.033
208.835	741.984
213.726	683.805
218.614	804.098
223.5	886.047
228.382	737.297
233.263	878.738
238.14	968.012
243.015	1009.01
247.888	807.857
252.758	747.898
257.625	704.367
262.49	519.35
267.352	502.522
272.211	289.348
277.068	286.695
281.922	335.262
286.773	199.322
291.622	171.113
296.469	126.383
301.312	3.20117
306.154	8.02148
310.992	67.9258
315.828	78.0723
320.661	30.7031
325.492	35.9863
330.32	42.9395
335.145	127.266
339.968	120.127
344.789	153.037
349.606	56.1387
354.421	171.766
359.234	111.785
364.043	7.44531
368.851	144.709
373.655	116.061
378.457	16.2578
383.256	46.3379
388.053	86.9023
392.847	189.293
397.639	123.219
402.428	194.879
407.214	101.107
411.998	323.691
416.779	364.031
421.557	263.557
426.333	250.56
431.106	247.514
435.877	288.535
440.645	436.117
445.41	193.029
450.173	533.045
454.933	501.565
459.691	651.781
464.446	647.365
469.198	696.617
473.948	713.498
478.695	1015.05
483.439	1235.53
488.181	1090.17
492.92	1146.61
497.657	1512.98
502.391	1782.87
507.122	2023.74
511.851	2374.37
516.577	3068.13
521.301	3675.05
526.022	4462.62
530.74	5601.3
535.456	6963.59
540.169	8522.25
544.879	10525.9
549.587	12175.9
554.292	13087.9
558.995	13955.3
563.695	14718.3
568.392	15375.6
573.087	15376
577.779	14918.5
582.469	13525.5
587.156	11782.2
591.84	10780.7
596.522	9322.17
601.201	8560.53
605.877	7728.09
610.551	6457.75
615.222	5491.48
619.891	4260.14
624.557	3090.09
629.22	2991.51
633.881	2924.46
638.539	4483.91
643.195	5946.26
647.848	7456.89
652.498	8408.73
657.145	8818.51
661.791	8933.75
666.433	9451.42
671.073	9969.02
675.71	11071.4
680.345	12502.6
684.977	14515
689.606	16556.7
694.233	18102.1
698.857	18919.8
703.478	18474.8
708.097	16632.8
712.714	14396.5
717.327	11851
721.938	9414.23
726.547	7723.81
731.153	5464.22
735.756	4200.52
740.356	3286.66
744.954	2733.01
749.55	1827.21
754.142	1314.3
758.733	915.078
763.32	605.1
767.905	483.5
772.487	413.871
777.067	281.133
781.644	65.8457
786.218	11.2051
790.79	92.9785
795.359	125.965
799.926	210.676
804.49	223.266
809.051	122.611
813.61	148.408
818.166	43.1406
822.72	132.549
827.271	54.6055
831.819	109.865
836.365	42.748
840.908	31.0762
845.448	172.582
849.986	18.1797
854.521	172.178
859.054	21.9727
863.584	23.3613
868.111	40.6152
872.636	133.289
877.158	223.856
881.677	235.111
886.194	177.094
890.709	219.266
895.22	63.543
899.729	122.201
904.236	203.301
908.74	320.932
913.241	310.846
917.739	365.893
922.235	294.783
926.729	464.324
931.219	390.404
935.708	331.615
940.193	404.846
944.676	253.711
949.156	282.342
953.634	233.662
958.109	488.357
962.582	166.664
967.051	257.359
971.519	342.207
975.983	250.773
980.445	283.106
984.905	109.723
989.362	110.527
993.816	1.89844
998.267	72.3242
1002.72	310.719
1007.16	345.908
1011.61	327.225
1016.05	151.438
1020.49	245.426
1024.92	138.106
1029.36	12.0469
1033.79	269.098
1038.21	350.709
1042.64	140.217
1047.06	287.875
1051.48	112.041
1055.9	211.279
1060.32	304.904
1064.73	167.277
1069.14	321.117
1073.55	261.31
1077.95	481.356
1082.35	589.545
1086.75	516.426
1091.15	620.934
1095.54	381.231
1099.93	822.094
1104.32	882.908
1108.71	744.246
1113.09	869.754
1117.47	757.619
1121.85	863.773
1126.23	821.072
1130.6	969.832
1134.97	1127.58
1139.34	897.863
1143.7	946.762
1148.07	904.812
1152.43	673.252
1156.79	731.898
1161.14	619.912
1165.49	561.873
1169.84	640.766
1174.19	560.51
1178.54	396.525
1182.88	427.957
1187.22	471.199
1191.55	161.332
1195.89	232.356
1200.22	158.279
1204.55	283.531
1208.87	11.2773
1213.2	225.281
1217.52	182.768
1221.84	163.625
1226.15	168.977
1230.47	75.75
1234.78	134.535
1239.09	184.572
1243.39	193.644
1247.69	43.3379
1251.99	174.594
1256.29	252.57
1260.59	119.738
1264.88	201.812
1269.17	165.773
1273.46	169.617
1277.74	254.754
1282.02	213.215
1286.3	29.1367
1290.58	238.449
1294.86	346.777
1299.13	196.703
1303.39	371.641
1307.66	294.162
1311.93	107.139
1316.19	70.1953
1320.45	145.873
1324.7	222.227
1328.96	70.2266
1333.21	19.9102
1337.45	125.689
1341.7	58.2676
1345.94	81.0195
1350.18	265.471
1354.42	193.627
1358.66	391.051
1362.89	144.086
1367.12	100.184
1371.35	262.926
1375.57	172.826
1379.8	185.06
1384.02	246.029
1388.23	232.766
1392.45	413.625
1396.66	210.383
1400.87	337.361
1405.08	402.68
1409.28	290.941
1413.48	301.727
1417.68	237.41
1421.88	384.352
1426.07	238.182
1430.26	162.947
1434.45	320.254
1438.64	156.832
1442.82	253.25
1447	21.2227
1451.18	255.566
1455.35	139.025
1459.53	34.9707
1463.7	33.2266
1467.87	134.107
1472.03	92.1484
1476.19	208.668
1480.35	61.4102
1484.51	47.2051
1488.67	153.322
1492.82	169.859
1496.97	205.705
1501.12	28.9297
1505.26	15.6895
1509.4	57.875
1513.54	193.516
1517.68	130.172
1521.81	264.289
1525.94	206.842
1530.07	280.682
1534.2	164.412
1538.32	129.373
1542.44	100.779
1546.56	315.305
1550.68	193.978
1554.79	178.863
1558.9	15.2988
1563.01	176.086
1567.12	199.859
1571.22	96.6231
1575.32	38.834
