Measurement: Raman, 514 nm, ccw, Raman Data Processed
Mineral: Magnesio-hastingsite
Rruff sample: R070288
Ideal chemistry: NaCa_2_(Mg_4_Fe^3+^)Si_6_Al_2_O_22_(OH)_2_
Locality: Dallas Gem Mine (Gem Mine; Benitoite Mine), New Idria District, San Benito County, California, USA
Source: Michael Scott
Description: Dark brown to black prismatic crystals frozen in albite
Measured chemistry: (Na_0.51_[box]_0.33_K_0.16_)_Σ=1_(Ca_1.75_Na_0.25_)_Σ=2_(Mg_3.02_Fe^2+^_0.61_Ti_0.37_)_Σ=4_(Fe^3+^_0.73_Al_0.27_)_Σ=1_Si_5.84_Al_2.16_O_22_(OH)_2_; (OH) estimated by difference
Pin_id: M00823
Orientation: Laser parallel to -b* (0 -1 0). Fiducial mark perpendicular to laser is parallel to c [0 0 1]
Raman shift (cm-1)	intensity
99.828	0
104.75	202.217
109.67	1080.56
114.588	4672.19
119.504	3276.2
124.417	1874.64
129.328	1393.23
134.238	1089.96
139.144	1618.21
144.049	1885.92
148.951	1902.84
153.852	2449.73
158.75	2108.36
163.645	2064.78
168.539	2231.23
173.43	2269.92
178.319	2592.31
183.206	2607.03
188.091	2797.71
192.973	2673.04
197.853	2398.82
202.731	2108.23
207.607	1358.98
212.48	1374.66
217.351	1655.87
222.22	1569.6
227.087	1327.28
231.951	1170.42
236.813	792.785
241.673	527.266
246.53	95.9238
251.386	142.5
256.239	1.97559
261.089	112.031
265.938	69.3301
270.784	136.855
275.628	236.152
280.469	168.21
285.309	15.5967
290.146	169.161
294.98	120.133
299.813	113.18
304.643	186.655
309.471	94.3457
314.296	120.405
319.119	27.8174
323.94	60.8603
328.758	19.2139
333.575	145.93
338.388	202.357
343.2	193.552
348.009	317.011
352.816	508.81
357.621	676.623
362.423	964.629
367.223	992.722
372.02	982.344
376.815	903.462
381.608	793.578
386.398	613.891
391.187	413.027
395.972	257.357
400.756	468.172
405.537	316.128
410.315	238.977
415.092	363.695
419.865	253.206
424.637	291.154
429.406	460.635
434.173	290.839
438.937	333.834
443.699	345.698
448.459	391.437
453.216	302.63
457.971	265.747
462.723	422.708
467.473	548.547
472.221	527.813
476.966	630.924
481.709	914.554
486.449	1074.83
491.187	1401.29
495.923	1656.12
500.656	1959.23
505.387	2305.13
510.115	2943.44
514.841	3363.64
519.565	4049.97
524.286	4726.13
529.004	5184.01
533.72	5540.2
538.434	5792.87
543.146	5767.28
547.854	5802.39
552.561	5801.89
557.265	5885.33
561.966	5727.1
566.665	5210.63
571.362	4524.13
576.056	3502.87
580.748	2205.41
585.437	1034.09
590.124	517.508
594.808	6.15039
599.49	71.1904
604.17	150.269
608.846	92.1748
613.521	47.5742
618.193	39.5772
622.862	21.1885
627.529	113.624
632.194	503.375
636.856	697.296
641.515	995.843
646.172	1318.99
650.827	1623.7
655.479	2108.98
660.129	2429.02
664.776	2166.76
669.42	2069.22
674.062	1613.44
678.702	1454.6
683.339	1330.35
687.973	1194.85
692.605	1219.57
697.235	938.071
701.862	965.32
706.486	946.57
711.108	1003.42
715.728	1088.76
720.344	1206.16
724.959	1368.34
729.57	1379.29
734.18	1372.23
738.786	1294.39
743.391	1129.66
747.992	1047.27
752.591	1028.56
757.188	1046.8
761.782	994.065
766.373	1152.78
770.962	1424.53
775.549	1349.54
780.133	1524.32
784.714	1759.4
789.292	1812.99
793.869	1950.09
798.442	1809.74
803.013	1516.95
807.581	1444.75
812.147	1221.15
816.711	1185.93
821.271	719.005
825.829	604.813
830.385	531.219
834.938	466.246
839.488	45.9209
844.036	13.4756
848.581	20.8096
853.124	7.56055
857.664	85.7031
862.201	50.1397
866.736	34.6152
871.268	108.586
875.798	79.2227
880.325	271.473
884.849	244.518
889.371	457.182
893.89	595.457
898.407	533.398
902.921	585.863
907.432	584.572
911.941	516.215
916.447	484.869
920.95	547.498
925.451	705.178
929.95	648.91
934.445	614.506
938.938	586.086
943.429	610.559
947.916	619.973
952.401	799.242
956.884	806.051
961.364	745.344
965.841	775.568
970.315	448.01
974.787	595.051
979.256	763.787
983.723	628.031
988.187	714.314
992.648	711.713
997.107	899.689
1001.56	1057.48
1006.02	1144.65
1010.47	1203.99
1014.91	1225.59
1019.36	1116.48
1023.8	1111.27
1028.24	1187.45
1032.68	1143.9
1037.12	965.533
1041.55	1158.27
1045.98	1272.34
1050.4	982.876
1054.83	1138.75
1059.25	1094.3
1063.67	886.615
1068.08	1033.29
1072.5	1007.29
1076.91	795.372
1081.32	932.923
1085.72	897.202
1090.12	800.006
1094.52	737.935
1098.92	544.247
1103.31	611.777
1107.7	448.425
1112.09	323.171
1116.48	255.562
1120.86	497.688
1125.24	434.087
1129.62	129.008
1134	76.0088
1138.37	81.209
1142.74	14.8184
1147.11	29.0137
1151.47	123.53
1155.84	26.374
1160.19	77.6279
1164.55	37.4365
1168.9	29.6797
1173.26	48.3818
1177.6	43.668
1181.95	7.63574
1186.29	223.96
1190.63	107.251
1194.97	99.9971
1199.31	105.217
1203.64	237.774
1207.97	171.899
1212.29	225.36
1216.62	203.641
1220.94	64.7647
1225.26	176.262
1229.57	246.496
1233.88	232.575
1238.19	159.643
1242.5	170.027
1246.81	171.963
1251.11	191.205
1255.4	255.247
1259.7	275.35
1263.99	222.515
1268.29	354.179
1272.57	201.8
1276.86	379.81
1281.14	252.673
1285.42	294.761
1289.7	312.837
1293.97	239.412
1298.24	49.7685
1302.51	314.222
1306.78	261.386
1311.04	303.368
1315.3	331.839
1319.56	129.977
1323.81	178.843
1328.06	211.605
1332.31	209.102
1336.56	173.031
1340.8	58.9385
1345.04	143.346
1349.28	125.86
1353.52	92.1768
1357.75	48.5732
1361.98	278.757
1366.2	158.308
1370.43	321.852
1374.65	202.321
1378.87	258.859
1383.09	64.0049
1387.3	109.939
1391.51	41.3691
1395.71	74.5879
1399.92	56.6035
1404.12	201.061
1408.32	143.49
1412.52	155.831
1416.71	74.1348
1420.9	24.7285
1425.09	10.3145
1429.27	251.797
1433.45	278.475
1437.63	212.796
1441.81	154.248
1445.98	201.749
1450.15	128.639
1454.32	195.454
1458.48	229.62
1462.65	204.408
1466.81	151.518
1470.96	357.146
1475.12	92.6689
1479.27	286.449
1483.41	372.211
1487.56	28.2256
1491.7	164.913
1495.84	192.256
1499.98	229.828
1504.11	131.538
1508.24	3.89551
1512.37	235.648
1516.49	176.434
1520.62	149.371
1524.74	319.761
1528.85	147.596
1532.97	214.018
1537.08	151.014
1541.19	20.293
1545.29	332.139
1549.39	139.866
1553.49	196.774
1557.59	175.482
1561.68	191.984
1565.78	114.23
1569.86	104.383
1573.95	54.4053
