Measurement: Raman, 514 nm, depolarized, Raman Data Processed
Mineral: Magnesite
Rruff sample: R040114
Ideal chemistry: MgCO_3_
Locality: Snarum, Norway
Source: University of Arizona Mineral Museum
Description: Tan colored cleavage fragment
Measured chemistry: (Mg_0.98_Fe_0.01_)C_1.00_O_3_
Pin_id: L00266
Orientation: Laser parallel to -a* (-1 0 0). Fiducial mark perpendicular to laser is parallel to c [0 0 1]
Raman shift (cm-1)	intensity
97.554	0
101.732	36.558
105.908	90.038
110.082	112.564
114.254	225.876
118.424	169.187
122.592	94.229
126.758	120.948
130.922	43.996
135.083	69.514
139.243	83.387
143.401	54.698
147.557	18.286
151.711	44.24
155.863	37.682
160.013	9.707
164.161	14.764
168.308	13.705
172.452	17.67
176.594	30.531
180.734	37.286
184.872	82.176
189.008	44.284
193.143	73.939
197.275	110.545
201.405	262.976
205.534	942.459
209.66	2225.93
213.784	3975.35
217.907	1351.76
222.027	343.112
226.146	99.43
230.263	43.714
234.377	37.968
238.49	30.195
242.601	18.402
246.709	0.397
250.816	20.781
254.921	13.735
259.024	3.723
263.125	24.052
267.224	15.9
271.321	16.699
275.416	18.8
279.51	2.201
283.601	16.847
287.69	43.244
291.778	65.466
295.863	63.584
299.947	115.576
304.029	179.599
308.108	180.073
312.186	336.695
316.262	608.328
320.336	1792.29
324.408	6830.6
328.478	15378.9
332.546	14198.1
336.612	4316.8
340.677	1377.69
344.739	672.446
348.799	384.373
352.858	267.05
356.915	248.947
360.969	181.825
365.022	162.69
369.073	111.542
373.122	134.394
377.169	125.337
381.215	112.33
385.258	76.23
389.299	39.214
393.339	46.94
397.376	43.814
401.412	108.247
405.446	32.38
409.478	37.46
413.508	24.275
417.536	39.359
421.562	3.994
425.586	19.678
429.609	0.03
433.629	22.867
437.648	49.269
441.665	12.477
445.68	26.073
449.693	38.331
453.704	33.136
457.713	21.929
461.721	82.484
465.726	40.842
469.73	28.617
473.731	39.143
477.731	76.002
481.729	75.345
485.725	19.756
489.72	35.571
493.712	59.865
497.703	43.182
501.691	94.605
505.678	72.906
509.663	94.204
513.646	35.498
517.627	62.775
521.607	42.033
525.584	58.274
529.56	53.494
533.534	29.165
537.506	25.886
541.476	57.054
545.444	32.202
549.41	8.323
553.375	22.457
557.337	24.397
561.298	29.721
565.257	66.869
569.214	22.065
573.17	77.152
577.123	11.305
581.075	22.056
585.024	26.96
588.972	46.932
592.918	8.988
596.863	12.031
600.805	6.872
604.746	57.782
608.685	78.755
612.621	3.307
616.557	22.482
620.49	41.635
624.421	89.538
628.351	17.379
632.279	44.105
636.205	42.85
640.129	70.485
644.051	2.936
647.972	62.689
651.89	88.125
655.807	93.069
659.722	83.603
663.636	45.019
667.547	62.494
671.457	59.979
675.365	112.278
679.271	103.816
683.175	133.076
687.077	108.214
690.978	124.134
694.877	134.438
698.774	156.314
702.669	172.429
706.562	195.831
710.454	238.506
714.344	284.961
718.232	398.717
722.118	561.401
726.002	867.029
729.885	1338.1
733.766	1810.69
737.645	2438.45
741.522	2211.17
745.397	1588.54
749.271	937.793
753.143	567.329
757.013	361.324
760.881	214.536
764.748	120.606
768.613	55.861
772.476	117.837
776.337	13.179
780.196	77.124
784.054	42.491
787.91	77.858
791.764	38.594
795.616	15.783
799.467	37.158
803.316	12.661
807.163	7.918
811.008	13.372
814.851	23.495
818.693	21.67
822.533	24.772
826.371	48.813
830.208	12.813
834.042	46.766
837.875	66.678
841.706	12.552
845.536	7.374
849.363	20.145
853.189	0.122
857.013	41.554
860.836	4.824
864.656	45.72
868.475	62.214
872.292	21.367
876.108	28.971
879.922	76.275
883.733	38.563
887.544	10.822
891.352	7.966
895.159	8.192
898.964	25.313
902.767	25.433
906.568	81.531
910.368	52.618
914.166	70.696
917.962	48.765
921.757	31.83
925.55	6.106
929.341	14.444
933.13	35.434
936.918	77.679
940.703	27.751
944.488	13.653
948.27	45.097
952.051	62.721
955.83	54.622
959.607	35.83
963.383	76.435
967.156	33.464
970.928	83.6
974.699	57.692
978.468	54.782
982.234	111.893
986	147.943
989.763	52.162
993.525	147.399
997.285	73.874
1001.04	174.917
1004.8	144.055
1008.55	149.549
1012.31	154.775
1016.06	217.965
1019.81	134.938
1023.56	225.95
1027.31	232.18
1031.05	330.013
1034.79	317.903
1038.53	289.663
1042.27	415.572
1046.01	530.743
1049.75	640.797
1053.48	811.216
1057.22	962.914
1060.95	1188.41
1064.68	1502.68
1068.4	1982.93
1072.13	2921.22
1075.86	4241.41
1079.58	6347.44
1083.3	10801.2
1087.02	19797.3
1090.74	37240.6
1094.45	54103.2
1098.17	45174.9
1101.88	28776.4
1105.59	17719.1
1109.3	11024.8
1113.01	6532.27
1116.71	3860.44
1120.42	2372.66
1124.12	1695.01
1127.82	1056.08
1131.52	739.559
1135.22	608.447
1138.91	503.482
1142.61	374.681
1146.3	245.984
1149.99	236.226
1153.68	174.602
1157.37	177.139
1161.06	127.771
1164.74	174.154
1168.42	120.214
1172.1	133.015
1175.78	124.622
1179.46	144.542
1183.14	88.849
1186.81	71.247
1190.48	55.207
1194.15	89.326
1197.83	101.684
1201.49	69.839
1205.16	7.657
1208.82	11.428
1212.49	36.405
1216.15	40.975
1219.81	62.867
1223.46	66.941
1227.12	9.175
1230.78	50.844
1234.43	96.719
1238.08	1.501
1241.73	14.231
1245.38	83.073
1249.03	68.805
1252.67	44.395
1256.31	5.09
1259.95	2.475
1263.6	20.923
1267.23	3.744
1270.87	52.452
1274.51	1.612
1278.14	5.686
1281.77	31.358
1285.4	19
1289.03	1.48
1292.66	16.956
1296.28	31.71
1299.91	19.486
1303.53	23.63
1307.15	22.659
1310.77	12.595
1314.38	39.421
1318	40.903
1321.61	26.393
1325.23	55.987
1328.84	20.251
1332.45	2.399
1336.06	3.461
1339.66	34.441
1343.27	30.346
1346.87	106.18
1350.47	43.701
1354.07	57.303
1357.67	43.934
1361.26	59.976
1364.86	73.553
1368.45	61.603
1372.04	41.728
1375.63	63.022
1379.22	39.042
1382.81	54.272
1386.39	52.639
1389.98	104.831
1393.56	106.879
1397.14	71.68
1400.72	36.527
1404.3	131.998
1407.87	69.665
1411.45	75.5
1415.02	113.633
1418.59	80.123
1422.16	49.879
1425.73	74.768
1429.29	113.66
1432.86	142.079
1436.42	120.779
1439.98	211.671
1443.54	389.452
1447.1	872.674
1450.66	634.499
1454.21	356.426
1457.77	288.549
1461.32	226.947
1464.87	111.724
1468.42	113.653
1471.96	160.67
1475.51	153.504
1479.06	196.811
1482.6	115.257
1486.14	94.727
1489.68	130.444
1493.22	139.554
1496.75	97.222
1500.29	1.442
1503.82	85.573
1507.35	104.589
1510.88	127.014
1514.41	34.423
1517.94	8.019
1521.46	0
