Measurement: Raman, 514 nm, ccw, Raman Data Processed
Mineral: Magnesite
Rruff sample: R050676
Ideal chemistry: MgCO_3_
Locality: Tyrol, Austria
Source: University of Arizona Mineral Museum
Description: Brown rhombohedral crystals
Measured chemistry: (Mg_0.87_Fe^2+^_0.12_Ca_0.01_)_Î£=1_CO_3_; trace amounts of Mn and Cd; CO_2_ estimated by difference
Pin_id: M00629
Orientation: Laser parallel to -a* (-1 0 0). Fiducial mark perpendicular to laser is parallel to c [0 0 1]
Raman shift (cm-1)	intensity
88.338	0
93.286	79.7363
98.231	138.383
103.174	207.007
108.114	403.235
113.052	576.517
117.987	793.854
122.919	1796.53
127.849	8.49609
132.777	190.332
137.702	299.281
142.624	101.3
147.544	260.303
152.461	163.05
157.375	229.339
162.287	534.055
167.197	506.228
172.104	777.83
177.008	1089.1
181.91	1612.68
186.809	2000.96
191.706	3379.06
196.6	5911.96
201.491	12537.2
206.38	28663.3
211.267	39831.2
216.151	11901.9
221.032	2830.45
225.911	859.852
230.787	416.096
235.66	401.159
240.531	501.512
245.4	383.22
250.266	225.125
255.129	190.527
259.99	298.837
264.848	280.699
269.703	206.567
274.556	159.389
279.407	107.775
284.255	355.249
289.1	81.5606
293.942	248.773
298.783	556.429
303.62	809.88
308.455	1709.2
313.288	3866.79
318.117	8521.78
322.945	12365.5
327.769	9848.16
332.591	4641.72
337.411	1904.17
342.228	1382.53
347.042	990.794
351.854	533.965
356.663	486.05
361.47	754.05
366.274	659.974
371.075	920.834
375.874	1013.64
380.67	1151.38
385.464	848.169
390.255	691.502
395.043	576.854
399.829	571.392
404.613	198.238
409.393	234.138
414.172	14.8604
418.947	126.528
423.72	32.0234
428.49	20.6436
433.258	37.4941
438.024	60.374
442.786	36.1279
447.546	103.849
452.304	5.85156
457.059	480.123
461.811	476.111
466.56	504.121
471.308	575.154
476.052	986.217
480.794	1192.31
485.533	1608.43
490.27	1629.6
495.004	2181.79
499.736	2265.06
504.465	2419.53
509.191	2573.57
513.915	2675.9
518.636	2403.52
523.354	2188.37
528.07	2197.64
532.784	1759.11
537.494	1357.71
542.203	1302.53
546.908	1097.97
551.611	916.845
556.311	717.216
561.009	765.806
565.704	658.761
570.397	604.993
575.087	409.889
579.774	316.711
584.459	241.109
589.141	447.752
593.821	46.8223
598.498	113.906
603.172	106.859
607.844	228.088
612.513	316.375
617.18	87.7148
621.844	331.094
626.505	493.506
631.164	509.941
635.82	252.615
640.473	242.389
645.124	828.877
649.773	652.646
654.418	590.266
659.062	421.353
663.702	517.281
668.34	726.432
672.975	640.885
677.608	992.889
682.238	780.621
686.866	1159.13
691.49	1281.61
696.113	1516.97
700.732	2039.13
705.349	2473.78
709.964	3265.14
714.576	4919.18
719.185	7532.93
723.792	11217.4
728.396	18317.6
732.997	29414.6
737.596	37529.1
742.192	31350.2
746.785	18306.9
751.376	9775.11
755.965	4788.85
760.551	2389.11
765.134	1398.89
769.714	295.166
774.292	38.7441
778.867	158.996
783.44	345.318
788.01	47.9023
792.578	231.961
797.142	100.596
801.705	87.6914
806.264	175.414
810.821	163.781
815.376	112.525
819.927	84.375
824.476	12.5918
829.023	20.4922
833.567	173.516
838.108	305.522
842.647	121.231
847.183	289.185
851.716	184.535
856.247	467.307
860.776	719.002
865.301	530.67
869.824	710.797
874.345	1588.4
878.862	1727.22
883.377	1196.07
887.89	362.172
892.4	246.809
896.907	143.994
901.412	391.75
905.914	2.9082
910.413	286.416
914.91	170.631
919.404	43.5527
923.896	22.0547
928.385	61.6445
932.871	61.332
937.355	72.6973
941.836	29.0547
946.315	114.523
950.79	108.656
955.264	7.50977
959.734	221.566
964.202	117.969
968.668	76.0801
973.131	276.772
977.591	91.0273
982.048	150.221
986.503	208.332
990.955	459.096
995.405	209.082
999.852	630.318
1004.3	1079.86
1008.74	360.74
1013.18	124.992
1017.61	424.656
1022.05	397.762
1026.48	868.348
1030.91	1527.45
1035.33	2132.08
1039.76	3186.24
1044.18	4706.27
1048.6	6756.73
1053.01	9105.64
1057.42	13329.1
1061.84	19735.2
1066.24	30140.5
1070.65	48278.5
1075.05	78956.9
1079.45	134747
1083.85	258622
1088.24	517627
1092.63	852285
1097.02	795032
1101.41	465802
1105.8	230347
1110.18	109364
1114.56	55523.4
1118.93	30119.5
1123.31	18601.8
1127.68	12560.5
1132.04	7839.71
1136.41	5536.88
1140.77	4083.44
1145.13	2961.57
1149.49	2189.27
1153.85	1509.28
1158.2	1328.86
1162.55	943.625
1166.9	620.848
1171.24	449.254
1175.58	491.559
1179.92	534.646
1184.26	217.523
1188.6	184.193
1192.93	90.7051
1197.26	176.971
1201.58	128.93
1205.9	48.5918
1210.23	26.9766
1214.55	215.014
1218.86	25.3672
1223.17	138.797
1227.48	184.397
1231.79	107.432
1236.1	321.856
1240.4	315.719
1244.7	75.4453
1249	26.791
1253.29	200.094
1257.59	365.66
1261.88	470.231
1266.16	443.56
1270.45	588.287
1274.73	812.738
1279.01	722.594
1283.28	756.229
1287.56	770.393
1291.83	582.066
1296.1	659.258
1300.36	903.406
1304.63	804.209
1308.89	1347.98
1313.15	1190.77
1317.4	894.635
1321.65	962.732
1325.9	814.4
1330.15	748.812
1334.4	904.861
1338.64	334.447
1342.88	735.547
1347.12	423.49
1351.35	571.893
1355.58	347.154
1359.81	340.785
1364.04	235.158
1368.26	118.953
1372.48	203.908
1376.7	283.346
1380.92	127.689
1385.13	151.465
1389.34	231.59
1393.55	23.0723
1397.76	137.928
1401.96	142.449
1406.16	31.6562
1410.36	147.664
1414.55	368.621
1418.75	398.279
1422.94	43.2559
1427.12	746.553
1431.31	1226.33
1435.49	2181.73
1439.67	4128.15
1443.85	6279.2
1448.02	5963.35
1452.19	4360.33
1456.36	3729.48
1460.53	3128.56
1464.69	3157.13
1468.85	2916.13
1473.01	2729.6
1477.17	2422.38
1481.32	2911.09
1485.47	2108.64
1489.62	1364.83
1493.76	830.635
1497.91	757.113
1502.05	475.574
1506.18	411.371
1510.32	244.754
1514.45	481.441
1518.58	516.754
1522.71	298.742
1526.83	188.469
1530.95	283.275
1535.07	560.606
1539.19	39.375
1543.3	353.334
1547.41	465.727
1551.52	195.363
1555.63	478.83
1559.73	302.83
1563.83	145.861
1567.93	159.94
1572.03	144.236
1576.12	188.59
