Measurement: Raman, 514 nm, ccw, Raman Data Processed
Mineral: Magnesio-hastingsite
Rruff sample: R070288
Ideal chemistry: NaCa_2_(Mg_4_Fe^3+^)Si_6_Al_2_O_22_(OH)_2_
Locality: Dallas Gem Mine (Gem Mine; Benitoite Mine), New Idria District, San Benito County, California, USA
Source: Michael Scott
Description: Dark brown to black prismatic crystals frozen in albite
Measured chemistry: (Na_0.51_[box]_0.33_K_0.16_)_Σ=1_(Ca_1.75_Na_0.25_)_Σ=2_(Mg_3.02_Fe^2+^_0.61_Ti_0.37_)_Σ=4_(Fe^3+^_0.73_Al_0.27_)_Σ=1_Si_5.84_Al_2.16_O_22_(OH)_2_; (OH) estimated by difference
Pin_id: M01097
Orientation: Laser parallel to a* (1 0 0). Fiducial mark perpendicular to laser is parallel to b [0 1 0]
Raman shift (cm-1)	intensity
87.632	0
92.595	543.234
97.554	15.2549
102.511	33.9717
107.465	1817.22
112.417	3038.02
117.365	4395.21
122.311	3456.27
127.254	2081.39
132.195	2070.89
137.132	2659.14
142.067	2845.85
146.999	3048.35
151.928	3349.67
156.855	3855.74
161.778	3968.67
166.699	3680.47
171.618	3748.44
176.533	3525.36
181.446	3601.04
186.356	3660.98
191.263	3223.23
196.167	2859.55
201.069	2415.53
205.968	1767.58
210.864	1597.46
215.757	1333.44
220.648	1488.98
225.536	1401.75
230.421	1207.48
235.304	1094.68
240.183	1244.33
245.06	885.82
249.934	780.646
254.806	249.524
259.675	205.699
264.541	68.6719
269.404	76.9121
274.265	93.3789
279.122	72.1377
283.977	87.8516
288.83	16.5
293.679	84.71
298.526	28.2617
303.371	28.541
308.212	63.499
313.051	91.6934
317.887	164.553
322.72	116.984
327.551	126.439
332.379	108.515
337.204	11.5293
342.026	37.0889
346.846	27.3594
351.663	91.8584
356.477	18.252
361.289	104.419
366.098	253.509
370.904	346.082
375.707	397.458
380.508	540.652
385.306	434.961
390.101	372.336
394.894	299.664
399.684	292.854
404.471	248.841
409.256	531.57
414.038	405.108
418.817	639.237
423.593	493.504
428.367	335.049
433.138	316.602
437.907	269.718
442.672	0.298828
447.435	60.9492
452.196	81.2881
456.953	27.7529
461.708	44.1572
466.461	193.634
471.21	278.104
475.957	172.804
480.702	514.967
485.443	648.691
490.182	888.562
494.918	1218.95
499.652	1702.61
504.383	2194.74
509.111	2710
513.837	3269.39
518.56	3844.91
523.28	4152.56
527.997	4666.34
532.712	4972.22
537.425	5203.2
542.134	5471.28
546.841	5381.47
551.545	5473.74
556.247	5633.13
560.946	5543.75
565.642	5208.68
570.336	4628.78
575.027	3701.01
579.715	2501.6
584.401	1581.23
589.084	829.121
593.764	359.661
598.442	11.0723
603.117	203.291
607.79	127.649
612.459	3.35156
617.127	25.2461
621.791	125.615
626.453	291.473
631.112	437.288
635.769	632.602
640.423	878.465
645.074	1329.03
649.723	1570.73
654.369	1851.76
659.013	2176.48
663.653	2303.72
668.292	2175.52
672.927	1886.9
677.56	1487.89
682.19	1395.52
686.818	1434.82
691.443	1395.82
696.066	1389.54
700.686	1239.56
705.303	1272.29
709.917	1404.38
714.529	1668.9
719.139	1964.39
723.746	2131.93
728.35	2489.82
732.951	2519.82
737.55	2550.53
742.147	2503.93
746.74	2427.39
751.331	2209.76
755.92	2348.19
760.506	2341.06
765.089	2448.53
769.67	2581.58
774.248	2793.54
778.824	3099
783.397	3273.97
787.967	3511.5
792.535	3673.61
797.1	3726.38
801.662	3657.68
806.222	3424.7
810.78	3104.39
815.334	2705.79
819.887	2322.41
824.436	1782.29
828.983	1343.02
833.528	948.898
838.07	614.159
842.609	277.253
847.146	5.80371
851.68	44.0918
856.211	179.04
860.74	83.8965
865.267	9.33301
869.79	92.2178
874.312	126.53
878.83	244.887
883.346	554.727
887.86	748.178
892.371	788.738
896.879	734.607
901.385	726.891
905.889	691.419
910.389	324.116
914.887	456.003
919.383	414.122
923.876	450.181
928.367	423.108
932.854	496.876
937.34	552.618
941.823	580.649
946.303	675.928
950.781	585.95
955.256	652.926
959.728	717.004
964.199	761.638
968.666	670.173
973.131	453.54
977.593	528.742
982.053	711.672
986.511	696.105
990.966	646.744
995.418	825.374
999.868	995.241
1004.32	1151.07
1008.76	1273.01
1013.2	1350.54
1017.64	1290.43
1022.08	1425.64
1026.51	1219.62
1030.94	1423.54
1035.37	1143.43
1039.8	1101.98
1044.22	1097.14
1048.65	1158.87
1053.07	1083.46
1057.48	1199.49
1061.9	1079.32
1066.31	1131.68
1070.72	1136.07
1075.13	1001.05
1079.53	921.686
1083.93	854.346
1088.33	749.011
1092.73	727.627
1097.12	578.954
1101.51	485.219
1105.9	405.897
1110.29	291.911
1114.67	246.381
1119.06	263.248
1123.43	167.934
1127.81	179.078
1132.18	13.2705
1136.56	71.9014
1140.93	124.189
1145.29	48.4795
1149.66	42.1914
1154.02	162.712
1158.38	87.6758
1162.73	26.2588
1167.09	38.792
1171.44	36.9678
1175.79	33.0049
1180.14	80.8731
1184.48	116.856
1188.82	54.9922
1193.16	87.4189
1197.5	134.22
1201.83	82.7627
1206.16	109.816
1210.49	185.126
1214.82	179.715
1219.14	114.497
1223.47	174.482
1227.79	5.33594
1232.1	277.967
1236.42	87.5674
1240.73	49.4082
1245.04	210.393
1249.35	264.646
1253.65	150.231
1257.95	193.378
1262.25	300.382
1266.55	240.064
1270.84	279.632
1275.13	193.333
1279.42	194.08
1283.71	303.06
1288	198.068
1292.28	202.276
1296.56	250.727
1300.84	162.835
1305.11	310.36
1309.38	142.739
1313.65	224.482
1317.92	336.202
1322.19	130.682
1326.45	298.707
1330.71	161.394
1334.97	286.231
1339.22	208.124
1343.48	186.176
1347.73	188.675
1351.97	239.36
1356.22	232.208
1360.46	244.416
1364.7	174.56
1368.94	225.168
1373.18	159.315
1377.41	217.345
1381.64	18.418
1385.87	198.228
1390.1	118.385
1394.32	129.987
1398.54	197.697
1402.76	94.8272
1406.98	23.9033
1411.19	145.389
1415.4	59.29
1419.61	145.441
1423.82	134.973
1428.02	87.0059
1432.23	145.662
1436.42	98.1309
1440.62	63.3906
1444.82	106.772
1449.01	179.401
1453.2	70.3106
1457.39	180.787
1461.57	204.865
1465.75	22.0352
1469.93	109.221
1474.11	164.537
1478.29	38.1113
1482.46	193.279
1486.63	125.236
1490.8	115.516
1494.96	126.378
1499.13	34.0869
1503.29	18.3438
1507.45	58.748
1511.6	35.2607
1515.76	149.845
1519.91	32.4893
1524.06	21.2021
1528.2	40.9297
1532.35	95.7139
1536.49	175.462
1540.63	54.3613
1544.77	89.2197
1548.9	103.361
1553.03	184.136
1557.16	194.614
1561.29	207.157
1565.41	119.404
1569.54	202.163
1573.66	105.625
1577.77	0
