Measurement: Raman, 514 nm, depolarized, Raman Data Processed
Mineral: Magnesiochromite
Rruff sample: R050399
Ideal chemistry: MgCr^3+^_2_O_4_
Locality: Troodos Mountains, Cyprus
Source: Andy McCarthy
Description: Black grains
Measured chemistry: (Mg_0.68_Fe^2+^_0.32_)_Σ=1_(Cr_1.29_Al_0.64_Fe^3+^_0.07_)_Σ=2_O__4
Pin_id: M01485
Orientation: Laser parallel to a* (1 0 0). Fiducial mark perpendicular to laser is parallel to c [0 0 1]
Raman shift (cm-1)	intensity
127.792	0
132.725	214.394
137.656	906.949
142.583	1094.22
147.508	1265.79
152.431	1356.44
157.35	1093.15
162.267	2050.65
167.181	1354.49
172.092	924.572
177.001	1200.6
181.907	1256.59
186.81	1281.15
191.711	1728.93
196.608	1904.19
201.503	1826.61
206.395	1313.39
211.285	919.408
216.172	1206.96
221.056	1383.55
225.937	1692.56
230.816	1430.18
235.692	1480.18
240.565	1670.42
245.436	1582.56
250.304	1448.09
255.169	1269.27
260.031	963.289
264.891	816.125
269.748	658.391
274.602	702.898
279.454	210.199
284.303	522.963
289.149	384.353
293.992	487.152
298.833	81.7207
303.671	32.5449
308.507	54.4512
313.339	5.36719
318.169	244.35
322.996	80.8438
327.821	92.2559
332.643	209.393
337.462	150.295
342.279	338.75
347.092	69.2109
351.904	215.273
356.712	301.082
361.518	132.725
366.321	47.6836
371.121	42.3242
375.919	325.06
380.714	40.1543
385.506	138.076
390.296	376.447
395.083	222.381
399.867	213.615
404.649	307.969
409.428	43.8828
414.204	251.607
418.978	535.396
423.749	470.094
428.517	676.205
433.282	397.672
438.045	934.254
442.806	804.301
447.563	949.697
452.318	1103.15
457.07	1057.56
461.82	1222.02
466.567	1419.47
471.311	1531.41
476.053	1562.05
480.792	2075.59
485.528	2058.46
490.262	2361.41
494.992	2270.51
499.721	2266.12
504.446	2774.6
509.169	2946.05
513.89	4123.28
518.607	4784.24
523.322	5960.88
528.035	6998.85
532.745	8506.79
537.452	9429.94
542.156	11830.1
546.858	14488.8
551.557	16929.8
556.254	18476.2
560.947	19801
565.639	20643.3
570.327	20687.5
575.013	20462.9
579.697	19430.4
584.377	17417.4
589.055	14809.8
593.731	13262.5
598.403	12009.8
603.074	11254.3
607.741	10328.1
612.406	8791.07
617.068	7581.72
621.728	5789.34
626.385	4202.45
631.039	3202.47
635.691	3136.83
640.34	4735.02
644.987	7184.25
649.63	9086.04
654.272	10486
658.91	10788.4
663.546	11080
668.18	11204.2
672.81	12004.3
677.439	13929.1
682.064	16374.2
686.687	19225.7
691.307	22689
695.925	25716.7
700.54	27230.6
705.153	26853.7
709.763	23758.5
714.37	20440.3
718.974	16499.5
723.577	12850.6
728.176	9879.83
732.773	7192.75
737.367	5748.54
741.959	4463.69
746.548	3170.77
751.134	2563.13
755.718	1874.72
760.299	1417.36
764.878	1264.23
769.454	456.949
774.028	416.731
778.598	259.783
783.167	44.5938
787.732	90.5957
792.295	65.5117
796.856	353.691
801.414	235.705
805.969	175.379
810.522	156.531
815.072	102.967
819.62	219.685
824.165	135.232
828.707	14.7363
833.247	188.264
837.784	184.584
842.319	88.2793
846.851	108.559
851.381	24.8574
855.908	119.074
860.432	120.213
864.954	338.119
869.473	215.31
873.99	106.906
878.504	3.33984
883.015	315
887.524	56.2891
892.031	510.002
896.535	148.742
901.036	308.404
905.535	658.219
910.031	498.707
914.524	569.231
919.015	464.277
923.504	379.281
927.99	406.828
932.473	597.668
936.954	329.359
941.432	417.674
945.908	565.541
950.381	436.022
954.852	709.148
959.32	372.562
963.785	548.33
968.248	570.791
972.708	337.086
977.166	107.568
981.622	530.373
986.074	312.672
990.525	281.393
994.972	254.32
999.417	385.51
1003.86	387.969
1008.3	242.943
1012.74	144.244
1017.17	372.57
1021.61	263.844
1026.04	285.779
1030.46	108.506
1034.89	139.812
1039.31	302.508
1043.73	186.211
1048.15	193.369
1052.56	374.488
1056.97	361
1061.38	426.861
1065.79	117.736
1070.19	411.471
1074.6	801.307
1079	448.918
1083.39	487.182
1087.79	519.762
1092.18	556.814
1096.57	731.523
1100.96	582.859
1105.34	652.209
1109.72	760.086
1114.1	912.955
1118.48	894.924
1122.85	1119.98
1127.22	889.557
1131.6	827.922
1135.96	1088.69
1140.33	1041.17
1144.69	1127.79
1149.05	863.525
1153.4	1095.36
1157.76	785.119
1162.11	774.199
1166.46	812.113
1170.81	600.672
1175.15	857.504
1179.49	856.266
1183.83	606.023
1188.17	562.865
1192.5	429.777
1196.84	421.83
1201.16	280.408
1205.49	357.305
1209.82	282.955
1214.14	224.705
1218.46	246.057
1222.77	285.457
1227.09	277.664
1231.4	64.8945
1235.71	327.326
1240.02	205.838
1244.32	129.459
1248.62	237.129
1252.92	345.107
1257.22	105.965
1261.51	214.113
1265.81	12.5059
1270.1	18.0605
1274.38	105.398
1278.67	12.8633
1282.95	191.338
1287.23	355.844
1291.51	145.383
1295.78	235.022
1300.05	159.647
1304.32	396.697
1308.59	290.656
1312.86	242.697
1317.12	177.207
1321.38	124.24
1325.63	47.0625
1329.89	212.629
1334.14	85.8086
1338.39	56.873
1342.64	142.06
1346.88	473.535
1351.13	246.938
1355.37	45.6211
1359.61	146.59
1363.84	129.826
1368.07	244.365
1372.3	227.15
1376.53	321.119
1380.76	166.356
1384.98	164.986
1389.2	17.334
1393.42	252.469
1397.64	254.404
1401.85	490.836
1406.06	293.275
1410.27	302.281
1414.47	312.062
1418.68	476.418
1422.88	471.574
1427.08	439.574
1431.27	358.693
1435.47	481.613
1439.66	439.435
1443.85	353.332
1448.03	288.152
1452.22	200.449
1456.4	71.7793
1460.58	90.0273
1464.76	176.469
1468.93	138.764
1473.1	295.662
1477.27	92.6231
1481.44	313.215
1485.6	137.406
1489.77	73.7383
1493.92	176.656
1498.08	661.965
1502.24	200.522
1506.39	84.0254
1510.54	9.51172
1514.69	376.443
1518.83	590.668
1522.97	260.07
1527.12	100.654
1531.25	180.533
1535.39	392.039
1539.52	194.008
1543.65	44.8047
1547.78	200.025
1551.91	1046.89
1556.03	511.33
1560.15	346.598
1564.27	159.281
1568.39	187.193
1572.5	173.182
1576.61	55.3301
