Measurement: Raman, 514 nm, ccw, Raman Data Processed
Mineral: Magnesiochromite
Rruff sample: R050399
Ideal chemistry: MgCr^3+^_2_O_4_
Locality: Troodos Mountains, Cyprus
Source: Andy McCarthy
Description: Black grains
Measured chemistry: (Mg_0.68_Fe^2+^_0.32_)_Σ=1_(Cr_1.29_Al_0.64_Fe^3+^_0.07_)_Σ=2_O__4
Pin_id: M01485
Orientation: Laser parallel to a* (1 0 0). Fiducial mark perpendicular to laser is parallel to c [0 0 1]
Raman shift (cm-1)	intensity
127.792	0
132.725	47.1904
137.656	1147.05
142.583	555.131
147.508	706.231
152.431	819.236
157.35	675.019
162.267	1291.72
167.181	1256.84
172.092	632.741
177.001	751.917
181.907	932.693
186.81	752.042
191.711	897.931
196.608	1055.3
201.503	960.835
206.395	996.864
211.285	909.262
216.172	1198.79
221.056	1319.06
225.937	1323.26
230.816	1318.45
235.692	1351.33
240.565	1587.93
245.436	1426.62
250.304	1440.29
255.169	1121.8
260.031	1056.01
264.891	1194.09
269.748	970.766
274.602	732.526
279.454	447.687
284.303	440.338
289.149	325.868
293.992	275.75
298.833	193.343
303.671	39.6533
308.507	182.262
313.339	107.25
318.169	67.5957
322.996	151.57
327.821	161.048
332.643	195.248
337.462	189.036
342.279	41.9004
347.092	249.069
351.904	186.663
356.712	143.999
361.518	112.615
366.321	173.341
371.121	20.999
375.919	2.17578
380.714	70.9385
385.506	222.154
390.296	99.7647
395.083	82.2041
399.867	244.007
404.649	335.205
409.428	205.404
414.204	95.5312
418.978	118.777
423.749	23.542
428.517	116.355
433.282	10.0342
438.045	176.786
442.806	193.984
447.563	85.9023
452.318	427.938
457.07	361.231
461.82	575.064
466.567	663.408
471.311	845.638
476.053	1166.65
480.792	1326.61
485.528	1459.24
490.262	1500.39
494.992	1305.63
499.721	1326.49
504.446	1359.56
509.169	1696.39
513.89	2338.93
518.607	3356.25
523.322	4452.55
528.035	5696.26
532.745	6828.59
537.452	8134.05
542.156	10204.6
546.858	12869.1
551.557	15098.7
556.254	16782.9
560.947	17296.5
565.639	17994
570.327	18285.1
575.013	18719.3
579.697	18337.7
584.377	17437.4
589.055	16332.9
593.731	14304.3
598.403	13066.8
603.074	12322.1
607.741	11542.2
612.406	10185.3
617.068	8612.65
621.728	6919.06
626.385	5237.27
631.039	4113.3
635.691	4040.68
640.34	5450.33
644.987	7616.56
649.63	9739.96
654.272	10936.5
658.91	11563
663.546	11462.5
668.18	11787.1
672.81	12674.3
677.439	14431.3
682.064	16562.5
686.687	19329.8
691.307	22732.7
695.925	26060.2
700.54	27518.2
705.153	26978.7
709.763	24273.7
714.37	20676
718.974	16637
723.577	13042.9
728.176	10225.9
732.773	7799.07
737.367	6149.67
741.959	4756.74
746.548	3731.03
751.134	2782.95
755.718	2224.09
760.299	1739.34
764.878	993.426
769.454	714.398
774.028	553.023
778.598	441.546
783.167	247.523
787.732	9.53613
792.295	66.376
796.856	72.0615
801.414	143.262
805.969	195.942
810.522	116.138
815.072	235.519
819.62	196.244
824.165	150.315
828.707	13.5015
833.247	98.6191
837.784	120.508
842.319	44.7935
846.851	110.961
851.381	95.4619
855.908	217.013
860.432	295.668
864.954	4.64795
869.473	119.417
873.99	180.607
878.504	252.278
883.015	195.051
887.524	242.407
892.031	419.065
896.535	394.399
901.036	331.676
905.535	271.568
910.031	289.918
914.524	312.257
919.015	354.571
923.504	395.026
927.99	451.247
932.473	245.684
936.954	295.656
941.432	462.272
945.908	498.317
950.381	410.796
954.852	770.578
959.32	455.58
963.785	380.364
968.248	429.486
972.708	162.741
977.166	123.531
981.622	214.995
986.074	149.613
990.525	282.174
994.972	257.173
999.417	277.507
1003.86	24.8066
1008.3	71.8911
1012.74	192.044
1017.17	151.358
1021.61	2.03076
1026.04	16.7363
1030.46	31.1597
1034.89	116.178
1039.31	133.227
1043.73	172.773
1048.15	109.219
1052.56	178.2
1056.97	277.828
1061.38	56.7808
1065.79	81.0615
1070.19	214.15
1074.6	351.528
1079	249.033
1083.39	420.336
1087.79	341.206
1092.18	258.281
1096.57	482.073
1100.96	534.325
1105.34	593.524
1109.72	725.031
1114.1	817.265
1118.48	904.343
1122.85	1077.63
1127.22	996.46
1131.6	996.222
1135.96	1027.39
1140.33	870.431
1144.69	1018.42
1149.05	1121.28
1153.4	1096.44
1157.76	841.808
1162.11	790.496
1166.46	1016.69
1170.81	697.833
1175.15	847.914
1179.49	664.044
1183.83	615.179
1188.17	637.704
1192.5	455.252
1196.84	563.39
1201.16	475.62
1205.49	478.773
1209.82	328.164
1214.14	417.675
1218.46	259.556
1222.77	242.226
1227.09	227.217
1231.4	192.501
1235.71	338.952
1240.02	126.416
1244.32	248.013
1248.62	74.7144
1252.92	221.555
1257.22	175.427
1261.51	248.455
1265.81	171.59
1270.1	95.5215
1274.38	204.542
1278.67	153.772
1282.95	205.626
1287.23	159.685
1291.51	315.686
1295.78	198.609
1300.05	226.42
1304.32	291.098
1308.59	255.616
1312.86	233.954
1317.12	278.087
1321.38	226.995
1325.63	4.65479
1329.89	22.0488
1334.14	68.1968
1338.39	194.061
1342.64	28.3574
1346.88	72.0571
1351.13	54.3423
1355.37	83.7593
1359.61	92.6934
1363.84	137.913
1368.07	99.1231
1372.3	264.911
1376.53	364.72
1380.76	183.643
1384.98	275.333
1389.2	361.974
1393.42	373.714
1397.64	459.731
1401.85	196.606
1406.06	374.133
1410.27	314.473
1414.47	201.77
1418.68	281.385
1422.88	312.399
1427.08	334.815
1431.27	117.557
1435.47	400.979
1439.66	234.008
1443.85	81.708
1448.03	123.059
1452.22	75.9404
1456.4	182.275
1460.58	94.3716
1464.76	135.885
1468.93	412.337
1473.1	296.18
1477.27	11.7881
1481.44	23.1226
1485.6	154.001
1489.77	0.05127
1493.92	49.9976
1498.08	17.7949
1502.24	61.8384
1506.39	94.0483
1510.54	43.9785
1514.69	76.9956
1518.83	101.138
1522.97	241.476
1527.12	116.897
1531.25	167.554
1535.39	147.417
1539.52	164.621
1543.65	152.486
1547.78	234.887
1551.91	714.093
1556.03	426.631
1560.15	121.561
1564.27	222.699
1568.39	169.385
1572.5	51.919
1576.61	62.9243
