Measurement: Raman, 514 nm, ccw, Raman Data Processed
Mineral: Magnesiochromite
Rruff sample: R060797
Ideal chemistry: MgCr^3+^_2_O_4_
Locality: Benbow mine, Stillwater Complex, Mount Wood area, Stillwater County, Montana, USA
Source: California Institute of Technology
Description: Black granular massive
Measured chemistry: (Mg_0.55_Fe^2+^_0.45_)_Σ=1_(Cr_1.28_Al_0.58_Fe^3+^_0.14_)_Σ=2_O_4_
Pin_id: M01281
Orientation: Laser parallel to -a* (-1 0 0). Fiducial mark perpendicular to laser is parallel to c [0 0 1]
Raman shift (cm-1)	intensity
125.295	0
130.23	461.715
135.163	607.033
140.092	936.365
145.019	631.734
149.944	680.637
154.866	823.037
159.785	558.457
164.702	667.125
169.616	755.973
174.528	820.6
179.437	770.748
184.343	905.773
189.247	1527.45
194.148	1548.74
199.046	1831.67
203.942	1347.14
208.835	530.857
213.726	702.141
218.614	824.887
223.5	899.014
228.382	961.064
233.263	974.025
238.14	896.385
243.015	906.715
247.888	673.467
252.758	766.701
257.625	705.428
262.49	546.738
267.352	612.043
272.211	555.51
277.068	528.695
281.922	187.008
286.773	172.383
291.622	292.715
296.469	15.5859
301.312	97.2852
306.154	47.1055
310.992	63.2129
315.828	66.0606
320.661	159.397
325.492	301.598
330.32	190.4
335.145	110.801
339.968	208.957
344.789	106.356
349.606	345.504
354.421	310.447
359.234	121.199
364.043	30.8867
368.851	25.9883
373.655	203.332
378.457	68.3125
383.256	0.742188
388.053	243.062
392.847	70.3906
397.639	106.029
402.428	100.135
407.214	129.477
411.998	545.064
416.779	362.697
421.557	477.07
426.333	367.728
431.106	582.363
435.877	584.717
440.645	573.394
445.41	582.428
450.173	578.596
454.933	1002.17
459.691	942.242
464.446	1263.3
469.198	1362.24
473.948	1384.2
478.695	1740.17
483.439	1907.84
488.181	2186.08
492.92	2266.08
497.657	3077.5
502.391	2827.4
507.122	3269.22
511.851	3916.1
516.577	4622.77
521.301	5552.42
526.022	6429.07
530.74	7478.43
535.456	8383.88
540.169	10383.4
544.879	11886.4
549.587	13741.2
554.292	14561.8
558.995	15519
563.695	16189.1
568.392	16938
573.087	16940.6
577.779	15882.8
582.469	13967.6
587.156	12384.1
591.84	10598.2
596.522	9416.08
601.201	8626.06
605.877	7611.32
610.551	6747.07
615.222	5362.58
619.891	4396.52
624.557	3418.14
629.22	2773.37
633.881	2775.43
638.539	3830.44
643.195	5219.61
647.848	6561.01
652.498	7444.61
657.145	10527.6
661.791	10758.4
666.433	10404
671.073	8802.62
675.71	9878.52
680.345	11391.7
684.977	12808.4
689.606	14621.7
694.233	17415.2
698.857	17954.6
703.478	17017.2
708.097	15419.8
712.714	13189.1
717.327	10886.7
721.938	8423.95
726.547	6588.91
731.153	5035.53
735.756	3899.17
740.356	3007.22
744.954	2291.47
749.55	1607.28
754.142	1197.18
758.733	892.488
763.32	557.721
767.905	410.262
772.487	216.902
777.067	9.92773
781.644	178.951
786.218	258.26
790.79	40.4863
795.359	70.6211
799.926	8.98438
804.49	243.434
809.051	53.7559
813.61	13.3477
818.166	40.3242
822.72	34.7637
827.271	134.584
831.819	38.5547
836.365	64.3652
840.908	2.30273
845.448	9.6582
849.986	56.4199
854.521	113.428
859.054	141.06
863.584	325.685
868.111	336.648
872.636	169.928
877.158	207.394
881.677	206.334
886.194	83.0742
890.709	285.231
895.22	355.219
899.729	436.938
904.236	195.647
908.74	335.748
913.241	286.147
917.739	205.641
922.235	365.291
926.729	290.603
931.219	224.539
935.708	486.309
940.193	250.088
944.676	389.58
949.156	315.916
953.634	315.293
958.109	239.268
962.582	249.379
967.051	223.01
971.519	13.0742
975.983	293.34
980.445	96.2461
984.905	86.5234
989.362	172.24
993.816	159.957
998.267	79.9688
1002.72	137.906
1007.16	268.455
1011.61	154.365
1016.05	120.6
1020.49	115.113
1024.92	7.34375
1029.36	161.99
1033.79	266.815
1038.21	327.647
1042.64	283.688
1047.06	345.111
1051.48	284.137
1055.9	319.685
1060.32	223.361
1064.73	385.01
1069.14	296.326
1073.55	451.482
1077.95	549.566
1082.35	436.856
1086.75	469.039
1091.15	618.891
1095.54	748.588
1099.93	761.684
1104.32	642.883
1108.71	774.414
1113.09	615.576
1117.47	848.086
1121.85	934.156
1126.23	905.078
1130.6	756.615
1134.97	749.662
1139.34	1022.8
1143.7	877.596
1148.07	975.162
1152.43	716.582
1156.79	949.846
1161.14	748.816
1165.49	558.533
1169.84	686.014
1174.19	549.856
1178.54	702.014
1182.88	466.76
1187.22	594.51
1191.55	330.959
1195.89	603.545
1200.22	371.998
1204.55	376.408
1208.87	314.09
1213.2	427.346
1217.52	237.141
1221.84	190.422
1226.15	261.527
1230.47	394.615
1234.78	98.0762
1239.09	217.469
1243.39	214.766
1247.69	55.0156
1251.99	77.1758
1256.29	199.353
1260.59	225.482
1264.88	89.4492
1269.17	244.232
1273.46	92.5293
1277.74	123.852
1282.02	314.691
1286.3	184.287
1290.58	231.971
1294.86	196.397
1299.13	317.529
1303.39	361.344
1307.66	354.648
1311.93	153.924
1316.19	185.67
1320.45	73.9785
1324.7	22.9727
1328.96	148.303
1333.21	181.195
1337.45	60.3086
1341.7	44.1094
1345.94	144.533
1350.18	80.6035
1354.42	101.775
1358.66	176.334
1362.89	213.107
1367.12	289.58
1371.35	396.826
1375.57	309.127
1379.8	304.678
1384.02	493.578
1388.23	340.334
1392.45	562.273
1396.66	500.123
1400.87	320.773
1405.08	383.033
1409.28	608.303
1413.48	231.6
1417.68	301.918
1421.88	240.815
1426.07	461.062
1430.26	357.766
1434.45	372.025
1438.64	305.486
1442.82	118.803
1447	259.738
1451.18	130.943
1455.35	277.69
1459.53	219.537
1463.7	53.7578
1467.87	457.459
1472.03	114.711
1476.19	187.185
1480.35	193.701
1484.51	43.6406
1488.67	41.3184
1492.82	38.1465
1496.97	220.162
1501.12	2.58008
1505.26	105.406
1509.4	30.3086
1513.54	88.6758
1517.68	170.148
1521.81	44.3691
1525.94	74.9473
1530.07	372.049
1534.2	127.027
1538.32	253.574
1542.44	31.8359
1546.56	286.092
1550.68	248.809
1554.79	89.6465
1558.9	246.732
1563.01	111.441
1567.12	79.5742
1571.22	71.8691
1575.32	58.207
