Measurement: Raman, 514 nm, ccw, Raman Data Processed
Mineral: Magnesite
Rruff sample: R050443
Ideal chemistry: MgCO_3_
Locality: Brumado, Bahia, Brazil
Source: Eugene Schlepp
Description: Group of colorless crystals
Measured chemistry: Mg_1.00_CO_3_
Pin_id: L01455
Orientation: Laser parallel to -a* (-1 0 0). Fiducial mark perpendicular to laser is parallel to -c [0 0 -1]
Raman shift (cm-1)	intensity
92.049	0
96.995	33.7456
101.939	34.7944
106.879	257.843
111.818	286.836
116.753	311.111
121.686	1520.1
126.617	215.827
131.545	102.132
136.471	151.959
141.393	117.043
146.314	133.469
151.232	85.8682
156.147	82.3584
161.06	61.7168
165.97	161.232
170.877	137.102
175.782	80.3477
180.685	145.343
185.585	205.611
190.482	219.487
195.377	696.085
200.269	1757.55
205.158	4758.62
210.045	13040.2
214.93	22841.5
219.812	5314.59
224.691	1127.52
229.568	170.178
234.442	305.604
239.314	48.0415
244.183	101.426
249.049	85.1206
253.913	207.19
258.775	19.8784
263.633	128.852
268.49	218.761
273.343	185.655
278.194	29.0303
283.043	23.772
287.889	200.843
292.732	87.9238
297.573	56.1743
302.411	189.826
307.247	151.546
312.08	654.679
316.91	1917.02
321.738	5317.51
326.563	12843.6
331.386	20218.5
336.206	6752.69
341.024	1811.66
345.839	661.859
350.651	493.973
355.461	440.477
360.268	274.867
365.073	216.15
369.875	297.327
374.674	252.486
379.471	188.467
384.266	224.816
389.057	191.947
393.846	210.365
398.633	19.0459
403.417	256.146
408.198	95.1523
412.977	170.073
417.753	18.9082
422.527	41.8838
427.298	104.105
432.067	231.873
436.832	121.741
441.596	180.276
446.356	62.3242
451.115	59.1562
455.87	110.778
460.623	147.41
465.373	91.0644
470.121	38.7275
474.866	140.368
479.609	92.0156
484.349	73.6699
489.086	83.6758
493.821	21.8359
498.553	155.308
503.283	46.9248
508.01	209.509
512.734	210.126
517.456	111.793
522.175	163.466
526.892	270.366
531.606	115.648
536.317	200.888
541.026	118.503
545.732	67.7109
550.436	72.1728
555.137	68.126
559.835	180.16
564.531	11.4629
569.224	11.375
573.915	148.058
578.603	95.6016
583.288	184.885
587.971	111.348
592.651	144.029
597.329	144.828
602.004	163.712
606.676	276.674
611.346	239.817
616.013	98.0449
620.678	257.374
625.34	384.091
629.999	355.394
634.656	325.015
639.31	212.709
643.962	224.493
648.611	550.425
653.257	475.398
657.901	534.598
662.542	334.856
667.181	600.642
671.817	595.674
676.45	697.194
681.081	679.062
685.709	862.293
690.334	1073.73
694.957	1006.16
699.578	1242.49
704.195	1415.17
708.811	2000.26
713.423	2524.12
718.033	3512.45
722.64	5705.98
727.245	9386.47
731.847	15232.9
736.446	21939.4
741.043	22836.8
745.637	15023.1
750.229	7878.71
754.818	4183.98
759.404	2390.19
763.988	1096.59
768.569	413.74
773.148	261.833
777.724	247.853
782.297	108.962
786.868	122.422
791.436	82.499
796.001	215.414
800.564	19.2822
805.125	88.5098
809.682	8.89844
814.237	42.6982
818.79	29.2646
823.339	133.353
827.887	30.6201
832.431	58.5176
836.973	115
841.513	79.4394
846.049	0.832031
850.583	5.14648
855.115	59.4053
859.644	112.691
864.17	63.959
868.694	180.215
873.215	168.459
877.733	88.2598
882.249	107.061
886.762	22.2314
891.273	83.2969
895.781	277.344
900.286	25.6133
904.789	149.378
909.289	129.417
913.786	17.5137
918.281	88.6182
922.773	438.642
927.263	76.2891
931.75	201.46
936.234	78.8555
940.716	232.245
945.195	165.992
949.672	234.826
954.146	183.142
958.617	126.106
963.086	126.027
967.552	107.184
972.015	140.953
976.476	275.569
980.934	416.831
985.39	311.707
989.843	211.864
994.293	252.398
998.741	88.2373
1003.19	469.392
1007.63	97.7256
1012.07	113.522
1016.5	116.62
1020.94	156.614
1025.37	19.2617
1029.8	550.262
1034.23	869.331
1038.65	1487.08
1043.07	2116.22
1047.49	3037.74
1051.91	4443.5
1056.32	5897.72
1060.73	8258.34
1065.14	12178.8
1069.55	18302
1073.95	29886.3
1078.35	49969.9
1082.75	93459.1
1087.14	196467
1091.54	382646
1095.93	474033
1100.31	314478
1104.7	178158
1109.08	98703.5
1113.46	51647.1
1117.84	26153.2
1122.21	14349.1
1126.58	8441.91
1130.95	5397.16
1135.32	3887.88
1139.68	2560.98
1144.04	2078.91
1148.4	1508.24
1152.76	1097.59
1157.11	742.389
1161.46	714.613
1165.81	618.234
1170.16	320.24
1174.5	339.594
1178.84	435.287
1183.18	255.359
1187.51	180.842
1191.84	94.668
1196.17	57.8047
1200.5	193.297
1204.83	194.654
1209.15	12.2148
1213.47	73.2949
1217.78	80.4121
1222.1	12.5449
1226.41	19.3613
1230.72	10.6738
1235.02	38.8984
1239.33	166.34
1243.63	6.74023
1247.92	10.3516
1252.22	20.4941
1256.51	169.404
1260.8	158.008
1265.09	249.244
1269.38	227.766
1273.66	138.297
1277.94	182.543
1282.21	163.469
1286.49	219.856
1290.76	161.982
1295.03	232.188
1299.3	195.184
1303.56	247.779
1307.82	183.143
1312.08	299.535
1316.34	162.977
1320.59	110.438
1324.84	330.709
1329.09	126.129
1333.34	112.426
1337.58	197.658
1341.82	189.803
1346.06	11.4473
1350.29	85.2598
1354.53	11.5254
1358.76	217.435
1362.98	50.9355
1367.21	178.56
1371.43	87.8223
1375.65	122.139
1379.87	263.906
1384.08	109.322
1388.29	252.67
1392.5	172.723
1396.71	112.301
1400.91	174.315
1405.11	189.369
1409.31	41.9902
1413.51	168.889
1417.7	338.793
1421.89	407.529
1426.08	354.223
1430.26	329.853
1434.44	532.318
1438.62	1634.45
1442.8	4646.7
1446.98	5799.05
1451.15	2430.98
1455.32	1528.26
1459.49	955.234
1463.65	1072.22
1467.81	783.369
1471.97	824.812
1476.13	739.277
1480.28	808.408
1484.43	624.93
1488.58	699.385
1492.73	404.578
1496.87	255.586
1501.01	200.16
1505.15	325.393
1509.29	97.1445
1513.42	214.516
1517.55	29.6387
1521.67	167.185
1525.8	76.2188
1529.92	25.8906
1534.04	292.103
1538.16	317.353
1542.27	228.471
1546.39	262.762
1550.49	207.685
1554.6	162.615
1558.71	139.324
1562.81	17.6797
1566.91	208.19
1571	104.619
1575.1	206.773
