Measurement: Raman, 514 nm, depolarized, Raman Data Processed
Mineral: Magnesite
Rruff sample: R050676
Ideal chemistry: MgCO_3_
Locality: Tyrol, Austria
Source: University of Arizona Mineral Museum
Description: Brown rhombohedral crystals
Measured chemistry: (Mg_0.87_Fe^2+^_0.12_Ca_0.01_)_Î£=1_CO_3_; trace amounts of Mn and Cd; CO_2_ estimated by difference
Pin_id: M01410
Orientation: Laser parallel to c* (0 0 1). Fiducial mark perpendicular to laser is parallel to a [1 0 0]
Raman shift (cm-1)	intensity
61.079	0
66.041	292.235
71.001	801.919
75.957	957.754
80.912	1151.21
85.863	679.825
90.812	214.215
95.759	126.65
100.703	289.701
105.644	370.342
110.583	196.377
115.52	439.517
120.453	1165.52
125.385	189.247
130.313	53.4404
135.239	39.8608
140.163	45.8281
145.084	29.0464
150.002	27.9629
154.918	85.5454
159.832	186.827
164.742	359.14
169.651	302.118
174.556	500.757
179.459	614.005
184.36	718.997
189.258	950.183
194.153	1834.76
199.046	3657.07
203.936	7633.09
208.824	14699.4
213.709	10149.1
218.592	2347.74
223.472	584.678
228.349	250.259
233.224	119.113
238.096	12.0928
242.966	140.06
247.833	141.06
252.698	38.0293
257.56	17.874
262.419	66.1484
267.276	150.624
272.13	95.3164
276.982	29.5293
281.831	49.7764
286.677	101.171
291.521	64.8945
296.363	191.52
301.202	241.565
306.038	414.945
310.872	899.044
315.703	2302.02
320.531	5589.63
325.357	9555.2
330.181	5617.44
335.001	1957.48
339.82	828.29
344.635	526.871
349.448	367.233
354.259	437.463
359.067	254.375
363.872	241.181
368.675	311.736
373.475	245.023
378.272	235.033
383.067	346.156
387.86	236.632
392.649	220.1
397.437	198.072
402.221	85.2568
407.003	45.9346
411.783	80.7773
416.56	149.005
421.334	21.6172
426.106	135.228
430.875	39.7432
435.641	56.7432
440.405	87.6816
445.167	36.043
449.925	138.8
454.681	38.6758
459.435	204.676
464.186	213.26
468.934	163
473.68	314.586
478.423	528.114
483.164	493.195
487.902	646.891
492.637	776.864
497.37	869.323
502.1	852.398
506.828	772.577
511.553	909.734
516.276	811.75
520.995	1007.63
525.713	807.369
530.427	559.223
535.139	571.298
539.849	609.276
544.556	508.481
549.26	406.318
553.962	378.279
558.661	336.521
563.357	431.473
568.051	98.7051
572.742	267.447
577.431	271.881
582.117	156.164
586.801	270.927
591.481	182.626
596.16	138.016
600.835	56.4766
605.508	72.9609
610.179	38.0605
614.847	64.1494
619.512	47.1484
624.175	88.0879
628.835	53.9629
633.492	115.543
638.147	200.088
642.799	154.277
647.449	208.668
652.096	211.495
656.74	144.092
661.382	254.106
666.021	367.174
670.658	400.369
675.292	523.835
679.923	546.39
684.552	501.229
689.178	528.455
693.802	683.489
698.423	683.049
703.041	1141.84
707.657	1334.54
712.27	1716.44
716.881	2698.72
721.489	4004.82
726.094	6382.45
730.697	10287.3
735.297	14878.6
739.894	15253.7
744.489	10187.8
749.081	5503.84
753.671	2901.59
758.258	1448.34
762.842	488.335
767.424	177.403
772.003	55.1855
776.58	90.2041
781.154	60.2031
785.725	23.9648
790.294	138.13
794.86	83.0098
799.424	135.593
803.985	116.905
808.543	4.86914
813.099	154.283
817.652	187.343
822.202	169.316
826.75	194.935
831.295	57.2842
835.838	55.3359
840.378	115.106
844.915	127.584
849.45	98.7324
853.982	158.57
858.512	122.096
863.039	40.3594
867.563	360.087
872.085	285.519
876.604	510.989
881.12	564.179
885.634	231.731
890.145	134.113
894.654	308.423
899.16	157.102
903.663	217.446
908.164	187.538
912.662	198.156
917.158	368.982
921.651	193.82
926.141	375.026
930.628	203.119
935.113	317.893
939.596	259.959
944.076	392.522
948.553	278.843
953.027	377.522
957.499	679.576
961.969	1234.92
966.435	889.76
970.899	418.283
975.361	359.694
979.82	278.69
984.276	368.426
988.73	151.55
993.181	38.4492
997.629	184.035
1002.08	436.364
1006.52	119.552
1010.96	156.486
1015.4	51.9209
1019.83	268.238
1024.26	108.392
1028.69	67.2978
1033.12	611.362
1037.55	908.809
1041.97	1419.01
1046.39	1792.94
1050.81	2500.36
1055.22	3403.01
1059.63	5071.96
1064.04	7165.03
1068.45	11322.2
1072.85	18289.5
1077.25	30081.1
1081.65	54530.9
1086.05	108870
1090.44	203847
1094.83	255458
1099.22	182855
1103.6	97417.8
1107.99	47189.6
1112.37	23123.6
1116.74	12054.9
1121.12	6911.48
1125.49	4499.18
1129.86	3078.51
1134.23	2124.79
1138.59	1767.26
1142.95	1146.25
1147.31	1125.17
1151.67	843.094
1156.02	560.328
1160.38	529.381
1164.72	358.658
1169.07	442.4
1173.41	120.508
1177.75	139.947
1182.09	21.7051
1186.43	236.781
1190.76	186.16
1195.09	73.8496
1199.42	63.8418
1203.74	75.1348
1208.07	159.725
1212.39	196.607
1216.7	27.709
1221.02	247.074
1225.33	223.727
1229.64	285.625
1233.95	51.2363
1238.25	139.133
1242.55	210.844
1246.85	23.8184
1251.15	252.062
1255.44	197.359
1259.73	361.643
1264.02	55.0742
1268.31	321.812
1272.59	205.213
1276.87	144.49
1281.15	174.559
1285.42	286.875
1289.69	232.844
1293.96	192.217
1298.23	358.852
1302.5	271.065
1306.76	393.277
1311.02	348.4
1315.27	505.668
1319.53	391.832
1323.78	364.971
1328.03	364.072
1332.28	287.184
1336.52	222.373
1340.76	369.631
1345	263.225
1349.23	336.596
1353.47	243.832
1357.7	257.082
1361.93	222.147
1366.15	329.789
1370.37	187.381
1374.59	128.906
1378.81	148.772
1383.03	94.5234
1387.24	222.715
1391.45	25.7168
1395.65	75.3848
1399.86	165.758
1404.06	156.371
1408.26	16.6445
1412.46	32.1172
1416.65	19.5469
1420.84	88.625
1425.03	184.338
1429.22	536.76
1433.4	735.553
1437.58	1466.08
1441.76	2743.72
1445.93	2966.45
1450.11	2424.41
1454.28	1601.22
1458.44	1311.32
1462.61	1192.22
1466.77	1028.88
1470.93	938.307
1475.09	938.012
1479.24	968.99
1483.39	779.949
1487.54	790.346
1491.69	517.324
1495.84	489.102
1499.98	291.428
1504.12	173.693
1508.25	347.475
1512.38	224.44
1516.52	143.412
1520.64	265.586
1524.77	86.0801
1528.89	77.6367
1533.01	289.527
1537.13	240.496
1541.25	169.428
1545.36	278.303
1549.47	240.711
1553.58	172.769
1557.68	117.754
1561.78	54.6074
1565.88	81.9238
1569.98	69.25
1574.07	11.5176
