Measurement: Raman, 514 nm, depolarized, Raman Data Processed
Mineral: Magnesio-hastingsite
Rruff sample: R070288
Ideal chemistry: NaCa_2_(Mg_4_Fe^3+^)Si_6_Al_2_O_22_(OH)_2_
Locality: Dallas Gem Mine (Gem Mine; Benitoite Mine), New Idria District, San Benito County, California, USA
Source: Michael Scott
Description: Dark brown to black prismatic crystals frozen in albite
Measured chemistry: (Na_0.51_[box]_0.33_K_0.16_)_Σ=1_(Ca_1.75_Na_0.25_)_Σ=2_(Mg_3.02_Fe^2+^_0.61_Ti_0.37_)_Σ=4_(Fe^3+^_0.73_Al_0.27_)_Σ=1_Si_5.84_Al_2.16_O_22_(OH)_2_; (OH) estimated by difference
Pin_id: M01310
Orientation: Laser parallel to c* (0 0 1). Fiducial mark perpendicular to laser is parallel to a [1 0 0]
Raman shift (cm-1)	intensity
87.632	0
92.595	514.551
97.554	15.3398
102.511	816.614
107.465	726.985
112.417	1622.14
117.365	2918.54
122.311	2009.3
127.254	830.605
132.195	348.623
137.132	408.824
142.067	408.276
146.999	464.436
151.928	1128.31
156.855	2601.27
161.778	4513.98
166.699	3638.72
171.618	2252.92
176.533	1762.2
181.446	1694.81
186.356	1876.73
191.263	1842.78
196.167	1672.77
201.069	1754.62
205.968	1863.99
210.864	2955.11
215.757	4986.02
220.648	7719.55
225.536	9085.5
230.421	6777.47
235.304	3926.65
240.183	2667.95
245.06	1875.55
249.934	1327
254.806	836.38
259.675	498.589
264.541	135.364
269.404	32.4937
274.265	142.159
279.122	4.80615
283.977	148.504
288.83	288.703
293.679	408.553
298.526	611.933
303.371	679.795
308.212	748.093
313.051	946.057
317.887	1034.77
322.72	1077.71
327.551	1023.9
332.379	916.087
337.204	839.219
342.026	780.292
346.846	656.807
351.663	673.598
356.477	800.616
361.289	948.822
366.098	1043.18
370.904	1165.06
375.707	1229.92
380.508	1319.88
385.306	1145.05
390.101	1059.27
394.894	1027.4
399.684	937.606
404.471	862.269
409.256	789.859
414.038	608.746
418.817	502.678
423.593	373.549
428.367	305.332
433.138	112.6
437.907	21.3262
442.672	122.658
447.435	124.155
452.196	34.0635
456.953	21.4956
461.708	29.5752
466.461	43.9741
471.21	157.81
475.957	158.896
480.702	142.727
485.443	343.503
490.182	395.703
494.918	539.313
499.652	736.322
504.383	957.753
509.111	1227.48
513.837	1503.62
518.56	1519.1
523.28	1635.93
527.997	1804.13
532.712	1830.13
537.425	1893.31
542.134	1908.75
546.841	1839.84
551.545	1825.51
556.247	1757.45
560.946	1706.72
565.642	1556.28
570.336	1541.15
575.027	1117.29
579.715	787.546
584.401	434.468
589.084	26.2949
593.764	225.8
598.442	108.951
603.117	108.804
607.79	131.135
612.459	259.772
617.127	342.578
621.791	831.013
626.453	1368.26
631.112	2129.18
635.769	3288.91
640.423	4684.39
645.074	5911.7
649.723	7259.51
654.369	8294.82
659.013	9031.39
663.653	9645.15
668.292	8865.16
672.927	6894.77
677.56	5018.01
682.19	3997.9
686.818	3460.46
691.443	2762.72
696.066	2124.69
700.686	1320.41
705.303	890.902
709.917	736.184
714.529	628.284
719.139	702.66
723.746	722.47
728.35	732.992
732.951	729.975
737.55	646.432
742.147	714.78
746.74	558.807
751.331	622.305
755.92	649.198
760.506	678.717
765.089	958.241
769.67	1042.73
774.248	1367.26
778.824	1717.17
783.397	2129.49
787.967	2461.25
792.535	2704.46
797.1	2681.88
801.662	2566.33
806.222	2266.04
810.78	2183.29
815.334	2134.1
819.887	1797.49
824.436	1779.47
828.983	1527.06
833.528	1322.27
838.07	936.133
842.609	555.648
847.146	164.833
851.68	22.7017
856.211	73.8096
860.74	168.131
865.267	132.624
869.79	72.4356
874.312	142.315
878.83	118.033
883.346	277.668
887.86	587.984
892.371	776.398
896.879	1056.95
901.385	1143.15
905.889	1215.84
910.389	1343.13
914.887	1310.18
919.383	1122.64
923.876	974.697
928.367	867.529
932.854	780.423
937.34	841.065
941.823	1037.42
946.303	1049.48
950.781	1081.21
955.256	1317.59
959.728	1416.25
964.199	1584.23
968.666	1837.48
973.131	1810.31
977.593	2121.72
982.053	2212.69
986.511	2520.2
990.966	3115.62
995.418	3436.42
999.868	3816.85
1004.32	4523.25
1008.76	4713.91
1013.2	4735.14
1017.64	4514.33
1022.08	4265.31
1026.51	4003.34
1030.94	3568.48
1035.37	3360.15
1039.8	3045.74
1044.22	2742.83
1048.65	2585.56
1053.07	2419.15
1057.48	2081.73
1061.9	1792.17
1066.31	1476.31
1070.72	1291.97
1075.13	1120
1079.53	993.933
1083.93	816.638
1088.33	595.051
1092.73	600.206
1097.12	477.946
1101.51	271.231
1105.9	345.969
1110.29	184.699
1114.67	162.914
1119.06	186.68
1123.43	159.774
1127.81	145.339
1132.18	53.8101
1136.56	51.3115
1140.93	0.662109
1145.29	55.7749
1149.66	45.9775
1154.02	81.0523
1158.38	157.483
1162.73	11.7461
1167.09	33.8355
1171.44	13.7744
1175.79	56.3794
1180.14	55.1728
1184.48	135.46
1188.82	76.0586
1193.16	99.5098
1197.5	127.498
1201.83	128.015
1206.16	67.1748
1210.49	171.267
1214.82	208.901
1219.14	252.935
1223.47	133.869
1227.79	284.133
1232.1	198.631
1236.42	244.584
1240.73	256.218
1245.04	194.891
1249.35	252.942
1253.65	242.232
1257.95	266.522
1262.25	352.878
1266.55	233.188
1270.84	261.242
1275.13	170.455
1279.42	159.795
1283.71	215.285
1288	245.995
1292.28	208.371
1296.56	168.835
1300.84	191.407
1305.11	218.915
1309.38	141.747
1313.65	165.911
1317.92	184.375
1322.19	203.485
1326.45	192.518
1330.71	138.843
1334.97	151.758
1339.22	172.409
1343.48	138.186
1347.73	149.296
1351.97	139.01
1356.22	162.994
1360.46	116.314
1364.7	39.0327
1368.94	127.569
1373.18	88.7158
1377.41	16.8682
1381.64	17.9087
1385.87	67.2974
1390.1	78.6055
1394.32	100.226
1398.54	31.0864
1402.76	120.782
1406.98	23.2398
1411.19	107.911
1415.4	36.8086
1419.61	84.8574
1423.82	72.1025
1428.02	69.4658
1432.23	10.2466
1436.42	167.615
1440.62	118.42
1444.82	146.982
1449.01	31.6352
1453.2	190.443
1457.39	108.771
1461.57	181.142
1465.75	144.464
1469.93	32.3574
1474.11	94.3252
1478.29	145.292
1482.46	83.1152
1486.63	90.2993
1490.8	90.6675
1494.96	132.163
1499.13	103.115
1503.29	7.35498
1507.45	27.7192
1511.6	36.4565
1515.76	137.275
1519.91	20.8145
1524.06	41.1421
1528.2	65.7964
1532.35	1.46631
1536.49	47.875
1540.63	141.061
1544.77	51.9053
1548.9	79.6401
1553.03	61.0605
1557.16	140.754
1561.29	82.561
1565.41	116.168
1569.54	37.9644
1573.66	105.519
1577.77	0
