Measurement: Raman, 514 nm, ccw, Raman Data Processed
Mineral: Magnesio-hastingsite
Rruff sample: R070288
Ideal chemistry: NaCa_2_(Mg_4_Fe^3+^)Si_6_Al_2_O_22_(OH)_2_
Locality: Dallas Gem Mine (Gem Mine; Benitoite Mine), New Idria District, San Benito County, California, USA
Source: Michael Scott
Description: Dark brown to black prismatic crystals frozen in albite
Measured chemistry: (Na_0.51_[box]_0.33_K_0.16_)_Σ=1_(Ca_1.75_Na_0.25_)_Σ=2_(Mg_3.02_Fe^2+^_0.61_Ti_0.37_)_Σ=4_(Fe^3+^_0.73_Al_0.27_)_Σ=1_Si_5.84_Al_2.16_O_22_(OH)_2_; (OH) estimated by difference
Pin_id: M01712
Orientation: Laser parallel to (1 0 1). Fiducial mark perpendicular to laser is parallel to b [0 1 0]
Raman shift (cm-1)	intensity
127.763	0
132.697	848.558
137.628	1017.19
142.556	8.49609
147.482	72.3428
152.405	328.916
157.326	896.856
162.244	1142.8
167.159	598.329
172.072	473.89
176.982	191.132
181.89	321.938
186.795	1082.12
191.697	1056.96
196.597	372.688
201.494	521.715
206.389	173.051
211.281	315.263
216.17	519.963
221.057	735.496
225.941	879.366
230.823	994.496
235.702	1201.33
240.578	1259.9
245.452	1087.32
250.323	887.36
255.192	472.894
260.058	432.861
264.921	146.565
269.782	19.7266
274.64	5.02441
279.495	66.5889
284.348	96.3721
289.198	24.0347
294.046	58.3247
298.891	43.2241
303.733	168.087
308.573	25.291
313.41	175.3
318.245	200.266
323.077	312.459
327.906	394.569
332.733	314.598
337.557	392.998
342.379	501.842
347.198	448.057
352.014	430.425
356.828	570.032
361.639	600.826
366.447	764.78
371.253	865.537
376.056	1136.24
380.857	1514.63
385.655	1419.86
390.451	1297.58
395.243	1172.78
400.034	1281.49
404.821	1363.44
409.606	1543.86
414.389	1468.12
419.168	1491.36
423.945	1212.03
428.72	1024.36
433.492	906.456
438.261	556.193
443.028	423.606
447.792	319.852
452.553	322.549
457.312	128.697
462.068	271.008
466.822	99.9482
471.573	301.986
476.321	253.106
481.067	417.035
485.81	291.903
490.551	558.438
495.289	613.044
500.024	839.659
504.757	1091.09
509.487	1314.26
514.214	1543.45
518.939	1729.26
523.661	1965.65
528.381	1896.55
533.098	2031.9
537.812	1936.68
542.524	2085.89
547.233	2012.55
551.94	1836.68
556.644	1793.41
561.345	1922.98
566.044	1695.56
570.74	1611.29
575.433	1317.03
580.124	1064.51
584.812	794.789
589.498	482.641
594.181	290.812
598.861	58.042
603.539	73.3115
608.214	145.344
612.887	71.0859
617.557	26.6562
622.224	46.3467
626.889	84.8574
631.551	311.034
636.21	509.725
640.867	844.11
645.521	1164.2
650.173	1467.21
654.822	1596.68
659.468	1752.88
664.112	1775.95
668.753	1543.82
673.392	1315.49
678.028	929.99
682.661	780.326
687.292	558.519
691.92	421.588
696.545	377.547
701.168	157.409
705.788	339.187
710.406	419.519
715.021	604.448
719.633	727.289
724.243	874.256
728.85	1055.23
733.455	1224.78
738.056	1097.12
742.656	1269.61
747.252	1051.77
751.846	1083.73
756.438	1055.36
761.027	1123.53
765.613	1150.6
770.196	1290.89
774.777	1527.17
779.356	1712.47
783.932	1944.74
788.505	2070.65
793.075	2148.93
797.643	2110.58
802.208	1831.45
806.771	1592.18
811.331	1362.8
815.888	1163.89
820.443	996.595
824.995	796.959
829.545	627.387
834.092	392.033
838.636	185.753
843.178	16.207
847.717	16.6016
852.254	7.52637
856.788	13.1592
861.319	106.946
865.848	112.865
870.374	11.1973
874.897	90.374
879.418	45.208
883.936	114.274
888.452	232.135
892.965	309.369
897.475	378.727
901.983	377.204
906.488	254.507
910.99	232.57
915.49	153.402
919.988	237.032
924.482	132.394
928.974	245.395
933.464	314.991
937.951	268.137
942.435	396.81
946.917	411.045
951.396	492.81
955.872	507.081
960.346	604.483
964.817	554.052
969.285	628.901
973.751	664.008
978.215	795.086
982.675	703.733
987.134	972.063
991.589	965.565
996.042	1214.97
1000.49	1456.41
1004.94	1705.32
1009.38	1577.95
1013.83	1593.29
1018.27	1543.88
1022.7	1483.76
1027.14	1473.54
1031.57	1455.68
1036	1328.84
1040.43	1061.12
1044.85	1000.17
1049.27	908.631
1053.69	827.482
1058.11	811.725
1062.52	785.729
1066.93	746.812
1071.34	766.453
1075.75	694.535
1080.15	559.727
1084.55	599.523
1088.95	570.361
1093.35	413.603
1097.74	504.581
1102.13	377.467
1106.52	293.989
1110.9	261.585
1115.28	142.803
1119.66	204.148
1124.04	303.932
1128.41	233.2
1132.79	99.2053
1137.16	97.251
1141.52	46.8955
1145.89	42.1074
1150.25	38.5693
1154.61	85.0537
1158.96	39.8389
1163.32	37.9307
1167.67	92.0117
1172.02	23.5178
1176.36	44.042
1180.71	19.3242
1185.05	28.4941
1189.38	28.3301
1193.72	67.2197
1198.05	133.298
1202.38	208.214
1206.71	23.1621
1211.04	86.8584
1215.36	160.109
1219.68	209.91
1224	172.264
1228.31	246.199
1232.62	296.728
1236.93	186.837
1241.24	208.904
1245.54	287.862
1249.84	291.272
1254.14	232.909
1258.44	289.384
1262.73	188.123
1267.03	348.199
1271.31	430.521
1275.6	295.198
1279.88	311.166
1284.16	309.532
1288.44	440.156
1292.72	336.778
1296.99	211.057
1301.26	334.367
1305.53	249.003
1309.79	350.152
1314.06	312.432
1318.32	271.872
1322.57	322.984
1326.83	283.819
1331.08	197.608
1335.33	126.436
1339.58	311.37
1343.82	176.075
1348.06	233.952
1352.3	288.575
1356.54	176.819
1360.77	290.69
1365.01	183.562
1369.23	202.905
1373.46	168.317
1377.68	283.076
1381.9	77.4326
1386.12	163.892
1390.34	209.391
1394.55	134.159
1398.76	81.8438
1402.97	180.893
1407.18	37.6309
1411.38	89.3897
1415.58	136.206
1419.78	90.7451
1423.97	95.541
1428.17	286.515
1432.36	119.103
1436.54	298.272
1440.73	440.466
1444.91	396.698
1449.09	410.821
1453.27	433.257
1457.44	399.022
1461.61	317.757
1465.78	222.538
1469.95	148.335
1474.11	199.123
1478.27	212.035
1482.43	5.78613
1486.59	216.655
1490.74	32.8438
1494.89	61.4893
1499.04	42.5537
1503.19	137.199
1507.33	44.7393
1511.47	77.2119
1515.61	69.5898
1519.75	157.871
1523.88	99.7734
1528.01	139.99
1532.14	55.8154
1536.26	47.5928
1540.38	43.8037
1544.51	139.324
1548.62	145.602
1552.74	171.745
1556.85	52.8438
1560.96	146.553
1565.07	12.1943
1569.17	49.2383
1573.27	122.789
1577.37	0
