Measurement: Raman, 514 nm, ccw, Raman Data Processed
Mineral: Magnesite
Rruff sample: R050676
Ideal chemistry: MgCO_3_
Locality: Tyrol, Austria
Source: University of Arizona Mineral Museum
Description: Brown rhombohedral crystals
Measured chemistry: (Mg_0.87_Fe^2+^_0.12_Ca_0.01_)_Î£=1_CO_3_; trace amounts of Mn and Cd; CO_2_ estimated by difference
Pin_id: M00629
Orientation: Laser parallel to -a* (-1 0 0). Fiducial mark perpendicular to laser is parallel to c [0 0 1]
Raman shift (cm-1)	intensity
88.338	0
93.286	59.0322
98.231	155.698
103.174	284.019
108.114	342.969
113.052	305.835
117.987	837.569
122.919	1994.4
127.849	69.7715
132.777	25.9902
137.702	46.6924
142.624	77.4121
147.544	148.506
152.461	77.3037
157.375	10.1025
162.287	13.1279
167.197	170.103
172.104	149.111
177.008	272.786
181.91	481.679
186.809	822.563
191.706	1379.88
196.6	2826.51
201.491	6416.15
206.38	15284.1
211.267	21427.3
216.151	7565.81
221.032	1926.66
225.911	662.818
230.787	363.292
235.66	433.934
240.531	130.181
245.4	325.844
250.266	229.174
255.129	339.847
259.99	314.573
264.848	405.971
269.703	433.749
274.556	649.438
279.407	916.852
284.255	962.902
289.1	1032.54
293.942	1662.37
298.783	2304.62
303.62	4037.32
308.455	7877.01
313.288	20188.7
318.117	50504.7
322.945	102680
327.769	90919.6
332.591	33971.4
337.411	12097.5
342.228	6184.77
347.042	3675.24
351.854	2360.96
356.663	1879.77
361.47	1390.97
366.274	1197.27
371.075	1131.78
375.874	1006.47
380.67	731.359
385.464	587.295
390.255	623.256
395.043	479.342
399.829	437.537
404.613	231.144
409.393	152.389
414.172	241.105
418.947	68.0371
423.72	30.1709
428.49	145.449
433.258	66.4121
438.024	155.758
442.786	73.9131
447.546	18.8486
452.304	8.60645
457.059	53.582
461.811	318.908
466.56	276.938
471.308	339.06
476.052	661.122
480.794	829.713
485.533	975.956
490.27	1254.21
495.004	1484.16
499.736	1575.48
504.465	1865.61
509.191	1708.1
513.915	1911.82
518.636	1812.99
523.354	1543.85
528.07	1451.92
532.784	1073.14
537.494	888.511
542.203	950.882
546.908	724.32
551.611	716.783
556.311	559.315
561.009	417.893
565.704	497.9
570.397	598.358
575.087	389.371
579.774	86.0664
584.459	229.652
589.141	146.151
593.821	305.676
598.498	229.306
603.172	59.7236
607.844	64.6973
612.513	106.455
617.18	125.054
621.844	170.435
626.505	193.605
631.164	194.098
635.82	276.567
640.473	246.751
645.124	557.523
649.773	230.823
654.418	342.164
659.062	371.945
663.702	546.565
668.34	579.164
672.975	552.23
677.608	503.804
682.238	481.286
686.866	512.887
691.49	314.637
696.113	521.194
700.732	850.347
705.349	925.072
709.964	1270.85
714.576	1824.83
719.185	2651.36
723.792	3729.64
728.396	5924.5
732.997	9367.12
737.596	11905.9
742.192	10518.1
746.785	6101.27
751.376	3496.44
755.965	1768.46
760.551	998.602
765.134	449.767
769.714	272.376
774.292	256.484
778.867	106.766
783.44	181.922
788.01	208.532
792.578	346.473
797.142	264.53
801.705	99.0986
806.264	311.516
810.821	60.4023
815.376	180.553
819.927	176.125
824.476	114.053
829.023	15.6113
833.567	493.977
838.108	325.144
842.647	237.498
847.183	630.356
851.716	372.725
856.247	344.256
860.776	412.68
865.301	504.639
869.824	789.15
874.345	1261.28
878.862	1633.22
883.377	1039.6
887.89	570.295
892.4	524.324
896.907	356.65
901.412	564.543
905.914	318.236
910.413	415.238
914.91	267.639
919.404	378.922
923.896	374.91
928.385	159.59
932.871	267.469
937.355	124.869
941.836	305.766
946.315	126.967
950.79	334.164
955.264	180.373
959.734	258.014
964.202	246.484
968.668	237.902
973.131	304.975
977.591	197.662
982.048	86.3652
986.503	114.441
990.955	253.424
995.405	17.3281
999.852	358.236
1004.3	439.166
1008.74	9.12891
1013.18	146.051
1017.61	64.9609
1022.05	243.547
1026.48	53.3926
1030.91	498.453
1035.33	747.551
1039.76	1147.91
1044.18	1929.87
1048.6	2813.47
1053.01	3735.02
1057.42	5448.66
1061.84	7796.31
1066.24	11724.4
1070.65	20098.5
1075.05	30512.9
1079.45	52053.7
1083.85	98893.9
1088.24	197677
1092.63	328931
1097.02	312894
1101.41	184662
1105.8	91420.5
1110.18	43978.8
1114.56	22377.5
1118.93	12299.5
1123.31	7605.25
1127.68	5121.03
1132.04	3380.21
1136.41	2406.78
1140.77	1627.78
1145.13	1189.99
1149.49	982.971
1153.85	512.902
1158.2	521.443
1162.55	464.469
1166.9	209.99
1171.24	396.031
1175.58	111.519
1179.92	212.441
1184.26	114.389
1188.6	56.5508
1192.93	86.2773
1197.26	93.1035
1201.58	119.799
1205.9	212.789
1210.23	45.3594
1214.55	151.238
1218.86	173.377
1223.17	67.2363
1227.48	352.334
1231.79	57.1133
1236.1	243.363
1240.4	351.076
1244.7	120.141
1249	159.553
1253.29	334.332
1257.59	213.111
1261.88	190.705
1266.16	308.498
1270.45	376.769
1274.73	649.553
1279.01	465.711
1283.28	471.299
1287.56	497.156
1291.83	431.772
1296.1	394.266
1300.36	520.996
1304.63	516.273
1308.89	491.758
1313.15	451.469
1317.4	632.379
1321.65	879.713
1325.9	491.361
1330.15	491.744
1334.4	581.469
1338.64	390.588
1342.88	581.486
1347.12	294.369
1351.35	321.389
1355.58	384.557
1359.81	318.004
1364.04	248.713
1368.26	104.469
1372.48	294.891
1376.7	299.67
1380.92	100.353
1385.13	3.37695
1389.34	157.857
1393.55	78.1504
1397.76	19.1387
1401.96	105.674
1406.16	254.586
1410.36	145.299
1414.55	252.484
1418.75	237.334
1422.94	0.804688
1427.12	695.973
1431.31	795.852
1435.49	1273.27
1439.67	2194.49
1443.85	3068.97
1448.02	2820.15
1452.19	2192.18
1456.36	2033.84
1460.53	1766.38
1464.69	1830.17
1468.85	1142.43
1473.01	1347.44
1477.17	856.957
1481.32	1051.22
1485.47	750.281
1489.62	625.051
1493.76	415.246
1497.91	333.975
1502.05	482.545
1506.18	319.225
1510.32	158.592
1514.45	375.576
1518.58	199.996
1522.71	133.443
1526.83	54.7383
1530.95	219.894
1535.07	144.957
1539.19	130.672
1543.3	304.432
1547.41	440.623
1551.52	359.019
1555.63	363.539
1559.73	267.988
1563.83	244.498
1567.93	322.043
1572.03	131.543
1576.12	144.127
