Measurement: Raman, 514 nm, ccw, Raman Data Processed
Mineral: Magnesiochromite
Rruff sample: R060796
Ideal chemistry: MgCr^3+^_2_O_4_
Locality: State Line Chrome mine (Low's mine), Cecil County, Maryland, USA
Source: California Institute of Technology
Description: Black massive
Measured chemistry: (Mg_0.57_Fe^2+^_0.43_)_Σ=1_(Cr_1.52_Al_0.41_Fe^3+^_0.07_)_Σ=2_O_4_
Pin_id: L00965
Orientation: Laser parallel to b* (0 1 0). Fiducial mark perpendicular to laser is parallel to c [0 0 1]
Raman shift (cm-1)	intensity
137.656	0
142.583	16.5
147.508	228.914
152.431	172.609
157.35	263.379
162.267	495.342
167.181	477.244
172.092	258.617
177.001	711.742
181.907	404.184
186.81	386.893
191.711	947.055
196.608	1046.33
201.503	1045.21
206.395	704.213
211.285	578.95
216.172	531.455
221.056	581.096
225.937	603.633
230.816	708.402
235.692	756.369
240.565	863.067
245.436	829.196
250.304	866.021
255.169	674.497
260.031	567.176
264.891	605.67
269.748	422.563
274.602	369.81
279.454	272.156
284.303	288.545
289.149	186.584
293.992	187.907
298.833	97.7676
303.671	65.2734
308.507	113.367
313.339	177.407
318.169	27.0303
322.996	122.052
327.821	48.4902
332.643	138.341
337.462	117.69
342.279	179.235
347.092	74.8857
351.904	5.68457
356.712	88.875
361.518	64.4561
366.321	62.29
371.121	94.9814
375.919	73.332
380.714	23.7656
385.506	14.8594
390.296	76.2773
395.083	76.5781
399.867	211.916
404.649	159.742
409.428	121.672
414.204	241.492
418.978	315.09
423.749	349.42
428.517	356.914
433.282	339.973
438.045	381.279
442.806	605.225
447.563	671.818
452.318	710.924
457.07	489.539
461.82	635.41
466.567	725.375
471.311	801.887
476.053	938.543
480.792	1012.62
485.528	955.523
490.262	1173.13
494.992	1334.19
499.721	1451.42
504.446	1491.94
509.169	1741.75
513.89	2448.41
518.607	2815.71
523.322	3443.64
528.035	4485.95
532.745	5563.15
537.452	6847.47
542.156	8004.09
546.858	9158.16
551.557	10040.7
556.254	10212.8
560.947	10694.4
565.639	11088
570.327	11076.9
575.013	10363.7
579.697	9437.94
584.377	7533.54
589.055	5846.25
593.731	5130.12
598.403	4807.33
603.074	4267.85
607.741	3684.76
612.406	2981.79
617.068	2288.12
621.728	1639.41
626.385	1949.68
631.039	2405.92
635.691	3942.85
640.34	5329.84
644.987	6217.17
649.63	6652.73
654.272	6849.62
658.91	6954.55
663.546	7661.94
668.18	8685.86
672.81	10529
677.439	12809
682.064	15177.4
686.687	17419.5
691.307	18951.5
695.925	19218.8
700.54	17636.2
705.153	14905.5
709.763	11796.9
714.37	9143.77
718.974	6904.47
723.577	5243.43
728.176	3676.43
732.773	2843.09
737.367	2033.6
741.959	1696.52
746.548	1173.22
751.134	871.828
755.718	669.799
760.299	677.092
764.878	282.457
769.454	239.59
774.028	100.863
778.598	209.445
783.167	3.11133
787.732	259.869
792.295	144.451
796.856	30.1758
801.414	41.1562
805.969	24.123
810.522	50.5957
815.072	89.6484
819.62	71.6641
824.165	4.97461
828.707	2.52734
833.247	33.2031
837.784	100.975
842.319	23.8398
846.851	52.5391
851.381	2.4834
855.908	23.3955
860.432	29.4023
864.954	283.902
869.473	193.282
873.99	216.023
878.504	122.464
883.015	122.672
887.524	109.107
892.031	178.603
896.535	157.807
901.036	261.731
905.535	264.077
910.031	357.638
914.524	337.246
919.015	397.643
923.504	275.653
927.99	364.644
932.473	400.406
936.954	374.055
941.432	291.062
945.908	389.256
950.381	385.664
954.852	176.995
959.32	341.406
963.785	176.001
968.248	264.625
972.708	191.705
977.166	59.9717
981.622	7.21387
986.074	28.9336
990.525	11.4941
994.972	78.2285
999.417	336.56
1003.86	83.6787
1008.3	175.128
1012.74	165.825
1017.17	311.021
1021.61	108.465
1026.04	9.78613
1030.46	200.357
1034.89	115.951
1039.31	188.832
1043.73	110.344
1048.15	143.439
1052.56	315.678
1056.97	39.7471
1061.38	228.082
1065.79	306.305
1070.19	218.769
1074.6	439.476
1079	433.081
1083.39	515.572
1087.79	439.089
1092.18	410.267
1096.57	514.863
1100.96	544.466
1105.34	427.089
1109.72	815.849
1114.1	685.836
1118.48	565.311
1122.85	566.553
1127.22	665.607
1131.6	580.631
1135.96	512.984
1140.33	513.635
1144.69	462.453
1149.05	287.207
1153.4	525.463
1157.76	291.885
1162.11	315.246
1166.46	420.182
1170.81	181.637
1175.15	287.68
1179.49	504.201
1183.83	169.215
1188.17	146.92
1192.5	85.2773
1196.84	87.166
1201.16	73.6289
1205.49	150.631
1209.82	213.775
1214.14	230.385
1218.46	134.176
1222.77	168.652
1227.09	103.766
1231.4	22.4707
1235.71	155.795
1240.02	77.7754
1244.32	83.5547
1248.62	102.068
1252.92	21.6562
1257.22	149.356
1261.51	28.9668
1265.81	87.7148
1270.1	111.197
1274.38	229.805
1278.67	82.1426
1282.95	113.127
1287.23	187.717
1291.51	243.531
1295.78	218.66
1300.05	116.982
1304.32	124.525
1308.59	131.252
1312.86	127.168
1317.12	226.178
1321.38	84.4844
1325.63	110.842
1329.89	161.697
1334.14	39.4922
1338.39	224.676
1342.64	174.094
1346.88	288.856
1351.13	195.35
1355.37	182.256
1359.61	290.68
1363.84	302.312
1368.07	151.875
1372.3	317.805
1376.53	226.406
1380.76	296.316
1384.98	325.629
1389.2	255.272
1393.42	333.29
1397.64	278.637
1401.85	158.023
1406.06	268.4
1410.27	304.475
1414.47	156.397
1418.68	114.137
1422.88	270.697
1427.08	307.88
1431.27	219.299
1435.47	252.369
1439.66	199.981
1443.85	36.8945
1448.03	157.526
1452.22	172.551
1456.4	209.962
1460.58	139.067
1464.76	164.957
1468.93	140.8
1473.1	214.512
1477.27	198.707
1481.44	117.087
1485.6	2.31836
1489.77	61.3486
1493.92	100.029
1498.08	239.045
1502.24	52.4961
1506.39	197.612
1510.54	223.556
1514.69	25.4434
1518.83	216.291
1522.97	83.4443
1527.12	1.98242
1531.25	56.5059
1535.39	356.933
1539.52	266.416
1543.65	293.78
1547.78	277.839
1551.91	319.743
1556.03	239.39
1560.15	264.87
1564.27	204.74
1568.39	97.3887
1572.5	48.6318
