Measurement: Raman, 514 nm, ccw, Raman Data Processed
Mineral: Magnesio-hastingsite
Rruff sample: R070288
Ideal chemistry: NaCa_2_(Mg_4_Fe^3+^)Si_6_Al_2_O_22_(OH)_2_
Locality: Dallas Gem Mine (Gem Mine; Benitoite Mine), New Idria District, San Benito County, California, USA
Source: Michael Scott
Description: Dark brown to black prismatic crystals frozen in albite
Measured chemistry: (Na_0.51_[box]_0.33_K_0.16_)_Σ=1_(Ca_1.75_Na_0.25_)_Σ=2_(Mg_3.02_Fe^2+^_0.61_Ti_0.37_)_Σ=4_(Fe^3+^_0.73_Al_0.27_)_Σ=1_Si_5.84_Al_2.16_O_22_(OH)_2_; (OH) estimated by difference
Pin_id: M01712
Orientation: Laser parallel to (1 0 1). Fiducial mark perpendicular to laser is parallel to b [0 1 0]
Raman shift (cm-1)	intensity
127.763	0
132.697	945.538
137.628	276.626
142.556	157.721
147.482	504.539
152.405	417.155
157.326	1131.16
162.244	1520.52
167.159	1146.44
172.072	929.088
176.982	703.126
181.89	964.256
186.795	1073.66
191.697	974.809
196.597	717.196
201.494	1004.84
206.389	667.584
211.281	983.981
216.17	1631.95
221.057	3179.88
225.941	2835.52
230.823	2253.01
235.702	1541.37
240.578	1073.69
245.452	883.634
250.323	587.455
255.192	381.835
260.058	203.586
264.921	70.7373
269.782	78.3584
274.64	77.4895
279.495	148.888
284.348	7.07568
289.198	16.5498
294.046	59.5161
298.891	184.681
303.733	150.929
308.573	319.713
313.41	423.209
318.245	382.329
323.077	483.991
327.906	614.031
332.733	557.664
337.557	618.339
342.379	653.105
347.198	648.844
352.014	739.071
356.828	897.579
361.639	978.92
366.447	1336.28
371.253	1446.32
376.056	1382.25
380.857	1210.52
385.655	1104.08
390.451	1018.68
395.243	933.665
400.034	915.44
404.821	860.665
409.606	847.267
414.389	834.035
419.168	709.719
423.945	642.102
428.72	417.439
433.492	333.493
438.261	203.459
443.028	193.842
447.792	108.473
452.553	140.82
457.312	240.097
462.068	217.749
466.822	163.855
471.573	179.85
476.321	200.466
481.067	298.334
485.81	330.353
490.551	458.323
495.289	603.466
500.024	822.057
504.757	1124.96
509.487	1272.18
514.214	1553.12
518.939	1636.75
523.661	1695.68
528.381	1819.57
533.098	1916.58
537.812	2027.98
542.524	1896.81
547.233	1951.11
551.94	1879.99
556.644	1887.61
561.345	1822.28
566.044	1700.47
570.74	1484.36
575.433	1079.31
580.124	775.076
584.812	509.164
589.498	187.434
594.181	40.1055
598.861	164.18
603.539	253.742
608.214	76.6724
612.887	80.2183
617.557	43.7778
622.224	144.285
626.889	379.079
631.551	861.401
636.21	1148.29
640.867	1783.1
645.521	2467.29
650.173	2807.66
654.822	3203.3
659.468	3442.68
664.112	3298.69
668.753	2963.66
673.392	2148.56
678.028	1714.42
682.661	1347.25
687.292	1149.07
691.92	927.905
696.545	634.765
701.168	284.662
705.788	148.603
710.406	448.595
715.021	368.484
719.633	662.018
724.243	652.274
728.85	776.65
733.455	794.574
738.056	781.51
742.656	669.632
747.252	665.807
751.846	547.953
756.438	633.883
761.027	804.806
765.613	900.312
770.196	1020.65
774.777	1174.8
779.356	1375.71
783.932	1562.02
788.505	1784.3
793.075	1901.9
797.643	1933.83
802.208	1799.02
806.771	1707.39
811.331	1531.16
815.888	1442.12
820.443	1385.47
824.995	1231.78
829.545	1065.71
834.092	825.532
838.636	350.96
843.178	239
847.717	188.659
852.254	24.9346
856.788	92.4795
861.319	127.608
865.848	48.7647
870.374	41.6299
874.897	14.4229
879.418	53.707
883.936	120.584
888.452	590.951
892.965	1173.66
897.475	605.404
901.983	625.953
906.488	655.31
910.99	420.669
915.49	568.891
919.988	475.512
924.482	498.827
928.974	514.344
933.464	495.482
937.951	632.251
942.435	592.58
946.917	691.453
951.396	759.945
955.872	714.161
960.346	798.796
964.817	842.086
969.285	985.562
973.751	859.042
978.215	987.981
982.675	1090.07
987.134	1140.68
991.589	1464.01
996.042	1495.82
1000.49	2064.56
1004.94	2285.37
1009.38	2336.78
1013.83	2226.99
1018.27	2050.62
1022.7	2070.42
1027.14	1946.57
1031.57	1856.65
1036	1517.56
1040.43	1440.65
1044.85	1270.71
1049.27	1202.39
1053.69	1253.68
1058.11	1048.84
1062.52	959
1066.93	939.594
1071.34	804.05
1075.75	769.657
1080.15	747.279
1084.55	583.766
1088.95	560.549
1093.35	471.019
1097.74	404.183
1102.13	271.302
1106.52	336.123
1110.9	174.762
1115.28	37.9312
1119.66	281.822
1124.04	208.441
1128.41	200.829
1132.79	6.03467
1137.16	0.158203
1141.52	43.5913
1145.89	39.8281
1150.25	82.4336
1154.61	65.1352
1158.96	10.8442
1163.32	37.6304
1167.67	32.5054
1172.02	34.811
1176.36	65.1953
1180.71	12.5215
1185.05	38.7353
1189.38	47.418
1193.72	155.301
1198.05	72.3794
1202.38	221.727
1206.71	279.63
1211.04	186.095
1215.36	239.122
1219.68	209.711
1224	265.859
1228.31	301.574
1232.62	291.874
1236.93	234.75
1241.24	340.212
1245.54	245.258
1249.84	331.943
1254.14	387.386
1258.44	320.462
1262.73	367.633
1267.03	453.22
1271.31	353.194
1275.6	375.949
1279.88	484.494
1284.16	484.679
1288.44	512.515
1292.72	396.825
1296.99	504.415
1301.26	352.745
1305.53	387.937
1309.79	359.002
1314.06	443.525
1318.32	382.894
1322.57	322.975
1326.83	241.612
1331.08	291.589
1335.33	374.519
1339.58	220.03
1343.82	268.383
1348.06	311.491
1352.3	181.543
1356.54	286.139
1360.77	273.094
1365.01	87.9639
1369.23	275.616
1373.46	126.154
1377.68	188.864
1381.9	241.589
1386.12	116.769
1390.34	78.5371
1394.55	153.738
1398.76	203.355
1402.97	95.2236
1407.18	131.797
1411.38	165.197
1415.58	75.8516
1419.78	152.978
1423.97	148.987
1428.17	243.23
1432.36	258.411
1436.54	346.276
1440.73	432.306
1444.91	521.048
1449.09	522.842
1453.27	550.369
1457.44	511.738
1461.61	441.484
1465.78	357.767
1469.95	311.805
1474.11	203.951
1478.27	190.777
1482.43	27.6152
1486.59	183.242
1490.74	4.59277
1494.89	71.8516
1499.04	18.9473
1503.19	27.4541
1507.33	109.822
1511.47	99.7412
1515.61	37.1641
1519.75	119.528
1523.88	145.044
1528.01	110.78
1532.14	221.373
1536.26	172.373
1540.38	108.642
1544.51	114.506
1548.62	67.0693
1552.74	146.72
1556.85	153.139
1560.96	147.638
1565.07	61.1065
1569.17	181.44
1573.27	72.9902
1577.37	0
