Measurement: Raman, 514 nm, ccw, Raman Data Processed
Mineral: Magnesioferrite
Rruff sample: R060869
Ideal chemistry: MgFe^3+^_2_O_4_
Locality: Langban, Filipstad, Varmland, Sweden
Source: Michael Scott
Description: Black semimetallic massive
Measured chemistry: (Mg_0.67_Mn^2+^_0.30_Fe^2+^_0.03_)_Σ=1_(Fe^3+^_1.97_Al_0.03_)_Σ=2_O_4_
Pin_id: L00748
Orientation: Laser parallel to a* (1 0 0). Fiducial mark perpendicular to laser is parallel to b [0 1 0]
Raman shift (cm-1)	intensity
126.558	0
131.492	58.6553
136.423	406.009
141.352	271.215
146.277	246.614
151.2	248.273
156.121	214.417
161.038	306.498
165.953	566.32
170.865	399.822
175.774	710.239
180.681	997.216
185.585	1385.76
190.486	1537.84
195.384	1630.96
200.28	1538.51
205.173	1256.78
210.063	1011.29
214.95	819.756
219.835	704.231
224.717	644.784
229.597	282.958
234.473	315.317
239.347	143.446
244.218	111.128
249.087	235.38
253.953	97.9228
258.816	49.2285
263.676	33.2168
268.534	183.701
273.389	135.592
278.241	29.4043
283.091	46.0459
287.938	51.4248
292.782	32.0772
297.623	72.3057
302.462	281.495
307.298	388.471
312.131	475.333
316.962	648.505
321.79	643.105
326.615	919.613
331.438	1006.61
336.258	1051.8
341.075	1195.2
345.889	1034.38
350.701	652.226
355.51	735.454
360.317	762.045
365.12	603.016
369.921	452.674
374.72	436.04
379.515	278.657
384.309	375.184
389.099	217.285
393.886	7.97559
398.671	119.273
403.454	66.2256
408.233	58.5127
413.01	115.922
417.785	170.773
422.556	43.0322
427.325	315.944
432.091	154.439
436.855	56.5342
441.616	101.435
446.374	18.9697
451.13	179.164
455.883	269.332
460.633	400.562
465.38	391.934
470.125	578.523
474.868	814.408
479.607	793.678
484.344	1122.42
489.078	1287.73
493.81	1408.69
498.539	1415.43
503.265	1426.17
507.989	1243.8
512.71	1406.35
517.428	1734.2
522.144	1923.87
526.857	2215.34
531.567	2304.38
536.275	2154.06
540.98	2795.49
545.683	2933.45
550.383	3370.12
555.08	3800.14
559.774	4254.23
564.466	4703.7
569.155	5358.92
573.842	6006.92
578.526	6358.2
583.207	7229.11
587.886	8725.56
592.562	11011.3
597.235	14514.2
601.906	18277.2
606.574	22814.2
611.24	26688.3
615.903	29068.4
620.563	29857.7
625.221	28562.9
629.876	25501.8
634.528	22058.3
639.178	18213.3
643.825	15426.2
648.47	13036.4
653.112	11324.3
657.751	10711.4
662.388	8602.43
667.022	8018.66
671.653	7545.98
676.282	7131.64
680.908	6671.45
685.532	6344.01
690.153	5876.51
694.771	5482.42
699.387	5361.23
704	5089.96
708.61	4569.61
713.218	4133.81
717.824	3407.89
722.426	2818.6
727.026	2229.03
731.624	1703.11
736.219	1247.31
740.811	1033.98
745.401	634.161
749.988	434.09
754.572	427.976
759.154	221.287
763.734	86.3662
768.31	54.0303
772.884	56.2353
777.456	93.1797
782.025	130.583
786.591	10.6982
791.155	134.078
795.716	1.16504
800.275	247.125
804.831	171.19
809.384	66.293
813.935	124.689
818.483	137.001
823.029	28.3799
827.572	22.249
832.112	9.75684
836.65	76.0498
841.186	190.554
845.718	40.1504
850.249	149.343
854.776	25.6953
859.301	36.1728
863.824	74.291
868.344	205.542
872.861	126.239
877.376	320.178
881.888	207.468
886.397	186.148
890.904	119.949
895.409	449.61
899.911	350.199
904.41	294.562
908.907	242.272
913.401	329.448
917.893	455.351
922.382	299.138
926.869	377.239
931.353	215.691
935.834	363.611
940.313	464.19
944.789	369.408
949.263	181.644
953.734	452.441
958.203	289.762
962.669	222.932
967.133	114.523
971.594	368.34
976.052	269.672
980.508	401.978
984.961	409.128
989.412	332.71
993.861	262.803
998.306	299.839
1002.75	376.397
1007.19	220.03
1011.63	110.124
1016.06	201.129
1020.5	178.193
1024.93	120.052
1029.36	240.718
1033.78	88.6074
1038.2	237.065
1042.62	251.705
1047.04	252.801
1051.46	226.222
1055.87	239.796
1060.28	284.179
1064.69	69.9688
1069.09	168.014
1073.5	65.5186
1077.9	103.557
1082.29	71.0439
1086.69	179.911
1091.08	178.322
1095.47	67.4424
1099.86	148.145
1104.24	15.4658
1108.63	151.677
1113.01	129.269
1117.38	66.9668
1121.76	270.295
1126.13	188.281
1130.5	63.0762
1134.87	61.5742
1139.23	36.6992
1143.6	3.61231
1147.96	34.8057
1152.32	65.1514
1156.67	155.66
1161.02	58.4297
1165.37	161.159
1169.72	119.432
1174.07	254.331
1178.41	329.169
1182.75	347.739
1187.08	573.038
1191.42	497.07
1195.75	659.846
1200.08	655.402
1204.41	833.703
1208.73	723.559
1213.06	746.466
1217.38	822.914
1221.69	999.391
1226.01	742.105
1230.32	858.001
1234.63	955.703
1238.94	727.794
1243.24	810.714
1247.55	796.364
1251.85	781.637
1256.14	706.83
1260.44	715.785
1264.73	600.595
1269.02	660.865
1273.31	499.839
1277.6	616.068
1281.88	474.798
1286.16	418.792
1290.44	358.365
1294.71	290.628
1298.98	515.544
1303.26	490.046
1307.52	468.112
1311.79	851.716
1316.05	494.832
1320.31	467.438
1324.57	372.724
1328.83	373.472
1333.08	356.495
1337.33	339.305
1341.58	424.492
1345.82	478.879
1350.07	298.823
1354.31	257.515
1358.55	393.916
1362.78	446.566
1367.02	306.673
1371.25	150.548
1375.48	336.713
1379.7	215.682
1383.92	198.753
1388.15	208.243
1392.37	112.727
1396.58	160.572
1400.8	278.981
1405.01	196.192
1409.22	114.744
1413.42	110.666
1417.63	175.815
1421.83	108.735
1426.03	34.6094
1430.22	24.0859
1434.42	74.3125
1438.61	74.0215
1442.8	249.13
1446.99	37.4639
1451.17	13.8916
1455.35	91.4297
1459.53	120.652
1463.71	54.5508
1467.89	53.2119
1472.06	107.811
1476.23	153.74
1480.4	38.0918
1484.56	236.311
1488.72	31.8789
1492.88	46.581
1497.04	122.532
1501.2	63.9531
1505.35	219.348
1509.5	180.368
1513.65	160.292
1517.8	86.5498
1521.94	139.051
1526.08	334.884
1530.22	288.883
1534.36	139.394
1538.49	251.444
1542.62	124.448
1546.75	365.012
1550.88	299.086
1555	110.206
1559.12	148.099
1563.24	138.139
1567.36	92.9668
1571.47	90.3828
1575.58	0.943359
