Measurement: Raman, 514 nm, ccw, Raman Data Processed
Mineral: Magnesite
Rruff sample: R050676
Ideal chemistry: MgCO_3_
Locality: Tyrol, Austria
Source: University of Arizona Mineral Museum
Description: Brown rhombohedral crystals
Measured chemistry: (Mg_0.87_Fe^2+^_0.12_Ca_0.01_)_Î£=1_CO_3_; trace amounts of Mn and Cd; CO_2_ estimated by difference
Pin_id: M00629
Orientation: Laser parallel to -a* (-1 0 0). Fiducial mark perpendicular to laser is parallel to c [0 0 1]
Raman shift (cm-1)	intensity
88.338	0
93.286	90.6074
98.231	3.46045
103.174	379.496
108.114	641.492
113.052	176.61
117.987	603.082
122.919	1849.59
127.849	44.5737
132.777	28.0855
137.702	87.6943
142.624	22.9644
147.544	254.645
152.461	105.345
157.375	48.104
162.287	415.522
167.197	86.311
172.104	40.4727
177.008	113.855
181.91	110.825
186.809	177.52
191.706	205.705
196.6	363.325
201.491	887.361
206.38	2263.22
211.267	2171.61
216.151	892.781
221.032	480.901
225.911	338.056
230.787	337.267
235.66	195.359
240.531	492.427
245.4	547.689
250.266	515.957
255.129	291.251
259.99	147.488
264.848	361.635
269.703	519.248
274.556	662.469
279.407	914.834
284.255	934.189
289.1	613.039
293.942	691.271
298.783	965.17
303.62	1298.54
308.455	2369.24
313.288	5634.05
318.117	13059.1
322.945	24844.9
327.769	18626.8
332.591	6791.85
337.411	2468.83
342.228	1455.93
347.042	1004.37
351.854	428.062
356.663	221.522
361.47	232.889
366.274	212.362
371.075	170.891
375.874	294.841
380.67	223.418
385.464	73.1064
390.255	20.7607
395.043	110.248
399.829	36.375
404.613	212.659
409.393	77.3144
414.172	26.7773
418.947	17.084
423.72	117.038
428.49	114.193
433.258	112.388
438.024	175.98
442.786	73.4717
447.546	77.1856
452.304	34.8779
457.059	109.178
461.811	143.544
466.56	53.2949
471.308	147.24
476.052	138.268
480.794	79.5078
485.533	110.112
490.27	255.263
495.004	279.898
499.736	375.185
504.465	454.123
509.191	412.274
513.915	658.614
518.636	545.138
523.354	387.53
528.07	355.353
532.784	204.3
537.494	225.481
542.203	201.607
546.908	246.454
551.611	85.4111
556.311	111.168
561.009	296.056
565.704	363.496
570.397	403.039
575.087	571.953
579.774	157.293
584.459	349.722
589.141	355.246
593.821	123.595
598.498	35.1738
603.172	247.394
607.844	186.237
612.513	326.29
617.18	301.875
621.844	586.97
626.505	346.812
631.164	178.041
635.82	426.647
640.473	237.879
645.124	603.248
649.773	439.506
654.418	576.94
659.062	316.71
663.702	387.823
668.34	271.44
672.975	438.098
677.608	461.951
682.238	348.214
686.866	284.884
691.49	179.815
696.113	246.315
700.732	287.967
705.349	369.594
709.964	178.977
714.576	386.229
719.185	565.025
723.792	634.894
728.396	304.603
732.997	551.077
737.596	580.363
742.192	743.685
746.785	437.244
751.376	247.004
755.965	142.784
760.551	118.706
765.134	94.9522
769.714	126.569
774.292	185.773
778.867	8.72949
783.44	38.6016
788.01	247.983
792.578	488.157
797.142	105.936
801.705	129.352
806.264	446.399
810.821	38.0117
815.376	143.43
819.927	75.1572
824.476	356.652
829.023	125.406
833.567	478.106
838.108	198.132
842.647	401.146
847.183	283.971
851.716	422.486
856.247	535.501
860.776	725.839
865.301	564.173
869.824	649.163
874.345	1205.21
878.862	2449.86
883.377	1524.07
887.89	739.863
892.4	588.983
896.907	446.351
901.412	639.074
905.914	471.088
910.413	471.472
914.91	591.721
919.404	154.513
923.896	458.019
928.385	227.009
932.871	402.859
937.355	460.862
941.836	348.332
946.315	36.5449
950.79	177.885
955.264	548.77
959.734	570.364
964.202	404.084
968.668	119.789
973.131	372.546
977.591	222.119
982.048	98.4922
986.503	243.708
990.955	339.765
995.405	106.58
999.852	392.164
1004.3	543.627
1008.74	106.028
1013.18	62.4629
1017.61	45.0098
1022.05	193.35
1026.48	136.696
1030.91	544.739
1035.33	416.057
1039.76	706.709
1044.18	1021.71
1048.6	1448.34
1053.01	1898.14
1057.42	2408.09
1061.84	3632.81
1066.24	5343.6
1070.65	8291.42
1075.05	13419.7
1079.45	22322.7
1083.85	42153.1
1088.24	83728.1
1092.63	136212
1097.02	124580
1101.41	72322.5
1105.8	35622.2
1110.18	17291.2
1114.56	8792.88
1118.93	5468.1
1123.31	3132.44
1127.68	2216.43
1132.04	1568.06
1136.41	1179.85
1140.77	1041.72
1145.13	583.443
1149.49	655.369
1153.85	298.188
1158.2	482.244
1162.55	246.594
1166.9	35.2324
1171.24	309.158
1175.58	59.373
1179.92	226.877
1184.26	151.666
1188.6	65.25
1192.93	43.9707
1197.26	31.5273
1201.58	12.8867
1205.9	16.5254
1210.23	74.5156
1214.55	79.6328
1218.86	62.1758
1223.17	200.107
1227.48	139.166
1231.79	61.8652
1236.1	120.408
1240.4	418.336
1244.7	151.611
1249	242.266
1253.29	440.279
1257.59	280.732
1261.88	227.576
1266.16	296.56
1270.45	438.309
1274.73	431.734
1279.01	220.502
1283.28	285.758
1287.56	82.8262
1291.83	247.924
1296.1	384.41
1300.36	383.281
1304.63	355.543
1308.89	652.279
1313.15	573.225
1317.4	564.92
1321.65	667.039
1325.9	272.107
1330.15	295.215
1334.4	183.076
1338.64	158.385
1342.88	388.098
1347.12	221.414
1351.35	185.728
1355.58	340.732
1359.81	243.891
1364.04	328.152
1368.26	377.699
1372.48	141.572
1376.7	235.81
1380.92	228.438
1385.13	75.4512
1389.34	187.844
1393.55	14.6152
1397.76	97.7012
1401.96	37.125
1406.16	58.248
1410.36	219.414
1414.55	355.955
1418.75	500.916
1422.94	285.328
1427.12	626.209
1431.31	609.43
1435.49	670.611
1439.67	1119.2
1443.85	974.406
1448.02	1148.57
1452.19	1050.99
1456.36	1144.78
1460.53	961.418
1464.69	922.883
1468.85	577.947
1473.01	697.994
1477.17	514.568
1481.32	446.676
1485.47	318.312
1489.62	184.852
1493.76	172.787
1497.91	244.234
1502.05	156.678
1506.18	112.486
1510.32	170.67
1514.45	90.0156
1518.58	174.727
1522.71	165.057
1526.83	150.676
1530.95	248.002
1535.07	138.537
1539.19	255.838
1543.3	306.498
1547.41	241.713
1551.52	258.978
1555.63	365.033
1559.73	452.623
1563.83	174.631
1567.93	73.7598
1572.03	399.928
1576.12	7.9375
