Measurement: Raman, 514 nm, ccw, Raman Data Processed
Mineral: Magnesioferrite
Rruff sample: R060869
Ideal chemistry: MgFe^3+^_2_O_4_
Locality: Langban, Filipstad, Varmland, Sweden
Source: Michael Scott
Description: Black semimetallic massive
Measured chemistry: (Mg_0.67_Mn^2+^_0.30_Fe^2+^_0.03_)_Σ=1_(Fe^3+^_1.97_Al_0.03_)_Σ=2_O_4_
Pin_id: L00748
Orientation: Laser parallel to a* (1 0 0). Fiducial mark perpendicular to laser is parallel to b [0 1 0]
Raman shift (cm-1)	intensity
127.792	0
132.725	5.36621
137.656	516.88
142.583	261.268
147.508	424.246
152.431	305.81
157.35	223.715
162.267	483.745
167.181	324.622
172.092	396.45
177.001	774.766
181.907	921.722
186.81	1280.36
191.711	1313.96
196.608	1270.08
201.503	1222.97
206.395	905.261
211.285	777.113
216.172	613.45
221.056	273.275
225.937	352.458
230.816	289.774
235.692	5.81152
240.565	18.4658
245.436	166.534
250.304	37.2275
255.169	74.5742
260.031	51.0127
264.891	232.643
269.748	28.875
274.602	90.8906
279.454	43.7656
284.303	181.144
289.149	256.991
293.992	189.495
298.833	414.3
303.671	553.775
308.507	825.261
313.339	1139.35
318.169	1383.42
322.996	1462.52
327.821	1786.65
332.643	2172.66
337.462	2263.07
342.279	2436.45
347.092	2225.52
351.904	1837.64
356.712	1427.55
361.518	1323.45
366.321	993.26
371.121	800.864
375.919	740.344
380.714	622.218
385.506	568.774
390.296	336.893
395.083	123.436
399.867	46.8086
404.649	1.93164
409.428	13.625
414.204	83.7139
418.978	185.427
423.749	49.8828
428.517	125.383
433.282	166.716
438.045	85.249
442.806	8.01172
447.563	7.10352
452.318	98.0264
457.07	104.442
461.82	280.886
466.567	242.427
471.311	249.127
476.053	465.069
480.792	589.334
485.528	654.993
490.262	901.566
494.992	949.024
499.721	1034.89
504.446	1156.76
509.169	1124.59
513.89	1284.28
518.607	1438.12
523.322	1693.07
528.035	1794.47
532.745	1939.51
537.452	2137.94
542.156	2551.02
546.858	2686.34
551.557	3114.25
556.254	3592.7
560.947	4060.24
565.639	4766.2
570.327	5505.69
575.013	6205.15
579.697	7198.45
584.377	8650.24
589.055	10843.9
593.731	13809.6
598.403	17843.5
603.074	22804.3
607.741	27088
612.406	30820.4
617.068	32939.5
621.728	32667.2
626.385	30487.7
631.039	27018.8
635.691	22869.6
640.34	19262.9
644.987	16217.6
649.63	13835
654.272	12012.2
658.91	10699.7
663.546	9827.21
668.18	8984.08
672.81	8384.99
677.439	7907.85
682.064	7359.72
686.687	7109.07
691.307	6765.15
695.925	6499.85
700.54	6047.98
705.153	5423.84
709.763	5098.12
714.37	4412.25
718.974	3642.63
723.577	3047.59
728.176	2485.1
732.773	1854.95
737.367	1372.55
741.959	1277.71
746.548	916.833
751.134	676.338
755.718	477.869
760.299	308.925
764.878	125.918
769.454	97.0889
774.028	80.4844
778.598	84.9893
783.167	97.5459
787.732	47.4961
792.295	25.2012
796.856	96.7891
801.414	87.918
805.969	3.5459
810.522	81.415
815.072	94.9678
819.62	65.1797
824.165	8.17969
828.707	8.20215
833.247	4.48242
837.784	71.4727
842.319	11.9717
846.851	70.126
851.381	74.7891
855.908	55.958
860.432	86.5137
864.954	52.9453
869.473	87.2158
873.99	82.25
878.504	222.679
883.015	128.713
887.524	273.371
892.031	280.659
896.535	120.632
901.036	178.062
905.535	242.031
910.031	139.147
914.524	325.262
919.015	145.182
923.504	328.798
927.99	361.553
932.473	273.085
936.954	296.637
941.432	317.991
945.908	156.832
950.381	286.497
954.852	392.721
959.32	198.029
963.785	306.586
968.248	207.356
972.708	184.7
977.166	156.244
981.622	257.174
986.074	233.266
990.525	195.939
994.972	216.776
999.417	264.761
1003.86	310.873
1008.3	250.95
1012.74	201.079
1017.17	104.277
1021.61	116.226
1026.04	206.069
1030.46	68.208
1034.89	161.648
1039.31	75.1992
1043.73	133.002
1048.15	220.142
1052.56	177.446
1056.97	53.6201
1061.38	185.332
1065.79	202.386
1070.19	75.3701
1074.6	8.91016
1079	73.8438
1083.39	102.305
1087.79	78.3203
1092.18	45.7529
1096.57	113.914
1100.96	52.0459
1105.34	31.1777
1109.72	12.1162
1114.1	56.7666
1118.48	45.1885
1122.85	132.339
1127.22	78.6582
1131.6	7.85254
1135.96	3.50977
1140.33	106.356
1144.69	26.3945
1149.05	9.21777
1153.4	74.7881
1157.76	143.477
1162.11	306.828
1166.46	167.02
1170.81	259.984
1175.15	290.188
1179.49	399.648
1183.83	401.522
1188.17	465.688
1192.5	596.335
1196.84	750.731
1201.16	713.9
1205.49	855.905
1209.82	904.731
1214.14	941.086
1218.46	1110.45
1222.77	904.702
1227.09	1038.9
1231.4	1034.95
1235.71	1007.43
1240.02	928.752
1244.32	980.998
1248.62	948.998
1252.92	894.031
1257.22	716.491
1261.51	793.337
1265.81	812.138
1270.1	736.7
1274.38	734.408
1278.67	747.848
1282.95	589.143
1287.23	677.296
1291.51	506.062
1295.78	579.08
1300.05	505.206
1304.32	594.894
1308.59	539.157
1312.86	547.949
1317.12	566.784
1321.38	544.983
1325.63	320.871
1329.89	390.498
1334.14	432.43
1338.39	413.923
1342.64	335.546
1346.88	339.272
1351.13	325.544
1355.37	445.997
1359.61	414.298
1363.84	341.194
1368.07	451.177
1372.3	377.594
1376.53	317.296
1380.76	359.32
1384.98	333.262
1389.2	323.696
1393.42	246.807
1397.64	136.959
1401.85	228.767
1406.06	179.208
1410.27	136.47
1414.47	77.6328
1418.68	63.7539
1422.88	46.9775
1427.08	77.3477
1431.27	47.875
1435.47	212.284
1439.66	112.433
1443.85	33.6504
1448.03	132.793
1452.22	113.228
1456.4	127.486
1460.58	1.9668
1464.76	27.3096
1468.93	5.23144
1473.1	42.9502
1477.27	75.1562
1481.44	116.972
1485.6	161.656
1489.77	25.2197
1493.92	159.493
1498.08	193.569
1502.24	103.934
1506.39	249.029
1510.54	240.7
1514.69	212.952
1518.83	129.796
1522.97	187.19
1527.12	173.283
1531.25	274.569
1535.39	281.067
1539.52	278.746
1543.65	211.256
1547.78	98.9297
1551.91	133.766
1556.03	367.394
1560.15	154.387
1564.27	129.661
1568.39	185.547
1572.5	154.029
1576.61	0.910156
