Measurement: Raman, 514 nm, depolarized, Raman Data Processed
Mineral: Magnesio-hastingsite
Rruff sample: R070288
Ideal chemistry: NaCa_2_(Mg_4_Fe^3+^)Si_6_Al_2_O_22_(OH)_2_
Locality: Dallas Gem Mine (Gem Mine; Benitoite Mine), New Idria District, San Benito County, California, USA
Source: Michael Scott
Description: Dark brown to black prismatic crystals frozen in albite
Measured chemistry: (Na_0.51_[box]_0.33_K_0.16_)_Σ=1_(Ca_1.75_Na_0.25_)_Σ=2_(Mg_3.02_Fe^2+^_0.61_Ti_0.37_)_Σ=4_(Fe^3+^_0.73_Al_0.27_)_Σ=1_Si_5.84_Al_2.16_O_22_(OH)_2_; (OH) estimated by difference
Pin_id: M01712
Orientation: Laser parallel to (1 0 1). Fiducial mark perpendicular to laser is parallel to b [0 1 0]
Raman shift (cm-1)	intensity
130.23	0
135.163	15.1807
140.092	771.712
145.019	125.088
149.944	328.512
154.866	860.574
159.785	1344.31
164.702	1358.28
169.616	888.775
174.528	772.611
179.437	762.676
184.343	875.504
189.247	944.471
194.148	834.342
199.046	810.988
203.942	834
208.835	680.12
213.726	1244.26
218.614	1988.69
223.5	2937.67
228.382	2661.02
233.263	1811.12
238.14	1246.8
243.015	835.528
247.888	718.901
252.758	366.877
257.625	150.452
262.49	45.625
267.352	15.6211
272.211	72.5811
277.068	129.709
281.922	98.5903
286.773	30.3604
291.622	106.316
296.469	202.897
301.312	258.12
306.154	146.519
310.992	233.201
315.828	258.1
320.661	362.523
325.492	451.802
330.32	405.237
335.145	453.259
339.968	450.101
344.789	573.548
349.606	505.795
354.421	483.145
359.234	634.631
364.043	859.218
368.851	973.239
373.655	1071.9
378.457	1047.14
383.256	1044.52
388.053	945.865
392.847	761.468
397.639	639.612
402.428	681.852
407.214	646.755
411.998	630.225
416.779	638.417
421.557	560.863
426.333	354.076
431.106	378.627
435.877	283.414
440.645	272.113
445.41	239.874
450.173	0.723145
454.933	100.808
459.691	230.052
464.446	76.8501
469.198	199.703
473.948	191.519
478.695	200.529
483.439	268.382
488.181	291.073
492.92	375.292
497.657	500.602
502.391	830.117
507.122	1012.06
511.851	1287.41
516.577	1458.82
521.301	1509.79
526.022	1656.33
530.74	1580.43
535.456	1763.1
540.169	1699.35
544.879	1536.18
549.587	1712.66
554.292	1589.88
558.995	1604.81
563.695	1608.08
568.392	1510.45
573.087	1230.06
577.779	889.619
582.469	575.865
587.156	278.94
591.84	15.9946
596.522	22.2881
601.201	135.458
605.877	129.856
610.551	8.37598
615.222	102.823
619.891	168.597
624.557	242.067
629.22	689.461
633.881	1040.92
638.539	1565.43
643.195	2044.26
647.848	2536.91
652.498	2903.36
657.145	3196.64
661.791	3295.88
666.433	3136.92
671.073	2637.8
675.71	1909.69
680.345	1617.43
684.977	1309.11
689.606	1116.72
694.233	956.29
698.857	654.828
703.478	370.392
708.097	385.809
712.714	599.599
717.327	489.545
721.938	649.236
726.547	819.147
731.153	832.863
735.756	703.023
740.356	760.492
744.954	762.798
749.55	712.727
754.142	584.638
758.733	786.018
763.32	854.934
767.905	894.13
772.487	1072.61
777.067	1278.38
781.644	1416.45
786.218	1578.84
790.79	1910.56
795.359	1968.52
799.926	1891.05
804.49	1797.84
809.051	1734.53
813.61	1657.6
818.166	1487.72
822.72	1380.77
827.271	1214.77
831.819	947.694
836.365	802.453
840.908	409.525
845.448	177.299
849.986	68.0019
854.521	83.3823
859.054	48.5986
863.584	131.403
868.111	37.2041
872.636	0.057129
877.158	80.1269
881.677	109.442
886.194	318.164
890.709	335.835
895.22	453.446
899.729	542.012
904.236	450.775
908.74	544.316
913.241	442.63
917.739	436.445
922.235	375.951
926.729	402.848
931.219	353.346
935.708	311.334
940.193	387.837
944.676	513.854
949.156	503.351
953.634	684.318
958.109	586.325
962.582	775.725
967.051	740.64
971.519	823.799
975.983	842.928
980.445	846.426
984.905	1033.17
989.362	1138.38
993.816	1309.99
998.267	1559.42
1002.72	1832.46
1007.16	1944.84
1011.61	2073.89
1016.05	2014.44
1020.49	1954.06
1024.92	1754.3
1029.36	1641.64
1033.79	1507.3
1038.21	1425.87
1042.64	1221.63
1047.06	1094.25
1051.48	1062.44
1055.9	937.84
1060.32	889.719
1064.73	791.939
1069.14	735.476
1073.55	796.895
1077.95	620.106
1082.35	563.802
1086.75	565.085
1091.15	425.256
1095.54	426.598
1099.93	308.707
1104.32	340.632
1108.71	293.565
1113.09	69.9048
1117.47	147.642
1121.85	135.952
1126.23	135.183
1130.6	40.2563
1134.97	47.1934
1139.34	97.2388
1143.7	26.9751
1148.07	26.7534
1152.43	84.0635
1156.79	43.5405
1161.14	11.7568
1165.49	125.439
1169.84	77.792
1174.19	49.1338
1178.54	160.284
1182.88	14.6479
1187.22	15.085
1191.55	128.152
1195.89	21.3887
1200.22	7.58301
1204.55	4.0542
1208.87	82.96
1213.2	47.5518
1217.52	122.645
1221.84	151.253
1226.15	113.394
1230.47	79.1553
1234.78	142.502
1239.09	109.474
1243.39	137.216
1247.69	242.893
1251.99	175.43
1256.29	211.764
1260.59	214.52
1264.88	294.01
1269.17	253.862
1273.46	292.959
1277.74	218.804
1282.02	173.594
1286.3	260.301
1290.58	266.155
1294.86	135.699
1299.13	87.644
1303.39	192.894
1307.66	160.732
1311.93	267.16
1316.19	227.864
1320.45	194.622
1324.7	253.535
1328.96	233.711
1333.21	169.458
1337.45	147.213
1341.7	175.664
1345.94	208.819
1350.18	173.463
1354.42	209.378
1358.66	134.066
1362.89	198.888
1367.12	205.959
1371.35	128.532
1375.57	62.5991
1379.8	86.1274
1384.02	43.0303
1388.23	99.1919
1392.45	124.185
1396.66	74.1182
1400.87	44.2368
1405.08	104.269
1409.28	136.563
1413.48	128.602
1417.68	92.6055
1421.88	145.999
1426.07	201.367
1430.26	136.271
1434.45	195.276
1438.64	258.259
1442.82	194.761
1447	280.695
1451.18	354.999
1455.35	306.94
1459.53	213.056
1463.7	197.943
1467.87	225.934
1472.03	145.288
1476.19	215.352
1480.35	168.448
1484.51	121.274
1488.67	63.4048
1492.82	142.795
1496.97	128.951
1501.12	15.437
1505.26	108.314
1509.4	36.556
1513.54	81.2378
1517.68	71.4941
1521.81	33.0283
1525.94	73.7739
1530.07	182.65
1534.2	85.8867
1538.32	55.4863
1542.44	194.082
1546.56	66.9839
1550.68	112.643
1554.79	102.009
1558.9	221.984
1563.01	135.24
1567.12	86.8833
1571.22	140.861
1575.32	16.9966
