Measurement: Raman, 514 nm, depolarized, Raman Data Processed
Mineral: Magnetite
Rruff sample: R060222
Ideal chemistry: Fe^2+^Fe^3+^_2_O_4_
Locality: Cerro Hua√±aquino, Potosi Department, Bolivia
Source: Rock Currier
Description: Black octahedra, the surface is hematite and the interior is magnetite
Measured chemistry: (Fe^2+^_0.95_Mg_0.05_)(Fe^3+^_0.99_Al_0.01_)_2_O_4_
Pin_id: L01600
Orientation: Laser parallel to a* (1 0 0). Fiducial mark perpendicular to laser is parallel to b [0 1 0]
Raman shift (cm-1)	intensity
132.725	32.5684
137.656	1168.31
142.583	202.832
147.508	147.537
152.431	835.979
157.35	219.738
162.267	764.619
167.181	441.969
172.092	188.734
177.001	939.486
181.907	307.197
186.81	584.012
191.711	468.406
196.608	679.4
201.503	728.822
206.395	371.322
211.285	211.658
216.172	329.494
221.056	391.309
225.937	672.336
230.816	102.912
235.692	49.8828
240.565	93.3906
245.436	86.0644
250.304	546.562
255.169	1040.76
260.031	43.7148
264.891	59.9492
269.748	241.432
274.602	262.172
279.454	353.408
284.303	468.213
289.149	843.947
293.992	898.043
298.833	1220.58
303.671	946.666
308.507	1002.93
313.339	857.584
318.169	817.492
322.996	734.748
327.821	538.123
332.643	299.065
337.462	347.295
342.279	384.297
347.092	291.115
351.904	35.0977
356.712	180.268
361.518	25.1621
366.321	20.1875
371.121	145.885
375.919	0.369141
380.714	54.9395
385.506	121.217
390.296	6.06641
395.083	275.408
399.867	290.666
404.649	233.316
409.428	266.559
414.204	320.816
418.978	289.531
423.749	112.965
428.517	38.1523
433.282	51.873
438.045	102.416
442.806	53.5742
447.563	93.166
452.318	240.244
457.07	10.6523
461.82	76.5195
466.567	354.025
471.311	368.272
476.053	266.574
480.792	309.701
485.528	436.185
490.262	520.805
494.992	621.1
499.721	691.115
504.446	817.898
509.169	897.336
513.89	1040.85
518.607	1171.66
523.322	1516.32
528.035	1724.73
532.745	2043.22
537.452	2028.78
542.156	2184.94
546.858	2422.28
551.557	2252.67
556.254	2414.98
560.947	2549.15
565.639	2440.36
570.327	2376.87
575.013	1955.21
579.697	1608.67
584.377	1254.72
589.055	1089.12
593.731	1130.97
598.403	1150.71
603.074	1548.99
607.741	1595.4
612.406	1872.62
617.068	2192.61
621.728	2427.39
626.385	3180.93
631.039	3597.22
635.691	4267.86
640.34	4984.72
644.987	6356.3
649.63	7919.6
654.272	9816.63
658.91	11945.2
663.546	13555.6
668.18	14901.5
672.81	14918
677.439	13925.8
682.064	12339.4
686.687	10088.3
691.307	8437.94
695.925	6734.95
700.54	5117.91
705.153	3954.96
709.763	3375.43
714.37	2617.36
718.974	2007.58
723.577	1831.01
728.176	1211.47
732.773	1064.73
737.367	815.957
741.959	588.617
746.548	364.996
751.134	563.227
755.718	98.8203
760.299	389.551
764.878	264.857
769.454	73.9219
774.028	94.1816
778.598	111.639
783.167	38.0352
787.732	16.5332
792.295	168.711
796.856	288.648
801.414	3.55078
805.969	95.459
810.522	8.5293
815.072	35.4082
819.62	5.875
824.165	73.2051
828.707	207.397
833.247	195.26
837.784	24.3711
842.319	63.7266
846.851	78.0918
851.381	168.342
855.908	252.629
860.432	84.9492
864.954	204.359
869.473	205.935
873.99	154.539
878.504	370.25
883.015	179.148
887.524	204.228
892.031	124.51
896.535	132.969
901.036	376.174
905.535	224.121
910.031	490.049
914.524	355.553
919.015	469.156
923.504	554.232
927.99	356.469
932.473	420.703
936.954	522.144
941.432	384.397
945.908	481.69
950.381	301.342
954.852	439.795
959.32	233.641
963.785	432.234
968.248	394.215
972.708	418.092
977.166	334.103
981.622	350.535
986.074	487.877
990.525	432.135
994.972	516.268
999.417	667.32
1003.86	588.102
1008.3	544.264
1012.74	439.268
1017.17	553.182
1021.61	551.283
1026.04	516.879
1030.46	698.488
1034.89	525.33
1039.31	626.514
1043.73	548.523
1048.15	778.742
1052.56	602.387
1056.97	756.312
1061.38	896.269
1065.79	753.609
1070.19	797.752
1074.6	780.199
1079	717.182
1083.39	728.332
1087.79	926.746
1092.18	761.443
1096.57	808.135
1100.96	672.598
1105.34	737.588
1109.72	536.66
1114.1	738.844
1118.48	526.471
1122.85	525.797
1127.22	457.322
1131.6	551.381
1135.96	383.932
1140.33	227.279
1144.69	305.248
1149.05	123.418
1153.4	157.289
1157.76	188.352
1162.11	126.606
1166.46	142.051
1170.81	224.346
1175.15	27.8281
1179.49	50.2773
1183.83	120.451
1188.17	90.9102
1192.5	53.0957
1196.84	13.209
1201.16	167.764
1205.49	89.5801
1209.82	84.7637
1214.14	39.5508
1218.46	124.197
1222.77	95.0117
1227.09	249.004
1231.4	176.123
1235.71	102.836
1240.02	78.8672
1244.32	327.225
1248.62	215.631
1252.92	99.1719
1257.22	22.8281
1261.51	222.596
1265.81	282.484
1270.1	435.504
1274.38	365.031
1278.67	427.543
1282.95	311.045
1287.23	416.969
1291.51	667.75
1295.78	761.373
1300.05	892.051
1304.32	807.037
1308.59	874.566
1312.86	729.736
1317.12	624.568
1321.38	692.316
1325.63	722.275
1329.89	739.715
1334.14	538.662
1338.39	509.373
1342.64	475.631
1346.88	549.586
1351.13	504.691
1355.37	233.916
1359.61	188.273
1363.84	150.568
1368.07	240.137
1372.3	326.383
1376.53	103.82
1380.76	209.859
1384.98	245.58
1389.2	190.445
1393.42	334.832
1397.64	103.432
1401.85	237.768
1406.06	23.6582
1410.27	138.59
1414.47	94.6562
1418.68	127.24
1422.88	199.791
1427.08	208.887
1431.27	185.006
1435.47	81.9102
1439.66	50.7793
1443.85	93.0234
1448.03	279.998
1452.22	309.75
1456.4	378.742
1460.58	121.254
1464.76	259.85
1468.93	24.666
1473.1	32.5898
1477.27	99.8887
1481.44	281.441
1485.6	301.228
1489.77	223.861
1493.92	124.176
1498.08	190.096
1502.24	13.6895
1506.39	280.33
1510.54	158.875
1514.69	154.852
1518.83	123.322
1522.97	36.1855
1527.12	204.342
1531.25	73.8789
1535.39	29.1777
1539.52	173.639
1543.65	187.277
1547.78	303.34
1551.91	73.416
1556.03	171.978
1560.15	253.424
1564.27	287.195
1568.39	312.147
1572.5	1.77734
1576.61	289.559
