Measurement: Raman, 514 nm, ccw, Raman Data Processed
Mineral: Magnesite
Rruff sample: R050443
Ideal chemistry: MgCO_3_
Locality: Brumado, Bahia, Brazil
Source: Eugene Schlepp
Description: Group of colorless crystals
Measured chemistry: Mg_1.00_CO_3_
Pin_id: L01619
Orientation: Laser parallel to -c* (0 0 -1). Fiducial mark perpendicular to laser is parallel to a [1 0 0]
Raman shift (cm-1)	intensity
61.079	0
66.041	8.51758
71.001	381.867
75.957	858.486
80.912	2102.14
85.863	1325.37
90.812	610.373
95.759	455.242
100.703	356.447
105.644	831.263
110.583	681.565
115.52	829.566
120.453	1412.74
125.385	559.219
130.313	252.894
135.239	47.0972
140.163	1.87402
145.084	247.43
150.002	126.255
154.918	153.936
159.832	103.622
164.742	211.367
169.651	177.816
174.556	175.091
179.459	47.1221
184.36	157.236
189.258	314.347
194.153	523.522
199.046	1217.39
203.936	2980.44
208.824	8363.25
213.709	18082.6
218.592	6522.05
223.472	1296.87
228.349	381.198
233.224	348.311
238.096	164.552
242.966	85.3721
247.833	219.758
252.698	261.297
257.56	252.156
262.419	67.9814
267.276	274.824
272.13	74.917
276.982	220.172
281.831	123.957
286.677	150.228
291.521	27.8154
296.363	130.648
301.202	207.852
306.038	311.053
310.872	142.384
315.703	382.562
320.531	1104.54
325.357	4364.46
330.181	10958.8
335.001	4885.9
339.82	1066.25
344.635	540.465
349.448	289.278
354.259	128.931
359.067	138.022
363.872	117.561
368.675	85.6084
373.475	138.921
378.272	165.489
383.067	124.73
387.86	34.5537
392.649	159.94
397.437	119.506
402.221	116.397
407.003	76.6255
411.783	36.7373
416.56	100.387
421.334	87.3066
426.106	67.3311
430.875	11.8706
435.641	113.761
440.405	105.239
445.167	103.401
449.925	21.9429
454.681	41.3897
459.435	27.4116
464.186	71.6597
468.934	118.691
473.68	122.883
478.423	8.05469
483.164	172.584
487.902	145.793
492.637	61.1387
497.37	149.467
502.1	194.315
506.828	68.0776
511.553	187.915
516.276	257.738
520.995	313
525.713	286.549
530.427	273.14
535.139	290.326
539.849	111.93
544.556	302.511
549.26	52.9463
553.962	232.828
558.661	155.261
563.357	199.675
568.051	158.507
572.742	325.102
577.431	140.629
582.117	76.0918
586.801	115.858
591.481	20.4702
596.16	17.8545
600.835	5.65186
605.508	44.5205
610.179	8.81152
614.847	45.1616
619.512	154.455
624.175	160.902
628.835	85.1646
633.492	132.12
638.147	129.644
642.799	141.161
647.449	250.154
652.096	291.197
656.74	170.345
661.382	234.123
666.021	427.488
670.658	392.866
675.292	491.19
679.923	510.277
684.552	546.059
689.178	653.274
693.802	893.473
698.423	891.163
703.041	1153.25
707.657	1609.74
712.27	1888.35
716.881	2701.91
721.489	4367.66
726.094	6899.27
730.697	11240.6
735.297	16903.5
739.894	19522.4
744.489	14434.6
749.081	7702
753.671	4036.55
758.258	2202.62
762.842	1126.41
767.424	701.438
772.003	335.729
776.58	266.477
781.154	206.784
785.725	79.8057
790.294	151.932
794.86	46.8442
799.424	10.5137
803.985	96.8486
808.543	6.90674
813.099	82.6641
817.652	14.1895
822.202	67.2764
826.75	33.9614
831.295	30.1216
835.838	35.5742
840.378	225.434
844.915	105.857
849.45	150.049
853.982	217.855
858.512	135.342
863.039	81.6582
867.563	74.8125
872.085	85.8789
876.604	198.692
881.12	97.7529
885.634	99.3223
890.145	57.6416
894.654	71.8936
899.16	212.001
903.663	59.8955
908.164	265.568
912.662	179.098
917.158	124.488
921.651	159.441
926.141	150.528
930.628	43.9951
935.113	180.89
939.596	47.7334
944.076	123.376
948.553	261.246
953.027	11.4658
957.499	88.6367
961.969	73.876
966.435	67.6416
970.899	127.87
975.361	227.297
979.82	196.085
984.276	164.692
988.73	129.324
993.181	185.669
997.629	277.111
1002.08	352.557
1006.52	305.637
1010.96	97.3252
1015.4	109.094
1019.83	178.981
1024.26	309.11
1028.69	351.359
1033.12	515.367
1037.55	762.109
1041.97	1234.55
1046.39	1639.51
1050.81	2441.89
1055.22	3242.82
1059.63	4650.35
1064.04	6271.23
1068.45	9787.34
1072.85	15827.6
1077.25	26094.9
1081.65	48038.5
1086.05	98626.2
1090.44	197978
1094.83	282455
1099.22	213460
1103.6	121216
1107.99	68809.9
1112.37	36377.5
1116.74	18192.2
1121.12	9736.24
1125.49	5597.43
1129.86	3606.98
1134.23	2429.1
1138.59	1644.61
1142.95	1355.12
1147.31	939.211
1151.67	702.96
1156.02	664.943
1160.38	337.223
1164.72	286.696
1169.07	231.401
1173.41	231.327
1177.75	291.427
1182.09	146.713
1186.43	253.203
1190.76	113.853
1195.09	6.3457
1199.42	124.597
1203.74	44.3145
1208.07	78.1553
1212.39	71.9443
1216.7	75.8965
1221.02	75.7647
1225.33	73.0381
1229.64	5.99609
1233.95	73.3184
1238.25	13.3887
1242.55	131.764
1246.85	106.287
1251.15	24.252
1255.44	138.23
1259.73	45.8145
1264.02	139.512
1268.31	57.8633
1272.59	352.617
1276.87	91.1562
1281.15	76.8838
1285.42	214.62
1289.69	141.931
1293.96	247.254
1298.23	128.564
1302.5	182.853
1306.76	100.125
1311.02	128.376
1315.27	252.252
1319.53	250.459
1323.78	144.323
1328.03	164.446
1332.28	121.715
1336.52	201.984
1340.76	125.429
1345	272.962
1349.23	65.9648
1353.47	85.7451
1357.7	61.291
1361.93	115.377
1366.15	80.3457
1370.37	64.1064
1374.59	136.749
1378.81	99.0029
1383.03	77.582
1387.24	242.159
1391.45	248.45
1395.65	25.6699
1399.86	105.811
1404.06	314.894
1408.26	126.78
1412.46	123.719
1416.65	183.81
1420.84	200.533
1425.03	151.238
1429.22	478.941
1433.4	556.662
1437.58	1237.75
1441.76	3622.25
1445.93	6622.67
1450.11	2666.73
1454.28	1525.74
1458.44	1015.6
1462.61	991.715
1466.77	751.631
1470.93	582.872
1475.09	517.234
1479.24	513.15
1483.39	555.476
1487.54	429.116
1491.69	396.699
1495.84	344.07
1499.98	189.42
1504.12	86.6426
1508.25	6.71875
1512.38	198.58
1516.52	112.3
1520.64	108.736
1524.77	164.213
1528.89	238.75
1533.01	132.756
1537.13	21.874
1541.25	121.316
1545.36	61.3779
1549.47	253.026
1553.58	130.485
1557.68	62.6309
1561.78	104.434
1565.88	92.0986
1569.98	84.9912
1574.07	83.9922
