Measurement: Raman, 514 nm, ccw, Raman Data Processed
Mineral: Magnesite
Rruff sample: R050676
Ideal chemistry: MgCO_3_
Locality: Tyrol, Austria
Source: University of Arizona Mineral Museum
Description: Brown rhombohedral crystals
Measured chemistry: (Mg_0.87_Fe^2+^_0.12_Ca_0.01_)_Î£=1_CO_3_; trace amounts of Mn and Cd; CO_2_ estimated by difference
Pin_id: M01410
Orientation: Laser parallel to c* (0 0 1). Fiducial mark perpendicular to laser is parallel to a [1 0 0]
Raman shift (cm-1)	intensity
61.079	0
66.041	469.929
71.001	745.781
75.957	865.917
80.912	1206.06
85.863	703.586
90.812	187.341
95.759	287.072
100.703	346.327
105.644	447.211
110.583	200.414
115.52	537.045
120.453	1214.87
125.385	401.489
130.313	74.8296
135.239	16.104
140.163	85.3989
145.084	44.6343
150.002	42.834
154.918	184.146
159.832	271.534
164.742	432.293
169.651	457.485
174.556	476.03
179.459	621.38
184.36	738.915
189.258	1044.42
194.153	1962.77
199.046	4012.94
203.936	8394.91
208.824	16680.2
213.709	11273.9
218.592	2794.41
223.472	650.879
228.349	146.76
233.224	177.722
238.096	112.589
242.966	147.847
247.833	87.8535
252.698	40.6567
257.56	96.9756
262.419	38.1074
267.276	170.921
272.13	147.258
276.982	59.8184
281.831	70.0205
286.677	147.761
291.521	126.853
296.363	275.167
301.202	298.797
306.038	580.04
310.872	1232.05
315.703	3149.36
320.531	8062.27
325.357	14811.7
330.181	9499.02
335.001	3120.18
339.82	1300.15
344.635	791.965
349.448	553.607
354.259	300.074
359.067	202.432
363.872	324.602
368.675	298.547
373.475	349.252
378.272	313.713
383.067	244.327
387.86	270.277
392.649	291.733
397.437	44.2148
402.221	146.305
407.003	43.085
411.783	22.707
416.56	43.6289
421.334	49.4522
426.106	15.6406
430.875	26.4863
435.641	25.1455
440.405	72.5264
445.167	3.43359
449.925	54.376
454.681	144.043
459.435	88.1807
464.186	260.675
468.934	274.225
473.68	446.659
478.423	425.352
483.164	622.886
487.902	752.45
492.637	835.787
497.37	905.283
502.1	1131.96
506.828	900.923
511.553	1048.9
516.276	976.768
520.995	861.514
525.713	964.262
530.427	688.136
535.139	749.387
539.849	609.664
544.556	613.864
549.26	398.812
553.962	374.943
558.661	334.943
563.357	270.44
568.051	177.763
572.742	172.931
577.431	114.133
582.117	173.502
586.801	257.615
591.481	58.1768
596.16	87.2041
600.835	24.0703
605.508	2.74707
610.179	49.542
614.847	123.484
619.512	79.4072
624.175	47.7353
628.835	212.975
633.492	225.31
638.147	53.5762
642.799	168.644
647.449	209.806
652.096	301.603
656.74	166.348
661.382	243.452
666.021	291.533
670.658	406.299
675.292	438.941
679.923	401.742
684.552	553.858
689.178	538.375
693.802	593.644
698.423	696.11
703.041	1120.65
707.657	1318.63
712.27	1673.72
716.881	2549.66
721.489	3995.18
726.094	6652.32
730.697	10702
735.297	15380.9
739.894	15638.6
744.489	10585.9
749.081	5664.1
753.671	2945.58
758.258	1391.23
762.842	593.454
767.424	241.138
772.003	52.4355
776.58	143.292
781.154	104.407
785.725	156.315
790.294	38.7315
794.86	58.7119
799.424	0.379883
803.985	229.64
808.543	15.4043
813.099	153.955
817.652	70.1338
822.202	105.916
826.75	137.39
831.295	54.4766
835.838	96.1094
840.378	30.3311
844.915	339.126
849.45	42.9541
853.982	200.102
858.512	118.252
863.039	206.724
867.563	618.932
872.085	377.191
876.604	648.957
881.12	576.199
885.634	245.789
890.145	219.958
894.654	258.432
899.16	287.826
903.663	142.953
908.164	132.706
912.662	188.087
917.158	214.002
921.651	251.773
926.141	312.478
930.628	142.569
935.113	46.5889
939.596	246.124
944.076	188.321
948.553	283.872
953.027	244.816
957.499	429.633
961.969	1030.76
966.435	764.657
970.899	316.501
975.361	432.465
979.82	331.009
984.276	70.8906
988.73	61.9248
993.181	20.4307
997.629	135.251
1002.08	3.90039
1006.52	30.415
1010.96	1.78613
1015.4	56.4961
1019.83	94.2783
1024.26	121.508
1028.69	234.211
1033.12	669.097
1037.55	879.465
1041.97	1155.56
1046.39	1605.44
1050.81	2123.47
1055.22	2974.85
1059.63	4038.27
1064.04	6029.93
1068.45	9408.01
1072.85	15151.6
1077.25	25361.9
1081.65	45767.5
1086.05	91392.1
1090.44	170314
1094.83	215159
1099.22	152837
1103.6	82200.2
1107.99	39853
1112.37	19480.2
1116.74	10397.1
1121.12	6102.62
1125.49	3904.01
1129.86	2533.72
1134.23	1722.49
1138.59	1401.41
1142.95	995.498
1147.31	843.131
1151.67	619.859
1156.02	535.688
1160.38	301.045
1164.72	412.85
1169.07	285.107
1173.41	173.795
1177.75	255.779
1182.09	196.053
1186.43	138.617
1190.76	235.463
1195.09	166.592
1199.42	822.982
1203.74	3.37891
1208.07	210.592
1212.39	24.5801
1216.7	60.9727
1221.02	102.644
1225.33	150.578
1229.64	35.7656
1233.95	271.193
1238.25	46.8555
1242.55	303.736
1246.85	278.832
1251.15	281.129
1255.44	264.611
1259.73	205.1
1264.02	285.06
1268.31	442.022
1272.59	301.877
1276.87	285.816
1281.15	200.471
1285.42	368.658
1289.69	261.693
1293.96	346.318
1298.23	295.707
1302.5	322.367
1306.76	510.922
1311.02	623.469
1315.27	352.008
1319.53	344.535
1323.78	309.035
1328.03	305.475
1332.28	502.135
1336.52	545.689
1340.76	429.17
1345	439.846
1349.23	399.565
1353.47	266.262
1357.7	322.853
1361.93	321.07
1366.15	223.883
1370.37	172.717
1374.59	129.053
1378.81	168.791
1383.03	175.299
1387.24	50.6152
1391.45	23.6348
1395.65	34.2324
1399.86	195.594
1404.06	13.6367
1408.26	3.50195
1412.46	113.754
1416.65	158.527
1420.84	88.9551
1425.03	96.0098
1429.22	304.758
1433.4	561.33
1437.58	1376.73
1441.76	2941.06
1445.93	3190.43
1450.11	2148.74
1454.28	1558.33
1458.44	1299.2
1462.61	1247.94
1466.77	943.445
1470.93	898.719
1475.09	819.773
1479.24	1057.7
1483.39	881.711
1487.54	649.615
1491.69	571.723
1495.84	357.533
1499.98	368.682
1504.12	289.883
1508.25	261.986
1512.38	81.3594
1516.52	322.897
1520.64	431.877
1524.77	131.545
1528.89	333.369
1533.01	243.971
1537.13	70.5059
1541.25	361.185
1545.36	240.684
1549.47	292.109
1553.58	276.797
1557.68	153.022
1561.78	81.2754
1565.88	167.57
1569.98	258.426
1574.07	271.416
