Measurement: Raman, 514 nm, depolarized, Raman Data Processed
Mineral: Magnesio-hastingsite
Rruff sample: R040010
Ideal chemistry: NaCa_2_(Mg_4_Fe^3+^)Si_6_Al_2_O_22_(OH)_2_
Locality: Amity, New York, USA
Source: University of Arizona Mineral Museum
Description: Group of black prismatic crystals
Measured chemistry: (Na_0.50_K_0.43_[box]_0.07_)_Σ=1_(Ca_1.77_Na_0.23_)_Σ=2_(Mg_1.74_Fe_1.22_Fe^3+^_0.79_Mn_0.57_Al_0.30_Zn_0.25_Ti_0.13_)_Σ=5_(Si_5.95_Al_2.05_)_Σ=8_O_22_((OH)_1.75_F_0.22_Cl_0.03_)_Σ=2_; OH estimated by charge balance
Pin_id: L00361
Orientation: Laser parallel to -b* (0 -1 0). Fiducial mark perpendicular to laser is parallel to c [0 0 1]
Raman shift (cm-1)	intensity
170.775	0
175.695	75.9629
180.613	223.385
185.528	446.535
190.44	165.824
195.35	304.816
200.256	1170.52
205.16	1377.65
210.061	4438.21
214.959	8957.81
219.854	12885.6
224.747	12923.3
229.636	9104.69
234.523	5466.13
239.407	3107.44
244.288	2260.88
249.166	1561.29
254.042	1352.96
258.915	1435.7
263.784	1661.93
268.651	2119.14
273.516	2636.84
278.377	3663.05
283.236	4854.74
288.092	5566.81
292.945	5735.15
297.795	5498.62
302.642	4970.14
307.487	4344.59
312.329	3462.35
317.168	2820.64
322.004	2186.19
326.838	1734.54
331.668	1379
336.496	1427.7
341.321	1463.1
346.144	2368.57
350.963	2859.44
355.78	3390.69
360.594	4148.17
365.405	4076.04
370.214	4312.62
375.019	4011.55
379.822	3333.66
384.622	2775.85
389.42	1864
394.215	1394.96
399.006	801.541
403.795	613.58
408.582	611.031
413.365	892.867
418.146	1471.07
422.924	1975.65
427.7	2360.57
432.472	1897.83
437.242	1283.41
442.009	1042.27
446.774	284.777
451.535	281.379
456.294	185.307
461.05	100.019
465.804	170.555
470.554	298.391
475.302	139.453
480.047	217.662
484.79	495.713
489.529	699.481
494.266	1425.14
499.001	2233.66
503.732	3220.99
508.461	3980.11
513.187	4789
517.911	6734.63
522.631	8754.98
527.349	11040.5
532.065	11700.8
536.777	11712.3
541.487	9852.42
546.194	8347.25
550.898	6940.79
555.6	5608.5
560.299	4642.33
564.995	3527.5
569.689	2964.31
574.38	2280.32
579.068	1861.07
583.754	721.854
588.437	581.686
593.117	33.8809
597.794	110.871
602.469	340.949
607.141	63.0645
611.81	678.019
616.477	972.406
621.141	3637.58
625.802	5394.88
630.461	6084.07
635.117	7788.83
639.77	9464.82
644.421	10601.1
649.069	11906.6
653.714	13456.4
658.357	14181.6
662.997	13646.1
667.634	11679.1
672.269	10585.5
676.901	10917.3
681.53	10681.6
686.157	8501.48
690.781	6002.97
695.402	3952.75
700.021	3212.53
704.637	3391.09
709.251	4314.12
713.861	4955.71
718.469	6149.22
723.075	6994.25
727.678	7275
732.278	7136.56
736.876	6994.72
741.47	6318.32
746.063	4972.27
750.652	3837.28
755.239	2535.87
759.824	1744.93
764.406	1347.56
768.985	1536.47
773.561	1582.67
778.135	1848.18
782.706	1410.02
787.275	1390.25
791.841	1163.89
796.404	1175.96
800.965	979.5
805.523	993.527
810.079	873.066
814.632	432.144
819.182	286.781
823.73	124.992
828.275	181.324
832.818	421.445
837.358	423.125
841.895	440.051
846.43	46.918
850.962	156.977
855.491	219.723
860.018	609.223
864.543	1087.52
869.064	954
873.583	1463.39
878.1	1892.75
882.614	2076.34
887.125	2259.54
891.634	2296.38
896.14	2533.66
900.644	3122.43
905.145	3978.72
909.644	4646.19
914.14	5177.73
918.633	4967.66
923.124	4757.38
927.612	4213.1
932.098	3890.52
936.581	3678.17
941.061	3478.34
945.539	3716.26
950.015	3272.88
954.487	3203.18
958.958	3406.13
963.425	3322.12
967.89	3139.11
972.353	3405.03
976.813	3422.58
981.271	3638.03
985.726	4372.75
990.178	5155.84
994.628	5674.69
999.075	6756.3
1003.52	7997.91
1007.96	8673.63
1012.4	9206.56
1016.84	8949.44
1021.27	8756.05
1025.71	8220.93
1030.13	7575.25
1034.56	6504.4
1038.99	5654.19
1043.41	5174.18
1047.83	4486.17
1052.24	4646.72
1056.66	4141.5
1061.07	3711.8
1065.48	3394.44
1069.89	3413.7
1074.29	3141.62
1078.69	2888.39
1083.09	2722.96
1087.49	2296.32
1091.88	2310.94
1096.28	2015.29
1100.66	1570.48
1105.05	1205.48
1109.43	815.285
1113.82	726.891
1118.2	806.203
1122.57	701.383
1126.95	641.754
1131.32	297.652
1135.69	309.219
1140.05	67.2852
1144.42	51.875
1148.78	13.5859
1153.14	347.309
1157.5	42.4023
1161.85	135.656
1166.2	69.3906
1170.55	84.625
1174.9	21.1211
1179.24	56.2578
1183.58	123.375
1187.92	181.523
1192.26	26.4727
1196.6	503.059
1200.93	206.731
1205.26	337.922
1209.58	363.891
1213.91	325.512
1218.23	391.176
1222.55	451.008
1226.87	308.644
1231.18	322.375
1235.49	615.426
1239.8	347.598
1244.11	464.113
1248.41	570.191
1252.72	346.383
1257.02	566.992
1261.32	561.223
1265.61	327.019
1269.9	441.129
1274.19	203.184
1278.48	597.293
1282.77	364.652
1287.05	392.598
1291.33	337.414
1295.61	463.805
1299.88	319.785
1304.15	386.637
1308.42	190.625
1312.69	482.82
1316.96	273.121
1321.22	301.824
1325.48	260.402
1329.74	8.25391
1334	117.09
1338.25	114.941
1342.5	208.703
1346.75	125.211
1351	361.434
1355.24	102.664
1359.48	229.32
1363.72	346.203
1367.96	133.418
1372.19	366.383
1376.42	375.664
1380.65	155.809
1384.88	304.352
1389.11	286.133
1393.33	250.793
1397.55	269.191
1401.76	371.25
1405.98	146.629
1410.19	368.715
1414.4	366.219
1418.61	137.231
1422.82	276.664
1427.02	376.461
1431.22	183.344
1435.42	238.023
1439.61	213.246
1443.81	146.227
1448	124.859
1452.18	180.465
1456.37	309.785
1460.56	147.398
1464.74	292.82
1468.92	164.391
1473.09	196.594
1477.27	174.141
1481.44	522.965
1485.61	239.953
1489.78	78.4883
1493.94	286.539
1498.1	328
1502.26	305.879
1506.42	236.164
1510.58	115.019
1514.73	55.7969
1518.88	173.269
1523.03	219.414
1527.17	311.305
1531.32	119.957
1535.46	340.644
1539.6	113.473
1543.73	173.793
1547.87	170.644
1552	135.867
1556.13	260.836
1560.26	266.359
1564.38	176.324
1568.5	83.4922
