Measurement: Raman, 514 nm, ccw, Raman Data Processed
Mineral: Magnesite
Rruff sample: R050676
Ideal chemistry: MgCO_3_
Locality: Tyrol, Austria
Source: University of Arizona Mineral Museum
Description: Brown rhombohedral crystals
Measured chemistry: (Mg_0.87_Fe^2+^_0.12_Ca_0.01_)_Î£=1_CO_3_; trace amounts of Mn and Cd; CO_2_ estimated by difference
Pin_id: M01410
Orientation: Laser parallel to c* (0 0 1). Fiducial mark perpendicular to laser is parallel to a [1 0 0]
Raman shift (cm-1)	intensity
61.079	0
66.041	2.86523
71.001	541.269
75.957	896.451
80.912	1138.52
85.863	633.525
90.812	165.667
95.759	28.9819
100.703	232.991
105.644	573.007
110.583	219.59
115.52	542.162
120.453	1211.55
125.385	234.783
130.313	37.9985
135.239	11.5117
140.163	40.6528
145.084	5.43311
150.002	9.08643
154.918	46.8818
159.832	208.058
164.742	298.881
169.651	303.31
174.556	404.82
179.459	519.001
184.36	801.913
189.258	1111.56
194.153	2002.71
199.046	3850.34
203.936	8024.47
208.824	15826.8
213.709	11194.8
218.592	2547.25
223.472	603.573
228.349	207.635
233.224	150.266
238.096	63.6938
242.966	58.6714
247.833	12.2168
252.698	53.9399
257.56	7.75
262.419	83.6924
267.276	38.2305
272.13	122.64
276.982	42.5977
281.831	39.8892
286.677	40.7534
291.521	160.064
296.363	161.249
301.202	248.462
306.038	266.961
310.872	806.658
315.703	1976.43
320.531	4816.32
325.357	9579.6
330.181	6301.53
335.001	1980.19
339.82	932.629
344.635	635.857
349.448	377.84
354.259	371.399
359.067	293.613
363.872	321.351
368.675	327.602
373.475	229.107
378.272	338.429
383.067	356.879
387.86	304.92
392.649	160.218
397.437	154.882
402.221	145.315
407.003	159.467
411.783	4.24609
416.56	8.18652
421.334	20.5029
426.106	25.8413
430.875	13.7803
435.641	140.474
440.405	19.939
445.167	28.3379
449.925	146.22
454.681	118.898
459.435	214.532
464.186	565.831
468.934	306.418
473.68	303.505
478.423	403.286
483.164	556.285
487.902	625.832
492.637	767.886
497.37	930.712
502.1	929.684
506.828	1125.73
511.553	929.08
516.276	910.112
520.995	953.569
525.713	969.5
530.427	812.428
535.139	797.964
539.849	533.696
544.556	694.847
549.26	472.471
553.962	409.709
558.661	461.775
563.357	306.823
568.051	317.02
572.742	267.863
577.431	279.755
582.117	255.028
586.801	245.898
591.481	62.2681
596.16	160.498
600.835	55.1245
605.508	68.9258
610.179	4.40527
614.847	21.8931
619.512	73.5581
624.175	2.57764
628.835	28.6841
633.492	33.6514
638.147	43.9062
642.799	63.0176
647.449	162.735
652.096	123.03
656.74	170.15
661.382	244.291
666.021	343.34
670.658	354.025
675.292	428.555
679.923	463.967
684.552	422.307
689.178	550.684
693.802	655.378
698.423	693.764
703.041	1103.06
707.657	1345.03
712.27	1836.5
716.881	2838.84
721.489	4213.23
726.094	6686.13
730.697	10652.2
735.297	15437.6
739.894	15748
744.489	10777
749.081	5997.91
753.671	3168.39
758.258	1464.64
762.842	812.054
767.424	375.731
772.003	144.466
776.58	7.01758
781.154	42.6435
785.725	128.03
790.294	132.63
794.86	2.64648
799.424	195.345
803.985	70.332
808.543	141.44
813.099	161.938
817.652	117.019
822.202	45.5684
826.75	23.6182
831.295	13.2012
835.838	63.7285
840.378	75.6387
844.915	106.519
849.45	4.90039
853.982	8.54102
858.512	188.821
863.039	237.94
867.563	104.267
872.085	291.41
876.604	754.687
881.12	696.468
885.634	369.788
890.145	52.7139
894.654	15.6592
899.16	143.474
903.663	123.114
908.164	181.281
912.662	104.481
917.158	10.5898
921.651	145.234
926.141	12.5566
930.628	61.2842
935.113	127.022
939.596	172.602
944.076	112.984
948.553	198.934
953.027	81.1074
957.499	494.273
961.969	1591.76
966.435	1392.78
970.899	358.515
975.361	80.6641
979.82	78.2285
984.276	138.291
988.73	173.99
993.181	52.1328
997.629	162.227
1002.08	112.083
1006.52	277.06
1010.96	7.94629
1015.4	145.975
1019.83	159.745
1024.26	172.953
1028.69	397.474
1033.12	657.519
1037.55	791.829
1041.97	1405.18
1046.39	1898.51
1050.81	2654.87
1055.22	3781.97
1059.63	5221.63
1064.04	7770.18
1068.45	12090.7
1072.85	19622.2
1077.25	32723
1081.65	59924.1
1086.05	118876
1090.44	222046
1094.83	279955
1099.22	200285
1103.6	107088
1107.99	51801.9
1112.37	25227.1
1116.74	13243.6
1121.12	7519.18
1125.49	4866.6
1129.86	3186.35
1134.23	2181.61
1138.59	1585.1
1142.95	1155.68
1147.31	1041.33
1151.67	708.636
1156.02	406.687
1160.38	341.158
1164.72	162.122
1169.07	200.483
1173.41	241.129
1177.75	35.0469
1182.09	47.2852
1186.43	32.7969
1190.76	72.5801
1195.09	77.6436
1199.42	9.98926
1203.74	16.3691
1208.07	101.471
1212.39	86.5283
1216.7	25.2471
1221.02	30.1494
1225.33	31.7285
1229.64	150.41
1233.95	73.2471
1238.25	113.247
1242.55	299.881
1246.85	124.127
1251.15	257.206
1255.44	225.727
1259.73	190.023
1264.02	143.477
1268.31	222.737
1272.59	150.264
1276.87	282.691
1281.15	258.033
1285.42	245.496
1289.69	353.403
1293.96	266.5
1298.23	285.463
1302.5	408.749
1306.76	240.002
1311.02	527.139
1315.27	534.154
1319.53	496.036
1323.78	310.799
1328.03	362.453
1332.28	324.005
1336.52	377.518
1340.76	431.737
1345	430.208
1349.23	252.48
1353.47	290.983
1357.7	217.029
1361.93	290.673
1366.15	246.331
1370.37	52.9297
1374.59	158.35
1378.81	1.76465
1383.03	90.6162
1387.24	148.395
1391.45	21.8457
1395.65	158.108
1399.86	138.113
1404.06	104.76
1408.26	56.3232
1412.46	66.7969
1416.65	93.5488
1420.84	106.986
1425.03	210.158
1429.22	245.1
1433.4	484.868
1437.58	1431.54
1441.76	2926.19
1445.93	3144.97
1450.11	2035.1
1454.28	1416.09
1458.44	1224.77
1462.61	1095.17
1466.77	1018.29
1470.93	1001.18
1475.09	1130.48
1479.24	887.848
1483.39	1047.84
1487.54	781.666
1491.69	711.041
1495.84	474.504
1499.98	386.83
1504.12	485.752
1508.25	169.535
1512.38	343.613
1516.52	214.738
1520.64	125.682
1524.77	273.496
1528.89	169.568
1533.01	124.215
1537.13	130.344
1541.25	239.559
1545.36	423.852
1549.47	315.514
1553.58	441.906
1557.68	362.297
1561.78	261.486
1565.88	229.381
1569.98	270.887
1574.07	5.31836
