Measurement: Raman, 514 nm, depolarized, Raman Data Processed
Mineral: Magnesio-hastingsite
Rruff sample: R070288
Ideal chemistry: NaCa_2_(Mg_4_Fe^3+^)Si_6_Al_2_O_22_(OH)_2_
Locality: Dallas Gem Mine (Gem Mine; Benitoite Mine), New Idria District, San Benito County, California, USA
Source: Michael Scott
Description: Dark brown to black prismatic crystals frozen in albite
Measured chemistry: (Na_0.51_[box]_0.33_K_0.16_)_Σ=1_(Ca_1.75_Na_0.25_)_Σ=2_(Mg_3.02_Fe^2+^_0.61_Ti_0.37_)_Σ=4_(Fe^3+^_0.73_Al_0.27_)_Σ=1_Si_5.84_Al_2.16_O_22_(OH)_2_; (OH) estimated by difference
Pin_id: M00823
Orientation: Laser parallel to -b* (0 -1 0). Fiducial mark perpendicular to laser is parallel to c [0 0 1]
Raman shift (cm-1)	intensity
105.981	0
110.9	144.217
115.817	5088.71
120.732	4263.18
125.645	454.002
130.556	113.266
135.464	49.3105
140.371	557.158
145.275	1350.27
150.177	2399.63
155.076	4618.22
159.974	6985.31
164.869	6801.34
169.762	5119.23
174.653	4603.47
179.541	4011.58
184.427	3758.9
189.311	3748.91
194.193	3311.65
199.073	3046.61
203.95	3238.4
208.825	3844.1
213.698	5546.57
218.569	8411
223.437	10732
228.303	9787.06
233.167	6134.78
238.028	4812.04
242.888	2480.75
247.745	2292.85
252.599	2206.76
257.452	1957.09
262.302	1751.39
267.15	1493.34
271.995	855.561
276.839	513.729
281.68	604.537
286.518	732.664
291.355	1211.26
296.189	1510.83
301.02	1458.53
305.85	1705.91
310.677	1989.78
315.502	2255.58
320.325	2498.2
325.145	2422.25
329.963	2229.71
334.778	2277.07
339.592	1772.61
344.403	1811.27
349.211	1780.56
354.017	1559.37
358.821	1759.52
363.623	1669.86
368.422	1488.33
373.219	1362.87
378.014	1430.43
382.806	1598.01
387.596	1475.6
392.383	1048.17
397.168	628.783
401.951	642.856
406.732	583.35
411.51	611.162
416.285	844.729
421.059	757.803
425.829	767.42
430.598	640.518
435.364	270.932
440.128	43.5254
444.889	232.709
449.648	290.367
454.405	235.848
459.159	119.529
463.911	62.9492
468.66	66.2852
473.407	96.8477
478.152	118.525
482.894	241.184
487.634	541.916
492.372	598.441
497.106	768.834
501.839	1230.1
506.569	1465.26
511.297	1960.32
516.022	2573.3
520.745	3089.23
525.466	3869.11
530.184	4598.98
534.899	4427.85
539.612	4829.74
544.323	5243.68
549.031	5087.68
553.737	4735.75
558.44	4634.91
563.141	4215.19
567.84	4014.6
572.536	3423.17
577.229	2431.92
581.92	1402.03
586.609	291.184
591.295	116.863
595.979	37.2363
600.66	461.098
605.339	1067.31
610.015	1240.12
614.689	1537.46
619.36	1963.75
624.029	2368.01
628.696	3110.89
633.36	4281.69
638.021	5587.54
642.68	7106.97
647.336	8405.5
651.99	9947.17
656.642	11173.5
661.291	13141.1
665.937	14645.4
670.581	12373
675.222	8151.84
679.861	5709.59
684.498	4766.08
689.132	3962.01
693.763	3266.04
698.392	2323.92
703.018	1569.3
707.642	1104.2
712.263	715.309
716.882	479.227
721.498	228.144
726.112	425.627
730.723	82.5019
735.332	254.453
739.938	52.875
744.541	193.027
749.142	4.64062
753.741	26.4688
758.337	175.906
762.93	9.32617
767.521	243.246
772.109	353.59
776.695	681.709
781.278	1205.61
785.859	1604.31
790.437	1764.82
795.012	2184.13
799.585	1900.27
804.155	2163.35
808.723	1784.39
813.288	1747.08
817.851	1601
822.411	1726.94
826.968	1375.67
831.523	1355.7
836.076	1074.58
840.625	286.301
845.172	401.863
849.717	21.7734
854.259	153.023
858.798	219.941
863.335	127.098
867.869	4.71875
872.401	25.6406
876.93	277.828
881.456	371.793
885.98	674.469
890.501	895.969
895.02	1029.88
899.536	1118.71
904.049	1108.06
908.56	1182.14
913.068	1148.37
917.573	1280.24
922.076	1416.86
926.576	1062.02
931.074	1102.73
935.569	1150.04
940.061	1062
944.551	1305.36
949.038	1326.89
953.522	1278.56
958.004	1365.79
962.483	1526.49
966.96	1480
971.434	1775.04
975.905	1924.64
980.373	2244.42
984.839	2123.84
989.303	2643.43
993.763	2999.8
998.221	3075.99
1002.68	3811.97
1007.13	4868.31
1011.58	5155.21
1016.03	5135.47
1020.47	5206.94
1024.91	4763.47
1029.35	4153.54
1033.79	4006.58
1038.22	3665.61
1042.65	3687
1047.08	3381.09
1051.51	3281.98
1055.93	3171.71
1060.35	2750.46
1064.77	2653.82
1069.19	1943.77
1073.6	1641.97
1078.01	1182.81
1082.42	1047.82
1086.82	823.426
1091.22	1033.39
1095.62	540.508
1100.02	570.773
1104.41	476.652
1108.8	80.4336
1113.19	364.883
1117.58	117.781
1121.96	406.426
1126.34	61.9414
1130.72	84.8594
1135.09	30.8711
1139.46	181.402
1143.83	90.0898
1148.2	35.8125
1152.56	152.961
1156.92	50.3398
1161.28	107.051
1165.64	186.75
1169.99	104.211
1174.34	237.356
1178.69	40.832
1183.04	157.891
1187.38	149.766
1191.72	205.781
1196.05	281.535
1200.39	115.453
1204.72	47.4297
1209.05	53.6211
1213.37	350.715
1217.7	274.449
1222.02	541.852
1226.33	424.801
1230.65	476.832
1234.96	472.332
1239.27	436.512
1243.58	330.231
1247.88	320.144
1252.18	385.856
1256.48	329.809
1260.78	323.141
1265.07	295.18
1269.36	371.078
1273.64	493.125
1277.93	452.625
1282.21	260.004
1286.49	353.16
1290.77	441.004
1295.04	292.09
1299.31	450.668
1303.58	307.344
1307.84	135.055
1312.11	224.117
1316.37	449.906
1320.62	43.2344
1324.88	84.8242
1329.13	354.922
1333.38	372.984
1337.62	270.359
1341.86	109.957
1346.1	220.191
1350.34	54.0469
1354.58	11.1172
1358.81	350.188
1363.04	9.61328
1367.26	329.164
1371.48	342.441
1375.7	164.332
1379.92	110.137
1384.14	350.699
1388.35	115.613
1392.56	210.266
1396.77	3.58984
1400.97	235.094
1405.17	162.938
1409.37	213.106
1413.56	20.4219
1417.76	249.488
1421.94	104.731
1426.13	384.398
1430.32	337.969
1434.5	114.231
1438.68	373.984
1442.85	439.316
1447.02	526.68
1451.19	140.871
1455.36	536.394
1459.53	253.426
1463.69	352.402
1467.85	352.398
1472	76.4062
1476.15	81.4883
1480.3	420.891
1484.45	344.168
1488.6	103
1492.74	136.141
1496.88	421.465
1501.01	60.707
1505.14	375.84
1509.27	308.613
1513.4	407.848
1517.53	244.734
1521.65	504.324
1525.77	148.695
1529.88	600.766
1533.99	352.688
1538.11	175.16
1542.21	280.848
1546.32	66.8242
1550.42	265.062
1554.52	791.625
1558.61	3.24609
1562.71	30.6797
1566.8	272.332
1570.88	93.7578
1574.97	22.3594
