Measurement: Raman, 514 nm, depolarized, Raman Data Processed
Mineral: Magnesite
Rruff sample: R050443
Ideal chemistry: MgCO_3_
Locality: Brumado, Bahia, Brazil
Source: Eugene Schlepp
Description: Group of colorless crystals
Measured chemistry: Mg_1.00_CO_3_
Pin_id: L01619
Orientation: Laser parallel to -c* (0 0 -1). Fiducial mark perpendicular to laser is parallel to a [1 0 0]
Raman shift (cm-1)	intensity
61.079	0
66.041	286.163
71.001	505.683
75.957	778.419
80.912	988.1
85.863	625.333
90.812	160.551
95.759	227.087
100.703	212.633
105.644	511.106
110.583	341.239
115.52	539.621
120.453	1304.01
125.385	368.699
130.313	78.4297
135.239	34.9565
140.163	53.7139
145.084	13.2398
150.002	1.38428
154.918	29.2476
159.832	43.5957
164.742	68.8525
169.651	48.646
174.556	30.502
179.459	27.8501
184.36	69.3677
189.258	222.282
194.153	302.408
199.046	992.035
203.936	2882.71
208.824	7837.95
213.709	16858.9
218.592	6008.78
223.472	1053.92
228.349	219.54
233.224	197.708
238.096	57.1748
242.966	123.751
247.833	151.453
252.698	140.875
257.56	100.954
262.419	14.8379
267.276	89.3921
272.13	100.601
276.982	28.2305
281.831	69.3428
286.677	16.9106
291.521	57.6958
296.363	5.69385
301.202	149.168
306.038	57.9116
310.872	45.519
315.703	185.274
320.531	725.03
325.357	2043.01
330.181	4998.34
335.001	2614.68
339.82	585.66
344.635	318.451
349.448	139.742
354.259	179.736
359.067	71.3125
363.872	222.275
368.675	193.173
373.475	89.1221
378.272	57.9414
383.067	138.056
387.86	23.897
392.649	15.4258
397.437	91.0371
402.221	72.2568
407.003	102.169
411.783	39.0303
416.56	54.7505
421.334	105.042
426.106	48.4043
430.875	64.5576
435.641	60.46
440.405	16.8149
445.167	43.3774
449.925	46.188
454.681	55.0308
459.435	75.1084
464.186	79.6787
468.934	21.7695
473.68	111.685
478.423	116.02
483.164	65.9497
487.902	105.812
492.637	157.421
497.37	75.5972
502.1	73.3838
506.828	39.4678
511.553	97.0537
516.276	112.539
520.995	23.8149
525.713	142.536
530.427	112.001
535.139	124.627
539.849	74.958
544.556	146.327
549.26	102.667
553.962	111.835
558.661	73.0981
563.357	121.729
568.051	10.1797
572.742	141.901
577.431	27.9595
582.117	130.054
586.801	88.8999
591.481	127.298
596.16	140.817
600.835	22.7217
605.508	163.343
610.179	108.652
614.847	116.21
619.512	44.915
624.175	148.875
628.835	11.9082
633.492	83.5269
638.147	172.241
642.799	155.946
647.449	199.786
652.096	219.163
656.74	242.78
661.382	285.677
666.021	389.143
670.658	376.533
675.292	552.326
679.923	512.99
684.552	603.384
689.178	728.546
693.802	889.437
698.423	986.12
703.041	1221.43
707.657	1604.29
712.27	1957.62
716.881	2883.07
721.489	4500.3
726.094	7086.9
730.697	11568.3
735.297	17197.2
739.894	19962.2
744.489	14495.3
749.081	7761.58
753.671	4108.93
758.258	2146.82
762.842	1272.72
767.424	507.646
772.003	434.38
776.58	314.986
781.154	222.462
785.725	149.815
790.294	119.075
794.86	67.1919
799.424	22.8535
803.985	153.738
808.543	19.873
813.099	85.1992
817.652	21.8823
822.202	79.6875
826.75	23.5908
831.295	12.208
835.838	61.251
840.378	10.5269
844.915	14.7495
849.45	3.54981
853.982	20.5352
858.512	154.519
863.039	156.795
867.563	79.936
872.085	4.0835
876.604	109.661
881.12	100.311
885.634	2.50635
890.145	68.8467
894.654	113.885
899.16	95.8438
903.663	38.6963
908.164	60.4673
912.662	110.175
917.158	29.8237
921.651	214.419
926.141	139.967
930.628	81.6958
935.113	95.6812
939.596	52.896
944.076	121.582
948.553	117.501
953.027	70.9351
957.499	20.4683
961.969	107.785
966.435	24.9155
970.899	161.828
975.361	187.712
979.82	185.274
984.276	159.997
988.73	196.469
993.181	131.894
997.629	260.382
1002.08	468.123
1006.52	226.472
1010.96	25.3711
1015.4	17.4893
1019.83	13.3779
1024.26	190.288
1028.69	366.712
1033.12	562.298
1037.55	802.983
1041.97	1163.91
1046.39	1563.01
1050.81	2379.3
1055.22	3095.76
1059.63	4240.42
1064.04	6137.28
1068.45	9183.36
1072.85	14842.5
1077.25	24680.9
1081.65	45458
1086.05	94042.8
1090.44	188151
1094.83	265479
1099.22	197879
1103.6	112597
1107.99	63648.4
1112.37	33627.8
1116.74	17056.8
1121.12	9277.19
1125.49	5354.81
1129.86	3403.01
1134.23	2400.06
1138.59	1534.37
1142.95	1099.98
1147.31	989.798
1151.67	695.004
1156.02	494.308
1160.38	448.797
1164.72	301.454
1169.07	399.29
1173.41	23.2969
1177.75	229.444
1182.09	207.728
1186.43	178.148
1190.76	128.694
1195.09	52.3662
1199.42	175.155
1203.74	44.9658
1208.07	20.9463
1212.39	124.791
1216.7	86.3535
1221.02	58.8857
1225.33	4.70703
1229.64	179.783
1233.95	59.5693
1238.25	41.6465
1242.55	66.1572
1246.85	6.73535
1251.15	158.265
1255.44	242.136
1259.73	43.5391
1264.02	144.987
1268.31	249.118
1272.59	240.682
1276.87	53.1514
1281.15	165.781
1285.42	219.308
1289.69	215.647
1293.96	287.183
1298.23	238.588
1302.5	134.074
1306.76	104.526
1311.02	282.94
1315.27	253.309
1319.53	146.624
1323.78	45.8848
1328.03	216.093
1332.28	96.3603
1336.52	155.815
1340.76	17.5791
1345	145.923
1349.23	86.583
1353.47	78.1904
1357.7	169.955
1361.93	11.2959
1366.15	206.562
1370.37	132.815
1374.59	95.9424
1378.81	72.5674
1383.03	31.9014
1387.24	23.4697
1391.45	46.3818
1395.65	9.34668
1399.86	153.19
1404.06	160.759
1408.26	61.7471
1412.46	194.56
1416.65	124.244
1420.84	154.663
1425.03	206.004
1429.22	378.148
1433.4	394.128
1437.58	1300.82
1441.76	3855.36
1445.93	6637.79
1450.11	2668.24
1454.28	1353.11
1458.44	943.932
1462.61	989.066
1466.77	670.268
1470.93	669.848
1475.09	579.88
1479.24	594.54
1483.39	466.813
1487.54	441.632
1491.69	289.983
1495.84	264.281
1499.98	158.737
1504.12	10.3535
1508.25	122.464
1512.38	161.233
1516.52	145.972
1520.64	139.622
1524.77	146.203
1528.89	123.894
1533.01	5.85059
1537.13	83.9443
1541.25	46.4062
1545.36	38.0879
1549.47	67.8096
1553.58	124.477
1557.68	88.6377
1561.78	122.584
1565.88	123.916
1569.98	254.215
1574.07	16.582
