Measurement: Raman, 514 nm, depolarized, Raman Data Processed
Mineral: Magnetite
Rruff sample: R060656
Ideal chemistry: Fe^2+^Fe^3+^_2_O_4_
Locality: Jacupiranga Pegmatite, Sao Paulo State, Brazil
Source: Michael Scott
Description: Black rounded octahedra associated with phlogopite and diopside
Measured chemistry: (Fe^2+^_0.98_Mg_0.01_Mn_0.01_)(Fe^3+^_1.96_Ti_0.02_Mg_0.02_)O_4_
Pin_id: M00920
Orientation: Laser parallel to a* (1 0 0). Fiducial mark perpendicular to laser is parallel to b [0 1 0]
Raman shift (cm-1)	intensity
175.755	0
180.663	60.377
185.569	342.191
190.472	420.379
195.373	779.47
200.27	807.94
205.166	266.971
210.058	131.914
214.948	171.374
219.836	144.19
224.721	78.5693
229.603	132.352
234.482	79.1533
239.359	61.4209
244.234	44.3408
249.106	20.2402
253.975	46.7891
258.841	3.03125
263.705	162.829
268.567	243.126
273.425	248.228
278.281	259.956
283.135	445.648
287.986	435.537
292.834	695.845
297.68	724.623
302.523	798.97
307.363	871.916
312.201	826.391
317.037	630.915
321.869	769.402
326.699	533.955
331.527	619.903
336.351	488.795
341.174	320.41
345.993	184.735
350.81	267.974
355.625	157.952
360.436	137.376
365.245	17.9072
370.052	3.78418
374.856	32.1934
379.657	131.713
384.456	84.9121
389.252	30.4639
394.045	149.904
398.836	115.149
403.625	75.6016
408.41	33.2139
413.193	118.468
417.974	32.919
422.751	94.3496
427.527	1.11426
432.299	155.781
437.069	96.6231
441.836	228.026
446.601	184.114
451.363	91.8711
456.123	388.196
460.88	252.837
465.634	247.348
470.386	326.745
475.135	188.652
479.881	348.101
484.625	564.122
489.366	722.754
494.105	838.039
498.84	967.037
503.574	966.785
508.305	1100.02
513.033	1327.91
517.758	1485.82
522.481	1800.97
527.201	2195.79
531.919	2142.11
536.634	1927.86
541.346	2079.73
546.056	2242.04
550.763	2523.97
555.468	2311.43
560.17	2415.97
564.869	2233.63
569.566	2332.22
574.26	2128.9
578.952	1531.56
583.641	1009.21
588.327	606.735
593.011	623.164
597.692	563.414
602.37	575.457
607.046	788.013
611.719	1091.94
616.39	1254.33
621.058	1632.47
625.723	1949.34
630.386	2431.91
635.046	3081.92
639.703	3984.11
644.358	5172.46
649.01	6252.63
653.66	7926.9
658.307	9623.72
662.951	11173.3
667.593	11909.8
672.232	11662.7
676.869	10631.6
681.503	9241.52
686.134	7671.62
690.763	6191.52
695.389	5194.08
700.013	4095.66
704.633	3071.35
709.252	2518.63
713.867	2045.23
718.48	1732.74
723.091	1357.7
727.698	1085.11
732.304	733.156
736.906	598.644
741.506	527.351
746.103	267.673
750.698	293.931
755.29	225.794
759.88	139.304
764.467	81.2422
769.051	121.579
773.632	62.4473
778.211	9.00879
782.788	20.2471
787.362	132.947
791.933	45.1103
796.501	23.7861
801.067	33.1914
805.631	6.01172
810.191	38.9824
814.749	74.835
819.305	8.16797
823.858	28.5117
828.408	124.59
832.956	17.6201
837.501	90.6094
842.043	57.8818
846.583	60.4141
851.12	18.2305
855.654	46.1025
860.186	32.1397
864.716	230.458
869.242	197.035
873.766	165.987
878.288	90.3076
882.807	75.9522
887.323	282.957
891.837	68.3428
896.348	218.07
900.856	272.19
905.362	348.582
909.865	308.043
914.366	268.056
918.864	287.887
923.359	306.381
927.852	280.228
932.342	263.641
936.829	314.478
941.314	410.126
945.796	277.912
950.276	304.312
954.753	306.621
959.228	263.63
963.699	234.216
968.169	395.863
972.635	303.09
977.099	163.558
981.56	254.433
986.019	473.969
990.475	241.185
994.929	357.526
999.38	178.782
1003.83	222.114
1008.27	282.587
1012.72	336.933
1017.16	317.668
1021.6	195.047
1026.03	302.556
1030.46	304.224
1034.89	278.065
1039.32	220.944
1043.74	354.606
1048.17	241.151
1052.59	313.549
1057	389.649
1061.42	337.999
1065.83	459.806
1070.24	333.3
1074.65	333.643
1079.05	281.094
1083.45	344.323
1087.85	344.941
1092.25	249.85
1096.64	373.215
1101.03	299.047
1105.42	210.499
1109.8	240.081
1114.19	266.244
1118.57	270.848
1122.95	264.515
1127.32	186.438
1131.69	111.869
1136.06	274.258
1140.43	119.186
1144.8	176.16
1149.16	219.184
1153.52	17.2461
1157.87	80.4697
1162.23	107.633
1166.58	29.1709
1170.93	24.9941
1175.28	73.1846
1179.62	33.5938
1183.96	139.859
1188.3	30.8115
1192.64	98.0039
1196.97	116.103
1201.3	26.1318
1205.63	133.132
1209.95	30.1729
1214.28	148.505
1218.6	36.0322
1222.92	68.0508
1227.23	66.043
1231.55	21.7549
1235.86	171.527
1240.16	20.2725
1244.47	73.0703
1248.77	139.739
1253.07	244.91
1257.37	96.833
1261.66	93.2666
1265.95	167.532
1270.24	113.428
1274.53	56.4902
1278.81	178.992
1283.09	98.8457
1287.37	134.482
1291.65	203.014
1295.92	124.573
1300.19	25.8818
1304.46	162.316
1308.73	263.818
1312.99	133.329
1317.25	187.934
1321.51	110.56
1325.77	33.2705
1330.02	190.302
1334.27	164.108
1338.52	199.942
1342.76	115.311
1347	94.7109
1351.24	79.6758
1355.48	172.516
1359.72	148.532
1363.95	250.113
1368.18	236.264
1372.4	119.445
1376.63	222.664
1380.85	57.0078
1385.07	141.454
1389.29	126.891
1393.5	73.5391
1397.71	85.2959
1401.92	178.167
1406.13	101.162
1410.33	51.1914
1414.53	103.47
1418.73	97.9062
1422.92	183.533
1427.12	108.386
1431.31	177.473
1435.5	28.8379
1439.68	167.681
1443.87	75.6279
1448.05	181.453
1452.22	190.06
1456.4	107.964
1460.57	239.414
1464.74	89.125
1468.91	87.1152
1473.07	11.5791
1477.23	104.323
1481.39	64.3174
1485.55	173.557
1489.7	182.023
1493.86	95.7246
1498.01	10.041
1502.15	103.442
1506.3	66.1914
1510.44	104.126
1514.58	159.077
1518.71	310.562
1522.85	130.651
1526.98	112.861
1531.11	224.863
1535.23	184.536
1539.35	44.2393
1543.47	216.48
1547.59	134.233
1551.71	307.644
1555.82	122.914
1559.93	166.036
1564.04	38.7471
1568.14	304.516
1572.25	36.3975
1576.35	76.6543
