Measurement: Raman, 514 nm, depolarized, Raman Data Processed
Mineral: Magnesio-hastingsite
Rruff sample: R070288
Ideal chemistry: NaCa_2_(Mg_4_Fe^3+^)Si_6_Al_2_O_22_(OH)_2_
Locality: Dallas Gem Mine (Gem Mine; Benitoite Mine), New Idria District, San Benito County, California, USA
Source: Michael Scott
Description: Dark brown to black prismatic crystals frozen in albite
Measured chemistry: (Na_0.51_[box]_0.33_K_0.16_)_Σ=1_(Ca_1.75_Na_0.25_)_Σ=2_(Mg_3.02_Fe^2+^_0.61_Ti_0.37_)_Σ=4_(Fe^3+^_0.73_Al_0.27_)_Σ=1_Si_5.84_Al_2.16_O_22_(OH)_2_; (OH) estimated by difference
Pin_id: M01097
Orientation: Laser parallel to a* (1 0 0). Fiducial mark perpendicular to laser is parallel to b [0 1 0]
Raman shift (cm-1)	intensity
88.873	0
93.835	680.68
98.794	95.8799
103.75	285.455
108.704	1254.96
113.654	3670.41
118.602	3984.54
123.547	3279.4
128.49	1970.55
133.429	1994.44
138.366	2691.8
143.3	2671.15
148.232	2705.66
153.16	3158.93
158.086	3805.03
163.009	3792.64
167.929	3437.19
172.847	3399.18
177.761	3345.43
182.673	3389.97
187.583	3486.43
192.489	3098.2
197.393	2693.44
202.294	2278.91
207.192	1399.4
212.088	1378.3
216.98	1412.3
221.87	1573.18
226.758	1559.27
231.642	1634.31
236.524	1642.72
241.403	1428.18
246.279	1207.82
251.153	901.056
256.023	639.156
260.891	377.422
265.757	174.118
270.619	38.8184
275.479	20.8672
280.336	128.464
285.191	74.9404
290.042	57.083
294.891	44.2998
299.738	55.1748
304.581	88.6357
309.422	16.6426
314.26	85.2978
319.095	32.3691
323.928	15.6904
328.758	9.83008
333.585	58.6387
338.41	33.9941
343.231	41.3359
348.05	70.9961
352.867	24.2891
357.68	15.2139
362.491	215.352
367.299	465.183
372.105	570.223
376.908	603.987
381.708	789.488
386.505	936.878
391.3	871.109
396.092	734.153
400.881	698.894
405.668	751.283
410.452	985.28
415.233	1063.72
420.011	972.517
424.787	953.09
429.56	801.49
434.331	628.851
439.098	558.004
443.863	377.65
448.626	216.565
453.385	91.8066
458.142	163.912
462.897	122.821
467.648	265.867
472.397	374.43
477.144	434.905
481.887	577.408
486.628	913.616
491.366	1036.69
496.102	1505.06
500.835	1980.46
505.565	2579.38
510.293	2918.42
515.018	3479.6
519.74	3960.92
524.459	4441.36
529.176	4916.93
533.891	4998.61
538.602	5354.42
543.311	5324.34
548.017	5477.37
552.721	5555.15
557.422	5580.65
562.12	5422.25
566.816	5177.91
571.509	4669.83
576.199	3649.03
580.887	2360.54
585.572	1820.4
590.254	559.158
594.934	152.542
599.611	3.00293
604.285	159.157
608.957	204.587
613.626	15.3076
618.293	73.3106
622.957	151.669
627.618	367.006
632.277	527.747
636.933	958.239
641.586	1295.4
646.237	1783.01
650.885	2166.04
655.53	2435.53
660.173	2784.5
664.813	2773.98
669.451	2758.99
674.086	2275.57
678.718	1969.73
683.348	1575.21
687.975	1637.67
692.599	1490.17
697.221	1437.93
701.84	1335.41
706.457	1265.72
711.071	1643.47
715.682	1930.39
720.291	2012.78
724.897	2413.08
729.5	2436.77
734.101	2614.87
738.7	2760.06
743.295	2751.67
747.888	2622.64
752.479	2480.99
757.067	2654.98
761.652	2460.68
766.235	2564.6
770.815	2954.78
775.392	3138
779.967	3371.45
784.539	3615.15
789.109	3883.48
793.676	3927.39
798.241	3939.98
802.803	3828.62
807.362	3583.93
811.919	3302.23
816.473	2923.59
821.024	2360.63
825.573	1913.42
830.12	1549.48
834.663	936.221
839.205	474.498
843.743	165.265
848.279	94.54
852.813	54.1621
857.344	61.9658
861.872	30.1201
866.398	201.776
870.921	53.0215
875.442	100.096
879.96	256.34
884.475	433.943
888.988	558.414
893.498	745.685
898.006	839.585
902.511	742.169
907.014	493.441
911.514	506.8
916.012	469.372
920.507	229.108
924.999	210.674
929.489	276.649
933.976	481.24
938.461	468.495
942.943	604.684
947.423	687.821
951.9	721.735
956.374	627.987
960.846	721.929
965.316	628.841
969.783	699.617
974.247	599.219
978.709	699.648
983.168	626.629
987.625	765.972
992.079	998.431
996.53	979.667
1000.98	1345.11
1005.43	1521.56
1009.87	1667.7
1014.31	1694.75
1018.75	1754.21
1023.19	1698.62
1027.62	1537.06
1032.05	1506.36
1036.48	1256.06
1040.91	1201.89
1045.33	1086.29
1049.75	1193.71
1054.17	1230.91
1058.59	1101.06
1063	1153.05
1067.41	1238.34
1071.82	1146
1076.23	1021.25
1080.63	807.277
1085.03	847.366
1089.43	784.195
1093.83	737.005
1098.22	630.379
1102.61	413.615
1107	402.889
1111.39	404.747
1115.77	222.269
1120.15	147.59
1124.53	237.692
1128.9	79.3867
1133.28	229.361
1137.65	237.244
1142.02	50.46
1146.38	20.5605
1150.75	154.581
1155.11	59.4424
1159.47	80.9473
1163.82	68.1133
1168.18	2.61035
1172.53	35.3594
1176.88	74.8936
1181.22	49.5088
1185.57	57.7344
1189.91	28.0342
1194.24	82.1611
1198.58	24.4785
1202.91	89.7168
1207.25	99.2861
1211.58	83.8252
1215.9	170.515
1220.22	243.481
1224.55	198.661
1228.87	176.914
1233.18	166.394
1237.49	127.136
1241.81	118.103
1246.12	249.325
1250.42	157
1254.72	151.676
1259.03	246.584
1263.33	221.768
1267.62	171.101
1271.92	390.836
1276.21	252.057
1280.5	246.587
1284.78	172.891
1289.07	274.114
1293.35	191.308
1297.63	195.457
1301.91	210.629
1306.18	194.571
1310.45	109.481
1314.72	164.52
1318.99	123.186
1323.25	198.57
1327.52	287.393
1331.78	149.322
1336.03	196.581
1340.29	179.092
1344.54	307.119
1348.79	220.775
1353.04	273.052
1357.28	252.249
1361.52	203.977
1365.77	296.319
1370	143.112
1374.24	89.6797
1378.47	171.582
1382.7	52.6543
1386.93	64.9023
1391.15	139.485
1395.38	144.736
1399.6	46.1348
1403.82	123.921
1408.03	37.4853
1412.24	152.624
1416.46	32.6016
1420.66	105.049
1424.87	106.838
1429.08	61.5342
1433.28	146.459
1437.47	180.192
1441.67	220.376
1445.87	168.135
1450.06	165.092
1454.25	105.978
1458.43	321.514
1462.62	197.512
1466.8	177.564
1470.98	236.909
1475.15	157.431
1479.33	230.174
1483.5	155.107
1487.67	171.657
1491.84	151.37
1496.01	207.64
1500.17	158.383
1504.33	181.852
1508.49	115.388
1512.64	163.106
1516.79	113.107
1520.94	162.148
1525.09	17.6572
1529.24	222.531
1533.38	11.2598
1537.52	65.2656
1541.66	134.395
1545.8	26.6523
1549.93	209.829
1554.06	113.661
1558.19	162.298
1562.32	210.337
1566.44	141.608
1570.57	244.959
1574.69	279.744
