Measurement: Raman, 514 nm, ccw, Raman Data Processed
Mineral: Magnesite
Rruff sample: R050443
Ideal chemistry: MgCO_3_
Locality: Brumado, Bahia, Brazil
Source: Eugene Schlepp
Description: Group of colorless crystals
Measured chemistry: Mg_1.00_CO_3_
Pin_id: L01619
Orientation: Laser parallel to -c* (0 0 -1). Fiducial mark perpendicular to laser is parallel to a [1 0 0]
Raman shift (cm-1)	intensity
61.079	0
66.041	265.107
71.001	552.75
75.957	781.52
80.912	1633.72
85.863	721.734
90.812	99.8872
95.759	301.541
100.703	324.312
105.644	716.939
110.583	447.427
115.52	508.491
120.453	1447.71
125.385	336.116
130.313	129.272
135.239	35.398
140.163	75.8232
145.084	96.8618
150.002	50.7295
154.918	60.0337
159.832	19.6318
164.742	98.3618
169.651	6.99121
174.556	16.2598
179.459	83.9741
184.36	67.7183
189.258	252.877
194.153	308.41
199.046	994.581
203.936	2861.9
208.824	8065.14
213.709	17987.4
218.592	6712.94
223.472	1274.97
228.349	281.858
233.224	245.22
238.096	103.985
242.966	55.5254
247.833	46.4238
252.698	34.5273
257.56	108.251
262.419	202.166
267.276	65.8413
272.13	30.8589
276.982	67.7715
281.831	29.4023
286.677	127.668
291.521	21.4854
296.363	160.422
301.202	29.8716
306.038	112.582
310.872	133.991
315.703	336.628
320.531	918.501
325.357	2984.69
330.181	7856.83
335.001	3997.43
339.82	897.335
344.635	262.108
349.448	221.731
354.259	138.188
359.067	120.019
363.872	81.7378
368.675	135.788
373.475	31.6743
378.272	96.6328
383.067	171.493
387.86	20.9556
392.649	56.7476
397.437	90.0635
402.221	170.776
407.003	45.2373
411.783	148.238
416.56	3.0918
421.334	11.1157
426.106	30.5039
430.875	63.8989
435.641	30.8965
440.405	20.772
445.167	117.178
449.925	83.4277
454.681	128.858
459.435	17.8545
464.186	36.333
468.934	90.1377
473.68	101.156
478.423	134.976
483.164	129.435
487.902	73.7559
492.637	153.998
497.37	101.085
502.1	64.0117
506.828	38.3872
511.553	49.0347
516.276	12.5581
520.995	184.828
525.713	188.223
530.427	158.242
535.139	105.319
539.849	63.2212
544.556	125.478
549.26	154.347
553.962	155.554
558.661	265.546
563.357	140.746
568.051	53.459
572.742	112.39
577.431	75.3633
582.117	133.172
586.801	112.133
591.481	75.3491
596.16	122.235
600.835	32.4419
605.508	82.8882
610.179	96.2319
614.847	145.385
619.512	163.987
624.175	295.213
628.835	65.4185
633.492	116.628
638.147	160.841
642.799	102.337
647.449	235.698
652.096	260.317
656.74	184.384
661.382	248.804
666.021	393.312
670.658	441.014
675.292	562.23
679.923	647.702
684.552	637.682
689.178	681.28
693.802	838.343
698.423	880.632
703.041	1324.57
707.657	1514.96
712.27	2083.79
716.881	2816.52
721.489	4404.3
726.094	6901.48
730.697	11433.1
735.297	17126.9
739.894	19790.7
744.489	14433.7
749.081	7853
753.671	4188.68
758.258	2124.22
762.842	1169.03
767.424	621.726
772.003	323.526
776.58	237.89
781.154	391.611
785.725	39.9648
790.294	145.664
794.86	15.5518
799.424	65.0254
803.985	210.605
808.543	59.2578
813.099	159.644
817.652	56.0625
822.202	157.234
826.75	30.6387
831.295	43.1397
835.838	61.7842
840.378	23.5273
844.915	139.981
849.45	34.2842
853.982	46.3643
858.512	48.7393
863.039	174.846
867.563	8.72168
872.085	43.3935
876.604	118.208
881.12	68.6113
885.634	7.84668
890.145	4.18066
894.654	90.3457
899.16	31.3906
903.663	52.3174
908.164	140.095
912.662	45.75
917.158	59.2988
921.651	133.402
926.141	104.746
930.628	53.3457
935.113	121.458
939.596	178.333
944.076	76.7773
948.553	53.1953
953.027	183.403
957.499	17.6631
961.969	42.3125
966.435	96.5137
970.899	128.386
975.361	59.0234
979.82	155.506
984.276	66.3516
988.73	1.56445
993.181	154.363
997.629	241.426
1002.08	389.894
1006.52	161.554
1010.96	52.124
1015.4	37.1641
1019.83	25.8154
1024.26	151.679
1028.69	337.608
1033.12	343.624
1037.55	747.812
1041.97	1028.85
1046.39	1451.32
1050.81	2173.45
1055.22	2866.22
1059.63	3769.15
1064.04	5579.27
1068.45	8677.4
1072.85	14091.9
1077.25	23346.1
1081.65	42682.3
1086.05	88164.5
1090.44	176421
1094.83	247150
1099.22	184977
1103.6	105732
1107.99	59710.8
1112.37	31528.1
1116.74	16012.6
1121.12	8377.65
1125.49	4936.08
1129.86	3155.92
1134.23	2021.65
1138.59	1542.33
1142.95	1072.26
1147.31	866.924
1151.67	594.961
1156.02	525.124
1160.38	425.013
1164.72	270.068
1169.07	229.558
1173.41	195.694
1177.75	192.261
1182.09	125.986
1186.43	222.872
1190.76	237.905
1195.09	48.5527
1199.42	106.696
1203.74	18.0586
1208.07	33.8447
1212.39	16.7344
1216.7	80.8906
1221.02	58.6445
1225.33	70.9219
1229.64	74.4853
1233.95	220.115
1238.25	52.8193
1242.55	59.6377
1246.85	16.4297
1251.15	18.791
1255.44	194.319
1259.73	103.697
1264.02	155.407
1268.31	176.275
1272.59	165.421
1276.87	182.624
1281.15	190.586
1285.42	249.565
1289.69	372.425
1293.96	106.272
1298.23	242.277
1302.5	220.266
1306.76	285.837
1311.02	234.45
1315.27	273.711
1319.53	189.865
1323.78	223.909
1328.03	148.458
1332.28	157.736
1336.52	3.68164
1340.76	165.698
1345	255.86
1349.23	35.9092
1353.47	146.159
1357.7	129.667
1361.93	61.5605
1366.15	43.8477
1370.37	117.967
1374.59	106.015
1378.81	37.415
1383.03	232.331
1387.24	167.268
1391.45	91.6748
1395.65	74.8906
1399.86	83.3848
1404.06	84.1504
1408.26	167.048
1412.46	223.403
1416.65	200.998
1420.84	168.32
1425.03	233.491
1429.22	324.309
1433.4	503.658
1437.58	1228.58
1441.76	3838.01
1445.93	6632.32
1450.11	2832.84
1454.28	1266.38
1458.44	1072.89
1462.61	890.216
1466.77	870.442
1470.93	473.307
1475.09	637.587
1479.24	519.878
1483.39	523.106
1487.54	485.531
1491.69	285.933
1495.84	278.358
1499.98	229.455
1504.12	111.366
1508.25	235.137
1512.38	87.791
1516.52	11.5352
1520.64	91.1504
1524.77	93.6856
1528.89	166.84
1533.01	227.106
1537.13	48.3428
1541.25	194.153
1545.36	102.394
1549.47	248.211
1553.58	174.639
1557.68	100.713
1561.78	188.483
1565.88	46.1328
1569.98	142.86
1574.07	64.4424
