Measurement: Raman, 514 nm, ccw, Raman Data Processed
Mineral: Magnesiochromite
Rruff sample: R050399
Ideal chemistry: MgCr^3+^_2_O_4_
Locality: Troodos Mountains, Cyprus
Source: Andy McCarthy
Description: Black grains
Measured chemistry: (Mg_0.68_Fe^2+^_0.32_)_Σ=1_(Cr_1.29_Al_0.64_Fe^3+^_0.07_)_Σ=2_O__4
Pin_id: M01485
Orientation: Laser parallel to a* (1 0 0). Fiducial mark perpendicular to laser is parallel to c [0 0 1]
Raman shift (cm-1)	intensity
127.792	0
132.725	92.6348
137.656	667.904
142.583	642.561
147.508	883.266
152.431	922.217
157.35	964.108
162.267	1458.04
167.181	962.729
172.092	660.043
177.001	799.015
181.907	738.178
186.81	735.117
191.711	862.646
196.608	968.736
201.503	1040.4
206.395	814.211
211.285	706.59
216.172	1038.76
221.056	1098.74
225.937	1259.35
230.816	1303.9
235.692	1261.27
240.565	1440.7
245.436	1195.31
250.304	1271.19
255.169	947.557
260.031	1065.87
264.891	742.734
269.748	655.894
274.602	771.477
279.454	495.398
284.303	325.654
289.149	443.271
293.992	348.551
298.833	121.115
303.671	124.597
308.507	35.9805
313.339	6.7207
318.169	162.235
322.996	82.3945
327.821	249.186
332.643	70.3711
337.462	177.255
342.279	103.895
347.092	163.743
351.904	40.0654
356.712	280.715
361.518	118.69
366.321	52.1738
371.121	139.81
375.919	187.299
380.714	23.8447
385.506	75.5908
390.296	96.3262
395.083	37.082
399.867	299.873
404.649	119.18
409.428	98.7022
414.204	116.791
418.978	122.301
423.749	164.222
428.517	221.703
433.282	261.615
438.045	316.533
442.806	307.681
447.563	364.106
452.318	603.273
457.07	381.408
461.82	774.711
466.567	630.118
471.311	623.655
476.053	521.104
480.792	721.708
485.528	908.725
490.262	764.455
494.992	506.202
499.721	662.5
504.446	763.992
509.169	1165.3
513.89	1358.22
518.607	2197.24
523.322	2952.98
528.035	3816.78
532.745	4970.26
537.452	6553.84
542.156	8906.55
546.858	10987.7
551.557	13161.4
556.254	14832.8
560.947	15906.1
565.639	16294.4
570.327	16789.2
575.013	16950.2
579.697	16421.3
584.377	15832.7
589.055	14425.5
593.731	12950.2
598.403	11982.5
603.074	11192.4
607.741	10189.2
612.406	9271.49
617.068	7989.37
621.728	5967.73
626.385	4618.28
631.039	3608.35
635.691	3768.2
640.34	5161.19
644.987	7586.39
649.63	9942.63
654.272	11241.3
658.91	11669.6
663.546	11549.1
668.18	11998.5
672.81	12826.8
677.439	14543.1
682.064	17045
686.687	19995.5
691.307	23282.8
695.925	26248.9
700.54	27727.7
705.153	27255.4
709.763	24311.3
714.37	20799.4
718.974	16661.2
723.577	12997.2
728.176	10601.5
732.773	7950.69
737.367	6109.25
741.959	4844.15
746.548	3674.08
751.134	2725.76
755.718	2141.34
760.299	1665.71
764.878	1094.39
769.454	776.491
774.028	612.337
778.598	564.36
783.167	258.769
787.732	101.71
792.295	86.4795
796.856	68.9805
801.414	160.841
805.969	215.678
810.522	5.93457
815.072	149.513
819.62	153.499
824.165	78.1045
828.707	10.1065
833.247	79.8975
837.784	119.196
842.319	48.2246
846.851	189.658
851.381	10.3794
855.908	289.217
860.432	88.3936
864.954	221.498
869.473	372.952
873.99	57.7681
878.504	253.218
883.015	249.305
887.524	422.833
892.031	363.957
896.535	316.241
901.036	270.964
905.535	458.008
910.031	344.606
914.524	407.191
919.015	371.017
923.504	438.444
927.99	536.438
932.473	385.529
936.954	523.845
941.432	376.235
945.908	418.564
950.381	502.279
954.852	347.395
959.32	446.263
963.785	305.139
968.248	239.987
972.708	138.182
977.166	216.269
981.622	267.677
986.074	149.52
990.525	275.413
994.972	442.691
999.417	319.453
1003.86	172.996
1008.3	233.567
1012.74	257.03
1017.17	170.17
1021.61	70.1885
1026.04	81.0952
1030.46	47.2866
1034.89	45.8501
1039.31	97.0083
1043.73	36.3467
1048.15	171.614
1052.56	151.141
1056.97	390.155
1061.38	269.042
1065.79	213.148
1070.19	240.968
1074.6	236.453
1079	93.6773
1083.39	339.85
1087.79	274.796
1092.18	260.775
1096.57	600.26
1100.96	550.626
1105.34	547.06
1109.72	789.024
1114.1	740.633
1118.48	923.92
1122.85	859.919
1127.22	905.804
1131.6	872.567
1135.96	990.509
1140.33	905.084
1144.69	848.59
1149.05	905.231
1153.4	899.727
1157.76	813.363
1162.11	693.885
1166.46	841.433
1170.81	606.082
1175.15	728.915
1179.49	549.714
1183.83	486.394
1188.17	562.993
1192.5	408.504
1196.84	667.915
1201.16	330.898
1205.49	314.774
1209.82	237.248
1214.14	394.342
1218.46	252.265
1222.77	58.8643
1227.09	232.236
1231.4	134.867
1235.71	197.516
1240.02	126.266
1244.32	181.108
1248.62	102.859
1252.92	205.809
1257.22	148.707
1261.51	256.682
1265.81	168.81
1270.1	68.0332
1274.38	132.229
1278.67	31.3877
1282.95	85.4707
1287.23	218.495
1291.51	188.536
1295.78	341.621
1300.05	149.666
1304.32	329.625
1308.59	190.42
1312.86	242.366
1317.12	141.328
1321.38	153.602
1325.63	160.523
1329.89	45.1641
1334.14	54.8916
1338.39	31.9233
1342.64	130.976
1346.88	52.3418
1351.13	61.4458
1355.37	115.33
1359.61	165.34
1363.84	221.155
1368.07	220.946
1372.3	240.648
1376.53	358.054
1380.76	238.471
1384.98	149.4
1389.2	455.665
1393.42	368.745
1397.64	476.733
1401.85	248.423
1406.06	298.221
1410.27	232.071
1414.47	360.425
1418.68	382.204
1422.88	211.085
1427.08	297.249
1431.27	216.178
1435.47	188.805
1439.66	236.889
1443.85	227.139
1448.03	307.72
1452.22	154.418
1456.4	58.8657
1460.58	203.694
1464.76	148.234
1468.93	11.6763
1473.1	42.0483
1477.27	10.6729
1481.44	297.148
1485.6	167.992
1489.77	69.5723
1493.92	179.496
1498.08	53.1714
1502.24	180.58
1506.39	93.9917
1510.54	261.169
1514.69	27.8291
1518.83	110.102
1522.97	199.596
1527.12	146.555
1531.25	254.184
1535.39	145.176
1539.52	282.944
1543.65	126.431
1547.78	139.557
1551.91	747.46
1556.03	373.809
1560.15	159.344
1564.27	69.4981
1568.39	89.1172
1572.5	80.7207
1576.61	29.4346
