Measurement: Raman, 514 nm, ccw, Raman Data Processed
Mineral: Magnesio-hastingsite
Rruff sample: R070288
Ideal chemistry: NaCa_2_(Mg_4_Fe^3+^)Si_6_Al_2_O_22_(OH)_2_
Locality: Dallas Gem Mine (Gem Mine; Benitoite Mine), New Idria District, San Benito County, California, USA
Source: Michael Scott
Description: Dark brown to black prismatic crystals frozen in albite
Measured chemistry: (Na_0.51_[box]_0.33_K_0.16_)_Σ=1_(Ca_1.75_Na_0.25_)_Σ=2_(Mg_3.02_Fe^2+^_0.61_Ti_0.37_)_Σ=4_(Fe^3+^_0.73_Al_0.27_)_Σ=1_Si_5.84_Al_2.16_O_22_(OH)_2_; (OH) estimated by difference
Pin_id: M01097
Orientation: Laser parallel to a* (1 0 0). Fiducial mark perpendicular to laser is parallel to b [0 1 0]
Raman shift (cm-1)	intensity
88.873	0
93.835	628.977
98.794	377.136
103.75	504.236
108.704	1934.08
113.654	4770.93
118.602	4977.8
123.547	3885.57
128.49	2396.42
133.429	2202.37
138.366	2433.52
143.3	2740.1
148.232	2998.29
153.16	3435.03
158.086	3706.96
163.009	3802.39
167.929	3656.24
172.847	3757.23
177.761	3909.51
182.673	4114.06
187.583	4120.5
192.489	3543.07
197.393	3000.67
202.294	2417.09
207.192	1688.1
212.088	1212.72
216.98	1306.67
221.87	1465.73
226.758	1391.17
231.642	1192.73
236.524	1133.25
241.403	959.069
246.279	769.421
251.153	740.615
256.023	358.732
260.891	302.068
265.757	176.875
270.619	53.3789
275.479	1.16309
280.336	16.7529
285.191	91.415
290.042	28.3223
294.891	144.426
299.738	87.6377
304.581	21.3271
309.422	34.1562
314.26	93.7158
319.095	18.0059
323.928	46.2881
328.758	113.272
333.585	129.91
338.41	55.7568
343.231	10.7383
348.05	111.456
352.867	23.7305
357.68	39.3076
362.491	162.346
367.299	371.58
372.105	275.982
376.908	558.069
381.708	627.499
386.505	567.387
391.3	477.849
396.092	421.883
400.881	386.659
405.668	514.883
410.452	564.057
415.233	636.092
420.011	760.408
424.787	622.704
429.56	534.694
434.331	457.616
439.098	319.001
443.863	230.126
448.626	147.518
453.385	82.9785
458.142	14.3848
462.897	47.8496
467.648	116.312
472.397	164.778
477.144	274.905
481.887	407.116
486.628	679.217
491.366	883.125
496.102	1179.06
500.835	1368.16
505.565	1931.66
510.293	2400.52
515.018	3046.4
519.74	3748.3
524.459	4133.23
529.176	4718.17
533.891	5100.12
538.602	5429.07
543.311	5465.03
548.017	5702.81
552.721	5695.77
557.422	5610.01
562.12	5327.04
566.816	4820.48
571.509	3979.17
576.199	3088.09
580.887	2190.77
585.572	1199
590.254	706.408
594.934	198.353
599.611	24.2607
604.285	185.277
608.957	170.026
613.626	137.295
618.293	47.7246
622.957	268.268
627.618	481.81
632.277	633.251
636.933	999.573
641.586	1491.68
646.237	1963.26
650.885	2410.33
655.53	2778.64
660.173	3194.7
664.813	3216.01
669.451	3101.57
674.086	2716.85
678.718	2286.48
683.348	2261.12
687.975	2494.22
692.599	2345.97
697.221	2085.4
701.84	2075.66
706.457	2268.17
711.071	2498.13
715.682	2749.11
720.291	3303.06
724.897	3644.16
729.5	3794.01
734.101	3809.69
738.7	3845.81
743.295	3804.7
747.888	3767.91
752.479	3686.35
757.067	3653.26
761.652	3621.64
766.235	3653.39
770.815	3836.9
775.392	3949
779.967	4191.73
784.539	4449.11
789.109	4638.79
793.676	4753.31
798.241	4528.26
802.803	4386.68
807.362	4044.56
811.919	3702.9
816.473	3293.9
821.024	2862.21
825.573	2394.75
830.12	1645.21
834.663	1220.6
839.205	585.94
843.743	290.084
848.279	34.5557
852.813	58.1895
857.344	244.487
861.872	205.762
866.398	68.9356
870.921	100.039
875.442	236.514
879.96	383.481
884.475	601.17
888.988	772.386
893.498	940.588
898.006	838.624
902.511	718.391
907.014	590.825
911.514	481.634
916.012	353.603
920.507	285.542
924.999	243.128
929.489	356.911
933.976	358.695
938.461	444.799
942.943	544.498
947.423	590.677
951.9	590.049
956.374	505.356
960.846	592.601
965.316	369.609
969.783	417.75
974.247	326.825
978.709	239.457
983.168	270.832
987.625	322.84
992.079	392.103
996.53	415.891
1000.98	611.779
1005.43	672.618
1009.87	733.681
1014.31	823.133
1018.75	871.874
1023.19	919.576
1027.62	934.367
1032.05	894.047
1036.48	935.102
1040.91	960.394
1045.33	932.408
1049.75	989.321
1054.17	1013.19
1058.59	1016.37
1063	1078.26
1067.41	1045.98
1071.82	885.062
1076.23	954.235
1080.63	860.08
1085.03	630.769
1089.43	748.472
1093.83	520.945
1098.22	578.348
1102.61	428.4
1107	388.742
1111.39	220.759
1115.77	348.795
1120.15	252.633
1124.53	70.2031
1128.9	79.5098
1133.28	16.1953
1137.65	38.2725
1142.02	3.35644
1146.38	55.2676
1150.75	57.9238
1155.11	65.3047
1159.47	58.1699
1163.82	48.1904
1168.18	125.679
1172.53	7.42871
1176.88	146.152
1181.22	45.9014
1185.57	62.2685
1189.91	37.7217
1194.24	172.696
1198.58	85.0273
1202.91	189.339
1207.25	91.7344
1211.58	274.424
1215.9	199.154
1220.22	284.015
1224.55	223.847
1228.87	268.195
1233.18	244.142
1237.49	190.672
1241.81	348.235
1246.12	222.986
1250.42	179.131
1254.72	178.967
1259.03	213.107
1263.33	340.336
1267.62	357.227
1271.92	391.003
1276.21	275.569
1280.5	394.36
1284.78	241.284
1289.07	276.101
1293.35	278.248
1297.63	232.267
1301.91	224.401
1306.18	232.658
1310.45	317.554
1314.72	310.608
1318.99	329.554
1323.25	231.071
1327.52	303.03
1331.78	192.255
1336.03	111.881
1340.29	136.769
1344.54	272.715
1348.79	286.174
1353.04	331.766
1357.28	181.362
1361.52	317.945
1365.77	138.674
1370	191.638
1374.24	194.898
1378.47	161.052
1382.7	244.161
1386.93	241.145
1391.15	183.457
1395.38	134.519
1399.6	66.4541
1403.82	38.6562
1408.03	23.9658
1412.24	184.307
1416.46	105.498
1420.66	257.248
1424.87	170.346
1429.08	119.418
1433.28	66.3857
1437.47	240.167
1441.67	199.101
1445.87	153.19
1450.06	231.278
1454.25	146.611
1458.43	110.572
1462.62	269.731
1466.8	115.913
1470.98	200.29
1475.15	123.602
1479.33	26.9385
1483.5	242.25
1487.67	53.1777
1491.84	265.497
1496.01	54.0713
1500.17	216.977
1504.33	103.848
1508.49	150.621
1512.64	194.423
1516.79	101.649
1520.94	130.565
1525.09	236.647
1529.24	82.082
1533.38	272.463
1537.52	105.733
1541.66	145.453
1545.8	119.213
1549.93	251.067
1554.06	136.099
1558.19	190.064
1562.32	41.585
1566.44	151.501
1570.57	34.1768
1574.69	29.3916
