Measurement: Raman, 514 nm, depolarized, Raman Data Processed
Mineral: Magnesio-hastingsite
Rruff sample: R040010
Ideal chemistry: NaCa_2_(Mg_4_Fe^3+^)Si_6_Al_2_O_22_(OH)_2_
Locality: Amity, New York, USA
Source: University of Arizona Mineral Museum
Description: Group of black prismatic crystals
Measured chemistry: (Na_0.50_K_0.43_[box]_0.07_)_Σ=1_(Ca_1.77_Na_0.23_)_Σ=2_(Mg_1.74_Fe_1.22_Fe^3+^_0.79_Mn_0.57_Al_0.30_Zn_0.25_Ti_0.13_)_Σ=5_(Si_5.95_Al_2.05_)_Σ=8_O_22_((OH)_1.75_F_0.22_Cl_0.03_)_Σ=2_; OH estimated by charge balance
Pin_id: L00198
Orientation: Laser parallel to c [0 0 1]. Fiducial mark perpendicular to laser is parallel to -b* (0 -1 0)
Raman shift (cm-1)	intensity
190.44	0
195.35	104.4
200.256	1011.47
205.16	1434.93
210.061	5186.96
214.959	12108.9
219.854	19027.1
224.747	20471
229.636	14856.5
234.523	8364.22
239.407	4094.96
244.288	1989.99
249.166	1115.49
254.042	1121.7
258.915	1323.35
263.784	1227.61
268.651	2037.02
273.516	2768.91
278.377	4684.79
283.236	5906.52
288.092	7004.56
292.945	6899.56
297.795	6355.69
302.642	5463.49
307.487	4463.83
312.329	3395.24
317.168	2282.52
322.004	1696.75
326.838	1025.98
331.668	872.088
336.496	756.744
341.321	1334.14
346.144	1724.77
350.963	2220.45
355.78	2567.3
360.594	3060.53
365.405	3159.99
370.214	2946.78
375.019	2777.27
379.822	1920
384.622	1373.64
389.42	688.9
394.215	90.2637
399.006	405.682
403.795	444.818
408.582	424.682
413.365	34.5898
418.146	430.475
422.924	1374.04
427.7	2029.08
432.472	2457.55
437.242	2112.42
442.009	1350.72
446.774	1115.92
451.535	940.168
456.294	564.906
461.05	467.022
465.804	631.805
470.554	383.062
475.302	369.394
480.047	97.3457
484.79	532.482
489.529	1019.54
494.266	1699.52
499.001	2487.27
503.732	3279.66
508.461	3754.62
513.187	4832.06
517.911	5918.92
522.631	7880.15
527.349	10077.7
532.065	11760.5
536.777	11814.7
541.487	10390.1
546.194	8393.63
550.898	6465.58
555.6	5182.41
560.299	4060.66
564.995	3169.57
569.689	2343
574.38	1880.86
579.068	1104.92
583.754	589.889
588.437	127.064
593.117	261.033
597.794	426.606
602.469	409.412
607.141	166.223
611.81	917.691
616.477	1984.06
621.141	3983.68
625.802	6169.06
630.461	8885.56
635.117	11301
639.77	13690
644.421	15506.6
649.069	17260.8
653.714	18883.7
658.357	20096.4
662.997	19341.7
667.634	15581.6
672.269	13331.5
676.901	12411.5
681.53	11957.9
686.157	9421.62
690.781	6427.6
695.402	4431.4
700.021	2203.4
704.637	1614.33
709.251	1698.28
713.861	1946.56
718.469	2595.44
723.075	2708.06
727.678	2724.7
732.278	2933.31
736.876	2576.26
741.47	1985.51
746.063	1747.93
750.652	1256.46
755.239	799.791
759.824	714.287
764.406	616.035
768.985	1115.74
773.561	1203.35
778.135	1459.92
782.706	1539.49
787.275	1449.11
791.841	1403.81
796.404	1229.63
800.965	1247.62
805.523	1086.82
810.079	1051.26
814.632	834.994
819.182	898.047
823.73	486.434
828.275	228.17
832.818	74.7344
837.358	283.859
841.895	304.459
846.43	132.188
850.962	389.269
855.491	21.2754
860.018	143.56
864.543	339.51
869.064	739.301
873.583	899.473
878.1	1686.2
882.614	2293.95
887.125	2448.34
891.634	3254.99
896.14	3842.04
900.644	4816.19
905.145	5753.78
909.644	6715.98
914.14	6979.11
918.633	7096.06
923.124	6818.98
927.612	6809.84
932.098	6619.69
936.581	6961.46
941.061	7116.3
945.539	6944.69
950.015	6741.99
954.487	6781.03
958.958	6800.02
963.425	6970.18
967.89	6352.75
972.353	6353.97
976.813	6337.97
981.271	6598.01
985.726	6874.25
990.178	7663.06
994.628	8812.04
999.075	10130.9
1003.52	11944.9
1007.96	13473.1
1012.4	14466
1016.84	14614.5
1021.27	14145.8
1025.71	12941.8
1030.13	11676.7
1034.56	10158
1038.99	8603.28
1043.41	7754.89
1047.83	7196.27
1052.24	6167.28
1056.66	5787.1
1061.07	5544.4
1065.48	5151.86
1069.89	4402.32
1074.29	4392.22
1078.69	4160.91
1083.09	3891.13
1087.49	3588.48
1091.88	3366.76
1096.28	2711.14
1100.66	2485.73
1105.05	1785.39
1109.43	1423.04
1113.82	1110.92
1118.2	1050.61
1122.57	908.197
1126.95	595.344
1131.32	58.2012
1135.69	154.197
1140.05	170.424
1144.42	42.1504
1148.78	29.7051
1153.14	118.955
1157.5	221.041
1161.85	78.0176
1166.2	308.754
1170.55	117.436
1174.9	117.201
1179.24	123.535
1183.58	20.4941
1187.92	110.861
1192.26	46.1914
1196.6	99.6797
1200.93	9.67383
1205.26	258.496
1209.58	198.193
1213.91	248.973
1218.23	253.758
1222.55	288.803
1226.87	359.445
1231.18	346.482
1235.49	315.217
1239.8	302.543
1244.11	483.277
1248.41	267.315
1252.72	357.312
1257.02	525.951
1261.32	169.822
1265.61	242.834
1269.9	368.883
1274.19	296.293
1278.48	427.82
1282.77	380.246
1287.05	229.182
1291.33	470.935
1295.61	406.293
1299.88	301.795
1304.15	488.383
1308.42	369.977
1312.69	340.207
1316.96	331.481
1321.22	16.8711
1325.48	217.619
1329.74	175.695
1334	224.994
1338.25	169.482
1342.5	97.6797
1346.75	64.8359
1351	9.36523
1355.24	243.168
1359.48	170.684
1363.72	255.766
1367.96	356.973
1372.19	20.0215
1376.42	115.199
1380.65	9.44531
1384.88	12.5625
1389.11	2.74805
1393.33	44.3828
1397.55	12.918
1401.76	298.527
1405.98	164.41
1410.19	189.082
1414.4	192.234
1418.61	155.606
1422.82	148.357
1427.02	52.457
1431.22	30.7051
1435.42	111.281
1439.61	232.357
1443.81	364.492
1448	312.57
1452.18	208.326
1456.37	228.131
1460.56	272.941
1464.74	191.018
1468.92	258.84
1473.09	303.291
1477.27	210.592
1481.44	168.973
1485.61	70.0625
1489.78	324.154
1493.94	308.83
1498.1	291.385
1502.26	234.754
1506.42	71.0293
1510.58	331.144
1514.73	293.397
1518.88	312.482
1523.03	226.231
1527.17	315.93
1531.32	279.572
1535.46	60.8594
1539.6	215.805
1543.73	172.869
1547.87	4.94141
1552	189.57
1556.13	240.4
1560.26	312.945
1564.38	424.533
1568.5	2.22266
