Measurement: Raman, 514 nm, ccw, Raman Data Processed
Mineral: Magnetite
Rruff sample: R060222
Ideal chemistry: Fe^2+^Fe^3+^_2_O_4_
Locality: Cerro Hua√±aquino, Potosi Department, Bolivia
Source: Rock Currier
Description: Black octahedra, the surface is hematite and the interior is magnetite
Measured chemistry: (Fe^2+^_0.95_Mg_0.05_)(Fe^3+^_0.99_Al_0.01_)_2_O_4_
Pin_id: L01600
Orientation: Laser parallel to a* (1 0 0). Fiducial mark perpendicular to laser is parallel to b [0 1 0]
Raman shift (cm-1)	intensity
125.324	0
130.259	644.277
135.191	226.592
140.12	541.375
145.046	383.633
149.97	17.8594
154.891	528.356
159.809	173.275
164.724	2161.15
169.637	489.016
174.547	289.215
179.454	797.104
184.359	586.936
189.261	788.93
194.16	698.67
199.056	686.861
203.95	530.898
208.841	424.199
213.729	222.918
218.614	471.859
223.497	496.068
228.377	74.0449
233.254	39.3691
238.129	128.76
243.001	114.518
247.87	282.557
252.737	881.254
257.6	584.131
262.461	101.297
267.32	152.668
272.175	928.938
277.028	356.707
281.879	668.225
286.726	1138.55
291.571	1377.46
296.413	1261.79
301.252	1595.31
306.089	1241.13
310.923	1231.77
315.755	990.834
320.583	961.738
325.409	865.07
330.232	970.463
335.053	539.07
339.871	412.414
344.686	112.504
349.498	476.541
354.308	244.334
359.115	220.289
363.92	160.883
368.721	10.7773
373.52	27.8945
378.317	52.332
383.111	89.4121
387.902	137.348
392.69	195.711
397.475	141.043
402.258	270.93
407.039	432.342
411.816	349.258
416.591	443.394
421.364	323.887
426.133	310.543
430.9	61.0918
435.664	46.4434
440.426	93.0137
445.185	317.211
449.941	121.006
454.695	258.986
459.445	388.941
464.194	378.865
468.939	352.025
473.682	350.57
478.423	370.629
483.16	394.832
487.895	630.303
492.627	485.488
497.357	697.729
502.084	782.707
506.808	755.977
511.53	1029.99
516.249	1172.88
520.965	1168.26
525.679	1503.19
530.39	1657.06
535.098	1601.63
539.804	1854.92
544.507	1811.62
549.208	2052.68
553.906	1888.29
558.601	2044.24
563.293	1967.44
567.983	2093.72
572.671	2068.09
577.355	1730.45
582.037	1308.74
586.717	786.875
591.393	1031.91
596.067	968.846
600.739	1155.68
605.408	1294.35
610.074	1564.86
614.737	2021.08
619.398	2103.79
624.057	2521.31
628.712	3043.93
633.365	3581.39
638.016	4373.35
642.664	5559.28
647.309	6516.03
651.951	8401.4
656.591	10440.5
661.229	12336.3
665.863	13902.8
670.495	14514.5
675.125	14084.3
679.752	12357.4
684.376	10608
688.998	8802.48
693.617	6890.31
698.233	5424.79
702.847	4255.58
707.458	3433.66
712.066	2625.54
716.672	2001.21
721.276	1572.85
725.877	1220.74
730.475	988.281
735.07	810.357
739.663	678.518
744.254	619.953
748.841	245.809
753.426	246.383
758.009	275.662
762.589	180.326
767.166	208.268
771.741	156.752
776.313	108.783
780.883	7.06445
785.45	25.1973
790.014	38.7656
794.576	170.641
799.135	117.08
803.692	36.3906
808.246	53.1699
812.797	126.938
817.346	87.416
821.893	59.0352
826.436	213.516
830.977	116.644
835.516	47.7031
840.052	109.475
844.585	79.5547
849.116	277.377
853.645	61.4414
858.17	97.334
862.693	278.922
867.214	194.531
871.732	129.885
876.247	333.373
880.76	68.0918
885.27	168.963
889.778	222.037
894.283	323.332
898.786	265.875
903.286	480.676
907.783	492.795
912.278	369.522
916.77	381.578
921.26	416.057
925.747	360.377
930.232	406.553
934.714	538.756
939.193	416.154
943.67	469.195
948.145	357.402
952.617	313.801
957.086	322.248
961.553	416.379
966.017	554.768
970.479	593.322
974.938	411.086
979.394	580.492
983.848	567.469
988.3	502.574
992.749	732.809
997.195	761.68
1001.64	740.307
1006.08	699.904
1010.52	641.021
1014.96	560.988
1019.39	699.438
1023.82	859.492
1028.25	655.328
1032.67	797.176
1037.1	762.277
1041.52	734.705
1045.94	944.453
1050.35	866.719
1054.77	769.269
1059.18	883.17
1063.59	869.769
1067.99	1050.45
1072.4	1034.78
1076.8	819.779
1081.19	719.793
1085.59	923.281
1089.98	752.1
1094.38	963.736
1098.76	897.275
1103.15	687.287
1107.53	850.406
1111.91	563.596
1116.29	609.211
1120.67	643.314
1125.04	392.508
1129.41	528.133
1133.78	400.723
1138.14	224.065
1142.51	261.574
1146.87	230.397
1151.23	363.699
1155.58	246.484
1159.93	39.5625
1164.29	263.779
1168.63	78.8301
1172.98	150.582
1177.32	237.019
1181.66	1.56641
1186	141.279
1190.34	136.139
1194.67	122.877
1199	137.621
1203.33	6.29883
1207.65	85.0586
1211.98	21.8359
1216.3	139.902
1220.62	5.01172
1224.93	172.668
1229.24	120.682
1233.56	148.842
1237.86	86.5254
1242.17	60.9512
1246.47	274.644
1250.77	45.332
1255.07	272.156
1259.37	116.221
1263.66	299.234
1267.95	392.519
1272.24	297.785
1276.53	260.135
1280.81	458.576
1285.09	459.266
1289.37	565.867
1293.64	542.549
1297.92	623.43
1302.19	432.131
1306.46	820.644
1310.72	897.451
1314.99	692.834
1319.25	820.078
1323.51	652.244
1327.76	691.619
1332.02	675.269
1336.27	608.836
1340.52	486.688
1344.76	451.551
1349.01	432.435
1353.25	226.867
1357.49	370.006
1361.72	224.562
1365.96	110.684
1370.19	309.576
1374.42	166.16
1378.64	291.875
1382.87	2.94336
1387.09	337.053
1391.31	46.8125
1395.53	189.18
1399.74	39.4277
1403.95	308.816
1408.16	27.6191
1412.37	115.49
1416.58	302.486
1420.78	52.7168
1424.98	137.228
1429.18	213.621
1433.37	271.969
1437.56	146.471
1441.75	35.4668
1445.94	138.029
1450.13	245.103
1454.31	138.053
1458.49	87.6836
1462.67	166.119
1466.84	83.5547
1471.02	131.797
1475.19	87.6934
1479.36	62.5
1483.52	231.584
1487.68	253.522
1491.85	15.0898
1496	47.541
1500.16	21.373
1504.31	60.2148
1508.46	188.664
1512.61	159.824
1516.76	217.34
1520.9	133.32
1525.05	44.8008
1529.18	196.935
1533.32	131.945
1537.45	67.8691
1541.59	89.832
1545.72	268.85
1549.84	270.559
1553.97	326.953
1558.09	137.002
1562.21	218.666
1566.33	154.697
1570.44	261.117
1574.56	122.379
