Measurement: Raman, 514 nm, depolarized, Raman Data Processed
Mineral: Magnesite
Rruff sample: R050443
Ideal chemistry: MgCO_3_
Locality: Brumado, Bahia, Brazil
Source: Eugene Schlepp
Description: Group of colorless crystals
Measured chemistry: Mg_1.00_CO_3_
Pin_id: L01455
Orientation: Laser parallel to -a* (-1 0 0). Fiducial mark perpendicular to laser is parallel to -c [0 0 -1]
Raman shift (cm-1)	intensity
92.049	0
96.995	85.0772
101.939	219.95
106.879	265.461
111.818	176.706
116.753	313.687
121.686	1509.62
126.617	218.648
131.545	46.1802
136.471	94.5029
141.393	8.03174
146.314	175.51
151.232	50.8384
156.147	127.706
161.06	123.37
165.97	172.95
170.877	43.6157
175.782	165.249
180.685	122.613
185.585	178.326
190.482	149.14
195.377	445.357
200.269	1184.36
205.158	2990.03
210.045	8592.59
214.93	14919.9
219.812	3541.89
224.691	819.786
229.568	248.616
234.442	26.4775
239.314	11.458
244.183	47.2022
249.049	157.907
253.913	127.235
258.775	44.9121
263.633	82.5918
268.49	264.866
273.343	131.792
278.194	73.8721
283.043	125.052
287.889	54.6728
292.732	169.655
297.573	254.115
302.411	412.477
307.247	548.134
312.08	1296.97
316.91	4060.26
321.738	12396.5
326.563	35563.6
331.386	68330.3
336.206	23807.3
341.024	5681.93
345.839	2169.26
350.651	1276.1
355.461	902.586
360.268	636.262
365.073	645.27
369.875	624.757
374.674	407.248
379.471	245.318
384.266	178.728
389.057	375.546
393.846	358.465
398.633	217.061
403.417	247.371
408.198	196.098
412.977	189.069
417.753	102.732
422.527	165.161
427.298	68.9541
432.067	112.054
436.832	219.42
441.596	53.4316
446.356	281.26
451.115	277.989
455.87	83.4678
460.623	284.641
465.373	46.5469
470.121	65.2832
474.866	200.053
479.609	83.4639
484.349	116.698
489.086	3.69531
493.821	90.6152
498.553	45.2051
503.283	72.9268
508.01	264.295
512.734	147.324
517.456	70.1113
522.175	175.782
526.892	233.387
531.606	53.957
536.317	241.49
541.026	63.0469
545.732	209.538
550.436	169.926
555.137	166.445
559.835	234.022
564.531	102.569
569.224	93.2793
573.915	27.5869
578.603	75.3545
583.288	45.7256
587.971	181.355
592.651	207.116
597.329	135.582
602.004	152.696
606.676	139.57
611.346	145.059
616.013	74.082
620.678	280.445
625.34	298.815
629.999	111.886
634.656	273.773
639.31	299.62
643.962	167.81
648.611	467.663
653.257	363.629
657.901	137.785
662.542	560.49
667.181	372.494
671.817	318.973
676.45	316.535
681.081	314.137
685.709	465.837
690.334	543.592
694.957	453.744
699.578	668.814
704.195	576.338
708.811	961.783
713.423	1117.81
718.033	1540.02
722.64	2347.67
727.245	3858.7
731.847	6383.49
736.446	8699.21
741.043	9323.95
745.637	5985.7
750.229	3326.77
754.818	1700.31
759.404	770.254
763.988	493.406
768.569	159.765
773.148	69.5732
777.724	15.3867
782.297	21.915
786.868	230.962
791.436	69.6211
796.001	95.0996
800.564	0.567383
805.125	201.606
809.682	73.4639
814.237	290.106
818.79	139.51
823.339	97.6777
827.887	271.715
832.431	189.56
836.973	295.227
841.513	336.715
846.049	122.027
850.583	26.8379
855.115	49.9922
859.644	434.514
864.17	337.844
868.694	281.006
873.215	398.998
877.733	215.426
882.249	272.342
886.762	320.967
891.273	295.787
895.781	667.4
900.286	271.08
904.789	383.127
909.289	587.971
913.786	553.356
918.281	492.022
922.773	513.656
927.263	515.674
931.75	587.33
936.234	370.557
940.716	383.035
945.195	306.619
949.672	436.09
954.146	378.443
958.617	392.535
963.086	347.764
967.552	262.961
972.015	506.051
976.476	264.844
980.934	477.498
985.39	315.988
989.843	421.926
994.293	141.51
998.741	269.023
1003.19	350.469
1007.63	247.856
1012.07	26.9395
1016.5	113.098
1020.94	44.5137
1025.37	105.307
1029.8	254.195
1034.23	619.369
1038.65	921.807
1043.07	1221.51
1047.49	1803.69
1051.91	2439.16
1056.32	3394.87
1060.73	4277.66
1065.14	6147.5
1069.55	9080.22
1073.95	15034.8
1078.35	24405.8
1082.75	45141.9
1087.14	94379.8
1091.54	183202
1095.93	227981
1100.31	151202
1104.7	85770.1
1109.08	47550.3
1113.46	25134.6
1117.84	12854.5
1122.21	6951.31
1126.58	4430.37
1130.95	2917.57
1135.32	2067.9
1139.68	1648.31
1144.04	1088.06
1148.4	868.25
1152.76	898.475
1157.11	652.469
1161.46	489.119
1165.81	431.738
1170.16	211.606
1174.5	321.746
1178.84	216.701
1183.18	119.25
1187.51	91.9394
1191.84	51.9355
1196.17	215.965
1200.5	22.9609
1204.83	73.1172
1209.15	162.69
1213.47	109.594
1217.78	128.924
1222.1	32.5547
1226.41	176.553
1230.72	122.947
1235.02	185.992
1239.33	240.207
1243.63	18.373
1247.92	175.957
1252.22	212.231
1256.51	72.9062
1260.8	197.752
1265.09	194.438
1269.38	223.477
1273.66	186.182
1277.94	149.359
1282.21	144.402
1286.49	60.4785
1290.76	162.975
1295.03	199.783
1299.3	242.342
1303.56	25.5156
1307.82	459.15
1312.08	314.904
1316.34	172.438
1320.59	140.762
1324.84	212.871
1329.09	232.387
1333.34	82.9805
1337.58	212.609
1341.82	63.0996
1346.06	65.8242
1350.29	93.1289
1354.53	292.652
1358.76	18.8281
1362.98	166.316
1367.21	267.902
1371.43	165.873
1375.65	27.9297
1379.87	202.885
1384.08	107.936
1388.29	201.836
1392.5	234.666
1396.71	85.2891
1400.91	212.693
1405.11	55.7031
1409.31	73
1413.51	127.853
1417.7	35.4004
1421.89	103.438
1426.08	200.1
1430.26	287.527
1434.44	315.137
1438.62	775.35
1442.8	2384.92
1446.98	2554.87
1451.15	1380.77
1455.32	840.658
1459.49	499.16
1463.65	580.723
1467.81	590.277
1471.97	320.83
1476.13	268.807
1480.28	195.053
1484.43	239.924
1488.58	279.707
1492.73	554.418
1496.87	122.613
1501.01	123.397
1505.15	57.0938
1509.29	280.365
1513.42	75.918
1517.55	49.9277
1521.67	139.691
1525.8	84.459
1529.92	331.172
1534.04	266.514
1538.16	490.555
1542.27	339.99
1546.39	185.451
1550.49	288.188
1554.6	574.334
1558.71	209.088
1562.81	99.9434
1566.91	258.916
1571	326.498
1575.1	508.227
