Measurement: Raman, 514 nm, ccw, Raman Data Processed
Mineral: Magnetite
Rruff sample: R060656
Ideal chemistry: Fe^2+^Fe^3+^_2_O_4_
Locality: Jacupiranga Pegmatite, Sao Paulo State, Brazil
Source: Michael Scott
Description: Black rounded octahedra associated with phlogopite and diopside
Measured chemistry: (Fe^2+^_0.98_Mg_0.01_Mn_0.01_)(Fe^3+^_1.96_Ti_0.02_Mg_0.02_)O_4_
Pin_id: M00920
Orientation: Laser parallel to a* (1 0 0). Fiducial mark perpendicular to laser is parallel to b [0 1 0]
Raman shift (cm-1)	intensity
173.3	0
178.21	187.005
183.117	207.32
188.021	496.337
192.923	553.617
197.822	794.599
202.718	624.686
207.612	4.76953
212.504	60.1572
217.392	67.5674
222.279	109.739
227.162	190.643
232.043	222.976
236.921	54.5684
241.797	21.1934
246.67	43.7959
251.54	16.4863
256.408	203.299
261.274	105.331
266.136	244.279
270.996	254.942
275.854	285.877
280.709	460.039
285.561	593.092
290.41	732.004
295.257	1012.38
300.102	1168.29
304.944	1265.85
309.783	1120.71
314.619	1133.37
319.453	1020.63
324.285	836.977
329.113	792.052
333.939	644.019
338.763	571.438
343.584	287.894
348.402	300.012
353.218	108.169
358.031	235.22
362.841	102.318
367.649	121.115
372.454	22.8271
377.257	146.982
382.057	43.2344
386.854	10.293
391.649	21.1064
396.441	11.4473
401.231	12.8584
406.018	9.00586
410.802	97.4873
415.584	65.7656
420.363	74.2275
425.139	260.841
429.913	182.089
434.684	92.6797
439.453	312.616
444.219	114.033
448.982	260.135
453.743	126.92
458.501	306.413
463.257	245.194
468.01	262.401
472.76	179.872
477.508	379.712
482.253	454.511
486.996	349.552
491.736	548.177
496.473	775.212
501.207	835.749
505.94	984.031
510.669	782.415
515.396	1228.98
520.12	1347.44
524.842	1366.37
529.561	1597.74
534.277	1556.35
538.991	1661.67
543.702	1892.16
548.41	1969.55
553.116	2149.3
557.819	2177.11
562.52	2061.11
567.218	2039.9
571.913	2130.64
576.606	1666.41
581.296	1182.47
585.984	747.169
590.669	606.691
595.351	586.02
600.031	736.135
604.708	717.02
609.383	1063.69
614.055	1368.11
618.724	1518.28
623.391	1843.17
628.055	2308.28
632.716	2920.58
637.375	3534.38
642.031	4766.02
646.685	5781.88
651.335	7272.46
655.984	9163.1
660.63	10875.4
665.273	11940.1
669.913	12192.7
674.551	11332.5
679.186	10249
683.819	8424.37
688.449	7135.41
693.076	5795.64
697.701	4784.86
702.323	3705.24
706.943	3044.64
711.56	2681.08
716.174	1952.72
720.786	1793.18
725.395	1190.98
730.001	953.121
734.605	748.736
739.206	603.871
743.805	374.63
748.401	451.022
752.995	135.125
757.585	155.603
762.173	25.001
766.759	121.756
771.342	133.985
775.922	198.217
780.5	44.8496
785.075	1.02148
789.648	37.1172
794.217	46.9424
798.785	125.359
803.349	27.3047
807.911	59.0264
812.471	103.316
817.027	104.946
821.582	53.708
826.133	58.8037
830.682	85.0762
835.228	31.2646
839.772	59.377
844.313	10.169
848.852	83.376
853.387	22.0664
857.921	29.7051
862.451	72.6211
866.979	281.97
871.505	187.748
876.028	150.978
880.548	127.627
885.065	258.676
889.58	51.4834
894.093	92.4932
898.602	265.256
903.109	293.684
907.614	356.894
912.116	194.575
916.615	354.188
921.112	180.585
925.606	324.731
930.097	293.394
934.586	294.773
939.072	247.153
943.556	244.65
948.037	257.658
952.515	237.773
956.991	369.637
961.464	330.677
965.934	177.938
970.402	287.172
974.867	181.738
979.33	267.894
983.79	182.414
988.248	357.78
992.702	228.261
997.155	352.903
1001.6	163.487
1006.05	399.475
1010.5	112.734
1014.94	153.733
1019.38	328.303
1023.81	358.065
1028.25	424.222
1032.68	333.962
1037.11	293.155
1041.53	188.248
1045.96	387.632
1050.38	397.872
1054.8	497.646
1059.21	292.708
1063.62	390.835
1068.04	481.839
1072.44	314.483
1076.85	438.34
1081.25	288.742
1085.65	319.447
1090.05	444.525
1094.44	388.444
1098.84	231.716
1103.22	344.799
1107.61	357.057
1112	357.521
1116.38	235.358
1120.76	339.086
1125.13	318.961
1129.51	253.93
1133.88	140.947
1138.25	246.019
1142.61	57.5127
1146.98	218.718
1151.34	3.9668
1155.7	131.552
1160.05	197.041
1164.4	36.4883
1168.76	31.0059
1173.1	113.572
1177.45	223.357
1181.79	64.835
1186.13	100.361
1190.47	73.4775
1194.8	195.86
1199.14	90.7314
1203.46	86.0127
1207.79	93.1182
1212.12	186.491
1216.44	119.101
1220.76	30.2705
1225.08	79.2842
1229.39	5.74121
1233.7	48.835
1238.01	112.533
1242.32	62.8975
1246.62	40.3105
1250.92	114.143
1255.22	94.2734
1259.51	118.435
1263.81	60.6279
1268.1	125.852
1272.38	18.8984
1276.67	13.3398
1280.95	75.6133
1285.23	149.899
1289.51	134.209
1293.79	126.544
1298.06	48.7002
1302.33	121.624
1306.6	122.448
1310.86	120.002
1315.12	173.81
1319.38	95.4814
1323.64	178.216
1327.89	56.9453
1332.14	107.867
1336.39	281.216
1340.64	320.748
1344.88	257.626
1349.12	41.0215
1353.36	217.515
1357.6	187.852
1361.83	57.9756
1366.06	205.398
1370.29	241.795
1374.52	283.704
1378.74	65.5254
1382.96	292.962
1387.18	24.9932
1391.39	141.932
1395.61	22.9873
1399.82	226.763
1404.02	63.0859
1408.23	131.517
1412.43	55.1738
1416.63	74.3828
1420.83	184.266
1425.02	106.34
1429.21	126.625
1433.4	65.6611
1437.59	95.7402
1441.77	117.499
1445.95	272.194
1450.13	282.86
1454.31	329.273
1458.48	150.03
1462.65	297.893
1466.82	90.2549
1470.99	145.756
1475.15	144.943
1479.31	185.015
1483.47	175.631
1487.63	116.959
1491.78	97.6143
1495.93	75.0537
1500.08	215.81
1504.22	140.851
1508.37	164.064
1512.51	41.5039
1516.64	179.138
1520.78	177.185
1524.91	175.819
1529.04	173.051
1533.17	98.8037
1537.29	288.809
1541.41	150.42
1545.53	206.711
1549.65	101.65
1553.77	32.0459
1557.88	110.801
1561.99	167.483
1566.09	117.701
1570.2	161.209
1574.3	1.55566
