Measurement: Raman, 514 nm, depolarized, Raman Data Processed
Mineral: Magnesiochromite
Rruff sample: R060796
Ideal chemistry: MgCr^3+^_2_O_4_
Locality: State Line Chrome mine (Low's mine), Cecil County, Maryland, USA
Source: California Institute of Technology
Description: Black massive
Measured chemistry: (Mg_0.57_Fe^2+^_0.43_)_Σ=1_(Cr_1.52_Al_0.41_Fe^3+^_0.07_)_Σ=2_O_4_
Pin_id: L00965
Orientation: Laser parallel to b* (0 1 0). Fiducial mark perpendicular to laser is parallel to c [0 0 1]
Raman shift (cm-1)	intensity
141.352	0
146.277	33.4463
151.2	262.348
156.121	229.295
161.038	213.713
165.953	704.012
170.865	302.121
175.774	408.077
180.681	440.397
185.585	412.545
190.486	735.023
195.384	1065.92
200.28	929.31
205.173	741.907
210.063	559.984
214.95	507.704
219.835	683.356
224.717	658.42
229.597	565.247
234.473	678.942
239.347	602.533
244.218	874.447
249.087	707.401
253.953	716.338
258.816	699.338
263.676	620.136
268.534	454.184
273.389	406.129
278.241	220.599
283.091	147.099
287.938	255.401
292.782	59.9893
297.623	26.5088
302.462	45.8926
307.298	104.423
312.131	55.4512
316.962	74.6924
321.79	37.0215
326.615	28.0195
331.438	5.82617
336.258	198.118
341.075	28.8477
345.889	39.5967
350.701	13.4893
355.51	178.668
360.317	114.415
365.12	40.8975
369.921	58.0098
374.72	19.6641
379.515	119.701
384.309	137.842
389.099	46.3272
393.886	105.259
398.671	62.2588
403.454	80.7061
408.233	62.7422
413.01	139.413
417.785	190.871
422.556	225.434
427.325	94.6836
432.091	287.364
436.855	297.062
441.616	435.928
446.374	406.065
451.13	509.221
455.883	538.502
460.633	459.184
465.38	761.242
470.125	698.988
474.868	802.515
479.607	853.056
484.344	1020.67
489.078	1157.86
493.81	1241.51
498.539	1427.09
503.265	1641.33
507.989	2029.59
512.71	2601.65
517.428	3163.19
522.144	3809.96
526.857	4681.75
531.567	5685.81
536.275	6694
540.98	8267.36
545.683	9228.85
550.383	10161.1
555.08	10535.5
559.774	11010.6
564.466	11225.3
569.155	11381.7
573.842	10912.8
578.526	9828.53
583.207	7971.17
587.886	6461.67
592.562	5567.19
597.235	5203.72
601.906	4667.3
606.574	3936.63
611.24	3177.84
615.903	2514.39
620.563	1852.32
625.221	1704.34
629.876	2465.03
634.528	3703.54
639.178	5408.54
643.825	6326.48
648.47	6816.54
653.112	7065.34
657.751	7334.36
662.388	7943.59
667.022	8961.15
671.653	10853.3
676.282	12943.8
680.908	15732.8
685.532	18082.4
690.153	19789.5
694.771	20478.4
699.387	19173.5
704	15908.2
708.61	12571.7
713.218	9887.57
717.824	7272.25
722.426	5878.08
727.026	3905.25
731.624	2865.06
736.219	2334.72
740.811	1687.78
745.401	1148.59
749.988	879.372
754.572	675.403
759.154	632.91
763.734	350.179
768.31	225.352
772.884	189.702
777.456	14.9512
782.025	11.2471
786.591	105.238
791.155	20.4033
795.716	45.5293
800.275	182.97
804.831	24.2246
809.384	57.5732
813.935	66.8047
818.483	15.3574
823.029	57.9004
827.572	129.737
832.112	46.5312
836.65	71.5547
841.186	167.364
845.718	76.8184
850.249	46.6982
854.776	17.6914
859.301	194.253
863.824	24.3838
868.344	144.509
872.861	161.066
877.376	217.682
881.888	134.436
886.397	252.503
890.904	78.9463
895.409	177.311
899.911	223.89
904.41	189.375
908.907	341.958
913.401	241.505
917.893	367.084
922.382	371.278
926.869	304.097
931.353	224.421
935.834	214.48
940.313	308.424
944.789	244.491
949.263	396.644
953.734	354.469
958.203	238.148
962.669	256.005
967.133	227.594
971.594	300.672
976.052	53.3027
980.508	125.821
984.961	118.446
989.412	86.876
993.861	19.9287
998.306	106.079
1002.75	237.513
1007.19	162.495
1011.63	162.599
1016.06	62.0693
1020.5	109.552
1024.93	119.073
1029.36	68.7881
1033.78	339.871
1038.2	138.378
1042.62	61.0117
1047.04	1.74316
1051.46	253.498
1055.87	184.086
1060.28	178.083
1064.69	334.672
1069.09	240.443
1073.5	472.147
1077.9	227.311
1082.29	490.445
1086.69	387.325
1091.08	409.242
1095.47	649.305
1099.86	485.183
1104.24	560.963
1108.63	472.167
1113.01	598.707
1117.38	773.196
1121.76	640.291
1126.13	552.584
1130.5	554.645
1134.87	505.512
1139.23	575.99
1143.6	544.889
1147.96	410.269
1152.32	676.145
1156.67	470.515
1161.02	375.615
1165.37	463.219
1169.72	249.374
1174.07	403.117
1178.41	292.36
1182.75	257.823
1187.08	154.487
1191.42	156.363
1195.75	134.808
1200.08	18.8643
1204.41	133.519
1208.73	144.8
1213.06	204.679
1217.38	116.144
1221.69	241.234
1226.01	97.9727
1230.32	79.3584
1234.63	91.3144
1238.94	191.881
1243.24	55.0928
1247.55	153.889
1251.85	5.36035
1256.14	14.5312
1260.44	64.3184
1264.73	5.82715
1269.02	204.935
1273.31	130.699
1277.6	55.166
1281.88	160.237
1286.16	142.886
1290.44	154.1
1294.71	140.86
1298.98	187.156
1303.26	216.97
1307.52	190.29
1311.79	89.1035
1316.05	89.2168
1320.31	8.1582
1324.57	71.3711
1328.83	143.071
1333.08	46.0059
1337.33	170.69
1341.58	222.257
1345.82	126.754
1350.07	272.183
1354.31	256.584
1358.55	300.232
1362.78	328.247
1367.02	245.487
1371.25	317.444
1375.48	246.745
1379.7	365.719
1383.92	335.702
1388.15	415.101
1392.37	313.917
1396.58	194.965
1400.8	282.856
1405.01	284.654
1409.22	173.451
1413.42	163.009
1417.63	201.096
1421.83	280.802
1426.03	271.213
1430.22	186.46
1434.42	353.875
1438.61	164.635
1442.8	194.59
1446.99	153.429
1451.17	281.682
1455.35	155.627
1459.53	203.217
1463.71	34.8652
1467.89	30.1221
1472.06	125.575
1476.23	104.536
1480.4	17.2441
1484.56	12.9854
1488.72	154.371
1492.88	6.00977
1497.04	2.07324
1501.2	73.2529
1505.35	64.1318
1509.5	18.2793
1513.65	28.8955
1517.8	171.515
1521.94	40.251
1526.08	125.807
1530.22	124.895
1534.36	60.0928
1538.49	169.477
1542.62	181.78
1546.75	204.046
1550.88	41.5684
1555	188.265
1559.12	68.4219
1563.24	99.6221
1567.36	103.867
1571.47	150.064
