Measurement: Raman, 514 nm, depolarized, Raman Data Processed
Mineral: Magnesioferrite
Rruff sample: R060869
Ideal chemistry: MgFe^3+^_2_O_4_
Locality: Langban, Filipstad, Varmland, Sweden
Source: Michael Scott
Description: Black semimetallic massive
Measured chemistry: (Mg_0.67_Mn^2+^_0.30_Fe^2+^_0.03_)_Σ=1_(Fe^3+^_1.97_Al_0.03_)_Σ=2_O_4_
Pin_id: L00748
Orientation: Laser parallel to a* (1 0 0). Fiducial mark perpendicular to laser is parallel to b [0 1 0]
Raman shift (cm-1)	intensity
126.558	0
131.492	270.046
136.423	299.399
141.352	178.093
146.277	395.423
151.2	558.5
156.121	518.542
161.038	504.725
165.953	342.196
170.865	654.013
175.774	797.746
180.681	1010.72
185.585	816.312
190.486	1255.63
195.384	1422.71
200.28	1306.72
205.173	1165.06
210.063	861.91
214.95	615.973
219.835	495.94
224.717	420.012
229.597	160.774
234.473	269.797
239.347	159.757
244.218	38.5059
249.087	125.019
253.953	38.001
258.816	44.9668
263.676	53.335
268.534	134.379
273.389	4.21875
278.241	89.7803
283.091	68.9502
287.938	24.9307
292.782	206.16
297.623	308.018
302.462	366.293
307.298	579.039
312.131	755.296
316.962	850.654
321.79	960.088
326.615	1331.54
331.438	1271.14
336.258	1388.04
341.075	1779.5
345.889	1560.19
350.701	1259.1
355.51	1156.76
360.317	1005.41
365.12	957.852
369.921	661.119
374.72	406.282
379.515	503.222
384.309	159.835
389.099	222.755
393.886	180.535
398.671	56.6807
403.454	47.1963
408.233	100.833
413.01	93.1074
417.785	13.0781
422.556	91.1211
427.325	56.0166
432.091	161.363
436.855	42.71
441.616	40.6299
446.374	107.728
451.13	91.7422
455.883	247.766
460.633	381.607
465.38	295.055
470.125	522.639
474.868	564.436
479.607	816.618
484.344	780.266
489.078	1008.45
493.81	1050.23
498.539	1447.69
503.265	1200.92
507.989	1105.11
512.71	1283.26
517.428	1460.51
522.144	1641.03
526.857	1712.92
531.567	2020.33
536.275	2309.39
540.98	2423.61
545.683	2692.17
550.383	3207.96
555.08	3452.59
559.774	3891.28
564.466	4184.13
569.155	4786.99
573.842	5798.58
578.526	6359.24
583.207	7486.93
587.886	9010.94
592.562	11570.8
597.235	14490
601.906	18534.2
606.574	22688.3
611.24	26509.2
615.903	29542
620.563	30141.8
625.221	28466.9
629.876	25873.9
634.528	22047.4
639.178	18492.6
643.825	15741.5
648.47	13254.2
653.112	11201.6
657.751	10229.1
662.388	9100.12
667.022	8199.26
671.653	7733.87
676.282	7222.89
680.908	7007.9
685.532	6630.52
690.153	6101
694.771	5761.48
699.387	5633.42
704	5133.4
708.61	4619.29
713.218	4195.8
717.824	3620.96
722.426	2884.56
727.026	2273.56
731.624	2044.45
736.219	1527.58
740.811	1107.06
745.401	740.796
749.988	546.454
754.572	496.272
759.154	379.468
763.734	167.89
768.31	94.8213
772.884	38.5752
777.456	51.5488
782.025	148.089
786.591	17.2578
791.155	16.6191
795.716	62.8223
800.275	128.318
804.831	120.24
809.384	35.6904
813.935	53.2236
818.483	7.59668
823.029	52.4326
827.572	28.0508
832.112	48.9795
836.65	182.971
841.186	120.475
845.718	62.083
850.249	55.0908
854.776	76.4971
859.301	63.7236
863.824	98.9121
868.344	69.168
872.861	258.104
877.376	265.39
881.888	190.348
886.397	296.364
890.904	201.068
895.409	334.276
899.911	310.627
904.41	254.643
908.907	352.312
913.401	202.441
917.893	287.913
922.382	229.067
926.869	357.434
931.353	442.594
935.834	252.69
940.313	337.907
944.789	338.13
949.263	190.975
953.734	91.4356
958.203	290.306
962.669	244.389
967.133	351.16
971.594	96.6836
976.052	232.317
980.508	197.299
984.961	276.977
989.412	242.41
993.861	215.641
998.306	350.834
1002.75	381.988
1007.19	83.1924
1011.63	96.0293
1016.06	288.559
1020.5	211.353
1024.93	235.222
1029.36	166.832
1033.78	124.287
1038.2	222.119
1042.62	82.6231
1047.04	180.356
1051.46	143.544
1055.87	155.066
1060.28	85.0518
1064.69	146.882
1069.09	224.072
1073.5	148.584
1077.9	80.5908
1082.29	181.191
1086.69	108.759
1091.08	131.505
1095.47	106.925
1099.86	159.932
1104.24	177.775
1108.63	99.7539
1113.01	134.726
1117.38	115.242
1121.76	156.001
1126.13	5.54981
1130.5	137.85
1134.87	168.077
1139.23	145.023
1143.6	4.2959
1147.96	49.8379
1152.32	42.623
1156.67	117.674
1161.02	70.001
1165.37	137.505
1169.72	226.693
1174.07	277.58
1178.41	581.233
1182.75	272.733
1187.08	473.907
1191.42	519.28
1195.75	575.405
1200.08	832.225
1204.41	577.349
1208.73	815.218
1213.06	671.813
1217.38	945.265
1221.69	1011.44
1226.01	861.435
1230.32	963.597
1234.63	864.667
1238.94	659.933
1243.24	1182.97
1247.55	907.807
1251.85	778.507
1256.14	796.96
1260.44	810.176
1264.73	623.868
1269.02	641.211
1273.31	571.799
1277.6	644.771
1281.88	485.957
1286.16	737.208
1290.44	488.566
1294.71	509.9
1298.98	443.677
1303.26	586.555
1307.52	411.79
1311.79	299.491
1316.05	463.031
1320.31	312.035
1324.57	362.46
1328.83	298.379
1333.08	418.611
1337.33	302.067
1341.58	337.062
1345.82	439.567
1350.07	403.078
1354.31	325.56
1358.55	359.938
1362.78	354.703
1367.02	270.632
1371.25	247.369
1375.48	294.391
1379.7	146.717
1383.92	282.184
1388.15	138.998
1392.37	242.171
1396.58	63.7197
1400.8	238.279
1405.01	231.023
1409.22	163.116
1413.42	241.57
1417.63	23.374
1421.83	163.134
1426.03	62.5215
1430.22	175.303
1434.42	131.664
1438.61	166.255
1442.8	308.585
1446.99	48.2471
1451.17	116.337
1455.35	349.012
1459.53	45.3242
1463.71	136.965
1467.89	65.8867
1472.06	41.0635
1476.23	4.36328
1480.4	84.2891
1484.56	41.8398
1488.72	50.2832
1492.88	91.3623
1497.04	36.0039
1501.2	64.2715
1505.35	128.732
1509.5	228.033
1513.65	208.593
1517.8	213.053
1521.94	197.788
1526.08	22.2979
1530.22	226.327
1534.36	305.194
1538.49	218.534
1542.62	145.826
1546.75	182.307
1550.88	189.307
1555	336.543
1559.12	305.607
1563.24	330.991
1567.36	149.482
1571.47	41.1709
1575.58	122.161
