Measurement: Raman, 514 nm, ccw, Raman Data Processed
Mineral: Magnesio-hastingsite
Rruff sample: R070288
Ideal chemistry: NaCa_2_(Mg_4_Fe^3+^)Si_6_Al_2_O_22_(OH)_2_
Locality: Dallas Gem Mine (Gem Mine; Benitoite Mine), New Idria District, San Benito County, California, USA
Source: Michael Scott
Description: Dark brown to black prismatic crystals frozen in albite
Measured chemistry: (Na_0.51_[box]_0.33_K_0.16_)_Σ=1_(Ca_1.75_Na_0.25_)_Σ=2_(Mg_3.02_Fe^2+^_0.61_Ti_0.37_)_Σ=4_(Fe^3+^_0.73_Al_0.27_)_Σ=1_Si_5.84_Al_2.16_O_22_(OH)_2_; (OH) estimated by difference
Pin_id: M00823
Orientation: Laser parallel to -b* (0 -1 0). Fiducial mark perpendicular to laser is parallel to c [0 0 1]
Raman shift (cm-1)	intensity
103.056	0
108.002	2373.1
112.946	3013.11
117.888	2481.58
122.827	1202.02
127.763	225.486
132.697	252.727
137.628	90.4981
142.556	599.246
147.482	1924.69
152.405	6096.02
157.326	14053.3
162.244	18219.9
167.159	12508.4
172.072	8022.89
176.982	6057.87
181.89	6204.42
186.795	6122.27
191.697	5789.87
196.597	5382.07
201.494	5460.28
206.389	6394.86
211.281	9003.05
216.17	14681.3
221.057	22102.2
225.941	25358.7
230.823	18724.2
235.702	10601.6
240.578	6302.94
245.452	4895.04
250.323	3870.95
255.192	2989.36
260.058	2093.07
264.921	1634.55
269.782	1561.9
274.64	1342.48
279.495	1620.51
284.348	2002.78
289.198	2833.65
294.046	3716
298.891	4049.85
303.733	4484.79
308.573	4866.3
313.41	5475.32
318.245	5540.11
323.077	5450.85
327.906	5211.38
332.733	4659.21
337.557	3906.29
342.379	3615.56
347.198	3257.88
352.014	2819.74
356.828	2776.94
361.639	2767.24
366.447	2972.47
371.253	3288.55
376.056	3539.85
380.857	3935.49
385.655	4147.4
390.451	3718.22
395.243	3463.29
400.034	2892.47
404.821	2733.72
409.606	3050.94
414.389	2623.04
419.168	2331.93
423.945	1883.53
428.72	1375.14
433.492	973.244
438.261	507.725
443.028	78.5039
447.792	224.623
452.553	362.908
457.312	160.69
462.068	108.9
466.822	45.8184
471.573	47.9375
476.321	73.0019
481.067	277.76
485.81	743.365
490.551	1209.31
495.289	1469.2
500.024	1680.14
504.757	2018.45
509.487	2348.77
514.214	3172.61
518.939	3533.82
523.661	4442.41
528.381	5377.37
533.098	6002.49
537.812	6028.39
542.524	6054.86
547.233	5705.66
551.94	5543.24
556.644	5136.44
561.345	4671
566.044	4406.75
570.74	4263.17
575.433	3054.01
580.124	1919.28
584.812	722.068
589.498	28.1758
594.181	298.066
598.861	429.006
603.539	298.264
608.214	40.0664
612.887	381.324
617.557	1513.72
622.224	2763.79
626.889	4856.19
631.551	7590.59
636.21	11215.8
640.867	15736.6
645.521	19682.2
650.173	22856.5
654.822	25106.3
659.468	27028.8
664.112	27186
668.753	23884
673.392	18736.8
678.028	14671.6
682.661	12803.3
687.292	12278.1
691.92	10624
696.545	7445.99
701.168	5068.24
705.788	3613.79
710.406	2569.69
715.021	1980.02
719.633	1974.84
724.243	1792.06
728.85	1701.81
733.455	1461.25
738.056	1377.44
742.656	1268.62
747.252	853.033
751.846	830.518
756.438	844.906
761.027	934.205
765.613	1435.07
770.196	1717.38
774.777	2391.18
779.356	2875.53
783.932	3737.48
788.505	4495.9
793.075	5070.31
797.643	4966.28
802.208	4967.99
806.771	4489.49
811.331	4340.8
815.888	4322.71
820.443	4008.59
824.995	3869.52
829.545	3506.7
834.092	2924.46
838.636	2228.17
843.178	1473.84
847.717	1062.49
852.254	298.783
856.788	17.9805
861.319	214.502
865.848	496.857
870.374	230.684
874.897	238.375
879.418	193.998
883.936	713.67
888.452	1383.63
892.965	1990.09
897.475	2710.4
901.983	3081.87
906.488	3356.83
910.99	3407.26
915.49	3257.06
919.988	2936.96
924.482	2829.68
928.974	2517.12
933.464	2538.36
937.951	2393.2
942.435	2662
946.917	2559.63
951.396	2804.77
955.872	3042.8
960.346	3440.73
964.817	3694.04
969.285	4061.51
973.751	4224.12
978.215	4430.82
982.675	5147.81
987.134	5601.6
991.589	6608.56
996.042	7910.48
1000.49	9741.52
1004.94	10821.6
1009.38	11827.5
1013.83	11759.3
1018.27	11461.4
1022.7	10465.4
1027.14	9504.72
1031.57	8983.1
1036	7492.85
1040.43	6580.84
1044.85	5889
1049.27	5467.54
1053.69	4845.51
1058.11	4384.29
1062.52	3612.82
1066.93	2768.27
1071.34	2490.19
1075.75	1987.94
1080.15	1392.9
1084.55	1272.84
1088.95	1269.96
1093.35	1137.45
1097.74	1034.08
1102.13	625.606
1106.52	506.859
1110.9	371.211
1115.28	94.7871
1119.66	86.6348
1124.04	19.7754
1128.41	104.498
1132.79	23.6855
1137.16	194.459
1141.52	17.3027
1145.89	150.316
1150.25	174.865
1154.61	9.82422
1158.96	130.293
1163.32	119.232
1167.67	38.8574
1172.02	61.2285
1176.36	85.8945
1180.71	140.309
1185.05	111.562
1189.38	163.467
1193.72	351.185
1198.05	273.76
1202.38	309.424
1206.71	328.16
1211.04	478.992
1215.36	278.947
1219.68	498.387
1224	539.43
1228.31	639.691
1232.62	620.447
1236.93	577.486
1241.24	747.744
1245.54	667.99
1249.84	717.535
1254.14	649.928
1258.44	487.721
1262.73	698.859
1267.03	654.019
1271.31	584.314
1275.6	694.445
1279.88	430.455
1284.16	190.065
1288.44	582.119
1292.72	315.654
1296.99	358.238
1301.26	631.381
1305.53	264.06
1309.79	310.34
1314.06	366.361
1318.32	415.787
1322.57	400.393
1326.83	169.019
1331.08	317.273
1335.33	235.127
1339.58	279.102
1343.82	322.518
1348.06	266.205
1352.3	289.67
1356.54	507.295
1360.77	332.117
1365.01	228.143
1369.23	361.559
1373.46	318.734
1377.68	174.758
1381.9	494.625
1386.12	205.025
1390.34	272.256
1394.55	118.158
1398.76	253.481
1402.97	69.0664
1407.18	267.822
1411.38	145.766
1415.58	157.059
1419.78	191.244
1423.97	153.363
1428.17	271.221
1432.36	38.6953
1436.54	142.59
1440.73	396.08
1444.91	105.111
1449.09	170.176
1453.27	358.973
1457.44	323.432
1461.61	214.297
1465.78	305.863
1469.95	318.715
1474.11	340.461
1478.27	167.076
1482.43	9.68359
1486.59	26.9941
1490.74	55.0547
1494.89	198.953
1499.04	212.592
1503.19	257.435
1507.33	371.848
1511.47	247.789
1515.61	235.121
1519.75	187.512
1523.88	34.8691
1528.01	157.31
1532.14	66.9551
1536.26	344.102
1540.38	117.553
1544.51	356.375
1548.62	281.068
1552.74	302.096
1556.85	270.023
1560.96	346.69
1565.07	296.059
1569.17	95.2734
