Measurement: Raman, 514 nm, ccw, Raman Data Processed
Mineral: Magnesite
Rruff sample: R050443
Ideal chemistry: MgCO_3_
Locality: Brumado, Bahia, Brazil
Source: Eugene Schlepp
Description: Group of colorless crystals
Measured chemistry: Mg_1.00_CO_3_
Pin_id: L01619
Orientation: Laser parallel to -c* (0 0 -1). Fiducial mark perpendicular to laser is parallel to a [1 0 0]
Raman shift (cm-1)	intensity
61.079	0
66.041	163.076
71.001	593.136
75.957	740.274
80.912	810.588
85.863	428.39
90.812	29.3061
95.759	85.188
100.703	138.435
105.644	358.517
110.583	209.418
115.52	424.522
120.453	1207.77
125.385	280.387
130.313	47.6653
135.239	12.6851
140.163	48.968
145.084	90.2947
150.002	8.96216
154.918	7.10791
159.832	33.8066
164.742	28.8267
169.651	52.0068
174.556	22.5593
179.459	0.677979
184.36	76.676
189.258	152.243
194.153	293.498
199.046	953.222
203.936	2908.64
208.824	7756.65
213.709	16731.8
218.592	5392.17
223.472	928.16
228.349	263.736
233.224	201.439
238.096	118.856
242.966	49.2837
247.833	80.6128
252.698	105.895
257.56	130.548
262.419	120.575
267.276	64.1499
272.13	195.617
276.982	59.2786
281.831	54.1143
286.677	40.1033
291.521	75.9253
296.363	95.0891
301.202	96.4463
306.038	65.3508
310.872	125.072
315.703	376.716
320.531	1008.04
325.357	2904.57
330.181	7629.21
335.001	3277.63
339.82	690.937
344.635	242.838
349.448	201.603
354.259	109.219
359.067	113.764
363.872	106.633
368.675	122.093
373.475	60.1587
378.272	114.552
383.067	149.013
387.86	52.2056
392.649	86.4209
397.437	132.658
402.221	83.1973
407.003	129.663
411.783	69.3291
416.56	105.17
421.334	24.9619
426.106	3.41894
430.875	83.1128
435.641	15.5444
440.405	27.2363
445.167	71.8843
449.925	90.8667
454.681	92.3672
459.435	102.893
464.186	92.6167
468.934	40.3984
473.68	81.1953
478.423	71.9771
483.164	39.5156
487.902	38.0063
492.637	111.467
497.37	121.882
502.1	86.2466
506.828	30.5146
511.553	84.4531
516.276	51.4639
520.995	5.40576
525.713	113.677
530.427	59.1338
535.139	123.912
539.849	11.2754
544.556	21.8076
549.26	105.003
553.962	19.3706
558.661	64.3267
563.357	67.584
568.051	83.2617
572.742	72.9209
577.431	89.5854
582.117	36.3018
586.801	44.5508
591.481	158.781
596.16	66.1758
600.835	127.601
605.508	124.115
610.179	103.663
614.847	112.425
619.512	121.688
624.175	313.107
628.835	123.959
633.492	230.883
638.147	142.849
642.799	220.644
647.449	219.741
652.096	149.87
656.74	226.085
661.382	243.337
666.021	315.555
670.658	408.661
675.292	487.434
679.923	591.02
684.552	702.872
689.178	762.186
693.802	926.915
698.423	1075.83
703.041	1209.61
707.657	1557.82
712.27	1989.02
716.881	2934.91
721.489	4642.27
726.094	7709.65
730.697	12244.6
735.297	18573.9
739.894	21273.2
744.489	15285.9
749.081	8343.54
753.671	4347.14
758.258	2383.67
762.842	1247.52
767.424	676.572
772.003	377.813
776.58	385.788
781.154	105.297
785.725	137.243
790.294	112.084
794.86	94.7935
799.424	153.474
803.985	111.941
808.543	0.722656
813.099	57.5835
817.652	5.53857
822.202	85.1079
826.75	28.4463
831.295	32.2324
835.838	31.0464
840.378	65.7329
844.915	36.3774
849.45	44.9126
853.982	84.3477
858.512	61.6855
863.039	78.9385
867.563	52.102
872.085	3.1499
876.604	107.058
881.12	103.033
885.634	93.7847
890.145	9.61768
894.654	8.84375
899.16	72.1475
903.663	14.2383
908.164	6.7666
912.662	16.124
917.158	11.8677
921.651	46.5772
926.141	94.2544
930.628	2.15332
935.113	76.0088
939.596	98.8135
944.076	179.77
948.553	182.332
953.027	104.631
957.499	90.1816
961.969	108.574
966.435	25.4766
970.899	131.809
975.361	45.5239
979.82	146.762
984.276	195.162
988.73	50.6992
993.181	5.87402
997.629	357.671
1002.08	335.583
1006.52	222.619
1010.96	81.813
1015.4	53.1357
1019.83	59.5957
1024.26	207.049
1028.69	269.791
1033.12	551.378
1037.55	815.788
1041.97	1077.47
1046.39	1708.68
1050.81	2378.88
1055.22	3163.38
1059.63	4492.4
1064.04	6421.53
1068.45	9607.94
1072.85	15417.5
1077.25	25725.4
1081.65	47115.2
1086.05	97982.5
1090.44	195592
1094.83	278236
1099.22	207549
1103.6	117827
1107.99	66389.7
1112.37	34772.6
1116.74	17893.3
1121.12	9546.72
1125.49	5584.11
1129.86	3471.46
1134.23	2414.05
1138.59	1738.46
1142.95	1143.43
1147.31	867.457
1151.67	695.872
1156.02	558.053
1160.38	420.876
1164.72	322.05
1169.07	278.332
1173.41	90.7744
1177.75	238.839
1182.09	23.7773
1186.43	76.1567
1190.76	78.2324
1195.09	38.4453
1199.42	16.7046
1203.74	42.3648
1208.07	80.8496
1212.39	18.4311
1216.7	61.9639
1221.02	96.3218
1225.33	82.2119
1229.64	77.9302
1233.95	93.4756
1238.25	19.7593
1242.55	153.399
1246.85	212.166
1251.15	60.665
1255.44	34.6602
1259.73	184.32
1264.02	22.0923
1268.31	200.433
1272.59	155.047
1276.87	277.497
1281.15	12.2227
1285.42	33.3154
1289.69	183.873
1293.96	167.483
1298.23	212.089
1302.5	93.6856
1306.76	240.273
1311.02	241.175
1315.27	157.736
1319.53	170.273
1323.78	109.777
1328.03	428.728
1332.28	81.6768
1336.52	88.0459
1340.76	187.705
1345	131.769
1349.23	25.0957
1353.47	15.2852
1357.7	47.0068
1361.93	2.94629
1366.15	25.6504
1370.37	27.1973
1374.59	154.291
1378.81	51.2471
1383.03	103.365
1387.24	90.6914
1391.45	122.915
1395.65	40.8057
1399.86	63.3418
1404.06	0.392578
1408.26	137.977
1412.46	55.5332
1416.65	256.188
1420.84	243.286
1425.03	228.257
1429.22	319.235
1433.4	475.253
1437.58	1361.06
1441.76	3930.27
1445.93	7224.66
1450.11	2936.7
1454.28	1444.56
1458.44	1048.94
1462.61	949.512
1466.77	665.6
1470.93	632.807
1475.09	586.892
1479.24	639.461
1483.39	542.465
1487.54	510.551
1491.69	380.26
1495.84	285.313
1499.98	176.191
1504.12	112.944
1508.25	81.6182
1512.38	167.19
1516.52	30.7422
1520.64	77.2705
1524.77	77.6758
1528.89	119.51
1533.01	48.8525
1537.13	53.124
1541.25	139.858
1545.36	100.99
1549.47	189.685
1553.58	125.742
1557.68	220.858
1561.78	4.09473
1565.88	66.1631
1569.98	117.734
1574.07	0.989258
