Measurement: Raman, 514 nm, ccw, Raman Data Processed
Mineral: Magnesiochromite
Rruff sample: R060797
Ideal chemistry: MgCr^3+^_2_O_4_
Locality: Benbow mine, Stillwater Complex, Mount Wood area, Stillwater County, Montana, USA
Source: California Institute of Technology
Description: Black granular massive
Measured chemistry: (Mg_0.55_Fe^2+^_0.45_)_Σ=1_(Cr_1.28_Al_0.58_Fe^3+^_0.14_)_Σ=2_O_4_
Pin_id: M01281
Orientation: Laser parallel to -a* (-1 0 0). Fiducial mark perpendicular to laser is parallel to c [0 0 1]
Raman shift (cm-1)	intensity
125.295	0
130.23	769.748
135.163	1597.83
140.092	2435.94
145.019	1886.47
149.944	1708.86
154.866	1653.33
159.785	1699.13
164.702	1838.3
169.616	1901.8
174.528	1811.15
179.437	1696.22
184.343	1877.06
189.247	2747.95
194.148	3149.91
199.046	2833.92
203.942	1984.46
208.835	1099.81
213.726	891.957
218.614	1031.85
223.5	1218.69
228.382	1080.36
233.263	1156.99
238.14	1157.54
243.015	1140.74
247.888	1093.9
252.758	1070.68
257.625	835.275
262.49	745.143
267.352	547.902
272.211	455.023
277.068	187.277
281.922	418.227
286.773	257.783
291.622	190.955
296.469	2.33008
301.312	18.0332
306.154	39.2617
310.992	201.133
315.828	116.568
320.661	276.836
325.492	158.982
330.32	56.2539
335.145	111.045
339.968	119.061
344.789	25.1445
349.606	336.121
354.421	22.1562
359.234	173.19
364.043	224.592
368.851	60.0625
373.655	83.2695
378.457	26.6074
383.256	55.8574
388.053	5.99023
392.847	189.062
397.639	242.805
402.428	334.223
407.214	523.377
411.998	685.01
416.779	1036.76
421.557	1135.88
426.333	1450.12
431.106	1520.9
435.877	1720.59
440.645	1632.97
445.41	1424.97
450.173	1608.17
454.933	2071.31
459.691	2260.69
464.446	2361.48
469.198	2147.96
473.948	2466.31
478.695	2699.59
483.439	3369.09
488.181	4041.62
492.92	4221.57
497.657	4427.33
502.391	4846.02
507.122	5130.73
511.851	5518.78
516.577	6530.5
521.301	7534.88
526.022	8638.4
530.74	9603.28
535.456	10627.2
540.169	12411.5
544.879	14453.1
549.587	16461.2
554.292	17822.9
558.995	18889.2
563.695	19880.1
568.392	20044.5
573.087	20051
577.779	17546
582.469	14289.8
587.156	11169.6
591.84	9518.63
596.522	8000.34
601.201	7230.89
605.877	6471.29
610.551	5411.97
615.222	4366.16
619.891	3301.91
624.557	2349.15
629.22	1728.87
633.881	2182.16
638.539	3284.52
643.195	5056.3
647.848	6313.02
652.498	7037.62
657.145	7509.45
661.791	7603.89
666.433	7920.58
671.073	8627.91
675.71	9792.67
680.345	11255.6
684.977	12936.3
689.606	14576.9
694.233	16111.2
698.857	17268.3
703.478	16765.7
708.097	15112.1
712.714	13077.7
717.327	10748.5
721.938	8276.67
726.547	6404.77
731.153	4774.66
735.756	3791.01
740.356	2687.22
744.954	2437.96
749.55	1492.65
754.142	934.486
758.733	706.863
763.32	928.773
767.905	182.113
772.487	101.531
777.067	25.5332
781.644	62.5742
786.218	269.928
790.79	211.92
795.359	80.9922
799.926	210.148
804.49	167.195
809.051	88.7773
813.61	93.9258
818.166	107.551
822.72	161.543
827.271	151.935
831.819	128.283
836.365	71.4922
840.908	112.426
845.448	0.289063
849.986	56.2871
854.521	59.666
859.054	282.115
863.584	20.1328
868.111	283.375
872.636	112.016
877.158	187.203
881.677	179.283
886.194	162.158
890.709	205.576
895.22	107.166
899.729	380.047
904.236	376.205
908.74	424.139
913.241	560.92
917.739	279.871
922.235	329.682
926.729	162.83
931.219	462.357
935.708	410.191
940.193	462.82
944.676	338.592
949.156	379.699
953.634	253.609
958.109	428.951
962.582	179.822
967.051	141.414
971.519	265.582
975.983	117.76
980.445	331.815
984.905	67.4062
989.362	172.652
993.816	279.356
998.267	220.904
1002.72	178.865
1007.16	111.459
1011.61	147.697
1016.05	146.19
1020.49	53.4219
1024.92	166.75
1029.36	66.4336
1033.79	97.9883
1038.21	360.385
1042.64	156.852
1047.06	303.266
1051.48	72.041
1055.9	8.19922
1060.32	235.203
1064.73	286.219
1069.14	272.023
1073.55	313.045
1077.95	222.072
1082.35	510.76
1086.75	627.932
1091.15	417.391
1095.54	580.941
1099.93	533.514
1104.32	640.668
1108.71	580.383
1113.09	779.369
1117.47	777.639
1121.85	979.033
1126.23	745.971
1130.6	763.354
1134.97	796.369
1139.34	1001.03
1143.7	772.932
1148.07	655.652
1152.43	596.172
1156.79	579.664
1161.14	441.557
1165.49	589.26
1169.84	680.566
1174.19	373.402
1178.54	485.996
1182.88	118.391
1187.22	407.721
1191.55	347.969
1195.89	144.014
1200.22	67.1387
1204.55	219.307
1208.87	219.971
1213.2	299.926
1217.52	81.8652
1221.84	189.141
1226.15	68.9961
1230.47	251.445
1234.78	123.779
1239.09	142.961
1243.39	300.148
1247.69	302.174
1251.99	68.4258
1256.29	206.59
1260.59	98.5781
1264.88	37.3711
1269.17	107.971
1273.46	45.3711
1277.74	172.607
1282.02	239.666
1286.3	180.514
1290.58	95.1543
1294.86	220.887
1299.13	234.795
1303.39	383.713
1307.66	188.326
1311.93	270.609
1316.19	145.547
1320.45	57.373
1324.7	53.7324
1328.96	159.387
1333.21	84.4922
1337.45	97.1758
1341.7	256.555
1345.94	297.117
1350.18	158.609
1354.42	84.2266
1358.66	144.961
1362.89	247.268
1367.12	251.955
1371.35	50.7676
1375.57	291.641
1379.8	349.047
1384.02	155.115
1388.23	528.402
1392.45	328.432
1396.66	504.697
1400.87	386.481
1405.08	392.232
1409.28	171.973
1413.48	349.535
1417.68	163.959
1421.88	270.606
1426.07	66.7481
1430.26	307.783
1434.45	278.432
1438.64	259.522
1442.82	269.602
1447	161.633
1451.18	428.648
1455.35	303.283
1459.53	185.119
1463.7	38.2344
1467.87	91.4277
1472.03	42.7402
1476.19	65.3144
1480.35	108.752
1484.51	103.168
1488.67	99.0039
1492.82	37.8906
1496.97	71.4199
1501.12	215.883
1505.26	214.725
1509.4	328.152
1513.54	216.398
1517.68	138.285
1521.81	104.086
1525.94	84.4902
1530.07	139.742
1534.2	310.338
1538.32	78.1562
1542.44	233.42
1546.56	358.947
1550.68	335.815
1554.79	158.728
1558.9	334.522
1563.01	4.63281
1567.12	90.4141
1571.22	98.6992
1575.32	257.012
