Measurement: Raman, 514 nm, ccw, Raman Data Processed
Mineral: Magnesiochromite
Rruff sample: R050399
Ideal chemistry: MgCr^3+^_2_O_4_
Locality: Troodos Mountains, Cyprus
Source: Andy McCarthy
Description: Black grains
Measured chemistry: (Mg_0.68_Fe^2+^_0.32_)_Σ=1_(Cr_1.29_Al_0.64_Fe^3+^_0.07_)_Σ=2_O__4
Pin_id: M01485
Orientation: Laser parallel to a* (1 0 0). Fiducial mark perpendicular to laser is parallel to c [0 0 1]
Raman shift (cm-1)	intensity
127.792	0
132.725	85.6269
137.656	1761.72
142.583	1658.9
147.508	1765.09
152.431	2227.22
157.35	1848.8
162.267	2700.87
167.181	2181.98
172.092	2154.27
177.001	2042.47
181.907	1773.38
186.81	1517.02
191.711	3073.93
196.608	3974.36
201.503	3364.65
206.395	2340.43
211.285	1772.07
216.172	2117.21
221.056	2026.79
225.937	2076.28
230.816	1898.82
235.692	1436.44
240.565	1874.88
245.436	1610.65
250.304	1619.12
255.169	1145.06
260.031	962.277
264.891	1025.32
269.748	991.953
274.602	567.43
279.454	334.086
284.303	736.943
289.149	383.76
293.992	364.453
298.833	223.875
303.671	45.4043
308.507	257.685
313.339	92.6875
318.169	14.4121
322.996	190.818
327.821	251.693
332.643	199.809
337.462	199.356
342.279	67.5586
347.092	112.873
351.904	256.287
356.712	190.924
361.518	223.301
366.321	419.209
371.121	208.404
375.919	101.377
380.714	73.6094
385.506	33.541
390.296	119.639
395.083	368.213
399.867	486.084
404.649	438.971
409.428	697.445
414.204	1224.23
418.978	1034.23
423.749	1405.41
428.517	1700.99
433.282	1807.52
438.045	2042.14
442.806	1919.93
447.563	2216.03
452.318	2130.85
457.07	2165.8
461.82	2871.01
466.567	2949.14
471.311	2621.15
476.053	3386.97
480.792	3828.78
485.528	4628.32
490.262	5125.84
494.992	4956.09
499.721	5659
504.446	5590.06
509.169	6093.89
513.89	7177.23
518.607	8217.03
523.322	9371.21
528.035	10473
532.745	11759.6
537.452	12862.5
542.156	15592.7
546.858	18273.6
551.557	21469.5
556.254	23909.1
560.947	24484.3
565.639	23842.8
570.327	25135.5
575.013	25584
579.697	22032.3
584.377	18225.7
589.055	14082
593.731	12012.1
598.403	10664.9
603.074	10156.1
607.741	8712.23
612.406	7561.15
617.068	6356.72
621.728	4484.71
626.385	3415.78
631.039	2306.39
635.691	2490.37
640.34	3968.18
644.987	6390.81
649.63	8686.7
654.272	9594.77
658.91	10414.7
663.546	10206.1
668.18	10689.2
672.81	11729.4
677.439	13512.1
682.064	15670.2
686.687	18915.2
691.307	21868
695.925	25196.8
700.54	26696.8
705.153	26059.1
709.763	23433.1
714.37	19731.2
718.974	16189.7
723.577	12203.1
728.176	9240.16
732.773	7092.67
737.367	5340.16
741.959	3982.83
746.548	3394.83
751.134	2411.47
755.718	1580.86
760.299	1365.43
764.878	743.465
769.454	527.295
774.028	281.658
778.598	50.4141
783.167	124.272
787.732	136.477
792.295	213.338
796.856	127.676
801.414	200.682
805.969	206.832
810.522	89.8203
815.072	357.697
819.62	204.508
824.165	104.871
828.707	30.0156
833.247	37.7051
837.784	52.9023
842.319	71.2676
846.851	155.598
851.381	192.084
855.908	56.2031
860.432	188.49
864.954	34.9434
869.473	124.32
873.99	278.258
878.504	508.363
883.015	431.877
887.524	558.928
892.031	378.869
896.535	452.674
901.036	458.039
905.535	557.99
910.031	640.781
914.524	717.367
919.015	757.568
923.504	676.496
927.99	659.508
932.473	1063.29
936.954	739.525
941.432	595.908
945.908	555.434
950.381	709.148
954.852	467.631
959.32	400.332
963.785	678.271
968.248	269.906
972.708	441.547
977.166	360.266
981.622	388.949
986.074	95.3301
990.525	179.912
994.972	486.143
999.417	521.465
1003.86	648.959
1008.3	538.305
1012.74	273.172
1017.17	381.207
1021.61	167.457
1026.04	140.744
1030.46	51.2656
1034.89	45.3379
1039.31	51.0508
1043.73	384.016
1048.15	207.422
1052.56	118.805
1056.97	207.193
1061.38	345.916
1065.79	351.914
1070.19	309.195
1074.6	346.359
1079	445.748
1083.39	420.457
1087.79	288.188
1092.18	812.519
1096.57	530.65
1100.96	546.541
1105.34	668.354
1109.72	607.809
1114.1	940.32
1118.48	922.471
1122.85	921.172
1127.22	976.477
1131.6	956.289
1135.96	1288.25
1140.33	841.762
1144.69	852.289
1149.05	770.508
1153.4	775.519
1157.76	919
1162.11	747.91
1166.46	1036.56
1170.81	591.449
1175.15	701.307
1179.49	660.127
1183.83	787.172
1188.17	472.199
1192.5	214.256
1196.84	496.373
1201.16	429.758
1205.49	433.102
1209.82	395.766
1214.14	114.998
1218.46	236.24
1222.77	132.309
1227.09	212.654
1231.4	415.019
1235.71	202.467
1240.02	24.0508
1244.32	46.6875
1248.62	368.412
1252.92	129.287
1257.22	501.166
1261.51	92.1777
1265.81	344.242
1270.1	182.301
1274.38	97.3926
1278.67	159.904
1282.95	139.447
1287.23	221.418
1291.51	593.338
1295.78	47.7637
1300.05	187.035
1304.32	324.707
1308.59	253.264
1312.86	246.596
1317.12	77.7754
1321.38	43.7754
1325.63	32.4434
1329.89	6.02148
1334.14	111.986
1338.39	73.7227
1342.64	51.1621
1346.88	151.371
1351.13	217.316
1355.37	98.9961
1359.61	409.578
1363.84	173.998
1368.07	258.1
1372.3	354.103
1376.53	533.824
1380.76	552.473
1384.98	200.678
1389.2	402.045
1393.42	585.312
1397.64	527.168
1401.85	412.709
1406.06	435.99
1410.27	223.228
1414.47	222.631
1418.68	80.3613
1422.88	486.438
1427.08	491.859
1431.27	439.393
1435.47	383.775
1439.66	144.549
1443.85	408.945
1448.03	472.877
1452.22	350.381
1456.4	198.084
1460.58	78.2754
1464.76	349.123
1468.93	164.318
1473.1	285.035
1477.27	112.322
1481.44	310.637
1485.6	173.519
1489.77	146.894
1493.92	35.4609
1498.08	19.0098
1502.24	194.24
1506.39	87.1562
1510.54	60.7988
1514.69	381.234
1518.83	211.045
1522.97	92.3086
1527.12	134.623
1531.25	255.863
1535.39	126.816
1539.52	299.445
1543.65	132.262
1547.78	193.982
1551.91	900.959
1556.03	463.312
1560.15	296.723
1564.27	173.721
1568.39	53.625
1572.5	113.217
1576.61	133.438
