Measurement: Raman, 514 nm, ccw, Raman Data Processed
Mineral: Magnetite
Rruff sample: R060191
Ideal chemistry: Fe^2+^Fe^3+^_2_O_4_
Locality: Merrry Widow mine, Vancouver Island, British Columbia, Canada
Source: Lloyd Twaites
Description: Grayish-black octahedral crystals
Measured chemistry: (Fe^2+^_0.97_Mg_0.03_)(Fe^3+^_0.97_Al_0.03_)_2_O_4_
Pin_id: M01451
Orientation: Laser parallel to -a* (-1 0 0). Fiducial mark perpendicular to laser is parallel to -c [0 0 -1]
Raman shift (cm-1)	intensity
126.529	0
131.464	1119.19
136.395	1616.02
141.324	1100.6
146.251	336.539
151.175	1056.9
156.096	555.137
161.015	829.559
165.931	474.465
170.844	1104.52
175.755	725.426
180.663	1178.65
185.569	1330.63
190.472	1842.18
195.373	2278.75
200.27	1987.73
205.166	1182.62
210.058	437.457
214.948	395.598
219.836	366.477
224.721	383.129
229.603	52.75
234.482	16.2109
239.359	52.8672
244.234	294.613
249.106	7.54688
253.975	2.17188
258.841	3375.36
263.705	684.527
268.567	692.406
273.425	908.723
278.281	871.871
283.135	1319.82
287.986	1730.12
292.834	1711.55
297.68	2226.98
302.523	2370.88
307.363	2279.95
312.201	2276.12
317.037	2048.14
321.869	2005.85
326.699	1502.62
331.527	1289.7
336.351	618.121
341.174	934.477
345.993	423.09
350.81	604.508
355.625	478.836
360.436	141.961
365.245	202.875
370.052	41.7305
374.856	66.5156
379.657	531.746
384.456	138.316
389.252	178.078
394.045	133.539
398.836	140.684
403.625	153.648
408.41	141.617
413.193	69.3555
417.974	376.246
422.751	326.656
427.527	358.559
432.299	343.062
437.069	421.285
441.836	150.371
446.601	639.418
451.363	628.637
456.123	356.164
460.88	512.922
465.634	620.231
470.386	497.16
475.135	638.879
479.881	723.449
484.625	1189.95
489.366	1049.11
494.105	1260.33
498.84	1678.76
503.574	1926.62
508.305	1995.32
513.033	2738.36
517.758	2931.15
522.481	3397.78
527.201	3971.83
531.919	4121.15
536.634	4158.52
541.346	5067.43
546.056	4869.07
550.763	5279.48
555.468	5608.97
560.17	5524.17
564.869	5329.47
569.566	5173.51
574.26	4919.22
578.952	3537.5
583.641	2711.45
588.327	1807.75
593.011	1558.39
597.692	1941.3
602.37	1767.27
607.046	2238.93
611.719	2705.01
616.39	3639.05
621.058	4030.98
625.723	4670.32
630.386	6127.43
635.046	7120.46
639.703	9213.36
644.358	11287.4
649.01	14267.6
653.66	17425.3
658.307	21890.9
662.951	25017.1
667.593	27946.8
672.232	28547.7
676.869	27087.6
681.503	23975.8
686.134	20362
690.763	16487.8
695.389	13216.8
700.013	10546.8
704.633	8422.6
709.252	6576.03
713.867	4954.44
718.48	4017.21
723.091	3252.88
727.698	2321.82
732.304	1855.84
736.906	1512.11
741.506	1287
746.103	889.113
750.698	559.055
755.29	184.816
759.88	402.879
764.467	583.035
769.051	52.668
773.632	145.738
778.211	54.1992
782.788	156.926
787.362	128.551
791.933	73.4492
796.501	247.328
801.067	125.211
805.631	102.066
810.191	149.41
814.749	48.2383
819.305	99.4492
823.858	55.5898
828.408	222.957
832.956	97.2539
837.501	16.5469
842.043	455.082
846.583	166.426
851.12	199.836
855.654	198.168
860.186	49.5859
864.716	267.297
869.242	481.523
873.766	293.269
878.288	491.371
882.807	489.871
887.323	408.769
891.837	565.113
896.348	510.727
900.856	610.254
905.362	555.789
909.865	635.34
914.366	887.516
918.864	848.106
923.359	763.973
927.852	363.504
932.342	566.297
936.829	899.059
941.314	722.074
945.796	746.394
950.276	520.473
954.753	993.949
959.228	902.164
963.699	789.934
968.169	548.809
972.635	608.613
977.099	857.695
981.56	873.957
986.019	707.426
990.475	851.195
994.929	784.016
999.38	682.188
1003.83	891.383
1008.27	679.336
1012.72	881.234
1017.16	992.062
1021.6	931.387
1026.03	662.652
1030.46	804.715
1034.89	1010.99
1039.32	853.562
1043.74	1042.41
1048.17	1106.08
1052.59	1109.84
1057	1405.92
1061.42	1390.39
1065.83	1176.3
1070.24	1294.35
1074.65	924.008
1079.05	1439.49
1083.45	1206.37
1087.85	1302.8
1092.25	1094.8
1096.64	1011.12
1101.03	1220.96
1105.42	1133.02
1109.8	1033.36
1114.19	1053.99
1118.57	955.91
1122.95	925.953
1127.32	1074.54
1131.69	594.465
1136.06	732.816
1140.43	734.188
1144.8	580.91
1149.16	193.117
1153.52	437.582
1157.87	291.086
1162.23	118.055
1166.58	118.731
1170.93	15.4883
1175.28	91.9023
1179.62	334.559
1183.96	260.543
1188.3	26.8555
1192.64	94.9766
1196.97	277.102
1201.3	195.32
1205.63	9.71094
1209.95	17.7188
1214.28	80.0195
1218.6	106.723
1222.92	52.9297
1227.23	13.7539
1231.55	169.445
1235.86	202.812
1240.16	240.34
1244.47	190.981
1248.77	50.6445
1253.07	174.137
1257.37	283.508
1261.66	120.969
1265.95	59.8633
1270.24	273.699
1274.53	380.641
1278.81	211.719
1283.09	3.73828
1287.37	328.039
1291.65	573.375
1295.92	801.078
1300.19	476.945
1304.46	594.598
1308.73	313.328
1312.99	389.941
1317.25	549.445
1321.51	467.402
1325.77	513.481
1330.02	155.211
1334.27	264.594
1338.52	577.949
1342.76	692.488
1347	386.086
1351.24	561.438
1355.48	129.191
1359.72	226.766
1363.95	529.598
1368.18	307.734
1372.4	97.7344
1376.63	245.359
1380.85	412.371
1385.07	341.438
1389.29	439.723
1393.5	160.949
1397.71	206.621
1401.92	156.465
1406.13	336.805
1410.33	433.781
1414.53	362.445
1418.73	197.418
1422.92	369.598
1427.12	104.215
1431.31	278.078
1435.5	411.301
1439.68	61.1523
1443.87	446.606
1448.05	410.543
1452.22	214.414
1456.4	187.055
1460.57	365.055
1464.74	320.914
1468.91	65.2734
1473.07	283.922
1477.23	178.863
1481.39	340.109
1485.55	180.691
1489.7	471.856
1493.86	544.777
1498.01	171.266
1502.15	457.723
1506.3	354.301
1510.44	389.082
1514.58	159.043
1518.71	199.449
1522.85	346.008
1526.98	376.18
1531.11	348.684
1535.23	187.238
1539.35	476.57
1543.47	366.188
