Measurement: Raman, 514 nm, ccw, Raman Data Processed
Mineral: Magnesio-hastingsite
Rruff sample: R070288
Ideal chemistry: NaCa_2_(Mg_4_Fe^3+^)Si_6_Al_2_O_22_(OH)_2_
Locality: Dallas Gem Mine (Gem Mine; Benitoite Mine), New Idria District, San Benito County, California, USA
Source: Michael Scott
Description: Dark brown to black prismatic crystals frozen in albite
Measured chemistry: (Na_0.51_[box]_0.33_K_0.16_)_Σ=1_(Ca_1.75_Na_0.25_)_Σ=2_(Mg_3.02_Fe^2+^_0.61_Ti_0.37_)_Σ=4_(Fe^3+^_0.73_Al_0.27_)_Σ=1_Si_5.84_Al_2.16_O_22_(OH)_2_; (OH) estimated by difference
Pin_id: M01310
Orientation: Laser parallel to c* (0 0 1). Fiducial mark perpendicular to laser is parallel to a [1 0 0]
Raman shift (cm-1)	intensity
88.873	0
93.835	511.524
98.794	98.9853
103.75	279.929
108.704	588.652
113.654	2749.97
118.602	3664.27
123.547	2179.23
128.49	906.727
133.429	559.047
138.366	423.51
143.3	270.072
148.232	411.839
153.16	893.935
158.086	2256.36
163.009	3532.03
167.929	2656.11
172.847	1694.18
177.761	1441.79
182.673	1440.3
187.583	1594.14
192.489	1437.12
197.393	1268.36
202.294	1340.08
207.192	1940.74
212.088	2876.94
216.98	4103.73
221.87	6655.07
226.758	7458.13
231.642	5166.82
236.524	2933.93
241.403	1884
246.279	1280.05
251.153	1034.24
256.023	697.755
260.891	230.529
265.757	127.326
270.619	76.041
275.479	119.764
280.336	57.1065
285.191	24.1172
290.042	207.236
294.891	409.09
299.738	459.116
304.581	480.703
309.422	580.312
314.26	708.45
319.095	788.072
323.928	872.78
328.758	857.08
333.585	872.277
338.41	803.276
343.231	752.149
348.05	876.17
352.867	795.303
357.68	962.715
362.491	1107.78
367.299	1273.08
372.105	1292.71
376.908	1342.77
381.708	1334.9
386.505	1204.22
391.3	834.607
396.092	792.085
400.881	654.591
405.668	659.051
410.452	643.434
415.233	596.316
420.011	380.956
424.787	377.886
429.56	257.432
434.331	37.9062
439.098	1.58887
443.863	26.8032
448.626	57.2925
453.385	2.84277
458.142	250.97
462.897	200.41
467.648	172.962
472.397	247.713
477.144	373.443
481.887	318.286
486.628	483.571
491.366	568.293
496.102	849.442
500.835	946.006
505.565	1217.85
510.293	1374.99
515.018	1570.05
519.74	1553.33
524.459	1707.76
529.176	1793.65
533.891	1887.89
538.602	1834.49
543.311	1814.44
548.017	1715.41
552.721	1708.35
557.422	1709.35
562.12	1559.78
566.816	1587.63
571.509	1567.39
576.199	1222.56
580.887	704.329
585.572	145.237
590.254	34.5518
594.934	86.8369
599.611	206.12
604.285	125.934
608.957	61.5918
613.626	137.209
618.293	479.109
622.957	756.515
627.618	1369.68
632.277	2017.85
636.933	3034.4
641.586	4421.99
646.237	5651.09
650.885	6275.73
655.53	7272.9
660.173	7760.64
664.813	8224.97
669.451	7235.89
674.086	5444.44
678.718	4372.63
683.348	3368.48
687.975	2910.02
692.599	2218.27
697.221	1608.6
701.84	976.96
706.457	722.449
711.071	461.723
715.682	515.813
720.291	496.571
724.897	407.746
729.5	498.574
734.101	411.942
738.7	447.188
743.295	301.245
747.888	343.335
752.479	347.671
757.067	361.133
761.652	488.057
766.235	637.724
770.815	865.931
775.392	979.521
779.967	1387.44
784.539	1733.7
789.109	2038.11
793.676	2175.37
798.241	2111.82
802.803	2070.34
807.362	1897.38
811.919	1812.96
816.473	1726.97
821.024	1566.47
825.573	1375.21
830.12	1259.95
834.663	1002.98
839.205	777.21
843.743	538.649
848.279	186.936
852.813	36.8447
857.344	20.3506
861.872	225.734
866.398	109.709
870.921	50.0127
875.442	44.7305
879.96	149.299
884.475	276.922
888.988	532.754
893.498	780.376
898.006	960.797
902.511	1035.19
907.014	1155.59
911.514	1185.97
916.012	1185.09
920.507	911.09
924.999	936.013
929.489	939.794
933.976	770.297
938.461	820.566
942.943	930.64
947.423	1094.56
951.9	1113.06
956.374	1352.33
960.846	1340.23
965.316	1662.77
969.783	1628.9
974.247	1700.59
978.709	1699.84
983.168	2050.44
987.625	2158.97
992.079	2476.05
996.53	2879.97
1000.98	3421.88
1005.43	3877.73
1009.87	4157.35
1014.31	4148.79
1018.75	3887.92
1023.19	3664.59
1027.62	3252.2
1032.05	3000.6
1036.48	2712.29
1040.91	2518.15
1045.33	2340.46
1049.75	2082.09
1054.17	1889.99
1058.59	1677.01
1063	1498.66
1067.41	1254.01
1071.82	1012.05
1076.23	867.798
1080.63	726.812
1085.03	502.545
1089.43	378.61
1093.83	335.648
1098.22	315.794
1102.61	265.188
1107	201.564
1111.39	36.1352
1115.77	73.6221
1120.15	50.6641
1124.53	0.65625
1128.9	31.5884
1133.28	33.2236
1137.65	39.8638
1142.02	29.5093
1146.38	31.9819
1150.75	17.6392
1155.11	14.7212
1159.47	24.8169
1163.82	53.1206
1168.18	81.4458
1172.53	18.6235
1176.88	47.0147
1181.22	50.9497
1185.57	13.0913
1189.91	14.8257
1194.24	18.4492
1198.58	48.8696
1202.91	16.999
1207.25	19.0737
1211.58	121.693
1215.9	64.2007
1220.22	63.0889
1224.55	160.34
1228.87	176.994
1233.18	186.089
1237.49	160.632
1241.81	107.858
1246.12	240.828
1250.42	172.745
1254.72	260.067
1259.03	336.2
1263.33	210.816
1267.62	194.972
1271.92	376.185
1276.21	217.356
1280.5	314.673
1284.78	282.229
1289.07	190.791
1293.35	330.166
1297.63	321.919
1301.91	280.582
1306.18	338.121
1310.45	252.747
1314.72	265.701
1318.99	227.822
1323.25	253.902
1327.52	188.265
1331.78	154.206
1336.03	106.782
1340.29	265.879
1344.54	209.805
1348.79	198.596
1353.04	224.418
1357.28	210.193
1361.52	127.619
1365.77	69.5425
1370	251.551
1374.24	169.782
1378.47	187.522
1382.7	100.076
1386.93	73.7007
1391.15	127.43
1395.38	190.611
1399.6	39.7451
1403.82	33.6201
1408.03	200.566
1412.24	155.3
1416.46	167.69
1420.66	160.7
1424.87	197.894
1429.08	168.567
1433.28	183.786
1437.47	180.468
1441.67	47.5542
1445.87	123.197
1450.06	60.9712
1454.25	142.06
1458.43	249.194
1462.62	67.8877
1466.8	34.6958
1470.98	57.2534
1475.15	2.66455
1479.33	12.8457
1483.5	198.049
1487.67	22.229
1491.84	50.3037
1496.01	101.55
1500.17	105.944
1504.33	104.494
1508.49	79.0957
1512.64	99.7227
1516.79	226.362
1520.94	40.5518
1525.09	63.6084
1529.24	128.546
1533.38	89.0127
1537.52	108.144
1541.66	181.141
1545.8	26.7871
1549.93	107.148
1554.06	182.392
1558.19	43.6279
1562.32	178.412
1566.44	179.651
1570.57	0.413086
