Measurement: Raman, 514 nm, depolarized, Raman Data Processed
Mineral: Magnesiochromite
Rruff sample: R060797
Ideal chemistry: MgCr^3+^_2_O_4_
Locality: Benbow mine, Stillwater Complex, Mount Wood area, Stillwater County, Montana, USA
Source: California Institute of Technology
Description: Black granular massive
Measured chemistry: (Mg_0.55_Fe^2+^_0.45_)_Σ=1_(Cr_1.28_Al_0.58_Fe^3+^_0.14_)_Σ=2_O_4_
Pin_id: M01281
Orientation: Laser parallel to -a* (-1 0 0). Fiducial mark perpendicular to laser is parallel to c [0 0 1]
Raman shift (cm-1)	intensity
125.295	0
130.23	396.31
135.163	610.223
140.092	902.525
145.019	782.615
149.944	603.471
154.866	982.83
159.785	1030.83
164.702	707.594
169.616	905.363
174.528	994.934
179.437	916.589
184.343	1062.1
189.247	1547.01
194.148	1831.15
199.046	1646.08
203.942	1298.77
208.835	892.392
213.726	913.754
218.614	927.932
223.5	1094.67
228.382	943.675
233.263	1057.44
238.14	1196.57
243.015	970.226
247.888	1018.55
252.758	931.98
257.625	729.305
262.49	690.556
267.352	554.024
272.211	488.817
277.068	463.342
281.922	349.14
286.773	139.024
291.622	93.0606
296.469	176.756
301.312	71.8877
306.154	19.0723
310.992	32.3721
315.828	55.1885
320.661	119.65
325.492	96.0957
330.32	181.18
335.145	168.978
339.968	5.05371
344.789	12.668
349.606	270.831
354.421	172.114
359.234	62.8623
364.043	60.5791
368.851	283.925
373.655	119.906
378.457	196.096
383.256	92.0586
388.053	12.4844
392.847	206.055
397.639	79.5625
402.428	236.842
407.214	305.797
411.998	130.857
416.779	360.871
421.557	417.275
426.333	383.738
431.106	224.711
435.877	383.273
440.645	336.066
445.41	405.981
450.173	631.734
454.933	719.998
459.691	714.158
464.446	912.148
469.198	993.891
473.948	1156.14
478.695	1378.66
483.439	1479.58
488.181	1837.21
492.92	1679.02
497.657	2122.06
502.391	2297.48
507.122	2721.78
511.851	3122.95
516.577	3945.96
521.301	4682.53
526.022	5531.91
530.74	6561.43
535.456	7706.48
540.169	9417.57
544.879	11347.8
549.587	13134.5
554.292	14370.8
558.995	15106.5
563.695	15786.8
568.392	16417.3
573.087	16609.2
577.779	15734.4
582.469	14593.2
587.156	12352.8
591.84	11223.4
596.522	9838.31
601.201	8930.65
605.877	7976.23
610.551	6763.17
615.222	5943.62
619.891	4535.18
624.557	3598.92
629.22	2962.9
633.881	3272.84
638.539	4200.83
643.195	5683.55
647.848	7241.86
652.498	8069.19
657.145	8715.52
661.791	8640.03
666.433	8974.78
671.073	9579.6
675.71	10672.9
680.345	12244.7
684.977	13769.8
689.606	15901
694.233	18104.5
698.857	18898.1
703.478	18297.2
708.097	16726.2
712.714	14410.2
717.327	12019.6
721.938	9391.7
726.547	7258.56
731.153	5700.97
735.756	4445.23
740.356	3265.72
744.954	2484.66
749.55	1839.14
754.142	1329.65
758.733	974.182
763.32	687.65
767.905	324.824
772.487	109.127
777.067	112.246
781.644	241.135
786.218	71.9336
790.79	211.287
795.359	393.371
799.926	139.377
804.49	134.469
809.051	151.17
813.61	160.297
818.166	36.4062
822.72	161.394
827.271	227.32
831.819	89.4551
836.365	143.402
840.908	24.418
845.448	77.6914
849.986	69.4844
854.521	19.3926
859.054	134.935
863.584	15.0469
868.111	187.541
872.636	231.256
877.158	159.043
881.677	380.941
886.194	74.3438
890.709	209.572
895.22	94.3008
899.729	375.256
904.236	307.713
908.74	366.744
913.241	324.484
917.739	436.793
922.235	394.703
926.729	433.453
931.219	375.881
935.708	301.963
940.193	358.512
944.676	170.463
949.156	214.588
953.634	249.217
958.109	249.285
962.582	299.894
967.051	446.023
971.519	167.232
975.983	220.275
980.445	124.088
984.905	186.738
989.362	134.764
993.816	226.041
998.267	304.434
1002.72	306.51
1007.16	262.207
1011.61	81.0273
1016.05	102.684
1020.49	75.7246
1024.92	203.156
1029.36	106.807
1033.79	178.797
1038.21	102.695
1042.64	89.3965
1047.06	247.99
1051.48	107.469
1055.9	156.807
1060.32	267.58
1064.73	465.516
1069.14	263.709
1073.55	374.648
1077.95	272.996
1082.35	503.461
1086.75	557.588
1091.15	671.805
1095.54	482.26
1099.93	624.262
1104.32	950.92
1108.71	628.688
1113.09	782.129
1117.47	964.896
1121.85	761.006
1126.23	976.459
1130.6	868.311
1134.97	871.424
1139.34	839.609
1143.7	853.166
1148.07	741.516
1152.43	602.066
1156.79	836.131
1161.14	759.502
1165.49	557.961
1169.84	583.65
1174.19	537.324
1178.54	310.902
1182.88	564.004
1187.22	166.615
1191.55	184.418
1195.89	359.815
1200.22	367.125
1204.55	347.027
1208.87	168.44
1213.2	259.973
1217.52	79.25
1221.84	223.404
1226.15	248.435
1230.47	237.873
1234.78	179.156
1239.09	289.84
1243.39	287.473
1247.69	196.047
1251.99	43.2871
1256.29	117.971
1260.59	59.2891
1264.88	121.508
1269.17	11.4121
1273.46	57.4707
1277.74	311.859
1282.02	55.2656
1286.3	153.592
1290.58	157.174
1294.86	225.31
1299.13	428.268
1303.39	216.023
1307.66	158.539
1311.93	172.779
1316.19	105.723
1320.45	78.3398
1324.7	207.576
1328.96	59.6523
1333.21	66.6992
1337.45	45.6758
1341.7	78.2852
1345.94	332.889
1350.18	172.451
1354.42	233.533
1358.66	254.369
1362.89	278.248
1367.12	265.94
1371.35	191.615
1375.57	182.908
1379.8	168.658
1384.02	148.623
1388.23	222.178
1392.45	327.213
1396.66	146.752
1400.87	329.416
1405.08	32.3281
1409.28	289.85
1413.48	215.688
1417.68	172.158
1421.88	128.455
1426.07	335.594
1430.26	191.869
1434.45	151.141
1438.64	228.207
1442.82	160.959
1447	209.523
1451.18	301.047
1455.35	118.975
1459.53	127.992
1463.7	206.502
1467.87	150.672
1472.03	299.498
1476.19	10.1641
1480.35	61.4746
1484.51	166.982
1488.67	101.324
1492.82	62.5293
1496.97	158.334
1501.12	110.752
1505.26	33.6348
1509.4	106.387
1513.54	126.861
1517.68	195.725
1521.81	150.834
1525.94	209.721
1530.07	143.545
1534.2	193.215
1538.32	266.545
1542.44	35.332
1546.56	35.8242
1550.68	260.389
1554.79	304.514
1558.9	386.281
1563.01	149.768
1567.12	300.531
1571.22	119.543
1575.32	179.805
