Measurement: Raman, 514 nm, depolarized, Raman Data Processed
Mineral: Magnesite
Rruff sample: R050676
Ideal chemistry: MgCO_3_
Locality: Tyrol, Austria
Source: University of Arizona Mineral Museum
Description: Brown rhombohedral crystals
Measured chemistry: (Mg_0.87_Fe^2+^_0.12_Ca_0.01_)_Î£=1_CO_3_; trace amounts of Mn and Cd; CO_2_ estimated by difference
Pin_id: M00629
Orientation: Laser parallel to -a* (-1 0 0). Fiducial mark perpendicular to laser is parallel to c [0 0 1]
Raman shift (cm-1)	intensity
88.338	0
93.286	25.3799
98.231	188.421
103.174	548.141
108.114	680.88
113.052	498.408
117.987	601.976
122.919	1856.71
127.849	173.65
132.777	109.5
137.702	39.2441
142.624	20.1543
147.544	190.578
152.461	439.856
157.375	36.8105
162.287	186.567
167.197	248.067
172.104	386.7
177.008	328.137
181.91	653.602
186.809	1024.84
191.706	1576.35
196.6	3279.06
201.491	6757.56
206.38	15794
211.267	21407.5
216.151	6914.91
221.032	1722.32
225.911	684.722
230.787	321.135
235.66	246.648
240.531	428.681
245.4	392.508
250.266	358.16
255.129	384.908
259.99	337.656
264.848	401.271
269.703	425.655
274.556	581.369
279.407	537.57
284.255	889.098
289.1	899.162
293.942	1019.86
298.783	1673.14
303.62	2690.78
308.455	5424.79
313.288	13597
318.117	33229.5
322.945	66934.2
327.769	56294.2
332.591	20855.3
337.411	7703.48
342.228	4053.64
347.042	2552.82
351.854	1527
356.663	1181.23
361.47	1012.5
366.274	970.828
371.075	844.235
375.874	848.713
380.67	685.24
385.464	811.681
390.255	584.998
395.043	375.585
399.829	303.576
404.613	368.538
409.393	275.56
414.172	36.6572
418.947	174.796
423.72	114.123
428.49	196.974
433.258	117.233
438.024	60.0772
442.786	91.4385
447.546	114.386
452.304	108.31
457.059	316.942
461.811	332.624
466.56	334.383
471.308	330.598
476.052	604.826
480.794	823.795
485.533	960.834
490.27	1206.15
495.004	1417.54
499.736	1427.5
504.465	1752.75
509.191	1521.44
513.915	1643.28
518.636	1724.21
523.354	1449.2
528.07	1207.29
532.784	1017.48
537.494	902.762
542.203	952.106
546.908	777.514
551.611	647.982
556.311	402.154
561.009	486.906
565.704	559.842
570.397	449.506
575.087	206.016
579.774	236.406
584.459	161.707
589.141	169.57
593.821	39.5664
598.498	6.2832
603.172	599.09
607.844	1.92773
612.513	84.7481
617.18	81.5469
621.844	187.414
626.505	396.467
631.164	421.635
635.82	251.656
640.473	289.826
645.124	784.629
649.773	1065.93
654.418	758.482
659.062	433.068
663.702	378.227
668.34	390.853
672.975	480.473
677.608	680.293
682.238	465.272
686.866	736.148
691.49	382.111
696.113	806.58
700.732	989.109
705.349	964.549
709.964	1299.92
714.576	2232.43
719.185	3357.91
723.792	4945.2
728.396	7614.43
732.997	12285.6
737.596	15594.6
742.192	12842.2
746.785	7905.77
751.376	4093.7
755.965	2172.69
760.551	985.863
765.134	59.793
769.714	139.633
774.292	162.963
778.867	182.742
783.44	10.666
788.01	276.478
792.578	451.106
797.142	196.281
801.705	228.981
806.264	328.209
810.821	372.93
815.376	169.178
819.927	432.973
824.476	364.295
829.023	213.17
833.567	479.613
838.108	333.629
842.647	412.231
847.183	481.412
851.716	448.172
856.247	484.508
860.776	706.412
865.301	669.885
869.824	843.93
874.345	1470.55
878.862	1923.22
883.377	1457
887.89	870.014
892.4	806.986
896.907	729.127
901.412	1085.32
905.914	791.867
910.413	754.621
914.91	800.975
919.404	632.252
923.896	606.352
928.385	493.147
932.871	718.912
937.355	621.172
941.836	526.664
946.315	403.291
950.79	522.627
955.264	841.588
959.734	767.537
964.202	733.477
968.668	516.254
973.131	837.111
977.591	491.725
982.048	437.094
986.503	461.244
990.955	585.186
995.405	286.93
999.852	637.506
1004.3	1067.92
1008.74	354.185
1013.18	33.7852
1017.61	329.293
1022.05	454.441
1026.48	277.816
1030.91	735.803
1035.33	1277.88
1039.76	1898.46
1044.18	2745.94
1048.6	3935.51
1053.01	4913.87
1057.42	6814.47
1061.84	10310.2
1066.24	15263.4
1070.65	24265.6
1075.05	39384.8
1079.45	66508.4
1083.85	126872
1088.24	252490
1092.63	413200
1097.02	383818
1101.41	224012
1105.8	111139
1110.18	53689
1114.56	27474.2
1118.93	16780.6
1123.31	9300.37
1127.68	6168.93
1132.04	4326.2
1136.41	3722.97
1140.77	3680.43
1145.13	1840.22
1149.49	1221.7
1153.85	900.002
1158.2	685.594
1162.55	893.674
1166.9	422.426
1171.24	373.943
1175.58	287.035
1179.92	411.691
1184.26	252.898
1188.6	331.652
1192.93	549.959
1197.26	169.756
1201.58	116.023
1205.9	150.818
1210.23	10.834
1214.55	243.932
1218.86	26.127
1223.17	107.883
1227.48	329.981
1231.79	192.791
1236.1	203.164
1240.4	317.094
1244.7	243.557
1249	90.043
1253.29	181.769
1257.59	69.207
1261.88	83.9941
1266.16	277.978
1270.45	560.234
1274.73	646.373
1279.01	223.068
1283.28	279.004
1287.56	384.059
1291.83	270.584
1296.1	462.695
1300.36	721.979
1304.63	532.627
1308.89	738.623
1313.15	847.965
1317.4	770.646
1321.65	903.66
1325.9	324.705
1330.15	161.178
1334.4	430.269
1338.64	434.367
1342.88	509.727
1347.12	196.727
1351.35	95.2988
1355.58	398.096
1359.81	291.082
1364.04	168.613
1368.26	151.713
1372.48	2.4082
1376.7	196.941
1380.92	332.404
1385.13	194.568
1389.34	64.3164
1393.55	268.022
1397.76	107.918
1401.96	21.1895
1406.16	0.503906
1410.36	39.8457
1414.55	223.914
1418.75	252.023
1422.94	262.057
1427.12	541.404
1431.31	826.451
1435.49	1483.68
1439.67	2470.2
1443.85	3477.98
1448.02	3238.49
1452.19	2845.53
1456.36	2582.18
1460.53	2296.16
1464.69	1815.54
1468.85	1764.03
1473.01	1537.63
1477.17	1278.76
1481.32	1085.26
1485.47	1106.85
1489.62	558.43
1493.76	707.039
1497.91	383.695
1502.05	310.51
1506.18	309.387
1510.32	264.83
1514.45	399.66
1518.58	347.447
1522.71	205.5
1526.83	125.475
1530.95	175.805
1535.07	440.693
1539.19	4.35938
1543.3	159.658
1547.41	82.4727
1551.52	25.6152
1555.63	175.717
1559.73	416.644
1563.83	171.006
1567.93	92.7012
1572.03	334.611
1576.12	1.07812
