Measurement: Raman, 514 nm, ccw, Raman Data Processed
Mineral: Magnetite
Rruff sample: R060191
Ideal chemistry: Fe^2+^Fe^3+^_2_O_4_
Locality: Merrry Widow mine, Vancouver Island, British Columbia, Canada
Source: Lloyd Twaites
Description: Grayish-black octahedral crystals
Measured chemistry: (Fe^2+^_0.97_Mg_0.03_)(Fe^3+^_0.97_Al_0.03_)_2_O_4_
Pin_id: M01451
Orientation: Laser parallel to -a* (-1 0 0). Fiducial mark perpendicular to laser is parallel to -c [0 0 -1]
Raman shift (cm-1)	intensity
126.529	0
131.464	509.906
136.395	655.406
141.324	872.648
146.251	298.465
151.175	633.68
156.096	514.031
161.015	411.039
165.931	816.629
170.844	979.91
175.755	439.688
180.663	878.984
185.569	1058.89
190.472	1850.4
195.373	2036.9
200.27	2038.96
205.166	873.91
210.058	329.269
214.948	58.082
219.836	360.555
224.721	177.82
229.603	124.457
234.482	3.71484
239.359	12.1758
244.234	58.4766
249.106	357.961
253.975	79.3633
258.841	3206.55
263.705	684.168
268.567	496.121
273.425	643.973
278.281	1049.2
283.135	1134.16
287.986	1584.06
292.834	2300.38
297.68	2256.83
302.523	2713.89
307.363	2538.52
312.201	2432.18
317.037	2313.75
321.869	1964.46
326.699	1725.8
331.527	1318.67
336.351	940.731
341.174	1037.32
345.993	689.902
350.81	401.613
355.625	104.668
360.436	78.2656
365.245	89.0664
370.052	146.738
374.856	23.957
379.657	66.043
384.456	122.562
389.252	117.637
394.045	103.371
398.836	144.664
403.625	110.633
408.41	214.793
413.193	249.785
417.974	124.984
422.751	269.695
427.527	270.598
432.299	72.8477
437.069	219.59
441.836	82.9609
446.601	426.078
451.363	389.152
456.123	599.289
460.88	321.543
465.634	442.055
470.386	369.062
475.135	736.652
479.881	489.277
484.625	676.438
489.366	983.418
494.105	1419.01
498.84	1811.5
503.574	1749.16
508.305	2285.81
513.033	2188.36
517.758	2847.58
522.481	3202.03
527.201	3356.11
531.919	3785.73
536.634	4132.48
541.346	4342.4
546.056	4845.06
550.763	4865.3
555.468	4733.37
560.17	5025.57
564.869	5246.67
569.566	4824.08
574.26	4295.79
578.952	3327.63
583.641	2710.67
588.327	1883.89
593.011	2080.29
597.692	2072.8
602.37	2328.43
607.046	2494.05
611.719	3312.65
616.39	3887.41
621.058	4611.39
625.723	5484.88
630.386	6271.89
635.046	7928.63
639.703	10003
644.358	12155.2
649.01	15214
653.66	18936.8
658.307	22853.4
662.951	26456.7
667.593	28804.3
672.232	29551.7
676.869	27772.9
681.503	24266
686.134	20704.1
690.763	17158
695.389	13273.5
700.013	10892.6
704.633	8599.22
709.252	6840.13
713.867	5087.48
718.48	4145.54
723.091	2935.63
727.698	2626.31
732.304	1879.88
736.906	1201.14
741.506	965.285
746.103	854.621
750.698	611.582
755.29	101.918
759.88	370.629
764.467	260.387
769.051	36.1719
773.632	223.18
778.211	118.602
782.788	275.812
787.362	23.6055
791.933	15.1406
796.501	44.75
801.067	22.2422
805.631	222.215
810.191	169.613
814.749	3.98438
819.305	45.375
823.858	275.367
828.408	221.359
832.956	35.1367
837.501	65.8281
842.043	148.641
846.583	155.598
851.12	328.328
855.654	169.41
860.186	205.84
864.716	90.6523
869.242	193.731
873.766	383.188
878.288	302.039
882.807	358.398
887.323	448.227
891.837	317.547
896.348	684.406
900.856	371.887
905.362	653.773
909.865	388.688
914.366	632.035
918.864	730.809
923.359	645.598
927.852	480.609
932.342	632.75
936.829	884.598
941.314	967.777
945.796	768.938
950.276	844.062
954.753	715.633
959.228	866.738
963.699	1096.1
968.169	780.996
972.635	537.172
977.099	927.816
981.56	738
986.019	536.984
990.475	569.602
994.929	766.898
999.38	867.629
1003.83	573.332
1008.27	802.102
1012.72	840.027
1017.16	846.965
1021.6	885.566
1026.03	1074.96
1030.46	951.863
1034.89	918.477
1039.32	879.328
1043.74	1003.43
1048.17	965.867
1052.59	1337.75
1057	1170.31
1061.42	1336.5
1065.83	1372.8
1070.24	1340.33
1074.65	1517.8
1079.05	1319.91
1083.45	1232.82
1087.85	1433.72
1092.25	1434.95
1096.64	1256.46
1101.03	1194.94
1105.42	929.129
1109.8	1112.02
1114.19	1137.87
1118.57	693.344
1122.95	868.957
1127.32	862.945
1131.69	846.172
1136.06	719.699
1140.43	541.469
1144.8	727.637
1149.16	445.043
1153.52	462.098
1157.87	383.016
1162.23	534.156
1166.58	334.488
1170.93	79.4727
1175.28	123.953
1179.62	17.6016
1183.96	114.188
1188.3	91.9258
1192.64	135.535
1196.97	193.941
1201.3	8.5625
1205.63	102.207
1209.95	31.5234
1214.28	155.965
1218.6	121.699
1222.92	223.18
1227.23	145.766
1231.55	284.5
1235.86	114.234
1240.16	33.9414
1244.47	22.6211
1248.77	95.5781
1253.07	113.195
1257.37	304.106
1261.66	340.168
1265.95	276.379
1270.24	354.742
1274.53	298.242
1278.81	386.891
1283.09	422.691
1287.37	429.664
1291.65	735.848
1295.92	404.344
1300.19	702.25
1304.46	926.856
1308.73	835.551
1312.99	788.734
1317.25	483.75
1321.51	655.445
1325.77	474.418
1330.02	568.883
1334.27	592.301
1338.52	679.016
1342.76	656.234
1347	507.152
1351.24	227.914
1355.48	297.043
1359.72	435.441
1363.95	395.734
1368.18	624.07
1372.4	299.008
1376.63	136.906
1380.85	268.941
1385.07	272.371
1389.29	208.496
1393.5	342.484
1397.71	273.297
1401.92	366.504
1406.13	173.664
1410.33	196.617
1414.53	166.227
1418.73	260.336
1422.92	352.199
1427.12	113.793
1431.31	450.566
1435.5	448.871
1439.68	217.125
1443.87	318.027
1448.05	67.6328
1452.22	242.172
1456.4	357.941
1460.57	179.512
1464.74	301.441
1468.91	245.012
1473.07	297.988
1477.23	364.504
1481.39	105.496
1485.55	310.477
1489.7	279.332
1493.86	27.9609
1498.01	188.785
1502.15	317.344
1506.3	166.453
1510.44	76.8203
1514.58	124.188
1518.71	30.1836
1522.85	469.144
1526.98	209.066
1531.11	237.519
1535.23	325.934
1539.35	130.828
1543.47	573.703
