Measurement: Raman, 514 nm, ccw, Raman Data Processed
Mineral: Magnetite
Rruff sample: R060656
Ideal chemistry: Fe^2+^Fe^3+^_2_O_4_
Locality: Jacupiranga Pegmatite, Sao Paulo State, Brazil
Source: Michael Scott
Description: Black rounded octahedra associated with phlogopite and diopside
Measured chemistry: (Fe^2+^_0.98_Mg_0.01_Mn_0.01_)(Fe^3+^_1.96_Ti_0.02_Mg_0.02_)O_4_
Pin_id: M00920
Orientation: Laser parallel to a* (1 0 0). Fiducial mark perpendicular to laser is parallel to b [0 1 0]
Raman shift (cm-1)	intensity
167.159	0
172.072	213.324
176.982	26.9277
181.89	246.323
186.795	365.348
191.697	642.062
196.597	981.965
201.494	838.426
206.389	201.408
211.281	310.427
216.17	118.583
221.057	41.0205
225.941	32.1445
230.823	97.1406
235.702	49.7969
240.578	62.376
245.452	107.445
250.323	54.4082
255.192	18.8369
260.058	11.2734
264.921	60.29
269.782	181.867
274.64	103.209
279.495	161.034
284.348	419.317
289.198	233.36
294.046	327.123
298.891	482.04
303.733	464.889
308.573	312.301
313.41	532.885
318.245	414.86
323.077	325.278
327.906	334.624
332.733	109.767
337.557	265.527
342.379	70.8154
347.198	59.9853
352.014	151.365
356.828	124.124
361.639	113.544
366.447	11.419
371.253	9.71973
376.056	56.8359
380.857	115.172
385.655	1.6084
390.451	118.545
395.243	122.454
400.034	11.7891
404.821	5.68945
409.606	113.695
414.389	81.29
419.168	32.165
423.945	78.0713
428.72	52.3125
433.492	94.1367
438.261	237.641
443.028	99.8867
447.792	215.731
452.553	288.688
457.312	245.943
462.068	281.38
466.822	296.067
471.573	348.337
476.321	368.228
481.067	480.773
485.81	675.769
490.551	796.996
495.289	832.739
500.024	1092.32
504.757	1029.02
509.487	1297.61
514.214	1494.41
518.939	1844.14
523.661	1861.34
528.381	2071.53
533.098	2432.21
537.812	2638.37
542.524	2704.33
547.233	2876.35
551.94	2822.11
556.644	2643.29
561.345	2590.34
566.044	2331.19
570.74	2022.85
575.433	1856.41
580.124	1263.74
584.812	1017.33
589.498	690.991
594.181	614.573
598.861	695.041
603.539	711.408
608.214	1027.63
612.887	1190.7
617.557	1371.63
622.224	1653.38
626.889	2014.92
631.551	2588.26
636.21	3341.38
640.867	4281.79
645.521	5122.48
650.173	6731.51
654.822	8498.22
659.468	10309.9
664.112	12025
668.753	12487.2
673.392	11977
678.028	10512.9
682.661	9083.95
687.292	7414.47
691.92	5989.44
696.545	4837.54
701.168	3880.34
705.788	3253.54
710.406	2456.76
715.021	2121.31
719.633	1537.34
724.243	1276.63
728.85	1002.21
733.455	761.424
738.056	560.776
742.656	556.297
747.252	462.401
751.846	345.366
756.438	126.281
761.027	16.1328
765.613	83.4746
770.196	82.0791
774.777	40.6172
779.356	3.14453
783.932	101.189
788.505	15.8467
793.075	75.0254
797.643	117.463
802.208	70.4746
806.771	38.7529
811.331	20.8096
815.888	43.081
820.443	4.68457
824.995	21.8301
829.545	29.5801
834.092	37.2178
838.636	8.67773
843.178	76.9336
847.717	61.6143
852.254	53.5117
856.788	89.5762
861.319	2.87891
865.848	75.3174
870.374	178.121
874.897	69.8809
879.418	426.596
883.936	143.673
888.452	180.901
892.965	157.736
897.475	201.79
901.983	239.237
906.488	237.06
910.99	225.258
915.49	220.358
919.988	232.61
924.482	238.097
928.974	336.754
933.464	192.543
937.951	261.411
942.435	207.243
946.917	310.25
951.396	291.207
955.872	230.79
960.346	272.882
964.817	264.459
969.285	271.863
973.751	238.211
978.215	200.144
982.675	112.75
987.134	215.359
991.589	208.635
996.042	295.231
1000.49	264.726
1004.94	479.884
1009.38	363.762
1013.83	320.036
1018.27	232.776
1022.7	241.47
1027.14	291.58
1031.57	222.464
1036	273.522
1040.43	202.877
1044.85	304.164
1049.27	426.876
1053.69	290.81
1058.11	347.496
1062.52	351.928
1066.93	515.627
1071.34	364.453
1075.75	415.338
1080.15	391.429
1084.55	439.438
1088.95	373.915
1093.35	202.483
1097.74	323.082
1102.13	326.493
1106.52	174.434
1110.9	336.251
1115.28	450.098
1119.66	269.826
1124.04	295.337
1128.41	254.657
1132.79	371.786
1137.16	9.43457
1141.52	179.184
1145.89	173.983
1150.25	99.8408
1154.61	120.765
1158.96	85.7383
1163.32	139.738
1167.67	113.783
1172.02	96.8984
1176.36	5.03613
1180.71	153.157
1185.05	121.894
1189.38	104.987
1193.72	41.9072
1198.05	62.7412
1202.38	108.763
1206.71	105.689
1211.04	100.654
1215.36	1.66016
1219.68	51.6934
1224	49.3018
1228.31	169.63
1232.62	80.5957
1236.93	32.501
1241.24	205.308
1245.54	34.0996
1249.84	17.7666
1254.14	86.457
1258.44	67.1953
1262.73	74.9648
1267.03	59.7891
1271.31	113.653
1275.6	64.9648
1279.88	153.899
1284.16	316.875
1288.44	85.8906
1292.72	96.0811
1296.99	230.178
1301.26	98.3164
1305.53	230.23
1309.79	185.685
1314.06	192.105
1318.32	135.382
1322.57	129.275
1326.83	231.684
1331.08	221.539
1335.33	235.03
1339.58	168.198
1343.82	254.783
1348.06	209.549
1352.3	55.0381
1356.54	195.473
1360.77	134.515
1365.01	158.682
1369.23	330.213
1373.46	150.607
1377.68	162.202
1381.9	88.3603
1386.12	76.2607
1390.34	233.698
1394.55	102.971
1398.76	200.619
1402.97	148.38
1407.18	206.484
1411.38	220.477
1415.58	45.6143
1419.78	132.883
1423.97	103.248
1428.17	155.977
1432.36	253.249
1436.54	186.026
1440.73	208.44
1444.91	267.175
1449.09	142.634
1453.27	132.87
1457.44	307.536
1461.61	149.176
1465.78	236.87
1469.95	265.751
1474.11	2.65039
1478.27	53.8535
1482.43	245.953
1486.59	285.455
1490.74	360.5
1494.89	123.019
1499.04	216.493
1503.19	273.166
1507.33	129.45
1511.47	98.9277
1515.61	37.624
1519.75	116.699
1523.88	70.9932
1528.01	96.4111
1532.14	166.219
1536.26	305.551
1540.38	162.512
1544.51	159.887
1548.62	201.648
1552.74	185.732
1556.85	62.581
1560.96	77.4844
1565.07	4.96484
1569.17	202.303
1573.27	68.9121
1577.37	0
