Measurement: Raman, 514 nm, ccw, Raman Data Processed
Mineral: Magnetite
Rruff sample: R060191
Ideal chemistry: Fe^2+^Fe^3+^_2_O_4_
Locality: Merrry Widow mine, Vancouver Island, British Columbia, Canada
Source: Lloyd Twaites
Description: Grayish-black octahedral crystals
Measured chemistry: (Fe^2+^_0.97_Mg_0.03_)(Fe^3+^_0.97_Al_0.03_)_2_O_4_
Pin_id: M01451
Orientation: Laser parallel to -a* (-1 0 0). Fiducial mark perpendicular to laser is parallel to -c [0 0 -1]
Raman shift (cm-1)	intensity
126.529	0
131.464	166.781
136.395	534.305
141.324	526.398
146.251	11.5
151.175	1082.93
156.096	567.484
161.015	509.141
165.931	710.754
170.844	741.051
175.755	540.867
180.663	1153.4
185.569	1274.66
190.472	2343.41
195.373	2824.54
200.27	2616.41
205.166	1328.07
210.058	595.418
214.948	416.926
219.836	239.078
224.721	316.941
229.603	305.969
234.482	47.2812
239.359	226.363
244.234	36.2891
249.106	72.043
253.975	145.953
258.841	2896.65
263.705	66.5508
268.567	242.383
273.425	202.25
278.281	606.574
283.135	524.906
287.986	874.438
292.834	631.664
297.68	790.328
302.523	1148.55
307.363	1274.56
312.201	1006.27
317.037	1084.08
321.869	899.269
326.699	664.719
331.527	667.418
336.351	364.609
341.174	505.918
345.993	359.539
350.81	18.8242
355.625	73.375
360.436	133.871
365.245	0.609375
370.052	4.49219
374.856	12.875
379.657	80.4375
384.456	38.3359
389.252	75.1602
394.045	17.5156
398.836	58.6602
403.625	100.891
408.41	42.5
413.193	47.668
417.974	248.508
422.751	372.465
427.527	495.777
432.299	384.07
437.069	278.113
441.836	147.688
446.601	508.039
451.363	359.223
456.123	423.75
460.88	480.043
465.634	528.281
470.386	462.84
475.135	545.875
479.881	828.113
484.625	1553.44
489.366	1099.92
494.105	1442.12
498.84	1950.55
503.574	2361.25
508.305	2175.25
513.033	2857.32
517.758	3434.9
522.481	3458.58
527.201	4402.28
531.919	5034.5
536.634	5344.8
541.346	5685.52
546.056	6174.83
550.763	6641.41
555.468	6618.21
560.17	5847.16
564.869	6490.02
569.566	5626.03
574.26	5775.66
578.952	4334.55
583.641	2923.5
588.327	2152.32
593.011	2016.41
597.692	1789.96
602.37	2192.95
607.046	2739.29
611.719	3062.93
616.39	3407.85
621.058	4289.98
625.723	4749.26
630.386	5971.63
635.046	7020.82
639.703	8942.13
644.358	11254
649.01	13885.9
653.66	17192.1
658.307	21115.9
662.951	24679.1
667.593	27207.2
672.232	27507
676.869	26424.1
681.503	23560.7
686.134	19998.6
690.763	16345.3
695.389	12872.6
700.013	10336.7
704.633	8280.09
709.252	6758.16
713.867	4936.63
718.48	3774.62
723.091	3137.01
727.698	2275
732.304	1568.78
736.906	1400.32
741.506	1384.72
746.103	593.934
750.698	505.613
755.29	301.938
759.88	356.496
764.467	517.519
769.051	97.0664
773.632	303.969
778.211	13.1445
782.788	6.53906
787.362	147.856
791.933	172.25
796.501	261.328
801.067	14.1367
805.631	214.371
810.191	144.793
814.749	44.4258
819.305	84.6094
823.858	105.785
828.408	135.312
832.956	9.97266
837.501	427.887
842.043	113.289
846.583	187.16
851.12	340.027
855.654	245.422
860.186	5.76172
864.716	318.613
869.242	272.809
873.766	256.43
878.288	632.449
882.807	408
887.323	504.031
891.837	505.578
896.348	610.691
900.856	573.41
905.362	737.789
909.865	682.293
914.366	713.266
918.864	941.988
923.359	771.16
927.852	1064.64
932.342	502.863
936.829	693.172
941.314	704.43
945.796	857.742
950.276	793.695
954.753	736.121
959.228	848.031
963.699	739.723
968.169	706.168
972.635	287.856
977.099	366.191
981.56	671.957
986.019	761.641
990.475	906.102
994.929	723.133
999.38	726.731
1003.83	1014.28
1008.27	938.973
1012.72	894.039
1017.16	809.906
1021.6	1052.42
1026.03	752.117
1030.46	752.582
1034.89	883.137
1039.32	1081.69
1043.74	1143.08
1048.17	1039.26
1052.59	1146.36
1057	1218.03
1061.42	895.516
1065.83	1521.04
1070.24	1109.01
1074.65	1225.63
1079.05	1436.01
1083.45	1669.69
1087.85	1400.35
1092.25	1315.94
1096.64	1291.81
1101.03	1095.61
1105.42	1105.73
1109.8	1113.36
1114.19	1037.46
1118.57	1023.41
1122.95	857.981
1127.32	881.93
1131.69	1113.27
1136.06	730.848
1140.43	851.707
1144.8	193.801
1149.16	458.102
1153.52	387.664
1157.87	13.5469
1162.23	58.5742
1166.58	218.5
1170.93	188.691
1175.28	107.883
1179.62	225.535
1183.96	105.215
1188.3	161.863
1192.64	236.992
1196.97	92.0664
1201.3	42.6445
1205.63	130.793
1209.95	139.555
1214.28	284.965
1218.6	13.1719
1222.92	24.5156
1227.23	193.383
1231.55	20.8203
1235.86	64.418
1240.16	53.1328
1244.47	272.047
1248.77	139.977
1253.07	141.91
1257.37	159.434
1261.66	261.723
1265.95	474.785
1270.24	399.512
1274.53	265.641
1278.81	122.746
1283.09	520.801
1287.37	441.941
1291.65	245.035
1295.92	402.832
1300.19	732.586
1304.46	733.641
1308.73	589.398
1312.99	598.434
1317.25	656.164
1321.51	466.246
1325.77	544.598
1330.02	833.246
1334.27	604.871
1338.52	268.246
1342.76	700.375
1347	464.793
1351.24	507.754
1355.48	620.981
1359.72	284.051
1363.95	456.172
1368.18	189.793
1372.4	120.606
1376.63	277.012
1380.85	295.231
1385.07	388.621
1389.29	182.754
1393.5	263.574
1397.71	549.438
1401.92	471.023
1406.13	26.5039
1410.33	238.106
1414.53	155.141
1418.73	328.637
1422.92	513.106
1427.12	437
1431.31	160.394
1435.5	26.5039
1439.68	321.367
1443.87	487.125
1448.05	125.512
1452.22	385.906
1456.4	248.719
1460.57	549.519
1464.74	258.758
1468.91	168.242
1473.07	390.43
1477.23	534.519
1481.39	459.449
1485.55	541.652
1489.7	232.32
1493.86	147.539
1498.01	122.367
1502.15	202.688
1506.3	406.516
1510.44	292.121
1514.58	289.297
1518.71	302.047
1522.85	40.7422
1526.98	126.504
1531.11	186.996
1535.23	327.715
1539.35	148.625
1543.47	109.402
