Measurement: Raman, 514 nm, ccw, Raman Data Processed
Mineral: Magnesio-hastingsite
Rruff sample: R070288
Ideal chemistry: NaCa_2_(Mg_4_Fe^3+^)Si_6_Al_2_O_22_(OH)_2_
Locality: Dallas Gem Mine (Gem Mine; Benitoite Mine), New Idria District, San Benito County, California, USA
Source: Michael Scott
Description: Dark brown to black prismatic crystals frozen in albite
Measured chemistry: (Na_0.51_[box]_0.33_K_0.16_)_Σ=1_(Ca_1.75_Na_0.25_)_Σ=2_(Mg_3.02_Fe^2+^_0.61_Ti_0.37_)_Σ=4_(Fe^3+^_0.73_Al_0.27_)_Σ=1_Si_5.84_Al_2.16_O_22_(OH)_2_; (OH) estimated by difference
Pin_id: M01310
Orientation: Laser parallel to c* (0 0 1). Fiducial mark perpendicular to laser is parallel to a [1 0 0]
Raman shift (cm-1)	intensity
87.632	0
92.595	493.238
97.554	95.0322
102.511	56.4111
107.465	1133.69
112.417	1030.36
117.365	2854.63
122.311	1762
127.254	755.905
132.195	737.235
137.132	679.268
142.067	811.256
146.999	963.556
151.928	1193.42
156.855	1763.39
161.778	2312.88
166.699	1928.43
171.618	1583.13
176.533	1289.37
181.446	1146.1
186.356	1290.79
191.263	1107.63
196.167	1155.64
201.069	1081.88
205.968	775.769
210.864	750.751
215.757	917.847
220.648	1184.09
225.536	1274
230.421	1325.03
235.304	1760.34
240.183	1805.78
245.06	1658.58
249.934	1324.57
254.806	983.738
259.675	571.386
264.541	198.35
269.404	198.513
274.265	35.7246
279.122	25.0244
283.977	34.1494
288.83	119.777
293.679	140.11
298.526	92.6348
303.371	81.4287
308.212	94.7842
313.051	20.7373
317.887	55.9228
322.72	142.829
327.551	172.75
332.379	236.559
337.204	169.815
342.026	112.454
346.846	256.664
351.663	227.537
356.477	245.264
361.289	441.879
366.098	662.374
370.904	807.745
375.707	1113.99
380.508	1282.08
385.306	1488.98
390.101	1363.68
394.894	1396.18
399.684	1240.49
404.471	1196.53
409.256	1413.29
414.038	1570.75
418.817	1691.44
423.593	1430.64
428.367	1350.69
433.138	991.126
437.907	695.783
442.672	688
447.435	358.453
452.196	260.084
456.953	170.484
461.708	226.449
466.461	279.565
471.21	361.522
475.957	546.032
480.702	630.1
485.443	776.638
490.182	843.94
494.918	994.524
499.652	1335.85
504.383	1578.63
509.111	1736.86
513.837	2116.54
518.56	2330.92
523.28	2430.1
527.997	2581.28
532.712	2665.52
537.425	2780.98
542.134	2753.05
546.841	2654.31
551.545	2748.39
556.247	2752.89
560.946	2606.81
565.642	2655.19
570.336	2512.2
575.027	2133.93
579.715	1602.56
584.401	935.273
589.084	363.785
593.764	239.914
598.442	102.282
603.117	100.573
607.79	145.935
612.459	80.667
617.127	2.82998
621.791	68.1084
626.453	126.062
631.112	480.413
635.769	896.826
640.423	1098.57
645.074	1491.8
649.723	2029.92
654.369	2220.89
659.013	2628.44
663.653	3013.57
668.292	2831.3
672.927	2305.64
677.56	1787.62
682.19	1317.24
686.818	1032.54
691.443	842.514
696.066	766.192
700.686	572.589
705.303	652.724
709.917	729.609
714.529	917.263
719.139	989.535
723.746	1153.4
728.35	1279.86
732.951	1302.22
737.55	1349.45
742.147	1356.71
746.74	1395.43
751.331	1380.36
755.92	1432.18
760.506	1512.76
765.089	1541.3
769.67	1686.44
774.248	1984.52
778.824	2128.84
783.397	2498.4
787.967	2681.24
792.535	2878.37
797.1	2993.8
801.662	2581.56
806.222	2370.67
810.78	1921.13
815.334	1581.98
819.887	1329.22
824.436	1026.86
828.983	997.93
833.528	523.266
838.07	352.952
842.609	220.214
847.146	9.89844
851.68	75.8799
856.211	124.334
860.74	122.686
865.267	87.9189
869.79	11.249
874.312	9.74414
878.83	152.006
883.346	124.481
887.86	188.796
892.371	324.334
896.879	296.893
901.385	378.589
905.889	309.292
910.389	309.64
914.887	175.698
919.383	159.336
923.876	166.602
928.367	148.469
932.854	217.931
937.34	411.056
941.823	280.884
946.303	368.26
950.781	452.19
955.256	688.391
959.728	535.632
964.199	699.907
968.666	662.166
973.131	563.674
977.593	770.656
982.053	897.093
986.511	1028.87
990.966	1153.58
995.418	1432.6
999.868	1508.52
1004.32	1676.67
1008.76	1848.26
1013.2	2031.26
1017.64	2060.74
1022.08	1968.32
1026.51	1632.53
1030.94	1628.09
1035.37	1525.91
1039.8	1363.43
1044.22	1146.29
1048.65	1066.57
1053.07	980.906
1057.48	904.357
1061.9	922.935
1066.31	794.326
1070.72	854.406
1075.13	830.697
1079.53	382.937
1083.93	592.484
1088.33	402.61
1092.73	367.001
1097.12	378.459
1101.51	354.654
1105.9	367.798
1110.29	227.231
1114.67	191.791
1119.06	181.062
1123.43	179.005
1127.81	242.889
1132.18	12.5645
1136.56	6.38574
1140.93	49.3935
1145.29	9.44009
1149.66	44.3154
1154.02	124.169
1158.38	42.6758
1162.73	71.0205
1167.09	9.01855
1171.44	17.0186
1175.79	59.4522
1180.14	137.26
1184.48	29.6367
1188.82	64.4551
1193.16	155.822
1197.5	53.6397
1201.83	135.748
1206.16	164.185
1210.49	83.1553
1214.82	178.621
1219.14	130.112
1223.47	66.2666
1227.79	173.641
1232.1	122.476
1236.42	155.227
1240.73	185.445
1245.04	143.207
1249.35	198.049
1253.65	153.153
1257.95	173.882
1262.25	118.828
1266.55	279.644
1270.84	158.273
1275.13	106.124
1279.42	281.318
1283.71	72.5293
1288	271.827
1292.28	164.355
1296.56	226.529
1300.84	196.94
1305.11	135.785
1309.38	166.006
1313.65	191.617
1317.92	146.97
1322.19	199.612
1326.45	197.005
1330.71	140.599
1334.97	203.827
1339.22	179.922
1343.48	80.792
1347.73	194.942
1351.97	221.147
1356.22	256.347
1360.46	86.0713
1364.7	256.551
1368.94	130.044
1373.18	170.615
1377.41	168.117
1381.64	38.9258
1385.87	37.3301
1390.1	180.938
1394.32	212.958
1398.54	160.834
1402.76	27.1133
1406.98	107.863
1411.19	155.279
1415.4	28.1562
1419.61	6.77344
1423.82	116.7
1428.02	155.481
1432.23	16.2949
1436.42	14.9619
1440.62	13.9854
1444.82	88.0625
1449.01	88.3506
1453.2	23.7275
1457.39	59.4941
1461.57	185.577
1465.75	11.1289
1469.93	15.2207
1474.11	40.3262
1478.29	141.245
1482.46	21.8506
1486.63	120.904
1490.8	105.856
1494.96	44.5176
1499.13	110.871
1503.29	126.962
1507.45	148.275
1511.6	40.2578
1515.76	144.185
1519.91	66.5205
1524.06	89.8984
1528.2	76.709
1532.35	0.267578
1536.49	0.201172
1540.63	87.7148
1544.77	108.97
1548.9	78.7822
1553.03	0.104492
1557.16	54.0156
1561.29	90.082
1565.41	22.9375
1569.54	26.3379
1573.66	121.099
1577.77	0
