Measurement: Raman, 514 nm, ccw, Raman Data Processed
Mineral: Magnetite
Rruff sample: R060656
Ideal chemistry: Fe^2+^Fe^3+^_2_O_4_
Locality: Jacupiranga Pegmatite, Sao Paulo State, Brazil
Source: Michael Scott
Description: Black rounded octahedra associated with phlogopite and diopside
Measured chemistry: (Fe^2+^_0.98_Mg_0.01_Mn_0.01_)(Fe^3+^_1.96_Ti_0.02_Mg_0.02_)O_4_
Pin_id: M00920
Orientation: Laser parallel to a* (1 0 0). Fiducial mark perpendicular to laser is parallel to b [0 1 0]
Raman shift (cm-1)	intensity
165.931	0
170.844	54.04
175.755	36.2353
180.663	131.128
185.569	143.829
190.472	410.696
195.373	670.108
200.27	669.386
205.166	222.085
210.058	50.2734
214.948	53.9082
219.836	62.2881
224.721	40.8198
229.603	68.3838
234.482	37.4165
239.359	33.4492
244.234	36.603
249.106	11.5063
253.975	153.53
258.841	174.369
263.705	175.568
268.567	330.59
273.425	248.262
278.281	419.746
283.135	622.606
287.986	713.23
292.834	978.904
297.68	1022.72
302.523	1126.19
307.363	1084.9
312.201	1132
317.037	1071.07
321.869	964.586
326.699	861.753
331.527	733.196
336.351	592.539
341.174	420.266
345.993	350.44
350.81	372.274
355.625	281.235
360.436	209.369
365.245	246.075
370.052	10.0571
374.856	38.9028
379.657	133.216
384.456	96.7402
389.252	174.739
394.045	35.1265
398.836	97.7856
403.625	25.8931
408.41	11.9326
413.193	115.105
417.974	67.4356
422.751	127.349
427.527	41.8813
432.299	95.0005
437.069	129.296
441.836	105.014
446.601	195.172
451.363	82.8023
456.123	137.902
460.88	52.3652
465.634	209.185
470.386	169.382
475.135	138.983
479.881	323.012
484.625	507.493
489.366	404.446
494.105	474.89
498.84	554.625
503.574	590.955
508.305	508.897
513.033	741.494
517.758	780.441
522.481	957.11
527.201	1045.12
531.919	1108.25
536.634	1307.95
541.346	1304.57
546.056	1368.56
550.763	1435.95
555.468	1456.05
560.17	1501.83
564.869	1422.42
569.566	1390.73
574.26	1323.25
578.952	1066.39
583.641	693.221
588.327	533.738
593.011	478.906
597.692	559.654
602.37	735.018
607.046	837.953
611.719	971.457
616.39	1273.53
621.058	1541.19
625.723	1847.21
630.386	2417.04
635.046	2835.57
639.703	3562.64
644.358	4733.52
649.01	5931.65
653.66	7377.77
658.307	8956.28
662.951	10451.8
667.593	11214.9
672.232	11160.3
676.869	9826.87
681.503	8888.15
686.134	7739.45
690.763	6019.96
695.389	4754.81
700.013	3950.97
704.633	3021.74
709.252	2429.46
713.867	1926.68
718.48	1610.87
723.091	1226.08
727.698	1001.88
732.304	770.239
736.906	684.135
741.506	508.063
746.103	330.374
750.698	294.793
755.29	257.184
759.88	138.794
764.467	126.016
769.051	90.6699
773.632	37.0991
778.211	10.4473
782.788	16.7222
787.362	18.7949
791.933	97.9346
796.501	29.2178
801.067	133.539
805.631	54.6963
810.191	15.6118
814.749	76.8486
819.305	7.59326
823.858	24.834
828.408	14.0781
832.956	11.8433
837.501	45.9702
842.043	22.5415
846.583	5.18945
851.12	99.1685
855.654	136.618
860.186	120.385
864.716	69.4985
869.242	110.018
873.766	65.9985
878.288	84.3872
882.807	39.252
887.323	67.5439
891.837	145.286
896.348	198.521
900.856	136.621
905.362	131.932
909.865	51.3213
914.366	175.62
918.864	217.257
923.359	268.316
927.852	108.034
932.342	274.113
936.829	272.694
941.314	151.498
945.796	298.318
950.276	185.93
954.753	133.557
959.228	110.529
963.699	180.604
968.169	329.185
972.635	191.339
977.099	120.717
981.56	205.244
986.019	189.188
990.475	246.391
994.929	322.119
999.38	220.734
1003.83	252.199
1008.27	272.166
1012.72	215.101
1017.16	214.083
1021.6	324.758
1026.03	202.232
1030.46	168.764
1034.89	163.03
1039.32	234.278
1043.74	220.243
1048.17	305.248
1052.59	273.712
1057	358.599
1061.42	268.68
1065.83	375.849
1070.24	315.672
1074.65	449.646
1079.05	322.222
1083.45	340.585
1087.85	311.622
1092.25	400.55
1096.64	314.404
1101.03	272.873
1105.42	232.513
1109.8	268.96
1114.19	140.5
1118.57	196.883
1122.95	212.509
1127.32	209.255
1131.69	15.0601
1136.06	134.709
1140.43	112.689
1144.8	49.2593
1149.16	6.57715
1153.52	116.063
1157.87	31.9829
1162.23	78.9556
1166.58	29.9609
1170.93	46.9707
1175.28	9.0293
1179.62	74.9644
1183.96	11.0361
1188.3	16.9023
1192.64	48.8154
1196.97	50.7261
1201.3	8.59473
1205.63	48.4546
1209.95	36.2964
1214.28	82.0962
1218.6	58.1211
1222.92	148.476
1227.23	18.0117
1231.55	20.7822
1235.86	98.6606
1240.16	75.395
1244.47	23.2964
1248.77	84.2876
1253.07	110.001
1257.37	117.996
1261.66	20.2964
1265.95	130.571
1270.24	52.8247
1274.53	111.064
1278.81	221.933
1283.09	7.7915
1287.37	104.089
1291.65	174.382
1295.92	108.386
1300.19	165.607
1304.46	112.429
1308.73	166.205
1312.99	100.129
1317.25	167.998
1321.51	81.8247
1325.77	150.296
1330.02	238.714
1334.27	28.5669
1338.52	74.5312
1342.76	106.664
1347	27.4477
1351.24	37.0493
1355.48	196.821
1359.72	142.504
1363.95	209.222
1368.18	155.099
1372.4	83.3521
1376.63	132.382
1380.85	152.736
1385.07	133.856
1389.29	92.8227
1393.5	147.234
1397.71	52.4087
1401.92	104.775
1406.13	135.139
1410.33	72.3774
1414.53	114.838
1418.73	145.005
1422.92	93.2334
1427.12	126.543
1431.31	24.7119
1435.5	38.083
1439.68	60.1597
1443.87	86.9644
1448.05	117.644
1452.22	195.124
1456.4	139.189
1460.57	28.8525
1464.74	120.689
1468.91	75.3555
1473.07	128.592
1477.23	86.9976
1481.39	226.56
1485.55	9.23145
1489.7	151.052
1493.86	151.236
1498.01	64.9273
1502.15	104.376
1506.3	141.477
1510.44	149.766
1514.58	103.175
1518.71	72.6685
1522.85	75.5181
1526.98	8.89893
1531.11	85.7891
1535.23	8.21777
1539.35	7.20166
1543.47	18.7441
1547.59	103.806
1551.71	111.403
1555.82	140.26
1559.93	44.9751
1564.04	136.018
1568.14	132.097
1572.25	108.529
1576.35	87.8648
