Measurement: Raman, 514 nm, ccw, Raman Data Processed
Mineral: Magnesio-hastingsite
Rruff sample: R070288
Ideal chemistry: NaCa_2_(Mg_4_Fe^3+^)Si_6_Al_2_O_22_(OH)_2_
Locality: Dallas Gem Mine (Gem Mine; Benitoite Mine), New Idria District, San Benito County, California, USA
Source: Michael Scott
Description: Dark brown to black prismatic crystals frozen in albite
Measured chemistry: (Na_0.51_[box]_0.33_K_0.16_)_Σ=1_(Ca_1.75_Na_0.25_)_Σ=2_(Mg_3.02_Fe^2+^_0.61_Ti_0.37_)_Σ=4_(Fe^3+^_0.73_Al_0.27_)_Σ=1_Si_5.84_Al_2.16_O_22_(OH)_2_; (OH) estimated by difference
Pin_id: M00823
Orientation: Laser parallel to -b* (0 -1 0). Fiducial mark perpendicular to laser is parallel to c [0 0 1]
Raman shift (cm-1)	intensity
103.52	0
108.441	992.516
113.359	2214.98
118.275	3476.1
123.189	2476.37
128.101	348.494
133.01	13.1309
137.918	87.3672
142.823	525.213
147.726	1522.48
152.627	4002.35
157.525	7331.6
162.422	8078.57
167.316	5484.27
172.208	3585.03
177.097	3650.47
181.985	3159.73
186.87	3156.22
191.753	2780.01
196.633	2453.15
201.512	2807.24
206.388	3125.72
211.262	4562.49
216.134	7066.61
221.003	10419.5
225.87	11791.4
230.735	8503.91
235.598	5042.68
240.458	2906.71
245.316	1928.7
250.172	1210.34
255.026	849.199
259.877	314.525
264.726	23.8359
269.573	135.857
274.417	53.8496
279.259	113.33
284.099	276.357
288.937	404.668
293.772	722.725
298.605	1167.21
303.436	1254.94
308.264	1299.71
313.09	1393.33
317.914	1524.74
322.735	1446.85
327.554	1292.19
332.371	1271.71
337.185	946.861
341.997	1026.19
346.807	802.863
351.615	506.029
356.42	398.643
361.222	867.314
366.023	684.896
370.821	1190.19
375.617	1119.9
380.41	1137.6
385.201	1487.54
389.99	1373.33
394.776	1191.62
399.56	1114.66
404.342	1302.59
409.121	1221.92
413.898	1450.18
418.672	1524.52
423.444	1389.62
428.214	1466.99
432.981	1580.44
437.746	1535.05
442.509	1506.81
447.269	1288.88
452.027	1082.76
456.782	866.213
461.535	367.551
466.286	111.115
471.034	320.094
475.78	233.486
480.523	276.44
485.265	97.2519
490.003	224.574
494.739	564.539
499.473	576.164
504.204	880.934
508.933	1090.03
513.66	1665.37
518.384	2233.59
523.106	2835.42
527.825	3922.56
532.542	4070.9
537.256	4031.55
541.968	4044.53
546.677	4104.83
551.384	4060.44
556.089	3725.38
560.791	3655.67
565.491	3688.31
570.188	3322.29
574.883	2684.59
579.575	1803.25
584.265	639.252
588.952	531.646
593.637	213.435
598.32	77.0254
603	469.152
607.677	623.277
612.352	1048.24
617.025	1226.01
621.695	1630.04
626.363	2224.94
631.028	3594.05
635.691	5151.54
640.351	6931.88
645.008	8779.08
649.664	10550.1
654.316	11844.1
658.966	13107
663.614	13456.8
668.259	12082.5
672.902	9242.19
677.542	6931.87
682.18	5906.81
686.815	5096.61
691.448	4708.93
696.078	2846.69
700.705	1701.51
705.33	886.418
709.953	641.422
714.573	246.543
719.19	249.279
723.805	82.6875
728.418	422.824
733.028	96.7148
737.635	78.5547
742.24	100.779
746.842	60.9844
751.442	205.535
756.039	298.408
760.634	143.039
765.226	210.576
769.815	312.961
774.402	629.658
778.987	847.631
783.569	1704.9
788.148	1522.46
792.725	1925.33
797.299	2222.51
801.871	2227.02
806.44	1895.86
811.006	1880.02
815.57	2015.54
820.131	1962.39
824.69	1996.59
829.246	1860.14
833.8	1386.05
838.351	963.316
842.899	829.938
847.445	440.918
851.988	5.34766
856.529	476.008
861.067	134.852
865.603	119.617
870.135	151.789
874.666	97.3438
879.193	159.211
883.718	595.836
888.241	847.934
892.761	939.609
897.278	1184.19
901.792	1583.98
906.304	1961.21
910.814	1700.05
915.321	1912.46
919.825	2002.29
924.326	1777.45
928.825	1718.9
933.322	1908.5
937.815	1733.79
942.306	1523.01
946.795	1810.54
951.28	1826.31
955.763	1878.27
960.244	2014.41
964.722	1950.71
969.197	2228.12
973.67	2247.62
978.139	2481.22
982.607	2670.83
987.071	3165.39
991.533	3334.8
995.993	3857.44
1000.45	4565.52
1004.9	5578.81
1009.36	6138.46
1013.8	6459.53
1018.25	6023.03
1022.69	5710.21
1027.13	5161.65
1031.57	5005.67
1036.01	4460.14
1040.44	4236
1044.87	3709.36
1049.3	3194.93
1053.72	3221.78
1058.14	2699.01
1062.56	2249.68
1066.98	1925.86
1071.39	1581.26
1075.8	1399.84
1080.21	1321.71
1084.62	1162.46
1089.02	992.758
1093.42	891.191
1097.82	615.18
1102.21	554.754
1106.61	414.652
1111	386.871
1115.38	142.453
1119.77	156.074
1124.15	311.184
1128.53	303.977
1132.9	48.2344
1137.28	31.957
1141.65	40.2422
1146.02	1.49219
1150.38	112.16
1154.74	14.2852
1159.11	163.394
1163.46	34.3594
1167.82	53.1523
1172.17	24.832
1176.52	60.7695
1180.86	31.4727
1185.21	99.0156
1189.55	133.25
1193.89	108.195
1198.22	182.262
1202.55	47.5156
1206.88	316.074
1211.21	325.359
1215.54	451.203
1219.86	207.953
1224.18	310.574
1228.49	301.457
1232.81	662.926
1237.12	557.789
1241.42	389.707
1245.73	215.25
1250.03	408.027
1254.33	470.422
1258.63	308.445
1262.92	475.434
1267.21	421.516
1271.5	396.523
1275.79	352.051
1280.07	362.133
1284.35	379.586
1288.63	285.918
1292.9	554.762
1297.17	464.57
1301.44	443.969
1305.71	321.328
1309.97	453.176
1314.23	287.555
1318.49	767.012
1322.75	201.731
1327	181.57
1331.25	249.477
1335.5	110.434
1339.74	245.051
1343.98	326.488
1348.22	165.031
1352.46	113.496
1356.69	304.715
1360.92	377.75
1365.15	351.441
1369.37	258.906
1373.6	69.6094
1377.82	358.164
1382.03	583.41
1386.24	427.309
1390.45	442.031
1394.66	402.457
1398.87	126.246
1403.07	299.742
1407.27	71.0859
1411.47	314.617
1415.66	329.219
1419.85	70.6875
1424.04	236.754
1428.22	43.5234
1432.41	375.43
1436.59	372.496
1440.76	369.984
1444.94	420.594
1449.11	378.965
1453.28	418.461
1457.44	325.656
1461.61	462.41
1465.77	583.844
1469.92	137.43
1474.08	163.32
1478.23	143.219
1482.38	102.285
1486.52	285.731
1490.67	223.84
1494.81	126.543
1498.94	473.797
1503.08	328.301
1507.21	353.664
1511.34	324.629
1515.46	426.137
1519.59	153.781
1523.71	356.719
1527.83	167.519
1531.94	149.242
1536.05	240.602
1540.16	451.805
1544.27	339.59
1548.37	396.418
1552.47	400.762
1556.57	511.676
1560.66	446.641
1564.75	299.566
1568.84	31.3359
1572.93	255.523
1577.01	0
