Measurement: Raman, 514 nm, ccw, Raman Data Processed
Mineral: Magnesio-hastingsite
Rruff sample: R070288
Ideal chemistry: NaCa_2_(Mg_4_Fe^3+^)Si_6_Al_2_O_22_(OH)_2_
Locality: Dallas Gem Mine (Gem Mine; Benitoite Mine), New Idria District, San Benito County, California, USA
Source: Michael Scott
Description: Dark brown to black prismatic crystals frozen in albite
Measured chemistry: (Na_0.51_[box]_0.33_K_0.16_)_Σ=1_(Ca_1.75_Na_0.25_)_Σ=2_(Mg_3.02_Fe^2+^_0.61_Ti_0.37_)_Σ=4_(Fe^3+^_0.73_Al_0.27_)_Σ=1_Si_5.84_Al_2.16_O_22_(OH)_2_; (OH) estimated by difference
Pin_id: M01097
Orientation: Laser parallel to a* (1 0 0). Fiducial mark perpendicular to laser is parallel to b [0 1 0]
Raman shift (cm-1)	intensity
102.511	0
107.465	917.716
112.417	1373.77
117.365	2736.78
122.311	1884.44
127.254	303.454
132.195	235.046
137.132	484.478
142.067	671.882
146.999	930.128
151.928	1272.32
156.855	2351.5
161.778	2947.56
166.699	2117.41
171.618	1556.28
176.533	1324.79
181.446	1267.75
186.356	1361.06
191.263	1507.1
196.167	1432.83
201.069	1143.85
205.968	685.933
210.864	719.509
215.757	953.161
220.648	1297.39
225.536	1351.12
230.421	1647.99
235.304	1994.8
240.183	2043.06
245.06	1764.79
249.934	1145.96
254.806	729.379
259.675	306.516
264.541	76.9658
269.404	42.6494
274.265	172.956
279.122	182.016
283.977	21.71
288.83	120.435
293.679	67.6221
298.526	65.3164
303.371	19.292
308.212	10.3574
313.051	53.5908
317.887	79.8447
322.72	215.828
327.551	250.144
332.379	161.405
337.204	261.511
342.026	227.083
346.846	253.329
351.663	234.9
356.477	407.97
361.289	584.177
366.098	835.676
370.904	1049.47
375.707	1460.6
380.508	1926.1
385.306	2281.01
390.101	1904.3
394.894	1758.97
399.684	1699.06
404.471	2014.37
409.256	2182.81
414.038	2378.32
418.817	2473.12
423.593	2005.52
428.367	1825.45
433.138	1402.37
437.907	1120
442.672	912.47
447.435	732.413
452.196	612.641
456.953	455.627
461.708	496.804
466.461	455.959
471.21	631.252
475.957	675.436
480.702	965.487
485.443	1193.83
490.182	1374.73
494.918	1794.81
499.652	2152.74
504.383	2630.24
509.111	2940.18
513.837	3400.72
518.56	3894.89
523.28	4275.98
527.997	4430.79
532.712	4426.67
537.425	4545.6
542.134	4584.39
546.841	4683.75
551.545	4481.86
556.247	4508.06
560.946	4513.69
565.642	4505.18
570.336	4316.54
575.027	3504.56
579.715	2541.5
584.401	1437.42
589.084	672.065
593.764	250.461
598.442	12.8242
603.117	173.077
607.79	163.268
612.459	212.716
617.127	106.105
621.791	64.4785
626.453	218.947
631.112	539.017
635.769	1018.49
640.423	1432.36
645.074	1901.63
649.723	2322.34
654.369	2747.49
659.013	3201.13
663.653	3239.26
668.292	3102.92
672.927	2239.14
677.56	1923.94
682.19	1499.31
686.818	1222.22
691.443	915.406
696.066	766.307
700.686	708.101
705.303	660.776
709.917	787.465
714.529	1079.63
719.139	1434.92
723.746	1557.96
728.35	1774.65
732.951	1950.07
737.55	2076.52
742.147	2037.52
746.74	1912.5
751.331	1983.98
755.92	2026.96
760.506	2069
765.089	2262.09
769.67	2560.99
774.248	2802.42
778.824	3051.16
783.397	3530.3
787.967	4012.08
792.535	3876.88
797.1	3919.38
801.662	3590.39
806.222	3206.94
810.78	2829.04
815.334	2492.72
819.887	2052.99
824.436	1566.89
828.983	1199.44
833.528	813.641
838.07	500.524
842.609	250.102
847.146	71.3926
851.68	59.6074
856.211	123.18
860.74	114.594
865.267	103.738
869.79	25.6172
874.312	69.9629
878.83	158.662
883.346	227.801
887.86	399.09
892.371	425.402
896.879	522.479
901.385	469.87
905.889	490.197
910.389	318.535
914.887	470.751
919.383	244.677
923.876	258.042
928.367	235.059
932.854	181.312
937.34	468.433
941.823	603.444
946.303	571.304
950.781	712.133
955.256	816.843
959.728	827.332
964.199	931.503
968.666	900.651
973.131	899.437
977.593	1028.95
982.053	1063.16
986.511	1302.09
990.966	1523.59
995.418	1807.34
999.868	2102.61
1004.32	2310.33
1008.76	2479.13
1013.2	2616.11
1017.64	2519.4
1022.08	2362.31
1026.51	2230.62
1030.94	2078.61
1035.37	1994.39
1039.8	1727.74
1044.22	1598.79
1048.65	1390.62
1053.07	1398.31
1057.48	1246.23
1061.9	1119.46
1066.31	1040.93
1070.72	1068.92
1075.13	982.409
1079.53	926.334
1083.93	904.354
1088.33	752.177
1092.73	679.338
1097.12	580.682
1101.51	418.663
1105.9	409.97
1110.29	189.738
1114.67	134.685
1119.06	199.481
1123.43	88.1904
1127.81	39.0781
1132.18	213.275
1136.56	40.8193
1140.93	151.778
1145.29	1.66797
1149.66	4.49707
1154.02	30.3584
1158.38	27.8906
1162.73	5.31152
1167.09	92.9111
1171.44	45.1523
1175.79	51.2353
1180.14	50.541
1184.48	43.8057
1188.82	43.084
1193.16	18.8984
1197.5	40.4219
1201.83	139.486
1206.16	152.603
1210.49	5.16504
1214.82	120.386
1219.14	170.871
1223.47	86.7197
1227.79	117.494
1232.1	142.914
1236.42	246.069
1240.73	263.492
1245.04	301.131
1249.35	206.353
1253.65	304.212
1257.95	191.005
1262.25	232.285
1266.55	239.533
1270.84	221.379
1275.13	278.676
1279.42	173.831
1283.71	158.566
1288	238.672
1292.28	256.495
1296.56	184.11
1300.84	184.362
1305.11	212.645
1309.38	185.957
1313.65	155.376
1317.92	8.90039
1322.19	106.514
1326.45	243.716
1330.71	216.601
1334.97	92.5498
1339.22	70.4502
1343.48	238.837
1347.73	229.927
1351.97	186.133
1356.22	233.839
1360.46	237.46
1364.7	97.5742
1368.94	227.425
1373.18	172.793
1377.41	15.3486
1381.64	175.121
1385.87	201.965
1390.1	66.5
1394.32	126.5
1398.54	63.1504
1402.76	26.4277
1406.98	22.7217
1411.19	136.246
1415.4	52.5117
1419.61	134.394
1423.82	88.7686
1428.02	160.324
1432.23	30.3447
1436.42	274.442
1440.62	135.961
1444.82	228.441
1449.01	114.381
1453.2	189.019
1457.39	231.004
1461.57	187.06
1465.75	189.474
1469.93	333.881
1474.11	155.223
1478.29	96.5361
1482.46	94.8564
1486.63	154.585
1490.8	223.137
1494.96	137.408
1499.13	204.565
1503.29	165.116
1507.45	62.4717
1511.6	73.5557
1515.76	110.83
1519.91	54.2705
1524.06	224.829
1528.2	68.625
1532.35	81.4482
1536.49	126.369
1540.63	175.292
1544.77	153.699
1548.9	14.8398
1553.03	20.4355
1557.16	229.602
1561.29	252.778
1565.41	318.102
1569.54	74.3135
1573.66	257.427
1577.77	0
