Measurement: Raman, 514 nm, ccw, Raman Data Processed
Mineral: Magnesite
Rruff sample: R050676
Ideal chemistry: MgCO_3_
Locality: Tyrol, Austria
Source: University of Arizona Mineral Museum
Description: Brown rhombohedral crystals
Measured chemistry: (Mg_0.87_Fe^2+^_0.12_Ca_0.01_)_Î£=1_CO_3_; trace amounts of Mn and Cd; CO_2_ estimated by difference
Pin_id: M01410
Orientation: Laser parallel to c* (0 0 1). Fiducial mark perpendicular to laser is parallel to a [1 0 0]
Raman shift (cm-1)	intensity
61.079	0
66.041	524.689
71.001	1099.65
75.957	1223.53
80.912	1309.93
85.863	642.155
90.812	59.0391
95.759	107.779
100.703	15.0068
105.644	353.417
110.583	403.658
115.52	703.994
120.453	1321.56
125.385	141.504
130.313	56.0752
135.239	110.716
140.163	21.3438
145.084	71.7871
150.002	54.1582
154.918	41.748
159.832	186.602
164.742	289.858
169.651	303.321
174.556	374.524
179.459	373.783
184.36	497.706
189.258	938.024
194.153	1552.03
199.046	3174.7
203.936	6506.14
208.824	12483.2
213.709	8340.76
218.592	2139.59
223.472	355.56
228.349	209.323
233.224	37.9668
238.096	48.2617
242.966	190.385
247.833	100.431
252.698	86.7476
257.56	19.1333
262.419	105.297
267.276	36.6167
272.13	117.374
276.982	14.1602
281.831	138.763
286.677	76.5117
291.521	9.91357
296.363	215.019
301.202	293.793
306.038	341.121
310.872	717.237
315.703	1905.57
320.531	4824.59
325.357	9068.82
330.181	5548.94
335.001	1807.28
339.82	891.719
344.635	481.445
349.448	324.461
354.259	261.697
359.067	343.474
363.872	309.653
368.675	330.29
373.475	392.889
378.272	381.291
383.067	336.185
387.86	289.07
392.649	120.469
397.437	167.059
402.221	146.514
407.003	37.9307
411.783	130.725
416.56	74.2959
421.334	7.89356
426.106	57.6836
430.875	60.7871
435.641	2.29394
440.405	11.8066
445.167	31.792
449.925	49.9121
454.681	69.1894
459.435	24.1719
464.186	259.769
468.934	161.962
473.68	146.815
478.423	318.493
483.164	332.581
487.902	535.939
492.637	613.571
497.37	653.078
502.1	804.59
506.828	786.314
511.553	792.17
516.276	826.243
520.995	805.814
525.713	629.274
530.427	489.731
535.139	583.786
539.849	536.297
544.556	525.339
549.26	330.581
553.962	373.807
558.661	371.44
563.357	386.159
568.051	148.529
572.742	203.212
577.431	219.339
582.117	88.0615
586.801	156.49
591.481	120.19
596.16	22.8682
600.835	58.5615
605.508	36.8105
610.179	54.4766
614.847	7.45801
619.512	15.8809
624.175	129.752
628.835	73.0889
633.492	64.8643
638.147	0.112305
642.799	134.836
647.449	275.845
652.096	258.227
656.74	172.68
661.382	258.883
666.021	263.157
670.658	343.688
675.292	336.805
679.923	439.752
684.552	525.854
689.178	626.705
693.802	611.438
698.423	700.359
703.041	1000.55
707.657	1208.99
712.27	1801.23
716.881	2594.97
721.489	3979.96
726.094	6300.76
730.697	10096
735.297	14521.6
739.894	15012.3
744.489	10042
749.081	5639.67
753.671	2995.71
758.258	1392.54
762.842	551.91
767.424	128.296
772.003	9.7002
776.58	133.466
781.154	124.607
785.725	92.7695
790.294	25.4199
794.86	115.973
799.424	44.5322
803.985	144.088
808.543	39.1299
813.099	81.5644
817.652	2.70898
822.202	167.6
826.75	31.252
831.295	138.91
835.838	32.8545
840.378	80.8086
844.915	70.0596
849.45	55.6387
853.982	98.1387
858.512	143.45
863.039	135.309
867.563	192.443
872.085	369.528
876.604	673.712
881.12	438.64
885.634	208.484
890.145	167.905
894.654	132.594
899.16	132.972
903.663	21.8516
908.164	61.8945
912.662	172.774
917.158	128.77
921.651	30.9355
926.141	112.028
930.628	19.4902
935.113	66.9141
939.596	177.707
944.076	157.179
948.553	242.951
953.027	144.064
957.499	416.856
961.969	1759.03
966.435	1105.41
970.899	307.809
975.361	218.19
979.82	154.421
984.276	184.435
988.73	200.868
993.181	22.501
997.629	140.256
1002.08	12.3984
1006.52	206.119
1010.96	9.14355
1015.4	26.5332
1019.83	64.1191
1024.26	13.8877
1028.69	367.413
1033.12	631.443
1037.55	906.115
1041.97	1306.56
1046.39	1873
1050.81	2593.86
1055.22	3546.68
1059.63	4994.78
1064.04	7446.85
1068.45	11444.1
1072.85	18586.8
1077.25	31068.3
1081.65	56923.9
1086.05	112673
1090.44	210827
1094.83	266153
1099.22	191034
1103.6	102625
1107.99	49373.1
1112.37	23980.7
1116.74	12693.6
1121.12	7136.98
1125.49	4564.73
1129.86	3104.82
1134.23	2224.49
1138.59	1718.12
1142.95	1786.51
1147.31	844.921
1151.67	718.61
1156.02	493.665
1160.38	338.909
1164.72	321.544
1169.07	196.477
1173.41	113.673
1177.75	262.11
1182.09	106.856
1186.43	84.749
1190.76	245.91
1195.09	103.296
1199.42	307.917
1203.74	4.40527
1208.07	135.764
1212.39	21.2705
1216.7	45.6191
1221.02	144.591
1225.33	105.959
1229.64	296.411
1233.95	48.1035
1238.25	92.4932
1242.55	113.693
1246.85	26.3203
1251.15	184.759
1255.44	248.433
1259.73	364.505
1264.02	164.832
1268.31	214.907
1272.59	182.312
1276.87	236.576
1281.15	147.39
1285.42	395.137
1289.69	275.24
1293.96	249.416
1298.23	281.455
1302.5	297.662
1306.76	444.779
1311.02	250.047
1315.27	303.465
1319.53	413.519
1323.78	435.666
1328.03	443.283
1332.28	231.027
1336.52	232.428
1340.76	415.853
1345	465.644
1349.23	242.922
1353.47	169.688
1357.7	342.9
1361.93	190.684
1366.15	282.467
1370.37	141.56
1374.59	301.803
1378.81	61.6855
1383.03	113.227
1387.24	182.512
1391.45	85.25
1395.65	62.7246
1399.86	88.5
1404.06	99.7949
1408.26	357.147
1412.46	78.2656
1416.65	85.9062
1420.84	77.9082
1425.03	245.947
1429.22	315.305
1433.4	749.381
1437.58	1477.96
1441.76	2636.33
1445.93	3048.23
1450.11	2224.87
1454.28	1481.71
1458.44	1394.97
1462.61	1028.02
1466.77	1183.87
1470.93	1045.57
1475.09	933.639
1479.24	848.318
1483.39	941.127
1487.54	727.281
1491.69	677.09
1495.84	491.809
1499.98	239.828
1504.12	342.338
1508.25	160.559
1512.38	304.129
1516.52	214.996
1520.64	271.486
1524.77	198.885
1528.89	234.916
1533.01	165.344
1537.13	231.168
1541.25	205.367
1545.36	279.519
1549.47	141.744
1553.58	221.106
1557.68	120.742
1561.78	326.404
1565.88	96.8125
1569.98	60.2383
1574.07	47.6016
