Measurement: Raman, 514 nm, ccw, Raman Data Processed
Mineral: Magnesiochromite
Rruff sample: R060796
Ideal chemistry: MgCr^3+^_2_O_4_
Locality: State Line Chrome mine (Low's mine), Cecil County, Maryland, USA
Source: California Institute of Technology
Description: Black massive
Measured chemistry: (Mg_0.57_Fe^2+^_0.43_)_Σ=1_(Cr_1.52_Al_0.41_Fe^3+^_0.07_)_Σ=2_O_4_
Pin_id: L00965
Orientation: Laser parallel to b* (0 1 0). Fiducial mark perpendicular to laser is parallel to c [0 0 1]
Raman shift (cm-1)	intensity
131.492	0
136.423	230.575
141.352	198.178
146.277	132.608
151.2	356.408
156.121	368.452
161.038	397.43
165.953	521.56
170.865	546.173
175.774	598.394
180.681	471.387
185.585	458.623
190.486	796.525
195.384	1017.47
200.28	981.914
205.173	589.323
210.063	543.737
214.95	548.917
219.835	620.872
224.717	723.188
229.597	658.166
234.473	674.028
239.347	641.86
244.218	735.169
249.087	613.631
253.953	655.798
258.816	556.934
263.676	428.205
268.534	341.384
273.389	388.682
278.241	297.427
283.091	147.54
287.938	167.179
292.782	105.252
297.623	143.176
302.462	4.28613
307.298	5.39258
312.131	8.92188
316.962	75.2148
321.79	4.6084
326.615	5.85449
331.438	56.625
336.258	253.295
341.075	93.3809
345.889	53.3457
350.701	125.144
355.51	79.8369
360.317	71.4736
365.12	65.166
369.921	19.9033
374.72	23.4863
379.515	29.3975
384.309	102.774
389.099	27.0625
393.886	73.8906
398.671	128.739
403.454	52.291
408.233	168.336
413.01	113.176
417.785	156.95
422.556	95.1201
427.325	109.638
432.091	140.018
436.855	229.849
441.616	294.098
446.374	333.231
451.13	420.821
455.883	514.512
460.633	707.585
465.38	695.81
470.125	892.18
474.868	1036.84
479.607	1295.6
484.344	1420.7
489.078	1347.59
493.81	1382.93
498.539	1733.37
503.265	2061.81
507.989	2330.19
512.71	2949.9
517.428	3592.23
522.144	4459.25
526.857	5467.78
531.567	6590.22
536.275	7501.23
540.98	9166.44
545.683	10263.9
550.383	10937.6
555.08	11653.7
559.774	12097.2
564.466	12103.1
569.155	12240.7
573.842	11793.9
578.526	10554.6
583.207	8833.85
587.886	7055.8
592.562	6100.55
597.235	5752.08
601.906	5150.44
606.574	4256.67
611.24	3673.79
615.903	2661.39
620.563	2110.96
625.221	2049.55
629.876	2751.9
634.528	4109.06
639.178	5608.94
643.825	6675.21
648.47	6959.19
653.112	7079.61
657.751	7310.24
662.388	8233.01
667.022	9297.17
671.653	11002.3
676.282	13290.9
680.908	16281.5
685.532	18725.5
690.153	20558.5
694.771	20873.1
699.387	18918.7
704	15780.9
708.61	12488.1
713.218	9659.21
717.824	7113.7
722.426	5249.09
727.026	3899.3
731.624	2955.18
736.219	2367.68
740.811	1759.56
745.401	1227.27
749.988	785.537
754.572	694.574
759.154	425.331
763.734	350.61
768.31	152.314
772.884	68.7129
777.456	14.2539
782.025	4.55371
786.591	98.9981
791.155	23.7402
795.716	47.6387
800.275	26.5332
804.831	116.689
809.384	36.709
813.935	47.2217
818.483	7.39356
823.029	116.209
827.572	98.3584
832.112	38.8057
836.65	31.8027
841.186	52.6611
845.718	12.1714
850.249	131.635
854.776	58.4019
859.301	111.98
863.824	126.123
868.344	239.542
872.861	193.739
877.376	191.671
881.888	153.474
886.397	179.591
890.904	232.105
895.409	157.898
899.911	342.794
904.41	219.391
908.907	293.198
913.401	400.429
917.893	245.186
922.382	282.763
926.869	237.608
931.353	264.141
935.834	317.09
940.313	176.112
944.789	231.242
949.263	241.745
953.734	204.576
958.203	273.673
962.669	96.4585
967.133	219.459
971.594	57.1226
976.052	65.5801
980.508	110.768
984.961	13.9727
989.412	90.8716
993.861	2.47754
998.306	5.28369
1002.75	135.041
1007.19	32.1929
1011.63	65.5523
1016.06	50.0855
1020.5	97.8354
1024.93	117.102
1029.36	100.585
1033.78	25.1323
1038.2	132.029
1042.62	167.471
1047.04	210.276
1051.46	64.5625
1055.87	75.5708
1060.28	261.522
1064.69	224.099
1069.09	220.022
1073.5	235.156
1077.9	230.296
1082.29	376.678
1086.69	419.086
1091.08	321.333
1095.47	468.217
1099.86	527.677
1104.24	505.577
1108.63	612.755
1113.01	674.514
1117.38	892.116
1121.76	681.148
1126.13	672.801
1130.5	609.826
1134.87	711.292
1139.23	534.841
1143.6	470.836
1147.96	445.888
1152.32	512.262
1156.67	480.489
1161.02	321.817
1165.37	382.409
1169.72	524.519
1174.07	392.172
1178.41	265.357
1182.75	203.139
1187.08	226.417
1191.42	262.551
1195.75	84.2022
1200.08	183.574
1204.41	64.7461
1208.73	150.435
1213.06	102.839
1217.38	114.924
1221.69	65.665
1226.01	116.1
1230.32	137.206
1234.63	99.9658
1238.94	37.5938
1243.24	68.501
1247.55	77.2959
1251.85	76.8398
1256.14	9.17871
1260.44	13.8975
1264.73	104.912
1269.02	61.419
1273.31	99.583
1277.6	82.4014
1281.88	221.826
1286.16	68.1816
1290.44	93.2852
1294.71	209.833
1298.98	228.293
1303.26	271.472
1307.52	162.566
1311.79	176.128
1316.05	128.047
1320.31	130.458
1324.57	99.3535
1328.83	108.042
1333.08	95.8818
1337.33	113.331
1341.58	137.409
1345.82	210.986
1350.07	185.662
1354.31	179.053
1358.55	201.936
1362.78	179.22
1367.02	215.666
1371.25	154.894
1375.48	329.916
1379.7	203.793
1383.92	299.592
1388.15	283.41
1392.37	293.037
1396.58	272.31
1400.8	207.442
1405.01	301.91
1409.22	149.79
1413.42	217.14
1417.63	259.188
1421.83	249.109
1426.03	157.198
1430.22	121.102
1434.42	161.803
1438.61	111.186
1442.8	175.108
1446.99	100.755
1451.17	27.8061
1455.35	56.2915
1459.53	29.6401
1463.71	40.1035
1467.89	47.8857
1472.06	24.3716
1476.23	101.005
1480.4	80.915
1484.56	7.69775
1488.72	91.2314
1492.88	115.921
1497.04	148.784
1501.2	33.8003
1505.35	21.9229
1509.5	4.61475
1513.65	122.042
1517.8	35.708
1521.94	77.6929
1526.08	109.19
1530.22	111.814
1534.36	219.6
1538.49	195.644
1542.62	177.135
1546.75	191.586
1550.88	176.74
1555	85.9692
1559.12	180.566
1563.24	198.724
1567.36	230.402
1571.47	144.475
1575.58	71.0786
