Measurement: Raman, 514 nm, ccw, Raman Data Processed
Mineral: Magnesio-hastingsite
Rruff sample: R070288
Ideal chemistry: NaCa_2_(Mg_4_Fe^3+^)Si_6_Al_2_O_22_(OH)_2_
Locality: Dallas Gem Mine (Gem Mine; Benitoite Mine), New Idria District, San Benito County, California, USA
Source: Michael Scott
Description: Dark brown to black prismatic crystals frozen in albite
Measured chemistry: (Na_0.51_[box]_0.33_K_0.16_)_Σ=1_(Ca_1.75_Na_0.25_)_Σ=2_(Mg_3.02_Fe^2+^_0.61_Ti_0.37_)_Σ=4_(Fe^3+^_0.73_Al_0.27_)_Σ=1_Si_5.84_Al_2.16_O_22_(OH)_2_; (OH) estimated by difference
Pin_id: M01712
Orientation: Laser parallel to (1 0 1). Fiducial mark perpendicular to laser is parallel to b [0 1 0]
Raman shift (cm-1)	intensity
127.763	0
132.697	250.996
137.628	435.265
142.556	387.42
147.482	434.098
152.405	406.191
157.326	1072.9
162.244	1651.42
167.159	1187.46
172.072	962.938
176.982	866.992
181.89	1026.65
186.795	1286.35
191.697	1223.44
196.597	1082.48
201.494	1093.48
206.389	1193.36
211.281	1584.95
216.17	2917.6
221.057	4704.64
225.941	5817.55
230.823	4059.13
235.702	2096.13
240.578	1228.03
245.452	564.607
250.323	358.834
255.192	231.691
260.058	13.8433
264.921	33.7969
269.782	75.9971
274.64	48.314
279.495	51.0508
284.348	175.288
289.198	207.382
294.046	368.458
298.891	470.048
303.733	487.635
308.573	508.107
313.41	470.08
318.245	533.155
323.077	753.906
327.906	715.703
332.733	693.602
337.557	915.034
342.379	754.207
347.198	744.945
352.014	785.066
356.828	819.833
361.639	1000.29
366.447	1128.65
371.253	1220.12
376.056	1183.45
380.857	965.352
385.655	892.821
390.451	616.852
395.243	419.439
400.034	335.581
404.821	348.477
409.606	238.285
414.389	202.406
419.168	116.728
423.945	18.9414
428.72	34.8745
433.492	28.5615
438.261	51.4927
443.028	41.4712
447.792	10.479
452.553	35.3315
457.312	77.4458
462.068	59.707
466.822	92.2358
471.573	91.6533
476.321	141.786
481.067	180.357
485.81	369.232
490.551	392.488
495.289	513.161
500.024	503.134
504.757	732.804
509.487	827.778
514.214	1124.19
518.939	1267.06
523.661	1359.37
528.381	1441.14
533.098	1631.75
537.812	1585.38
542.524	1636.02
547.233	1593.44
551.94	1600.22
556.644	1627.69
561.345	1585.94
566.044	1529.97
570.74	1379.51
575.433	1126.09
580.124	671.56
584.812	283.87
589.498	12.4077
594.181	86.041
598.861	169.098
603.539	91.46
608.214	91.6006
612.887	133.873
617.557	203.416
622.224	448.445
626.889	916.212
631.551	1233.03
636.21	1888.9
640.867	2663.1
645.521	3496.14
650.173	4212.04
654.822	4505.05
659.468	4850.46
664.112	4920.88
668.753	4375.68
673.392	3321.89
678.028	2501.27
682.661	2172.62
687.292	1919.96
691.92	1646.31
696.545	1137.69
701.168	759.123
705.788	578.657
710.406	546.354
715.021	521.917
719.633	648.74
724.243	566.362
728.85	717.398
733.455	678.107
738.056	686.22
742.656	679.116
747.252	636.642
751.846	498.655
756.438	598.213
761.027	686.12
765.613	742.011
770.196	886.535
774.777	1106.93
779.356	1299.25
783.932	1533.96
788.505	1806.06
793.075	1952.29
797.643	1964.54
802.208	2035.83
806.771	1956.62
811.331	1871.86
815.888	1934.92
820.443	1845.15
824.995	1638.39
829.545	1492.92
834.092	1203.36
838.636	780.144
843.178	543.731
847.717	136.817
852.254	37.3999
856.788	4.67383
861.319	99.5547
865.848	113.643
870.374	88.3877
874.897	14.291
879.418	38.023
883.936	59.333
888.452	346.453
892.965	433.272
897.475	609.838
901.983	688.861
906.488	785.999
910.99	636.669
915.49	639.953
919.988	527.833
924.482	620.258
928.974	623.282
933.464	557.86
937.951	532.929
942.435	526.458
946.917	519.457
951.396	668.928
955.872	753.736
960.346	770.142
964.817	865.852
969.285	944.948
973.751	953.402
978.215	1072.21
982.675	1201.36
987.134	1264.16
991.589	1490.59
996.042	1720.16
1000.49	2034.42
1004.94	2273.34
1009.38	2336.68
1013.83	2403.22
1018.27	2324.9
1022.7	2103.83
1027.14	1816.84
1031.57	1871.11
1036	1566.73
1040.43	1472.85
1044.85	1264.33
1049.27	1274.67
1053.69	1157.68
1058.11	1139.03
1062.52	996.941
1066.93	868.552
1071.34	737.265
1075.75	763.636
1080.15	651.392
1084.55	437.481
1088.95	434.247
1093.35	372.171
1097.74	277.7
1102.13	270.13
1106.52	227.524
1110.9	137.592
1115.28	120.867
1119.66	77.3491
1124.04	83.1914
1128.41	11.1333
1132.79	56.5249
1137.16	26.5156
1141.52	14.1328
1145.89	39.5523
1150.25	23.1572
1154.61	52.5073
1158.96	57.5288
1163.32	36.3135
1167.67	37.9238
1172.02	31.6104
1176.36	10.5874
1180.71	48.5381
1185.05	57.0566
1189.38	75.0132
1193.72	27.3574
1198.05	135.046
1202.38	43.3174
1206.71	82.1157
1211.04	79.4243
1215.36	104.229
1219.68	54.5928
1224	130.507
1228.31	166.809
1232.62	149.06
1236.93	231.727
1241.24	129.974
1245.54	176.64
1249.84	124.189
1254.14	168.195
1258.44	304.842
1262.73	177.03
1267.03	166.161
1271.31	160.006
1275.6	186.793
1279.88	157.771
1284.16	196.476
1288.44	172.868
1292.72	134.737
1296.99	217.487
1301.26	140.079
1305.53	246.043
1309.79	186.786
1314.06	311.635
1318.32	210.996
1322.57	224.184
1326.83	93.105
1331.08	153.415
1335.33	151.055
1339.58	187.514
1343.82	77.5708
1348.06	257.116
1352.3	107.501
1356.54	188.907
1360.77	124.062
1365.01	103.113
1369.23	251.426
1373.46	145.4
1377.68	197.522
1381.9	47.5347
1386.12	86.6592
1390.34	69.2881
1394.55	50.4043
1398.76	12.894
1402.97	81.063
1407.18	51.1943
1411.38	27.9971
1415.58	20.0596
1419.78	47.7144
1423.97	112.051
1428.17	66.8584
1432.36	162.134
1436.54	225.269
1440.73	181.785
1444.91	208.935
1449.09	196.573
1453.27	227.509
1457.44	263.058
1461.61	118.177
1465.78	70.436
1469.95	136.806
1474.11	175.565
1478.27	51.9092
1482.43	28.439
1486.59	38.5195
1490.74	102.248
1494.89	108.378
1499.04	127.905
1503.19	58.6865
1507.33	121.077
1511.47	33.0425
1515.61	30.9458
1519.75	141.091
1523.88	56.4834
1528.01	40.0693
1532.14	10.7275
1536.26	88.1548
1540.38	107.43
1544.51	143.498
1548.62	51.7969
1552.74	136.792
1556.85	10.7217
1560.96	30.438
1565.07	102.983
1569.17	99.3975
1573.27	66.6548
1577.37	0
