Measurement: Raman, 514 nm, ccw, Raman Data Processed
Mineral: Magnetite
Rruff sample: R060222
Ideal chemistry: Fe^2+^Fe^3+^_2_O_4_
Locality: Cerro Hua√±aquino, Potosi Department, Bolivia
Source: Rock Currier
Description: Black octahedra, the surface is hematite and the interior is magnetite
Measured chemistry: (Fe^2+^_0.95_Mg_0.05_)(Fe^3+^_0.99_Al_0.01_)_2_O_4_
Pin_id: L01600
Orientation: Laser parallel to a* (1 0 0). Fiducial mark perpendicular to laser is parallel to b [0 1 0]
Raman shift (cm-1)	intensity
131.492	0
136.423	372.744
141.352	236.693
146.277	1283.38
151.2	307.34
156.121	551.738
161.038	231.131
165.953	1135.54
170.865	178.346
175.774	603.754
180.681	333.603
185.585	798.332
190.486	1092.18
195.384	964.654
200.28	1241.25
205.173	666.705
210.063	659.471
214.95	741.756
219.835	608.24
224.717	493.137
229.597	294.01
234.473	170.602
239.347	23.9805
244.218	13.3066
249.087	255.5
253.953	764.773
258.816	37.6836
263.676	134.625
268.534	77.5195
273.389	0.992188
278.241	3.22852
283.091	207.887
287.938	543.254
292.782	723.549
297.623	387.191
302.462	301.795
307.298	442.377
312.131	465.982
316.962	662.043
321.79	408.109
326.615	303.975
331.438	326.19
336.258	149.596
341.075	137.523
345.889	37.4316
350.701	66.8066
355.51	45.5059
360.317	40.2988
365.12	69.0195
369.921	155.91
374.72	143.348
379.515	147.133
384.309	25.2539
389.099	179.562
393.886	154.719
398.671	156.772
403.454	771.184
408.233	495.06
413.01	441.691
417.785	586.633
422.556	534.443
427.325	221.053
432.091	99.0644
436.855	469.369
441.616	309.57
446.374	312.002
451.13	290.119
455.883	250.619
460.633	373.258
465.38	491.701
470.125	322.953
474.868	532.547
479.607	666.894
484.344	776.068
489.078	929.828
493.81	1321.32
498.539	1485.62
503.265	1348.41
507.989	1468.87
512.71	1824.59
517.428	2271.89
522.144	2632.19
526.857	2746.48
531.567	3066.13
536.275	3350.84
540.98	3414.78
545.683	3589.6
550.383	3945.88
555.08	3885.18
559.774	3446.27
564.466	3508.24
569.155	3543
573.842	3287.38
578.526	2750.06
583.207	1967.89
587.886	1093.98
592.562	1208.85
597.235	1099.12
601.906	1234.97
606.574	1521.91
611.24	1559.94
615.903	1948.03
620.563	2250.18
625.221	2508.48
629.876	3195.28
634.528	3824.24
639.178	4599.71
643.825	5700.69
648.47	7239.73
653.112	8974.25
657.751	10795.4
662.388	12677.6
667.022	13997.3
671.653	14145.8
676.282	13080.3
680.908	11728.6
685.532	9778.94
690.153	7821.86
694.771	6419.48
699.387	4859.36
704	3827.1
708.61	2825.39
713.218	2245.43
717.824	1563.59
722.426	1411.06
727.026	1007.35
731.624	1045.99
736.219	588.535
740.811	447.756
745.401	457.023
749.988	73.9941
754.572	41.6113
759.154	140.41
763.734	34.3887
768.31	181.441
772.884	32.9414
777.456	7.23633
782.025	59.873
786.591	66.5566
791.155	130.602
795.716	57.8398
800.275	9.36914
804.831	93.959
809.384	28.9102
813.935	78.5293
818.483	67.4023
823.029	52.1543
827.572	36.3867
832.112	72.7207
836.65	49.6758
841.186	18.8027
845.718	168.221
850.249	117.906
854.776	81.9102
859.301	266.824
863.824	76.4844
868.344	70.7793
872.861	189.916
877.376	300.078
881.888	260.293
886.397	324.912
890.904	298.984
895.409	460.449
899.911	518.879
904.41	370.01
908.907	784.389
913.401	518.856
917.893	464.719
922.382	573.428
926.869	469.027
931.353	368.746
935.834	455.394
940.313	732.729
944.789	610.768
949.263	464.242
953.734	553.559
958.203	660.633
962.669	650.783
967.133	516.178
971.594	551
976.052	612.479
980.508	603.254
984.961	596.59
989.412	534.797
993.861	449.336
998.306	610.336
1002.75	860.689
1007.19	524.381
1011.63	924.129
1016.06	695.723
1020.5	697.932
1024.93	685.174
1029.36	623.971
1033.78	694.199
1038.2	772.469
1042.62	700.885
1047.04	758.443
1051.46	774.1
1055.87	996.822
1060.28	922.484
1064.69	633.746
1069.09	1094.57
1073.5	980.082
1077.9	915.99
1082.29	779.242
1086.69	1063.24
1091.08	969.719
1095.47	1006.84
1099.86	676.061
1104.24	723.932
1108.63	678.193
1113.01	494.982
1117.38	643.666
1121.76	558.186
1126.13	371.461
1130.5	469.584
1134.87	457.162
1139.23	357.562
1143.6	159.596
1147.96	250.826
1152.32	379.252
1156.67	41.9238
1161.02	243.826
1165.37	257.926
1169.72	130.236
1174.07	195.766
1178.41	63.5059
1182.75	261.762
1187.08	20.8691
1191.42	98.4375
1195.75	168.451
1200.08	32.8984
1204.41	133.783
1208.73	8.2832
1213.06	54.8145
1217.38	31.8691
1221.69	128.01
1226.01	111.074
1230.32	78.2383
1234.63	116.576
1238.94	93.0606
1243.24	28.3105
1247.55	52.3828
1251.85	69.7559
1256.14	266.098
1260.44	287.109
1264.73	90.2168
1269.02	305.453
1273.31	231.775
1277.6	509.221
1281.88	444.471
1286.16	389.25
1290.44	610.061
1294.71	683.588
1298.98	664.646
1303.26	705.807
1307.52	698.938
1311.79	629.422
1316.05	821.125
1320.31	697.975
1324.57	959.014
1328.83	686.248
1333.08	733.172
1337.33	751.865
1341.58	516.902
1345.82	647.551
1350.07	583.736
1354.31	341.832
1358.55	429.928
1362.78	347.56
1367.02	200.336
1371.25	333.695
1375.48	313.693
1379.7	140.744
1383.92	410.264
1388.15	311.033
1392.37	399.182
1396.58	178.154
1400.8	240.012
1405.01	172.07
1409.22	80.793
1413.42	283.594
1417.63	293.838
1421.83	219.852
1426.03	248.275
1430.22	52.5352
1434.42	303.867
1438.61	8.87305
1442.8	296.258
1446.99	207.738
1451.17	195.912
1455.35	157.674
1459.53	111.031
1463.71	245.137
1467.89	67.1328
1472.06	260.482
1476.23	83.918
1480.4	116.768
1484.56	99.0762
1488.72	343.438
1492.88	96.0742
1497.04	118.207
1501.2	82.0273
1505.35	265.08
1509.5	35.9824
1513.65	211.826
1517.8	83.1035
1521.94	72.0156
1526.08	75.1953
1530.22	272.584
1534.36	282.705
1538.49	290.916
1542.62	97.584
1546.75	146.607
1550.88	119.371
1555	285.193
1559.12	160.576
1563.24	218.143
1567.36	263.049
1571.47	112.717
1575.58	22.8223
