Measurement: Raman, 514 nm, ccw, Raman Data Processed
Mineral: Magnesite
Rruff sample: R050443
Ideal chemistry: MgCO_3_
Locality: Brumado, Bahia, Brazil
Source: Eugene Schlepp
Description: Group of colorless crystals
Measured chemistry: Mg_1.00_CO_3_
Pin_id: L01455
Orientation: Laser parallel to -a* (-1 0 0). Fiducial mark perpendicular to laser is parallel to -c [0 0 -1]
Raman shift (cm-1)	intensity
92.049	0
96.995	39.0679
101.939	4.89258
106.879	214.576
111.818	111.693
116.753	248.096
121.686	1482.66
126.617	271.533
131.545	157.74
136.471	70.293
141.393	114.042
146.314	156.939
151.232	211.343
156.147	232.864
161.06	64.8525
165.97	118.635
170.877	174.485
175.782	47.7651
180.685	27.0713
185.585	137.443
190.482	16.0444
195.377	256.419
200.269	329.997
205.158	877.364
210.045	1811.43
214.93	2328.07
219.812	677.294
224.691	129.365
229.568	78.2773
234.442	57.9761
239.314	8.91065
244.183	123.565
249.049	7.01758
253.913	144.988
258.775	13.7383
263.633	0.547852
268.49	190.54
273.343	171.686
278.194	109.346
283.043	170.267
287.889	15.9951
292.732	136.065
297.573	53.4043
302.411	233.636
307.247	297.312
312.08	711.181
316.91	1924.83
321.738	5487.91
326.563	14211.5
331.386	21267.7
336.206	7059.72
341.024	1929.34
345.839	869.48
350.651	631.941
355.461	345.392
360.268	321.843
365.073	345.312
369.875	373.245
374.674	180.751
379.471	193.494
384.266	252.748
389.057	47.2959
393.846	113.555
398.633	109.278
403.417	53.834
408.198	146.365
412.977	91.6162
417.753	25.6494
422.527	181.584
427.298	41.8223
432.067	243.836
436.832	125.451
441.596	54.3623
446.356	224.662
451.115	302.052
455.87	178.514
460.623	285.06
465.373	288.693
470.121	43.4815
474.866	95.4385
479.609	73.6484
484.349	79.0928
489.086	125.339
493.821	177.588
498.553	7.86816
503.283	127.614
508.01	222.685
512.734	186.981
517.456	116.476
522.175	103.181
526.892	229.067
531.606	204.21
536.317	69.4981
541.026	139.923
545.732	39.6582
550.436	11.5371
555.137	159.54
559.835	131.231
564.531	46.627
569.224	78.2275
573.915	251.04
578.603	51.1025
583.288	117.295
587.971	103.627
592.651	199.28
597.329	172.684
602.004	189.025
606.676	109.875
611.346	243.856
616.013	169.518
620.678	226.239
625.34	374.848
629.999	169.122
634.656	271.586
639.31	480.574
643.962	254.06
648.611	512.327
653.257	355.126
657.901	86.958
662.542	271.816
667.181	491.696
671.817	240.591
676.45	292.5
681.081	125.833
685.709	106.361
690.334	260.366
694.957	20.6172
699.578	194.556
704.195	217.503
708.811	288.426
713.423	285.312
718.033	250.567
722.64	188.386
727.245	251.16
731.847	392.889
736.446	416.565
741.043	368.303
745.637	248.268
750.229	184.426
754.818	91.5068
759.404	2.49414
763.988	34.6299
768.569	34.9492
773.148	3.69238
777.724	9.17969
782.297	5.71777
786.868	49.1191
791.436	69.3457
796.001	137.478
800.564	205.518
805.125	128.832
809.682	200.311
814.237	304.065
818.79	48.75
823.339	188.347
827.887	152.873
832.431	298.292
836.973	311.603
841.513	170.816
846.049	209.935
850.583	77.959
855.115	213.898
859.644	265.747
864.17	370.502
868.694	444.166
873.215	355.853
877.733	349.459
882.249	555.131
886.762	243.868
891.273	162.727
895.781	636.875
900.286	288.088
904.789	466.522
909.289	403.858
913.786	294.827
918.281	180.571
922.773	284.693
927.263	153.235
931.75	294.752
936.234	221.27
940.716	187.767
945.195	394.232
949.672	261.674
954.146	349.159
958.617	277.688
963.086	193.199
967.552	245.346
972.015	401.363
976.476	186.315
980.934	230.796
985.39	195.281
989.843	139.773
994.293	59.2783
998.741	202.797
1003.19	145.335
1007.63	38.8916
1012.07	77.8389
1016.5	124.052
1020.94	161.298
1025.37	43.6387
1029.8	184.803
1034.23	378.034
1038.65	376.477
1043.07	534.662
1047.49	760.236
1051.91	952.615
1056.32	1411.28
1060.73	1690.02
1065.14	2349.39
1069.55	3410.09
1073.95	5518.07
1078.35	8584.13
1082.75	15626.8
1087.14	32258.6
1091.54	62266.9
1095.93	76772.4
1100.31	50041.1
1104.7	28190.8
1109.08	15504.6
1113.46	8446.62
1117.84	4107.82
1122.21	2703.53
1126.58	1481.56
1130.95	1009.09
1135.32	699.738
1139.68	643.133
1144.04	473.865
1148.4	460.746
1152.76	490.56
1157.11	361.672
1161.46	358.717
1165.81	191.75
1170.16	167.935
1174.5	125.074
1178.84	129.312
1183.18	51.7246
1187.51	73.2871
1191.84	36.0078
1196.17	94.8223
1200.5	136.731
1204.83	240.775
1209.15	40.9727
1213.47	1.70898
1217.78	48.6016
1222.1	193.897
1226.41	147.428
1230.72	94.6016
1235.02	236.428
1239.33	248.023
1243.63	345.938
1247.92	71.1035
1252.22	339.496
1256.51	423.025
1260.8	332.707
1265.09	344.523
1269.38	219.357
1273.66	269.85
1277.94	180.637
1282.21	223.732
1286.49	258.553
1290.76	245.207
1295.03	2.41211
1299.3	206.088
1303.56	312.016
1307.82	500.225
1312.08	290.373
1316.34	231.613
1320.59	46.9316
1324.84	360.754
1329.09	191.391
1333.34	15.9219
1337.58	315.574
1341.82	43.7031
1346.06	68.9531
1350.29	172.783
1354.53	6.54102
1358.76	110.414
1362.98	209.398
1367.21	140.471
1371.43	53.4766
1375.65	105.451
1379.87	219.26
1384.08	258.08
1388.29	220.424
1392.5	75.4434
1396.71	165.543
1400.91	76.207
1405.11	179.93
1409.31	47.1875
1413.51	125.359
1417.7	314.799
1421.89	415.682
1426.08	149.131
1430.26	228.359
1434.44	120.299
1438.62	524.092
1442.8	580.238
1446.98	573.393
1451.15	444.994
1455.32	521.396
1459.49	504.234
1463.65	401.154
1467.81	207.387
1471.97	381.19
1476.13	173.951
1480.28	493.045
1484.43	171.244
1488.58	301.566
1492.73	315.764
1496.87	382.621
1501.01	152.295
1505.15	236.287
1509.29	227.127
1513.42	308.068
1517.55	269.301
1521.67	273.565
1525.8	41.9355
1529.92	46.1523
1534.04	353.258
1538.16	272.453
1542.27	302.752
1546.39	304.998
1550.49	353.027
1554.6	236.83
1558.71	309.621
1562.81	123.166
1566.91	100.008
1571	207.815
1575.1	234.955
