Measurement: Raman, 514 nm, ccw, Raman Data Processed
Mineral: Magnesite
Rruff sample: R050443
Ideal chemistry: MgCO_3_
Locality: Brumado, Bahia, Brazil
Source: Eugene Schlepp
Description: Group of colorless crystals
Measured chemistry: Mg_1.00_CO_3_
Pin_id: L01455
Orientation: Laser parallel to -a* (-1 0 0). Fiducial mark perpendicular to laser is parallel to -c [0 0 -1]
Raman shift (cm-1)	intensity
92.049	0
96.995	1.87939
101.939	61.2808
106.879	190.169
111.818	242.612
116.753	583.894
121.686	1503.01
126.617	124.999
131.545	149.971
136.471	186.443
141.393	5.50977
146.314	121.872
151.232	80.0742
156.147	56.3481
161.06	7.07812
165.97	162.936
170.877	39.4038
175.782	42.5127
180.685	4.38037
185.585	215.676
190.482	189.458
195.377	339.082
200.269	1268.21
205.158	4096.17
210.045	10801.9
214.93	18882.7
219.812	4530.77
224.691	919.756
229.568	225.763
234.442	155.014
239.314	20.2378
244.183	85.022
249.049	5.5
253.913	114.273
258.775	85.4893
263.633	47.3867
268.49	228.949
273.343	223.383
278.194	82.3267
283.043	143.153
287.889	180.519
292.732	309.718
297.573	343.941
302.411	672.885
307.247	1056.5
312.08	2329.01
316.91	6946.23
321.738	22021.8
326.563	62535.9
331.386	128022
336.206	43846.8
341.024	10155.8
345.839	3958.61
350.651	2394.41
355.461	1475.85
360.268	1257.06
365.073	886.5
369.875	812.475
374.674	651.144
379.471	513.526
384.266	385.036
389.057	319.052
393.846	445.289
398.633	358.312
403.417	262.562
408.198	296.852
412.977	274.032
417.753	227.167
422.527	269.577
427.298	51.21
432.067	182.619
436.832	294.044
441.596	115.574
446.356	170.415
451.115	232.383
455.87	143.304
460.623	253.14
465.373	92.9131
470.121	133.83
474.866	53.5244
479.609	36.0669
484.349	58.227
489.086	97.4922
493.821	10.252
498.553	19.9785
503.283	14.291
508.01	34.9028
512.734	168.751
517.456	118.796
522.175	59.8208
526.892	241.976
531.606	133.215
536.317	46.4961
541.026	89.8569
545.732	99.3857
550.436	24.0391
555.137	18.752
559.835	102.606
564.531	56.6748
569.224	66.8936
573.915	212.316
578.603	59.2353
583.288	39.998
587.971	209.958
592.651	281.098
597.329	262.091
602.004	123.918
606.676	66.7949
611.346	41.4697
616.013	72.4375
620.678	256.101
625.34	131.877
629.999	95.5654
634.656	143.03
639.31	218.654
643.962	156.793
648.611	273.286
653.257	157.533
657.901	150.489
662.542	251.673
667.181	325.623
671.817	196.468
676.45	357.228
681.081	370.521
685.709	218.895
690.334	330.735
694.957	317.812
699.578	479.888
704.195	393.486
708.811	725.633
713.423	838.922
718.033	1096.33
722.64	1789.26
727.245	3241.43
731.847	4700.39
736.446	6757.27
741.043	6891.11
745.637	4679.01
750.229	2269.59
754.818	1276.3
759.404	725.459
763.988	355.551
768.569	7.48438
773.148	3.29981
777.724	98.876
782.297	90.0137
786.868	121.898
791.436	31.7305
796.001	148.425
800.564	115.037
805.125	46.0566
809.682	17.0762
814.237	16.4395
818.79	73.2481
823.339	90.3252
827.887	147.15
832.431	32.5342
836.973	144.482
841.513	211.377
846.049	193.252
850.583	150.994
855.115	313.812
859.644	236.976
864.17	269.983
868.694	240.452
873.215	284.807
877.733	183.092
882.249	296.049
886.762	340.702
891.273	196.227
895.781	325.531
900.286	283.082
904.789	304.01
909.289	320.442
913.786	248.329
918.281	344.358
922.773	229.814
927.263	146.413
931.75	102.965
936.234	94.4199
940.716	276.714
945.195	427.637
949.672	313.264
954.146	333.338
958.617	200.546
963.086	85.1602
967.552	150.035
972.015	278.966
976.476	308.722
980.934	214.439
985.39	98.167
989.843	99.9189
994.293	99.3506
998.741	405.974
1003.19	161.078
1007.63	139.285
1012.07	159.557
1016.5	19.4102
1020.94	37.4756
1025.37	6.41992
1029.8	273.863
1034.23	354.349
1038.65	671.916
1043.07	770.59
1047.49	1358.41
1051.91	1957.51
1056.32	2616.75
1060.73	3389.17
1065.14	4631.63
1069.55	7328.82
1073.95	11698.7
1078.35	19632.8
1082.75	36826.8
1087.14	76119.8
1091.54	146262
1095.93	180719
1100.31	120480
1104.7	67943.4
1109.08	38102.1
1113.46	19869
1117.84	10173.2
1122.21	5748.63
1126.58	3465.22
1130.95	2136.79
1135.32	1685.44
1139.68	1129.46
1144.04	1046.34
1148.4	791.564
1152.76	663.59
1157.11	348.594
1161.46	242.866
1165.81	264.971
1170.16	308.331
1174.5	330.883
1178.84	292.624
1183.18	117.55
1187.51	3.3418
1191.84	106.943
1196.17	21.5908
1200.5	92.9697
1204.83	303.683
1209.15	79.5078
1213.47	20.6465
1217.78	138.916
1222.1	30.7832
1226.41	16.0703
1230.72	137.587
1235.02	141.869
1239.33	79.1445
1243.63	219.337
1247.92	29.0225
1252.22	157.795
1256.51	101.764
1260.8	166.071
1265.09	609.159
1269.38	35.252
1273.66	329.854
1277.94	70.5664
1282.21	120.322
1286.49	28.9385
1290.76	76.7344
1295.03	92.8291
1299.3	221.859
1303.56	28.9258
1307.82	301.062
1312.08	288.263
1316.34	144.483
1320.59	322.83
1324.84	219.64
1329.09	213.977
1333.34	162.428
1337.58	180.959
1341.82	163.207
1346.06	57.7685
1350.29	191.659
1354.53	185.395
1358.76	28.6406
1362.98	200.904
1367.21	212.221
1371.43	149.382
1375.65	7.54785
1379.87	179.433
1384.08	204.566
1388.29	0.375
1392.5	114.097
1396.71	143.917
1400.91	261.601
1405.11	160.624
1409.31	163.688
1413.51	198.683
1417.7	262.917
1421.89	245.164
1426.08	242.493
1430.26	348.096
1434.44	376.353
1438.62	748.511
1442.8	2093.13
1446.98	2370.57
1451.15	1104.86
1455.32	810.176
1459.49	572.793
1463.65	691.922
1467.81	439.041
1471.97	452.027
1476.13	574.328
1480.28	495.334
1484.43	424.768
1488.58	295.982
1492.73	217.912
1496.87	269.602
1501.01	342.592
1505.15	63.4805
1509.29	248.32
1513.42	151.027
1517.55	86.9102
1521.67	79.0449
1525.8	12.9648
1529.92	157.91
1534.04	299.867
1538.16	285.746
1542.27	259.09
1546.39	145.617
1550.49	189.768
1554.6	195.853
1558.71	266.709
1562.81	26.3457
1566.91	326.766
1571	11.5332
1575.1	128.697
