Measurement: Raman, 514 nm, ccw, Raman Data Processed
Mineral: Marialite
Rruff sample: R060526
Ideal chemistry: Na_4_Al_3_Si_9_O_24_Cl
Locality: Minas Gerais, Brazil
Source: Michael Scott
Description: Heavily striated pale yellow elongated prism
Measured chemistry: (Na_0.62_Ca_0.33_K_0.05_)_4_(Si_0.66_Al_0.34_)_12_O_24_(Cl_0.77_(CO_3_)_0.23_)
Pin_id: L01174
Orientation: Laser parallel to a* (1 0 0). Fiducial mark perpendicular to laser is parallel to c [0 0 1]
Raman shift (cm-1)	intensity
121.596	0
125.299	523.273
129	966.87
132.7	1147.23
136.399	936.619
140.096	662.848
143.791	401.026
147.485	102.414
151.178	175.619
154.869	62.4153
158.558	133.827
162.246	215.625
165.932	287.401
169.617	245.895
173.3	63.4766
176.982	99.4995
180.662	105.665
184.341	28.3621
188.018	295.89
191.694	497.174
195.368	632.098
199.04	626.56
202.711	619.381
206.381	501.091
210.049	430.617
213.716	558.799
217.381	649.321
221.044	930.646
224.706	1147.45
228.367	1212.03
232.026	1221.76
235.683	946.034
239.339	757.433
242.993	732.921
246.646	926.481
250.298	1415.99
253.947	2324.29
257.596	3753.37
261.243	5540.61
264.888	6549.9
268.532	5352.68
272.174	3069.68
275.815	1549.22
279.454	836.027
283.092	581.661
286.728	566.717
290.363	977.302
293.996	1657.52
297.628	3254.11
301.258	3298.54
304.887	1372.89
308.514	524.134
312.14	151.246
315.764	5.1731
319.387	35.249
323.008	19.5376
326.628	39.0657
330.246	88.7742
333.862	118.163
337.478	12.9912
341.091	103.834
344.703	330.42
348.314	627.87
351.923	1024.98
355.531	1535.56
359.137	2174.25
362.742	2293.83
366.345	1518.87
369.947	1056.89
373.547	1058.88
377.145	1145.52
380.743	1007.76
384.338	800.82
387.932	613.7
391.525	393.398
395.116	214.91
398.706	159.218
402.294	111.311
405.881	224.152
409.466	555.716
413.05	979.056
416.632	1950.11
420.213	2888.84
423.792	2528.22
427.37	1315.14
430.946	811.315
434.521	735.603
438.094	1077.9
441.666	1394.29
445.236	1880.36
448.805	3082.67
452.372	5027.59
455.938	6924.68
459.502	7110.25
463.065	6386.02
466.627	4730.78
470.187	3227.05
473.745	2175.39
477.302	1556.41
480.857	1181.87
484.411	776.076
487.964	367.398
491.515	174.889
495.064	120.324
498.612	122.028
502.159	104.519
505.704	138.823
509.247	0.2146
512.789	103.153
516.33	257.807
519.869	427.029
523.407	961.985
526.943	2169.59
530.478	4358.13
534.011	7512.92
537.543	10076.1
541.073	8132.36
544.602	4466.83
548.129	2432.58
551.655	1265.71
555.179	764.152
558.702	483.793
562.223	290.033
565.743	220.882
569.262	158.417
572.779	93.6233
576.294	129.483
579.808	162.006
583.321	145.193
586.832	82.0388
590.341	44.5212
593.85	9.64966
597.356	76.4961
600.862	31.9714
604.365	13.2769
607.868	12.4106
611.368	54.3752
614.868	71.854
618.366	1.60693
621.862	54.1592
625.357	0.278809
628.85	38.2522
632.342	76.0596
635.833	21.6758
639.322	28.5544
642.81	24.5249
646.296	3.22119
649.78	21.7158
653.264	3.70166
656.745	113.97
660.226	150.705
663.704	116.324
667.182	111.892
670.658	107.358
674.132	80.3535
677.605	88.813
681.077	99.5732
684.547	131.954
688.015	154.132
691.483	153.403
694.948	228.992
698.413	247.261
701.875	434.912
705.337	435.207
708.797	547.488
712.255	615.723
715.712	602.374
719.167	436.394
722.621	339.837
726.074	329.821
729.525	394.416
732.975	358.681
736.423	410.212
739.87	397.092
743.315	404.807
746.759	486.142
750.202	859.061
753.643	1238.73
757.082	1745.87
760.52	2511.02
763.957	3623.19
767.392	5170.23
770.826	6340.89
774.258	6750.94
777.689	5463.9
781.118	3484.99
784.546	1930.29
787.973	1073.5
791.398	706.16
794.822	413.228
798.244	340.226
801.665	236.92
805.084	182.07
808.502	164.623
811.918	200.165
815.333	205.836
818.747	53.6758
822.159	159.832
825.569	147.824
828.979	81.1787
832.386	158.878
835.793	59.3852
839.198	93.6812
842.601	90.5366
846.003	152.598
849.404	182.525
852.803	142.785
856.2	158.022
859.597	149.143
862.992	237.644
866.385	71.542
869.777	88.812
873.167	126.388
876.557	166.438
879.944	109.912
883.33	109.813
886.715	96.1436
890.099	53.0156
893.481	84.2808
896.861	66.9937
900.24	25.9346
903.618	73.5078
906.994	67.4536
910.369	105.912
913.742	122.813
917.114	31.2456
920.485	23.1069
923.854	2.64746
927.221	24.1128
930.588	13.3696
933.952	48.6616
937.316	72.9556
940.678	61.71
944.038	124.997
947.397	164.91
950.755	66.2637
954.111	96.6113
957.466	166.441
960.819	56.9873
964.171	114.201
967.522	55.1973
970.871	50.709
974.219	75.0762
977.565	93.0498
980.91	86.5078
984.253	278.246
987.595	288.226
990.936	542.685
994.275	531.699
997.613	643.95
1000.95	746.762
1004.28	640.616
1007.62	604.577
1010.95	595.4
1014.28	581.727
1017.61	601.164
1020.94	550.949
1024.26	434.583
1027.59	462.752
1030.91	606.377
1034.23	809.455
1037.56	783.715
1040.88	1008
1044.19	960.962
1047.51	823.412
1050.83	900.24
1054.14	852.164
1057.45	1146.23
1060.76	1157.21
1064.07	1377.61
1067.38	1541.86
1070.69	1753.91
1073.99	2091.68
1077.3	2439.14
1080.6	3011.85
1083.9	3168.38
1087.2	3556.23
1090.5	3458.54
1093.79	3611.2
1097.09	3626.85
1100.38	3449.89
1103.68	2795.56
1106.97	2145.42
1110.26	1967.7
1113.55	1886.88
1116.83	1420.04
1120.12	1073.69
1123.4	751.486
1126.68	741.23
1129.97	724.744
1133.25	673.196
1136.53	433.379
1139.8	327.668
1143.08	258.234
1146.35	378.167
1149.63	268.177
1152.9	55.6484
1156.17	148.835
1159.44	57.3076
1162.7	71.7861
1165.97	21.625
1169.23	119.603
1172.5	79.0527
1175.76	68.958
1179.02	46.791
1182.28	21.5986
1185.54	78.7461
1188.79	92.708
1192.05	18.8965
1195.3	69.9053
1198.55	66.5147
1201.81	187.075
1205.05	176.856
1208.3	287.867
1211.55	62.791
1214.79	79.1406
1218.04	110.967
1221.28	125.08
1224.52	141.688
1227.76	127.299
1231	165.279
1234.24	116.018
1237.47	223.494
1240.7	116.688
1243.94	87.4492
1247.17	317.85
1250.4	128.31
1253.63	264.955
1256.86	243.15
1260.08	174.225
1263.31	216.643
1266.53	67.4805
1269.75	173.795
1272.97	190.447
1276.19	345.685
1279.41	260.156
1282.62	367.932
1285.84	330.904
1289.05	278.435
1292.26	197.465
1295.47	13.5371
1298.68	313.629
1301.89	16.8066
1305.1	244.635
1308.3	190.697
1311.51	152.844
1314.71	250.719
1317.91	265.508
1321.11	224.185
1324.31	183.949
1327.5	254.053
1330.7	96.8164
1333.89	103.252
1337.09	211.93
1340.28	307.762
1343.47	191.275
1346.65	30.543
1349.84	191.022
1353.03	216.07
1356.21	257.467
1359.4	226.469
1362.58	200.217
1365.76	204.764
1368.94	93.7402
1372.12	366.549
1375.29	224.084
1378.47	429.525
1381.64	166.559
1384.81	472.336
1387.98	300.807
1391.15	86.084
1394.32	100.971
1397.49	118.844
1400.65	70.9258
1403.82	113.412
1406.98	111.76
1410.14	204.754
1413.3	91.0039
1416.46	277.115
1419.62	328.299
1422.77	306.611
1425.93	157.426
1429.08	131.393
1432.23	69.1973
1435.38	344.022
1438.53	319.545
1441.68	72.4981
1444.82	90.3223
1447.97	150.111
1451.11	28.375
1454.26	1.0625
