Measurement: Raman, 514 nm, depolarized, Raman Data Processed
Mineral: Marialite
Rruff sample: R040043
Ideal chemistry: Na_4_Al_3_Si_9_O_24_Cl
Locality: Gouverneur, New York, USA
Source: University of Arizona Mineral Museum
Description: White prismatic crystals
Measured chemistry: (Na_.493_Ca_.446_K_.061_)_4_(Si_.634_Al_.366_)_12_O_24_((CO_3_)_.581_Cl_.419_)
Pin_id: S00036
Orientation: Laser parallel to c* (0 0 1). Fiducial mark perpendicular to laser is parallel to -a [-1 0 0]
Raman shift (cm-1)	intensity
101.732	0
105.908	2817.2
110.082	4751.35
114.254	2601.77
118.424	290.566
122.592	230.609
126.758	529.941
130.922	751.355
135.083	761.139
139.243	1080.55
143.401	2656.1
147.557	5428.4
151.711	9841.5
155.863	15204.2
160.013	19512.4
164.161	19857.1
168.308	15656.5
172.452	10095.9
176.594	6463.04
180.734	5341.7
184.872	5803.33
189.008	6455.13
193.143	6724.46
197.275	5785.19
201.405	5275.85
205.534	5580.47
209.66	5329.25
213.784	4338.6
217.907	4050.62
222.027	4273.31
226.146	4108.46
230.263	3393.55
234.377	2016.54
238.49	1334.36
242.601	656.28
246.709	483.721
250.816	1036.06
254.921	2719.59
259.024	5254.22
263.125	7436.32
267.224	5597.5
271.321	2426.36
275.416	926.619
279.51	675.229
283.601	1182.27
287.69	2367.9
291.778	2645.29
295.863	2701.95
299.947	1680.35
304.029	30.893
308.108	575.07
312.186	732.54
316.262	598.606
320.336	257.129
324.408	116.703
328.478	1040.77
332.546	2211.88
336.612	2839.34
340.677	1958.94
344.739	1104.26
348.799	934.242
352.858	1537.3
356.915	3016.29
360.969	4412.81
365.022	3058.27
369.073	1542.45
373.122	1257.92
377.169	1647.51
381.215	1547.18
385.258	1374.44
389.299	1301.01
393.339	1000.77
397.376	829.969
401.412	712.557
405.446	943.291
409.478	1228.97
413.508	1907.63
417.536	2695.81
421.562	3098.05
425.586	3135.07
429.609	3629.14
433.629	4116.8
437.648	5764.15
441.665	8164.43
445.68	13160.8
449.693	23996.5
453.704	38992.4
457.713	45155.6
461.721	44007.6
465.726	32462.3
469.73	19557.4
473.731	10998.8
477.731	6721.94
481.729	4250.82
485.725	2839.34
489.72	2137.97
493.712	1605.99
497.703	1132.92
501.691	925.616
505.678	795.535
509.663	650.848
513.646	679.419
517.627	952.589
521.607	1453.24
525.584	2570.8
529.56	5990.08
533.534	12580.4
537.506	15990.4
541.476	10376
545.444	5467.37
549.41	2804.57
553.375	1464.95
557.337	1062.14
561.298	614.082
565.257	455.555
569.214	370.814
573.17	281.508
577.123	126.125
581.075	120.146
585.024	182.515
588.972	133.773
592.918	176.184
596.863	152.53
600.805	294.344
604.746	473.695
608.685	902.576
612.621	579.092
616.557	468.211
620.49	2.93
624.421	155.474
628.351	29.282
632.279	94.755
636.205	16.671
640.129	29.009
644.051	51.735
647.972	79.613
651.89	198.259
655.807	21.623
659.722	302.407
663.636	219.492
667.547	182.477
671.457	51.677
675.365	278.294
679.271	600.047
683.175	196.046
687.077	60.551
690.978	29.23
694.877	27.237
698.774	158.378
702.669	76.924
706.562	264.908
710.454	211.995
714.344	401.775
718.232	461.035
722.118	268.457
726.002	499.551
729.885	602.448
733.766	493.521
737.645	375.501
741.522	403.161
745.397	549.124
749.271	925.208
753.143	1213.75
757.013	1900.29
760.881	2707.04
764.748	4119.76
768.613	6165.54
772.476	7617.47
776.337	6721.02
780.196	4184.83
784.054	1756.42
787.91	841.914
791.764	461.502
795.616	363.057
799.467	629.086
803.316	1179.65
807.163	1567.89
811.008	868.08
814.851	404.719
818.693	180.291
822.533	135.834
826.371	37.859
830.208	20.676
834.042	51.48
837.875	70.455
841.706	108.205
845.536	119.723
849.363	26.189
853.189	3.145
857.013	193.656
860.836	182.816
864.656	2.721
868.475	91.119
872.292	84.398
876.108	1.67
879.922	31.088
883.733	9.891
887.544	156.193
891.352	130.041
895.159	23.844
898.964	146.672
902.767	325.533
906.568	328.418
910.368	165.314
914.166	255.201
917.962	116.99
921.757	65.375
925.55	120.111
929.341	9.418
933.13	96.018
936.918	228.506
940.703	148.105
944.488	51.82
948.27	168.67
952.051	325.559
955.83	454.529
959.607	543.545
963.383	459.924
967.156	453.57
970.928	493.975
974.699	973.199
978.468	1011.79
982.234	1458.87
986	1300.74
989.763	1164.08
993.525	901.713
997.285	1096.95
1001.04	1005.92
1004.8	979.309
1008.55	1081.56
1012.31	1089.68
1016.06	1189.97
1019.81	1290.89
1023.56	1524.53
1027.31	1456.49
1031.05	1467.76
1034.79	1683.3
1038.53	2043.41
1042.27	2052.4
1046.01	2157.77
1049.75	2039.34
1053.48	2497.83
1057.22	3065.23
1060.95	3314.4
1064.68	3815.57
1068.4	4391.65
1072.13	4804.45
1075.86	4805.09
1079.58	4474.09
1083.3	4640.46
1087.02	5279.03
1090.74	7087.79
1094.45	10079
1098.17	11899.3
1101.88	10671.6
1105.59	8373.17
1109.3	10629
1113.01	13009.3
1116.71	6145.52
1120.42	1571.42
1124.12	1405.19
1127.82	541.328
1131.52	605.365
1135.22	718.301
1138.91	313.16
1142.61	64.459
1146.3	478.818
1149.99	58.785
1153.68	15.832
1157.37	112.451
1161.06	16.783
1164.74	120.662
1168.42	297.133
1172.1	474.658
1175.78	235.252
1179.46	277.467
1183.14	428.135
1186.81	587.139
1190.48	693.01
1194.15	779.324
1197.83	852.533
1201.49	1428.13
1205.16	1093.79
1208.82	784.049
1212.49	631.332
1216.15	339.285
1219.81	404.695
1223.46	304.324
1227.12	272.926
1230.78	29.514
1234.43	86.828
1238.08	141.27
1241.73	220
1245.38	215.043
1249.03	342.408
1252.67	112.449
1256.31	228.303
1259.95	90.471
1263.6	49.408
1267.23	163.297
1270.87	100.906
1274.51	191.527
1278.14	186.199
1281.77	131.516
1285.4	141.205
1289.03	38.326
1292.66	71.631
1296.28	98.342
1299.91	82.334
1303.53	257.658
1307.15	272.723
1310.77	174.641
1314.38	444.113
1318	149.539
1321.61	164.174
1325.23	466.533
1328.84	238.387
1332.45	137.682
1336.06	133.908
1339.66	246.143
1343.27	181.98
1346.87	459.711
1350.47	469.211
1354.07	331.324
1357.67	522.51
1361.26	108.051
1364.86	245.711
1368.45	339.484
1372.04	87.744
1375.63	265.811
1379.22	129.01
1382.81	274.012
1386.39	86.154
1389.98	335.955
1393.56	317.805
1397.14	195.723
1400.72	168.969
1404.3	0
