Measurement: Raman, 514 nm, depolarized, Raman Data Processed
Mineral: Marialite
Rruff sample: R060469
Ideal chemistry: Na_4_Al_3_Si_9_O_24_Cl
Locality: Mpwa-Mpwa mine, Umba Valley, near Arusha, Tanzania
Source: Michael Scott
Description: Yellow tetragonal prism with pronounced striations along the c-axis direction
Measured chemistry: (Na_0.66_Ca_0.27_K_0.07_)_4_(Si_0.68_Al_0.32_)_12_O_24_(Cl_0.75_(CO_3_)_0.25_)
Pin_id: L01121
Orientation: Laser parallel to c* (0 0 1). Fiducial mark perpendicular to laser is parallel to a [1 0 0]
Raman shift (cm-1)	intensity
124.064	0
129	1.52539
133.933	190.093
138.864	602.702
143.791	1572.12
148.716	3360
153.638	5714.53
158.558	8591.59
163.475	9538.14
168.389	7934.22
173.3	5357.87
178.209	3809.3
183.115	3281.26
188.018	3320.73
192.918	3198.78
197.816	2633.26
202.711	2092.19
207.604	1679.31
212.494	1298.67
217.381	1178.1
222.265	1382.72
227.147	1624.61
232.026	1353.45
236.902	898.38
241.775	491.265
246.646	481.384
251.514	960.924
256.38	1812.83
261.243	2895.24
266.103	2775.98
270.96	1541.05
275.815	568.478
280.667	324.151
285.516	729.357
290.363	998.238
295.207	786.753
300.048	682.214
304.887	93.4849
309.723	321.669
314.556	388.414
319.387	80.7852
324.215	58.8267
329.04	291.119
333.862	741.913
338.682	769.86
343.5	567.042
348.314	489.588
353.126	917.494
357.935	1555.96
362.742	1947.38
367.546	1321.72
372.347	815.11
377.145	742.012
381.941	586.164
386.735	387.046
391.525	380.644
396.313	240.928
401.098	181.704
405.881	314.67
410.661	524.807
415.438	689.48
420.213	1158.03
424.985	1299.74
429.754	1551.32
434.521	1869.42
439.285	2812.74
444.046	4622.37
448.805	8687.46
453.561	16601.8
458.315	22730.7
463.065	20311
467.813	11936.6
472.559	6169.99
477.302	3325.95
482.042	1760.21
486.78	1135.24
491.515	631.581
496.247	519.465
500.977	542.234
505.704	354.912
510.428	337.647
515.15	402.25
519.869	524.329
524.586	924.667
529.3	2381.62
534.011	5027.76
538.719	7307.78
543.425	4488.28
548.129	1885.02
552.83	876.178
557.528	377.13
562.223	169.393
566.916	31.918
571.607	0.097656
576.294	10.2739
580.979	52.1812
585.662	115.801
590.341	19.3496
595.019	103.246
599.693	161.422
604.365	217.989
609.035	308.343
613.701	224.42
618.366	159.923
623.027	60.6431
627.686	8.47949
632.342	79.5615
636.996	85.6338
641.647	53.9502
646.296	100.811
650.942	7.71191
655.585	41.2725
660.226	78.209
664.864	116.527
669.499	157.871
674.132	70.5869
678.763	187.643
683.39	179.506
688.015	38.874
692.638	115.892
697.258	131.348
701.875	298.233
706.49	100.632
711.102	65.1162
715.712	1.31641
720.319	168.213
724.923	100.311
729.525	227.519
734.124	206.552
738.721	124.147
743.315	208.623
747.907	361.333
752.496	486.041
757.082	794.509
761.666	1205.6
766.247	1728.75
770.826	2377.65
775.402	2584.14
779.975	2153.97
784.546	1232.28
789.115	545.645
793.681	423.151
798.244	338.164
802.804	386.861
807.363	802.207
811.918	638.887
816.471	513.144
821.022	168.141
825.569	155.767
830.115	90.8613
834.657	14.3447
839.198	72.1553
843.735	63.2607
848.27	26.6953
852.803	5.04199
857.333	24.4492
861.86	62.9756
866.385	121.964
870.907	33.2744
875.427	13.4658
879.944	178.084
884.459	23.5176
888.971	126.191
893.481	21.9131
897.988	22.626
902.492	70.5088
906.994	153.492
911.493	3.68359
915.99	43.9932
920.485	10.0459
924.976	53.6338
929.466	46.4082
933.952	15.8369
938.436	8.97949
942.918	26.6748
947.397	309.836
951.874	0.459961
956.348	94.4834
960.819	246.828
965.288	203.172
969.755	164.942
974.219	157.381
978.68	376.127
983.139	957.898
987.595	1550.29
992.049	2499.33
996.501	2448.2
1000.95	925.396
1005.4	308.156
1009.84	340.334
1014.28	256.045
1018.72	310.055
1023.16	182.91
1027.59	478.18
1032.02	346.016
1036.45	534.715
1040.88	639.059
1045.3	615.59
1049.72	680.019
1054.14	773.555
1058.56	976.93
1062.97	1112.59
1067.38	1438.75
1071.79	1695.89
1076.19	1607.87
1080.6	1580.79
1085	1624.09
1089.4	1961.98
1093.79	2559.59
1098.19	3121.16
1102.58	2646.56
1106.97	1986.21
1111.35	2579.59
1115.74	2794.21
1120.12	887.65
1124.5	352.525
1128.87	154.83
1133.25	265.606
1137.62	154.447
1141.99	115.406
1146.35	120.936
1150.72	139.818
1155.08	111.365
1159.44	10.791
1163.79	13.5645
1168.15	146.049
1172.5	120.887
1176.85	122.971
1181.19	23.5371
1185.54	322.148
1189.88	136.9
1194.22	72.7891
1198.55	463.043
1202.89	528.873
1207.22	206.818
1211.55	479.262
1215.88	318.066
1220.2	193.125
1224.52	292.418
1228.84	82.2676
1233.16	186.619
1237.47	215.951
1241.78	291.315
1246.09	195.148
1250.4	85.9746
1254.7	246.356
1259.01	129.322
1263.31	406.728
1267.6	367.779
1271.9	425.93
1276.19	229.182
1280.48	532.414
1284.77	537.881
1289.05	10.9727
1293.33	396.148
1297.61	132.121
1301.89	370.256
1306.16	322.904
1310.44	170.615
1314.71	238.967
1318.97	347.406
1323.24	167.562
1327.5	92.5391
1331.76	367.953
1336.02	392.398
1340.28	318.062
1344.53	428.602
1348.78	347.191
1353.03	385.09
1357.27	326.609
1361.52	332.195
1365.76	97.3047
1370	336.051
1374.23	334.055
1378.47	166.75
1382.7	324.856
1386.93	119.551
1391.15	135.609
1395.38	538.184
1399.6	186.387
1403.82	114.023
1408.03	8.26562
1412.25	119.254
1416.46	346.477
1420.67	499.426
1424.88	272.531
1429.08	160.812
1433.28	77.6992
1437.48	223.305
1441.68	345.703
1445.87	236.922
1450.07	532.106
1454.26	158.516
1458.44	259.992
1462.63	483.684
1466.81	579.301
1470.99	281.731
1475.17	192.504
1479.34	325.449
1483.52	175.281
1487.69	144.277
1491.86	120.047
1496.02	407.043
1500.19	567.453
1504.35	212.953
1508.51	623.383
1512.66	523.734
1516.82	344.297
1520.97	559.164
1525.12	383.195
1529.26	293.012
1533.41	274.871
1537.55	5.28516
