Measurement: Raman, 514 nm, ccw, Raman Data Processed
Mineral: Marialite
Rruff sample: R040113
Ideal chemistry: Na_4_Al_3_Si_9_O_24_Cl
Locality: Gouverneur, New York, USA
Source: University of Arizona Mineral Museum
Description: Green prismatic crystal
Measured chemistry: (Na_0.50_Ca_0.43_K_0.07_)_4_(Si_0.64_Al_0.36_)_12_O_24_(Cl_0.60_(CO_3_)_0.40_)
Pin_id: L01482
Orientation: Laser parallel to c* (0 0 1). Fiducial mark perpendicular to laser is parallel to a [1 0 0]
Raman shift (cm-1)	intensity
90.91	0
95.868	782.053
100.823	1539.97
105.776	4007.41
110.726	7398.6
115.673	5880.38
120.617	3257.62
125.559	2474.81
130.497	2085.81
135.433	2514.26
140.366	3121.34
145.296	5241.69
150.224	9540.72
155.149	14960.3
160.071	18542.2
164.99	18538.2
169.906	14341.7
174.82	9477.05
179.731	7199.63
184.639	6432.55
189.544	6771.23
194.447	7031.81
199.346	6413.02
204.243	6206.85
209.137	5833.76
214.029	4894.94
218.918	4320.91
223.803	4285.35
228.687	3700.12
233.567	2691.44
238.444	1461.45
243.319	787.602
248.191	1219.3
253.061	1907.28
257.927	4238.11
262.791	5957.69
267.652	4896.81
272.51	2265.3
277.366	1134.55
282.219	1653.33
287.069	3133.37
291.916	4108.53
296.761	3504.98
301.602	1304.63
306.441	337.65
311.278	908.012
316.111	807.825
320.942	535.114
325.77	220.519
330.596	1426.75
335.418	2433.53
340.238	2299.39
345.055	1335.89
349.87	1212.21
354.681	2064.73
359.49	3651.1
364.296	3319.11
369.1	1728.83
373.901	1200.53
378.699	1016.99
383.494	1269.84
388.287	1350.49
393.077	1134.44
397.864	704.696
402.648	734.19
407.43	959.874
412.209	1454.03
416.985	2509.99
421.759	3259.05
426.53	3414.72
431.298	4112
436.063	5403.17
440.826	9431.78
445.586	17016.4
450.343	30333.2
455.098	42452.2
459.85	43628
464.599	35391.2
469.345	21941.2
474.089	12189.1
478.83	6774.72
483.569	4038.1
488.304	2693.16
493.037	1820.48
497.768	1168.51
502.495	928.812
507.22	740.898
511.942	834.13
516.662	1124.66
521.379	2239.27
526.093	4724.27
530.805	9838.82
535.513	14031.5
540.22	11282.3
544.923	5665.01
549.624	2958.53
554.322	1619.43
559.017	900.465
563.71	646.668
568.4	479.42
573.087	295.481
577.772	260.82
582.454	243.16
587.134	49.5059
591.81	96.3789
596.484	112.758
601.156	222.46
605.824	874.415
610.49	957.672
615.154	350.582
619.815	41.752
624.473	159.247
629.128	39.6357
633.781	9.18652
638.431	27.748
643.078	35.7891
647.723	35.9893
652.365	68.5508
657.005	134.678
661.642	336.021
666.276	198.135
670.907	310.894
675.536	739.365
680.162	1296.39
684.786	408.897
689.407	364.727
694.025	213.408
698.641	374.544
703.254	587.608
707.864	508.358
712.472	627.814
717.077	733.904
721.68	672.916
726.28	790.394
730.877	933.799
735.472	940.221
740.064	1121.33
744.653	1186.15
749.24	1562.11
753.824	2027.17
758.405	2799.62
762.984	4193.59
767.56	5832.58
772.134	6538.79
776.705	5458.23
781.273	3213.1
785.839	1415.42
790.402	769.078
794.963	846.979
799.521	1259.8
804.076	1714.66
808.629	1602.55
813.179	648.848
817.726	91.209
822.271	244.731
826.813	21.5527
831.353	8.82812
835.89	157.4
840.425	69.0449
844.956	175.234
849.486	46.7598
854.012	5.78125
858.536	136.06
863.058	30.1719
867.577	29.3906
872.093	58.5645
876.607	7.14648
881.118	180.275
885.626	77.7246
890.132	198.906
894.636	141.305
899.136	127.338
903.635	149.043
908.13	398.576
912.623	252.031
917.114	82.3672
921.602	78.3184
926.087	81.8633
930.57	97.7793
935.05	146.102
939.527	116.873
944.002	112.223
948.475	398.152
952.944	354.016
957.412	543.674
961.876	664.26
966.338	662.594
970.798	466.299
975.255	1037.75
979.709	842.936
984.161	1097.22
988.611	881.291
993.057	503.324
997.501	488.594
1001.94	791.295
1006.38	430.742
1010.82	570.758
1015.25	481.914
1019.68	635.152
1024.11	734.039
1028.54	1240.65
1032.96	1311.8
1037.38	1800.21
1041.8	2246.25
1046.22	2249.17
1050.63	2364.08
1055.04	2730.26
1059.45	3221.65
1063.86	3667.5
1068.26	4071.22
1072.66	4427.42
1077.06	4790.22
1081.46	5540.69
1085.85	7695.41
1090.24	11101.2
1094.63	14283.2
1099.01	14571.5
1103.4	14363.3
1107.78	16175.9
1112.16	13299.5
1116.53	4270.4
1120.9	1242.03
1125.28	566.146
1129.64	435.898
1134.01	394.191
1138.37	321.758
1142.73	213.35
1147.09	24.2559
1151.44	85.4043
1155.8	202.803
1160.15	219.596
1164.5	448.416
1168.84	456.344
1173.18	570.811
1177.52	654.473
1181.86	781.953
1186.2	1091.66
1190.53	1199.78
1194.86	1352.52
1199.19	1502.77
1203.51	1074.46
1207.84	659.529
1212.16	730.941
1216.47	341.461
1220.79	239.762
1225.1	226.44
1229.41	21.3574
1233.72	158.801
1238.03	7.08594
1242.33	240.014
1246.63	41.0586
1250.93	64.5996
1255.22	41.8887
1259.52	203.709
1263.81	67.5312
1268.09	51.9492
1272.38	175.482
1276.66	245.111
1280.94	181.076
1285.22	105.486
1289.49	139.275
1293.77	125.303
1298.04	168.603
1302.31	252.174
1306.57	86.1035
1310.84	304.453
1315.1	8.84766
1319.35	437.992
1323.61	108.312
1327.86	271.941
1332.11	112.965
1336.36	202.377
1340.61	322.332
1344.85	262.418
1349.09	174.777
1353.33	199.586
1357.57	355.315
1361.8	170.863
1366.03	311.051
1370.26	352.867
1374.48	252.469
1378.71	235.072
1382.93	204.565
1387.15	404.668
1391.37	117.434
1395.58	129.764
1399.79	403.203
1404	179.371
1408.2	510.943
1412.41	512.488
1416.61	513.076
1420.81	520.912
1425.01	548.314
1429.2	435.231
1433.39	245.065
1437.58	192.978
1441.77	243.158
1445.95	181.897
1450.14	388.065
1454.32	351.549
1458.49	222.94
1462.67	294.184
1466.84	230.975
1471.01	285.287
1475.18	163.106
1479.34	147.019
1483.51	248.623
1487.66	152.961
1491.82	266.602
1495.98	203.217
1500.13	199.014
1504.28	203.199
1508.43	298.566
1512.58	227.609
1516.72	415.816
1520.86	612.117
1525	889.277
1529.13	942.039
1533.27	743.961
1537.4	762.949
1541.53	592.391
1545.65	250.098
1549.78	506.031
1553.9	458.859
1558.02	113.91
1562.13	391.832
1566.25	234.512
1570.36	118.141
1574.47	101.41
