Measurement: Raman, 514 nm, ccw, Raman Data Processed
Mineral: Marialite
Rruff sample: R060297
Ideal chemistry: Na_4_Al_3_Si_9_O_24_Cl
Locality: Morogoro District, Marasi, Tanzania
Source: Herb Obodda
Description: Pale yellow crystal fragment
Measured chemistry: (Na_0.66_Ca_0.29_K_0.06_)_4_(Si_0.68_Al_0.32_)_12_O_24_(Cl_0.70_(CO_3_)_0.30_)
Pin_id: L01156
Orientation: Laser parallel to a* (1 0 0). Fiducial mark perpendicular to laser is parallel to c [0 0 1]
Raman shift (cm-1)	intensity
88.338	0
93.286	1013.68
98.231	3522.05
103.174	3043.27
108.114	1839.13
113.052	1628.46
117.987	2427.7
122.919	3837.68
127.849	4674.18
132.777	4362.58
137.702	3279.72
142.624	2037.34
147.544	2759.16
152.461	5556.43
157.375	9404.97
162.287	11639.7
167.197	11204.8
172.104	5362.79
177.008	2602.3
181.91	1721.04
186.809	2012.62
191.706	2172.96
196.6	1227.3
201.491	803.699
206.38	638.047
211.267	653.326
216.151	1637.26
221.032	2221.74
225.911	1964.76
230.787	938.309
235.66	40.959
240.531	782.486
245.4	842.443
250.266	748.184
255.129	3825.24
259.99	8317.4
264.848	10183.4
269.703	6318.97
274.556	2149.34
279.407	1003.91
284.255	1778.02
289.1	3239.88
293.942	3675.74
298.783	4829.53
303.62	1253.25
308.455	58.3359
313.288	324.406
318.117	272.666
322.945	282.19
327.769	940.91
332.591	1883.07
337.411	2386.42
342.228	1905.59
347.042	1934.17
351.854	2772.1
356.663	4844.83
361.47	6094.21
366.274	3871.64
371.075	3085.43
375.874	3266.41
380.67	3332.18
385.464	2787.56
390.255	1915.49
395.043	1350.72
399.829	1041.82
404.613	1182.55
409.393	2039.35
414.172	3689.59
418.947	5506.35
423.72	5036.27
428.49	3558.15
433.258	3810.51
438.024	5591.14
442.786	8730.54
447.546	15509.4
452.304	30568.7
457.059	40113.4
461.811	37848.2
466.56	25598.9
471.308	14182.3
476.052	7550.05
480.794	4203.5
485.533	2289.22
490.27	1335.06
495.004	476.182
499.736	380.738
504.465	454.275
509.191	83.834
513.915	45.3633
518.636	791.26
523.354	2243.13
528.07	6207.27
532.784	14662.6
537.494	22716.6
542.203	14023.9
546.908	6020.38
551.611	2593.82
556.311	1124.74
561.009	533.441
565.704	458.766
570.397	182.478
575.087	48.1211
579.774	40.4727
584.459	37.1699
589.141	214.551
593.821	178.838
598.498	452.894
603.172	946.037
607.844	572.904
612.513	575.367
617.18	230.611
621.844	51.8594
626.505	221.793
631.164	23.4961
635.82	1.91797
640.473	185.695
645.124	219.406
649.773	245.225
654.418	78.1328
659.062	365.185
663.702	469.672
668.34	209.478
672.975	178.898
677.608	188.742
682.238	73.9961
686.866	59.0449
691.49	89.4766
696.113	78.4981
700.732	458.81
705.349	825.492
709.964	987.588
714.576	964.955
719.185	1109.79
723.792	589.115
728.396	464.92
732.997	536.711
737.596	467.039
742.192	615.191
746.785	1037.94
751.376	2163.58
755.965	3406.56
760.551	5224.78
765.134	7716.11
769.714	10773.8
774.292	11395.9
778.867	8100.23
783.44	4249.06
788.01	2234.39
792.578	1489.28
797.142	811.494
801.705	595.561
806.264	1048.21
810.821	1023.41
815.376	340.545
819.927	173.525
824.476	154.525
829.023	79.6113
833.567	40.3164
838.108	55.3125
842.647	43.1836
847.183	160.086
851.716	120.887
856.247	182.496
860.776	400.625
865.301	253.731
869.824	434.309
874.345	105.801
878.862	112.035
883.377	363.113
887.89	403.129
892.4	505.559
896.907	562.269
901.412	336.566
905.914	349.269
910.413	576.828
914.91	552.227
919.404	376.363
923.896	576.023
928.385	458.16
932.871	527.684
937.355	781.719
941.836	746.957
946.315	719.719
950.79	1006.55
955.264	1019.38
959.734	1170.16
964.202	1220.77
968.668	947.812
973.131	990.789
977.591	1671.7
982.048	3072.58
986.503	6332.15
990.955	10205.8
995.405	9755.66
999.852	4124.35
1004.3	2321.39
1008.74	1058.81
1013.18	212.051
1017.61	204.066
1022.05	127.32
1026.48	319.535
1030.91	690.551
1035.33	2003.25
1039.76	2101.98
1044.18	2514.2
1048.6	2807.19
1053.01	2886.89
1057.42	3621.23
1061.84	4536.97
1066.24	5209.31
1070.65	6101.81
1075.05	6676.77
1079.45	7508.02
1083.85	8342.5
1088.24	9959.41
1092.63	10970
1097.02	12147.7
1101.41	10591.6
1105.8	7772.34
1110.18	7827.22
1114.56	8203.94
1118.93	3455.72
1123.31	2084.86
1127.68	2045.46
1132.04	1793.33
1136.41	1324.71
1140.77	1223.91
1145.13	680.047
1149.49	855.414
1153.85	236.449
1158.2	57.8945
1162.55	38.3594
1166.9	199.527
1171.24	14.7656
1175.58	292.781
1179.92	245.144
1184.26	356.106
1188.6	405.238
1192.93	813.516
1197.26	1098.66
1201.58	948.289
1205.9	840.922
1210.23	1125.96
1214.55	1456.84
1218.86	434.57
1223.17	235.039
1227.48	353.32
1231.79	473.461
1236.1	145.961
1240.4	87.0078
1244.7	224.273
1249	278.5
1253.29	414.734
1257.59	63.4297
1261.88	443.727
1266.16	590.742
1270.45	484.469
1274.73	514.039
1279.01	165.602
1283.28	674.656
1287.56	527.805
1291.83	164.438
1296.1	559.891
1300.36	629.789
1304.63	615.336
1308.89	253.508
1313.15	451.523
1317.4	495.805
1321.65	138.32
1325.9	352.508
1330.15	105.891
1334.4	326.141
1338.64	525.977
1342.88	811.938
1347.12	632.102
1351.35	785.008
1355.58	364.984
1359.81	237.305
1364.04	849.531
1368.26	148.281
1372.48	248.812
1376.7	460.602
1380.92	350.688
1385.13	359.836
1389.34	119.812
1393.55	327.32
1397.76	156.93
1401.96	401.281
1406.16	420.82
1410.36	67.6641
1414.55	231.273
1418.75	194.227
1422.94	202.109
1427.12	429.914
1431.31	305.102
1435.49	412.43
1439.67	574.242
1443.85	112.656
1448.02	349.141
1452.19	80.7656
1456.36	120.633
1460.53	39.125
1464.69	478.883
1468.85	140.797
1473.01	508.938
1477.17	207.07
1481.32	761.859
1485.47	283.305
1489.62	312.945
1493.76	610.281
1497.91	591.742
1502.05	867.977
1506.18	236.805
1510.32	819.969
1514.45	632.695
1518.58	690.25
1522.71	759.07
1526.83	460.32
1530.95	936.219
1535.07	917.766
1539.19	460.062
1543.3	660.398
1547.41	1055.94
1551.52	988.516
1555.63	480.922
1559.73	769.484
1563.83	688.219
1567.93	633.266
1572.03	494.797
1576.12	3.48438
