Measurement: Raman, 514 nm, depolarized, Raman Data Processed
Mineral: Marialite
Rruff sample: R060458
Ideal chemistry: Na_4_Al_3_Si_9_O_24_Cl
Locality: Dading, Nepal
Source: Michael Scott
Description: Colorless elongated prism
Measured chemistry: (Na_0.52_Ca_0.47_K_0.01_)_4_(Al_0.36_Si_0.64_)_12_O_24_(Cl_0.44_(CO_3_)_0.56_)
Pin_id: L01838
Orientation: Laser parallel to a* (1 0 0). Fiducial mark perpendicular to laser is parallel to -c [0 0 -1]
Raman shift (cm-1)	intensity
115.52	0
120.453	2403.69
125.385	2583.48
130.313	2055.06
135.239	2159
140.163	1962.07
145.084	2190.01
150.002	3271.79
154.918	5478.46
159.832	8361.2
164.742	8462.78
169.651	5063.28
174.556	1523.97
179.459	38.6875
184.36	64.5117
189.258	973.758
194.153	1203.56
199.046	1227.59
203.936	588.617
208.824	111.498
213.709	778.943
218.592	1988.29
223.472	2992.44
228.349	3497.27
233.224	2825.08
238.096	1892.29
242.966	1608.43
247.833	2823.73
252.698	6017.78
257.56	11398.1
262.419	16314.8
267.276	12478.6
272.13	5704.65
276.982	2358.42
281.831	1574.59
286.677	2580.13
291.521	4864.33
296.363	7697.02
301.202	4088.85
306.038	701.269
310.872	471.633
315.703	616.57
320.531	322.125
325.357	90.6231
330.181	577
335.001	1306.61
339.82	1682.93
344.635	2018.34
349.448	2746.41
354.259	4651.96
359.067	7076.78
363.872	6407.7
368.675	4079.39
373.475	3223.82
378.272	3910.43
383.067	3197.37
387.86	2760.69
392.649	2282.26
397.437	1858.54
402.221	1631
407.003	2160.83
411.783	3201.81
416.56	5414.64
421.334	8051.96
426.106	6608.8
430.875	4706.58
435.641	5819.35
440.405	9736.94
445.167	16504.7
449.925	29296.1
454.681	43381.5
459.435	44291.4
464.186	37342.4
468.934	22797.6
473.68	12334.9
478.423	6830.48
483.164	4092.49
487.902	2484.44
492.637	1366.71
497.37	743.754
502.1	391.963
506.828	357.199
511.553	459.09
516.276	1216.57
520.995	3040.41
525.713	7276.28
530.427	16383.4
535.139	27809.8
539.849	21955.3
544.556	10448.8
549.26	4689.25
553.962	2143.79
558.661	1171.44
563.357	636.938
568.051	497.357
572.742	421.143
577.431	308.797
582.117	211.406
586.801	503.219
591.481	274.565
596.16	88.5781
600.835	201.897
605.508	180.707
610.179	479.137
614.847	328.797
619.512	303.623
624.175	985.039
628.835	701.068
633.492	137.051
638.147	101.424
642.799	606.699
647.449	627.383
652.096	610.654
656.74	216.828
661.382	30.9238
666.021	59.4727
670.658	80.3223
675.292	216.572
679.923	209.217
684.552	207.326
689.178	316.252
693.802	65.3965
698.423	309.984
703.041	600.135
707.657	858.264
712.27	1186.43
716.881	1181.14
721.489	885.098
726.094	1038.12
730.697	1152.17
735.297	1448.1
739.894	1711.68
744.489	2075.46
749.081	3484.47
753.671	5082.28
758.258	6763.91
762.842	9703.59
767.424	13332.6
772.003	14738
776.58	10871.6
781.154	5560.31
785.725	2350.59
790.294	1301.44
794.86	1033.98
799.424	1114.42
803.985	1158.84
808.543	980.303
813.099	522.666
817.652	23.5234
822.202	184.422
826.75	188.68
831.295	106.863
835.838	294.656
840.378	232.398
844.915	299.922
849.45	242.644
853.982	383.539
858.512	1053.06
863.039	884.09
867.563	466.988
872.085	224.523
876.604	464.109
881.12	294.891
885.634	79.6289
890.145	31.0391
894.654	216.203
899.16	397.863
903.663	137.055
908.164	134.074
912.662	273.754
917.158	49.207
921.651	118.375
926.141	72.0977
930.628	320.043
935.113	4.50391
939.596	48.9297
944.076	160.574
948.553	183.699
953.027	354.582
957.499	574.762
961.969	427.34
966.435	320.75
970.899	315.656
975.361	512.211
979.82	483.871
984.276	652.227
988.73	789.711
993.181	934.285
997.629	1453.86
1002.08	2241.66
1006.52	1289.16
1010.96	621.223
1015.4	170.664
1019.83	562.367
1024.26	1465.33
1028.69	2217.46
1033.12	2534.9
1037.55	3169.95
1041.97	3420.81
1046.39	3839.99
1050.81	4149.03
1055.22	4669.77
1059.63	5090.66
1064.04	6037.05
1068.45	7410.18
1072.85	8252.08
1077.25	9273.87
1081.65	10951.6
1086.05	13440.6
1090.44	17406
1094.83	20102.8
1099.22	18867
1103.6	15121.6
1107.99	13842.8
1112.37	9791.68
1116.74	3917.87
1121.12	2301.57
1125.49	1919.74
1129.86	1654.74
1134.23	1209.86
1138.59	1246.66
1142.95	60.0078
1147.31	97.1523
1151.67	265.488
1156.02	142.938
1160.38	296.457
1164.72	492.469
1169.07	176.941
1173.41	281.539
1177.75	386.836
1182.09	487.367
1186.43	931.078
1190.76	654.945
1195.09	417.391
1199.42	1018.45
1203.74	682.148
1208.07	683.305
1212.39	439.445
1216.7	228.422
1221.02	20.1797
1225.33	165.914
1229.64	86.1953
1233.95	478.594
1238.25	59.8047
1242.55	423.602
1246.85	308.953
1251.15	468.398
1255.44	433.703
1259.73	533.75
1264.02	616.703
1268.31	1149.36
1272.59	1489.24
1276.87	968.969
1281.15	850.688
1285.42	755.062
1289.69	628.555
1293.96	624.812
1298.23	975.719
1302.5	518.523
1306.76	793.875
1311.02	1195.47
1315.27	1049.04
1319.53	794.766
1323.78	586.172
1328.03	535.469
1332.28	520.531
1336.52	67.6328
1340.76	666.789
1345	227.914
1349.23	419.75
1353.47	454.719
1357.7	101.648
1361.93	287.766
1366.15	222.789
1370.37	199.859
1374.59	879.344
1378.81	563.312
1383.03	596.602
1387.24	605.641
1391.45	160.367
1395.65	505.016
1399.86	81.8594
1404.06	60.4375
1408.26	181.531
1412.46	147.156
1416.65	294.047
1420.84	345.75
1425.03	631.07
1429.22	687.859
1433.4	706.938
1437.58	1578.39
1441.76	1801.68
1445.93	1693.31
1450.11	2599.67
1454.28	2475.36
1458.44	2431.88
1462.61	1641.75
1466.77	1385.07
1470.93	1128.51
1475.09	817.055
1479.24	787.391
1483.39	820.281
1487.54	324.695
1491.69	378.984
1495.84	442.555
1499.98	304.609
1504.12	173.484
1508.25	374.5
1512.38	457.25
1516.52	293.359
1520.64	932.516
1524.77	752.828
1528.89	738.125
1533.01	739.906
1537.13	809.25
1541.25	1395.53
1545.36	604.578
1549.47	1040.77
1553.58	1225.31
1557.68	1273.5
1561.78	1045.22
1565.88	114.484
1569.98	1171.45
1574.07	325.422
