Measurement: Raman, 514 nm, depolarized, Raman Data Processed
Mineral: Marialite
Rruff sample: R040043
Ideal chemistry: Na_4_Al_3_Si_9_O_24_Cl
Locality: Gouverneur, New York, USA
Source: University of Arizona Mineral Museum
Description: White prismatic crystals
Measured chemistry: (Na_.493_Ca_.446_K_.061_)_4_(Si_.634_Al_.366_)_12_O_24_((CO_3_)_.581_Cl_.419_)
Pin_id: S00028
Orientation: Laser parallel to a* (1 0 0). Fiducial mark perpendicular to laser is parallel to c [0 0 1]
Raman shift (cm-1)	intensity
117.034	0
121.203	235.057
125.369	1385.53
129.534	2250.85
133.696	2539.09
137.857	2602.09
142.016	1698.81
146.172	1699.62
150.327	2392.83
154.48	3736.99
158.63	5265.19
162.779	6493.5
166.926	5013.59
171.07	2939.07
175.213	701.943
179.354	155.268
183.493	19.885
187.63	421.383
191.765	1108.31
195.898	1260.62
200.029	1209.36
204.158	794.367
208.285	929.754
212.41	812.387
216.533	1678.76
220.654	2590.29
224.773	2972.39
228.891	2871.88
233.006	2273.91
237.119	1409.33
241.231	1232.87
245.34	1382.56
249.448	2231.62
253.553	4553.22
257.657	8867.03
261.758	12753.9
265.858	11350.5
269.956	6750.59
274.052	2741.22
278.146	1263.4
282.237	783.207
286.327	1583.99
290.416	3093.95
294.502	5239.25
298.586	5889.99
302.668	2094.27
306.749	372.15
310.827	318.756
314.903	398.943
318.978	497.508
323.051	174.91
327.121	101.963
331.19	596.645
335.257	1113.71
339.322	1349.05
343.385	1530.6
347.446	1534.99
351.505	2619.99
355.563	4167.27
359.618	5888.12
363.672	5212.39
367.723	3487.14
371.773	2672.04
375.821	2892.7
379.866	3184.02
383.91	3122.55
387.952	2564.36
391.992	2182.66
396.031	1811.45
400.067	1756.35
404.101	1750.39
408.134	2120.77
412.165	3266.56
416.193	5091.49
420.22	7453.12
424.245	6505.32
428.268	4264.17
432.289	4131.05
436.309	4776.95
440.326	7238.94
444.342	11133.5
448.355	17792.3
452.367	29330.5
456.377	33554.2
460.385	33534.5
464.391	27516.1
468.395	18660.4
472.398	12417.9
476.398	8062.52
480.397	5600.62
484.394	3817.99
488.389	2519.65
492.382	1880.19
496.373	1450.62
500.362	1063.43
504.349	981.961
508.335	962.258
512.319	1040.35
516.3	1550.89
520.28	2596.6
524.259	4698.11
528.235	9947.9
532.209	18773.9
536.182	22862.6
540.152	15259.1
544.121	8285.77
548.088	4594.32
552.053	2585.22
556.017	1614.06
559.978	1006.24
563.938	825.104
567.895	688.297
571.851	510.379
575.805	674.25
579.758	672.113
583.708	347.072
587.657	610.023
591.603	85.051
595.548	573.07
599.491	261.188
603.432	404.625
607.372	207.51
611.309	421.695
615.245	203.105
619.179	181.76
623.111	112.41
627.041	158.789
630.97	147.055
634.896	221.582
638.821	60.07
642.744	135.75
646.665	115.48
650.584	30.725
654.502	249.232
658.418	324.709
662.331	12.102
666.244	499.447
670.154	167.496
674.062	793.842
677.969	602.416
681.874	467.504
685.777	191.1
689.678	91.248
693.577	538.418
697.475	1414.63
701.371	820.078
705.265	1429.01
709.157	1450.61
713.047	1442.79
716.936	1248.79
720.823	1165.9
724.708	1232.03
728.591	1441.64
732.472	1321.93
736.352	1561.67
740.23	1730.06
744.106	2269.97
747.98	2935.05
751.853	3806.07
755.723	4963.7
759.592	7124.52
763.459	9834.34
767.325	12518.3
771.188	13692
775.05	11842.2
778.91	7077.94
782.768	3510.17
786.625	1750.81
790.479	1060.85
794.332	957.617
798.183	539.369
802.033	699.121
805.88	1045.4
809.726	496.814
813.57	397.268
817.413	159.104
821.253	52.641
825.092	23.264
828.929	210.48
832.764	129.479
836.598	231.881
840.429	273.416
844.259	288.988
848.088	90.838
851.914	132.387
855.739	117.434
859.562	16.922
863.383	214.238
867.203	123.129
871.02	268.039
874.836	62.137
878.65	151.387
882.463	184.82
886.274	49.203
890.083	54.457
893.89	36.535
897.695	15.113
901.499	22.496
905.301	217.418
909.102	21.336
912.9	45.773
916.697	23.984
920.492	363.695
924.285	406.305
928.077	5.852
931.867	68.469
935.655	203.246
939.442	426.859
943.226	171.387
947.009	498.777
950.791	747.305
954.57	772.672
958.348	986.953
962.124	860.066
965.899	1029.53
969.671	1012.32
973.442	936.32
977.211	971.332
980.979	1237.21
984.745	1566.72
988.509	2007.99
992.271	1945.06
996.032	2252.22
999.791	2721.78
1003.55	2742.86
1007.3	2580.38
1011.06	2656.39
1014.81	2460.62
1018.56	2658.45
1022.31	2883
1026.06	3281.16
1029.8	4017.68
1033.55	4033.48
1037.29	4144.22
1041.03	4125.59
1044.77	4222.13
1048.5	4530.66
1052.24	4391.5
1055.97	4738.22
1059.7	4775.15
1063.43	5126
1067.16	5880.31
1070.89	6459.53
1074.61	6954
1078.34	7143.83
1082.06	8418.44
1085.78	11039.1
1089.5	12257.6
1093.21	12917.5
1096.93	13381.7
1100.64	12150.9
1104.35	12160.3
1108.06	12628
1111.77	10281.8
1115.48	5222.73
1119.18	2239.88
1122.89	3213.96
1126.59	2046.72
1130.29	1607.35
1133.99	1056.46
1137.68	973.586
1141.38	779.25
1145.07	564.43
1148.76	186.715
1152.45	310.441
1156.14	40.27
1159.83	261.254
1163.51	219.922
1167.19	569.125
1170.88	210.262
1174.56	486.785
1178.23	472.633
1181.91	616.625
1185.59	640.598
1189.26	738.332
1192.93	823.855
1196.6	1041.3
1200.27	841.141
1203.94	791.445
1207.6	885.988
1211.27	612.902
1214.93	303.699
1218.59	527.141
1222.25	726.062
1225.9	316.023
1229.56	284.324
1233.21	163.098
1236.86	286.27
1240.51	417.023
1244.16	10.605
1247.81	195.492
1251.45	67.125
1255.1	121.316
1258.74	278.895
1262.38	302.914
1266.02	302.402
1269.66	15.969
1273.29	227.535
1276.93	107.16
1280.56	551.957
1284.19	489.828
1287.82	348.219
1291.45	204.367
1295.07	322.152
1298.7	453.949
1302.32	377.258
1305.94	453.57
1309.56	589.113
1313.18	184.77
1316.8	457.551
1320.41	428.016
1324.02	255.203
1327.63	134.113
1331.24	558.215
1334.85	370.852
1338.46	185.738
1342.06	256.852
1345.67	243.344
1349.27	44.836
1352.87	440.133
1356.47	372.43
1360.07	299.684
1363.66	417.219
1367.25	327.227
1370.85	362.914
1374.44	5.617
1378.03	93.355
1381.61	0
