Measurement: Raman, 514 nm, depolarized, Raman Data Processed
Mineral: Marialite
Rruff sample: R040113
Ideal chemistry: Na_4_Al_3_Si_9_O_24_Cl
Locality: Gouverneur, New York, USA
Source: University of Arizona Mineral Museum
Description: Green prismatic crystal
Measured chemistry: (Na_0.50_Ca_0.43_K_0.07_)_4_(Si_0.64_Al_0.36_)_12_O_24_(Cl_0.60_(CO_3_)_0.40_)
Pin_id: L01482
Orientation: Laser parallel to c* (0 0 1). Fiducial mark perpendicular to laser is parallel to a [1 0 0]
Raman shift (cm-1)	intensity
90.91	0
95.868	55.4316
100.823	1206.12
105.776	3591.57
110.726	6338.6
115.673	5794.8
120.617	3335.54
125.559	2116.54
130.497	2148.51
135.433	2501.73
140.366	3188.47
145.296	5199.55
150.224	8767.23
155.149	13987.2
160.071	18247
164.99	18139.4
169.906	14326.8
174.82	9875.18
179.731	7188.31
184.639	6263.39
189.544	6947.94
194.447	6690.56
199.346	6501.64
204.243	6190.61
209.137	6180.12
214.029	5211.01
218.918	4376.06
223.803	4148.98
228.687	3862.14
233.567	2904.69
238.444	1572.05
243.319	948.58
248.191	773.981
253.061	1847.25
257.927	3527.66
262.791	5348.14
267.652	4820.51
272.51	2190.59
277.366	690.651
282.219	561.483
287.069	1372.75
291.916	2195.35
296.761	2298.52
301.602	1123.27
306.441	494.567
311.278	736.423
316.111	857.689
320.942	236.391
325.77	37.9688
330.596	949.082
335.418	1518.72
340.238	1462.61
345.055	894.463
349.87	1019.04
354.681	1897.61
359.49	3376.83
364.296	3206.61
369.1	1956.01
373.901	1261.92
378.699	1417.35
383.494	1461.89
388.287	1334.55
393.077	1098.94
397.864	840.675
402.648	957.4
407.43	1069.07
412.209	1728.87
416.985	2428.09
421.759	3180.05
426.53	3448.25
431.298	3791.59
436.063	4998.93
440.826	8548.46
445.586	15214.1
450.343	26847.5
455.098	38848.2
459.85	40609
464.599	33630.3
469.345	21244.6
474.089	11643.7
478.83	6617.4
483.569	3760.19
488.304	2718.8
493.037	1779.26
497.768	1285.91
502.495	1027.94
507.22	797.099
511.942	725.379
516.662	949.229
521.379	1902.55
526.093	3995.82
530.805	7987.21
535.513	12877.1
540.22	11911.4
544.923	5610.98
549.624	2768.91
554.322	1587.24
559.017	893.925
563.71	530.856
568.4	596.941
573.087	257.336
577.772	229.888
582.454	130.648
587.134	9.72168
591.81	10.9014
596.484	125.952
601.156	163.042
605.824	500.958
610.49	683.287
615.154	317.284
619.815	66.9316
624.473	125.233
629.128	155.81
633.781	65.7637
638.431	65.709
643.078	160.235
647.723	18.7598
652.365	37.1973
657.005	54.8428
661.642	274.529
666.276	455.982
670.907	358.183
675.536	594.161
680.162	909.014
684.786	333.291
689.407	426.214
694.025	324.703
698.641	337.015
703.254	494.953
707.864	697.281
712.472	481.459
717.077	670.553
721.68	658.65
726.28	642.047
730.877	938.641
735.472	879.13
740.064	909.046
744.653	1048.24
749.24	1532.9
753.824	2032.23
758.405	2760.64
762.984	3726.88
767.56	5393.22
772.134	6364.86
776.705	5489.24
781.273	3268.85
785.839	1472.74
790.402	687.961
794.963	595.641
799.521	755.508
804.076	1021.85
808.629	1266.31
813.179	536.824
817.726	181.664
822.271	142.783
826.813	91.4062
831.353	44.3516
835.89	108.963
840.425	6.15039
844.956	52.1992
849.486	74.4863
854.012	57.8145
858.536	106.631
863.058	18.1914
867.577	39.1895
872.093	156.191
876.607	1.30469
881.118	38.4922
885.626	163.037
890.132	190.848
894.636	189.016
899.136	163.836
903.635	122.633
908.13	226.164
912.623	245.1
917.114	113.299
921.602	129.318
926.087	45.0762
930.57	208.6
935.05	211.453
939.527	7.43359
944.002	211.975
948.475	386.457
952.944	393.369
957.412	723.207
961.876	582.951
966.338	507.643
970.798	820.434
975.255	663.865
979.709	897.82
984.161	1068.98
988.611	977.795
993.057	789.385
997.501	473.102
1001.94	505.41
1006.38	395.879
1010.82	326.391
1015.25	148.94
1019.68	275.688
1024.11	615.58
1028.54	760.564
1032.96	1399.47
1037.38	1256.82
1041.8	1817.52
1046.22	2026.14
1050.63	2013.84
1055.04	2491.92
1059.45	2850.22
1063.86	3283.92
1068.26	3707.16
1072.66	3859.8
1077.06	3923.02
1081.46	4652.99
1085.85	6685.06
1090.24	9627.23
1094.63	12537.9
1099.01	12965.3
1103.4	12725.7
1107.78	14520.6
1112.16	12257.9
1116.53	4313.87
1120.9	1188.66
1125.28	501.684
1129.64	491.363
1134.01	261.674
1138.37	229.777
1142.73	284.256
1147.09	24.2715
1151.44	112.07
1155.8	142.922
1160.15	120.555
1164.5	263.705
1168.84	337.623
1173.18	364.412
1177.52	456.31
1181.86	601.545
1186.2	635.932
1190.53	716.42
1194.86	1145.7
1199.19	1058.29
1203.51	813.256
1207.84	609.758
1212.16	320.545
1216.47	234.498
1220.79	321.527
1225.1	296.656
1229.41	82.7344
1233.72	38.7305
1238.03	64.4316
1242.33	0.775391
1246.63	46.543
1250.93	214.857
1255.22	39.4648
1259.52	83.7519
1263.81	45.3672
1268.09	11.2598
1272.38	70.4922
1276.66	221.639
1280.94	227.865
1285.22	106.193
1289.49	82.4707
1293.77	191.549
1298.04	50.1445
1302.31	2.2207
1306.57	300.482
1310.84	278.049
1315.1	122.078
1319.35	177.682
1323.61	332.723
1327.86	212.223
1332.11	160.303
1336.36	160.031
1340.61	431.326
1344.85	276.916
1349.09	290.81
1353.33	421.838
1357.57	82.2793
1361.8	257.133
1366.03	301.848
1370.26	187.109
1374.48	15.6602
1378.71	283.076
1382.93	340.398
1387.15	147.9
1391.37	494.793
1395.58	169.205
1399.79	486.93
1404	291.607
1408.2	154.648
1412.41	376.93
1416.61	301.205
1420.81	799.865
1425.01	544.979
1429.2	434.941
1433.39	353.867
1437.58	386.328
1441.77	354.879
1445.95	169.643
1450.14	282.92
1454.32	7.2207
1458.49	196.861
1462.67	37.5762
1466.84	246.699
1471.01	302.162
1475.18	92.0078
1479.34	49.9824
1483.51	134.34
1487.66	112.908
1491.82	250.758
1495.98	54.291
1500.13	209.654
1504.28	67.8496
1508.43	280.043
1512.58	165.432
1516.72	347
1520.86	626.385
1525	870.664
1529.13	801.348
1533.27	924.754
1537.4	581.254
1541.53	662.84
1545.65	714.566
1549.78	372.639
1553.9	384.352
1558.02	432.607
1562.13	250.727
1566.25	419.361
1570.36	385.981
1574.47	0.222656
