Measurement: Raman, 514 nm, ccw, Raman Data Processed
Mineral: Marialite
Rruff sample: R060469
Ideal chemistry: Na_4_Al_3_Si_9_O_24_Cl
Locality: Mpwa-Mpwa mine, Umba Valley, near Arusha, Tanzania
Source: Michael Scott
Description: Yellow tetragonal prism with pronounced striations along the c-axis direction
Measured chemistry: (Na_0.66_Ca_0.27_K_0.07_)_4_(Si_0.68_Al_0.32_)_12_O_24_(Cl_0.75_(CO_3_)_0.25_)
Pin_id: L01121
Orientation: Laser parallel to c* (0 0 1). Fiducial mark perpendicular to laser is parallel to a [1 0 0]
Raman shift (cm-1)	intensity
109.241	0
114.185	22.1528
119.126	60.9126
124.064	403.618
129	850.809
133.933	1408.41
138.864	1823.35
143.791	3099.56
148.716	4963.34
153.638	7649.37
158.558	9837.37
163.475	10370.9
168.389	8745.68
173.3	6324.39
178.209	4863.91
183.115	4378.93
188.018	4345.62
192.918	4029.41
197.816	3474.97
202.711	3137.72
207.604	2894.81
212.494	2514.94
217.381	2192.99
222.265	2177.8
227.147	2208.04
232.026	1802.68
236.902	1329.4
241.775	948.309
246.646	936.503
251.514	1134.5
256.38	2065.15
261.243	2965.45
266.103	2956.23
270.96	1471.21
275.815	488.806
280.667	67.6963
285.516	41.2441
290.363	109.936
295.207	237.481
300.048	474.677
304.887	6.40332
309.723	210.023
314.556	253.941
319.387	236.517
324.215	38.4502
329.04	106.86
333.862	348.907
338.682	445.902
343.5	262.858
348.314	341.812
353.126	776.844
357.935	1458.81
362.742	1778.52
367.546	1218.91
372.347	807.742
377.145	552.746
381.941	474.015
386.735	362.523
391.525	234.198
396.313	197.888
401.098	91.3989
405.881	221.739
410.661	352.952
415.438	620.12
420.213	1039.67
424.985	1312.19
429.754	1427.59
434.521	1792.84
439.285	2684.99
444.046	4344.29
448.805	8481.36
453.561	15860.5
458.315	21345.9
463.065	18569.5
467.813	11349
472.559	5817.05
477.302	2918.26
482.042	1693.21
486.78	876.401
491.515	554.327
496.247	528.434
500.977	451.377
505.704	375.244
510.428	354.409
515.15	394.83
519.869	554.048
524.586	929.003
529.3	2235.51
534.011	4677.04
538.719	6697.04
543.425	3943.36
548.129	1699.14
552.83	813.961
557.528	257.814
562.223	164.971
566.916	131.387
571.607	47.4424
576.294	46.8076
580.979	41.3643
585.662	34.2715
590.341	41.0542
595.019	148.728
599.693	17.9087
604.365	159.695
609.035	93.5791
613.701	161.322
618.366	141.277
623.027	57.5395
627.686	33.0181
632.342	29.5757
636.996	73.1914
641.647	22.5361
646.296	53.855
650.942	26.9336
655.585	78.3164
660.226	157.995
664.864	148.626
669.499	126.465
674.132	41.3174
678.763	71.1738
683.39	132.051
688.015	144.709
692.638	165.529
697.258	157.259
701.875	102.88
706.49	158.614
711.102	235.846
715.712	246.731
720.319	190.436
724.923	176.54
729.525	184.953
734.124	206.858
738.721	262.733
743.315	116.369
747.907	267.361
752.496	541.611
757.082	829.379
761.666	1189.81
766.247	1598.07
770.826	2357.18
775.402	2570.2
779.975	2075.09
784.546	1218.26
789.115	565.433
793.681	281.157
798.244	208.991
802.804	375.381
807.363	379.748
811.918	326.3
816.471	199.942
821.022	188.412
825.569	131.411
830.115	103.451
834.657	42.2178
839.198	68.0674
843.735	83.2461
848.27	8.18359
852.803	142.907
857.333	93.3135
861.86	40.127
866.385	0.12207
870.907	34.9199
875.427	78.8711
879.944	21.8076
884.459	116.095
888.971	52.9951
893.481	10.3662
897.988	95.4795
902.492	149.885
906.994	127.426
911.493	54.5185
915.99	137.223
920.485	206.56
924.976	54.4883
929.466	136.897
933.952	16.7041
938.436	1.7793
942.918	51.7637
947.397	193.074
951.874	26.0586
956.348	170.283
960.819	93.792
965.288	187.241
969.755	110.314
974.219	237.197
978.68	375.084
983.139	937.88
987.595	1749.66
992.049	2381.47
996.501	2404.28
1000.95	648.464
1005.4	266.444
1009.84	429.433
1014.28	395.496
1018.72	331.574
1023.16	385.904
1027.59	379.006
1032.02	365.254
1036.45	390.35
1040.88	498.258
1045.3	343.213
1049.72	689.586
1054.14	879.314
1058.56	918.182
1062.97	1106.92
1067.38	1377.66
1071.79	1549.18
1076.19	1672.36
1080.6	1309.56
1085	1607.32
1089.4	1656.74
1093.79	2529.53
1098.19	2958.69
1102.58	2558.04
1106.97	1738.23
1111.35	2579.52
1115.74	2399.23
1120.12	702.939
1124.5	336.484
1128.87	302.254
1133.25	83.5527
1137.62	245.301
1141.99	90.5059
1146.35	194.627
1150.72	232.658
1155.08	54.3027
1159.44	82.7168
1163.79	82.9512
1168.15	135.477
1172.5	141.414
1176.85	107.195
1181.19	185.166
1185.54	275.469
1189.88	52.1289
1194.22	211.428
1198.55	290.791
1202.89	266.42
1207.22	283.565
1211.55	73.5039
1215.88	95.5371
1220.2	182.147
1224.52	283.283
1228.84	195.412
1233.16	113.242
1237.47	292.522
1241.78	249.967
1246.09	210.213
1250.4	148.664
1254.7	268.928
1259.01	152.897
1263.31	441.49
1267.6	268.307
1271.9	357.016
1276.19	97.7793
1280.48	176.836
1284.77	294.482
1289.05	228.478
1293.33	117.09
1297.61	324.809
1301.89	107.311
1306.16	83.9941
1310.44	89.0254
1314.71	350.596
1318.97	388.424
1323.24	268.66
1327.5	399.463
1331.76	315.572
1336.02	159.922
1340.28	357.727
1344.53	125.176
1348.78	361.59
1353.03	332.805
1357.27	295.91
1361.52	443.68
1365.76	323.891
1370	387.758
1374.23	67.3008
1378.47	122.406
1382.7	129.738
1386.93	59.3594
1391.15	156.672
1395.38	324.613
1399.6	298.606
1403.82	135.305
1408.03	22.1875
1412.25	118.984
1416.46	190.031
1420.67	66.8984
1424.88	472.066
1429.08	408.594
1433.28	204.769
1437.48	348.496
1441.68	121.68
1445.87	293.219
1450.07	154.551
1454.26	618.191
1458.44	469.402
1462.63	317.996
1466.81	296.738
1470.99	348.039
1475.17	130.07
1479.34	129.137
1483.52	166.453
1487.69	202.621
1491.86	324.625
1496.02	527.621
1500.19	364.242
1504.35	225.434
