Measurement: Raman, 514 nm, depolarized, Raman Data Processed
Mineral: Marialite
Rruff sample: R060297
Ideal chemistry: Na_4_Al_3_Si_9_O_24_Cl
Locality: Morogoro District, Marasi, Tanzania
Source: Herb Obodda
Description: Pale yellow crystal fragment
Measured chemistry: (Na_0.66_Ca_0.29_K_0.06_)_4_(Si_0.68_Al_0.32_)_12_O_24_(Cl_0.70_(CO_3_)_0.30_)
Pin_id: L01219
Orientation: Laser parallel to c* (0 0 1). Fiducial mark perpendicular to laser is parallel to a [1 0 0]
Raman shift (cm-1)	intensity
93.286	0
98.231	132.527
103.174	2398.05
108.114	7385.68
113.052	7084.97
117.987	3459.04
122.919	1230.72
127.849	874.691
132.777	1294.28
137.702	1875.89
142.624	4573.85
147.544	9975.34
152.461	18052
157.375	26797.2
162.287	30254.2
167.197	25391.1
172.104	16768.3
177.008	10855.8
181.91	9723.06
186.809	9493.66
191.706	9292.48
196.6	7848.94
201.491	6890.65
206.38	6716.39
211.267	5282.4
216.151	3569.28
221.032	3788.4
225.911	3641.9
230.787	2705.6
235.66	1287.11
240.531	47.3398
245.4	62.8203
250.266	1170.87
255.129	3491.25
259.99	7386.86
264.848	8304.17
269.703	4388.59
274.556	1216.22
279.407	692.936
284.255	1722.98
289.1	2946.83
293.942	2321.67
298.783	2255.24
303.62	38.6523
308.455	828.312
313.288	976.322
318.117	547.932
322.945	463.494
327.769	1785.4
332.591	2523.72
337.411	3264.83
342.228	2226.71
347.042	1713.08
351.854	2998.75
356.663	4862.61
361.47	6164.76
366.274	3962.08
371.075	2606.62
375.874	2358.98
380.67	2117.68
385.464	1955.88
390.255	1399.19
395.043	1336.25
399.829	1185.64
404.613	1393.9
409.393	1995.84
414.172	3089.1
418.947	4131.84
423.72	4463.31
428.49	4933.34
433.258	6166.06
438.024	9141.05
442.786	14561
447.546	26280.8
452.304	50490.2
457.059	66635.4
461.811	61852.3
466.56	39918.9
471.308	21116.7
476.052	11022.4
480.794	6400.06
485.533	4211.73
490.27	2743.62
495.004	2143
499.736	1891.58
504.465	1798.52
509.191	1669.2
513.915	1959.64
518.636	2491.27
523.354	3462.45
528.07	7531.9
532.784	15301
537.494	22481.1
542.203	14661.6
546.908	6914.26
551.611	3417.61
556.311	2184.68
561.009	1544.5
565.704	1499.71
570.397	1262.86
575.087	840.672
579.774	710.59
584.459	209.217
589.141	646.586
593.821	312.363
598.498	694.66
603.172	866.18
607.844	684.941
612.513	859.816
617.18	374.691
621.844	147.305
626.505	146.672
631.164	236.152
635.82	210.703
640.473	281.106
645.124	2.03906
649.773	118.516
654.418	6.96484
659.062	123
663.702	248.422
668.34	220.078
672.975	20.9648
677.608	576.348
682.238	146.68
686.866	28.168
691.49	130.41
696.113	99.3203
700.732	190.531
705.349	367.867
709.964	495.734
714.576	452.312
719.185	297.106
723.792	534.164
728.396	519.621
732.997	319.754
737.596	278.234
742.192	440.938
746.785	673.981
751.376	1335.5
755.965	1913.16
760.551	2856.08
765.134	4583.66
769.714	6971.52
774.292	7211.24
778.867	6005.4
783.44	2984.98
788.01	1455.09
792.578	702.91
797.142	525.668
801.705	862.762
806.264	1761.14
810.821	1840.04
815.376	769.047
819.927	86.5039
824.476	248.875
829.023	19.207
833.567	127.184
838.108	207.867
842.647	139.918
847.183	128.871
851.716	108.656
856.247	220.484
860.776	441.32
865.301	424.953
869.824	665.859
874.345	367.262
878.862	392.293
883.377	579.684
887.89	454.016
892.4	558.457
896.907	988.512
901.412	1005.71
905.914	1053.04
910.413	1343.94
914.91	972.398
919.404	804.106
923.896	1008.57
928.385	983.883
932.871	1179.82
937.355	1153.91
941.836	907.59
946.315	1093.54
950.79	1286.86
955.264	1527.82
959.734	1489.66
964.202	1085.41
968.668	1588.44
973.131	1566.75
977.591	2233.93
982.048	4101
986.503	6765.32
990.955	10192.4
995.405	9340.08
999.852	3779.25
1004.3	2173.5
1008.74	955.508
1013.18	346.812
1017.61	419.934
1022.05	547.102
1026.48	332.086
1030.91	701.019
1035.33	1820.04
1039.76	2505.14
1044.18	2432.04
1048.6	3137.83
1053.01	3413.49
1057.42	4225.04
1061.84	4874.57
1066.24	5522.68
1070.65	6892.22
1075.05	6606.36
1079.45	6042.39
1083.85	6645
1088.24	7774.52
1092.63	9377.64
1097.02	12166.4
1101.41	11012.9
1105.8	7836.72
1110.18	9523.45
1114.56	10897.1
1118.93	3926.73
1123.31	2344.75
1127.68	1676.66
1132.04	1779.9
1136.41	1310.11
1140.77	1073
1145.13	1276.06
1149.49	932.602
1153.85	217.602
1158.2	554.539
1162.55	195.992
1166.9	58.3828
1171.24	544.453
1175.58	481.641
1179.92	450.641
1184.26	236.586
1188.6	864.5
1192.93	649.172
1197.26	1437.92
1201.58	1418.12
1205.9	1253.31
1210.23	964.492
1214.55	794.016
1218.86	351.203
1223.17	603.18
1227.48	510.32
1231.79	453
1236.1	367.906
1240.4	306.961
1244.7	333.492
1249	628.719
1253.29	288.281
1257.59	549.977
1261.88	276.453
1266.16	266.086
1270.45	383.133
1274.73	267.109
1279.01	596.781
1283.28	332.422
1287.56	335.625
1291.83	350.688
1296.1	573.406
1300.36	339.195
1304.63	234.461
1308.89	198.008
1313.15	100.875
1317.4	309.336
1321.65	353.016
1325.9	273.875
1330.15	248.211
1334.4	594.273
1338.64	349.234
1342.88	346.852
1347.12	213.648
1351.35	446.945
1355.58	300.695
1359.81	495.188
1364.04	326.195
1368.26	6.84375
1372.48	441.148
1376.7	185.5
1380.92	579.836
1385.13	34.375
1389.34	319.891
1393.55	2.24219
1397.76	148.555
1401.96	264.367
1406.16	862.148
1410.36	409.953
1414.55	404.094
1418.75	338.945
1422.94	508.094
1427.12	652.297
1431.31	580.484
1435.49	646.531
1439.67	531.469
1443.85	39.4609
1448.02	664.508
1452.19	412.07
1456.36	186.32
1460.53	545.789
1464.69	209.617
1468.85	139.953
1473.01	414.758
1477.17	53
1481.32	178.883
1485.47	194.633
1489.62	163.953
1493.76	227.133
1497.91	127.133
1502.05	775.797
1506.18	96.1406
1510.32	593.016
1514.45	556.969
1518.58	856.578
1522.71	1269.58
1526.83	636.859
1530.95	952.938
1535.07	926.5
1539.19	716.828
1543.3	860.781
1547.41	755.25
1551.52	1081.77
1555.63	610.438
1559.73	1061.69
1563.83	853.391
1567.93	584.609
1572.03	840.906
1576.12	6.48438
