Measurement: Raman, 514 nm, ccw, Raman Data Processed
Mineral: Marialite
Rruff sample: R060469
Ideal chemistry: Na_4_Al_3_Si_9_O_24_Cl
Locality: Mpwa-Mpwa mine, Umba Valley, near Arusha, Tanzania
Source: Michael Scott
Description: Yellow tetragonal prism with pronounced striations along the c-axis direction
Measured chemistry: (Na_0.66_Ca_0.27_K_0.07_)_4_(Si_0.68_Al_0.32_)_12_O_24_(Cl_0.75_(CO_3_)_0.25_)
Pin_id: L01385
Orientation: Laser parallel to a* (1 0 0). Fiducial mark perpendicular to laser is parallel to c [0 0 1]
Raman shift (cm-1)	intensity
125.299	0
130.234	159.191
135.166	70.4082
140.096	512.583
145.023	1410.27
149.947	3058.18
154.869	4963.41
159.787	6704.26
164.703	6967.48
169.617	5225.43
174.528	3446.88
179.435	2700.52
184.341	2506.69
189.243	2467.07
194.143	2121.37
199.04	1682.4
203.935	1289.62
208.827	1094.23
213.716	769.111
218.602	1016.9
223.486	1220.37
228.367	1151.81
233.245	854.915
238.12	590.546
242.993	423.661
247.863	523.123
252.731	1029.76
257.596	1988.95
262.458	2363.69
267.317	1977.29
272.174	1014.04
277.028	638.082
281.879	1009.67
286.728	1362.96
291.574	1381.67
296.417	849.009
301.258	443.438
306.096	138.523
310.931	194.908
315.764	311.516
320.594	135.657
325.421	228.841
330.246	558.744
335.068	779.288
339.887	637.574
344.703	429.651
349.517	555.542
354.329	902.278
359.137	1316.93
363.943	1296.5
368.746	799.495
373.547	484.625
378.345	476.257
383.14	349.955
387.932	156.739
392.722	158.518
397.51	88.2022
402.294	159.581
407.076	163.429
411.855	372.675
416.632	505.935
421.406	833.291
426.177	808.279
430.946	1063.36
435.712	1730.18
440.475	2675.76
445.236	5103.6
449.994	10308.5
454.75	16139.8
459.502	17350.5
464.253	13155.9
469	7177.89
473.745	3784.01
478.487	1996.92
483.227	1200.23
487.964	734.39
492.698	482.368
497.43	382.226
502.159	337.406
506.885	206.51
511.609	150.167
516.33	224.75
521.049	587.365
525.764	1127.66
530.478	2816.36
535.188	4961.94
539.896	4973.98
544.602	2533.94
549.304	1022.58
554.004	486.006
558.702	241.092
563.397	154.9
568.089	51.4663
572.779	89.0503
577.466	30.293
582.15	69.9238
586.832	15.4336
591.511	76.2773
596.188	171.112
600.862	297.478
605.533	277.059
610.202	217.23
614.868	266.128
619.531	75.3291
624.192	94.9541
628.85	45.8584
633.506	83.0527
638.159	141.529
642.81	35.8506
647.457	42.3086
652.103	72.1445
656.745	133.401
661.385	19.709
666.023	130.331
670.658	126.866
675.29	122.949
679.92	103.639
684.547	129.902
689.171	58.6953
693.793	5.66504
698.413	94.1269
703.029	173.894
707.643	202.894
712.255	34.7315
716.864	76.1924
721.47	85.9941
726.074	218.709
730.675	196.728
735.274	186.866
739.87	52.042
744.463	131.016
749.054	304.994
753.643	538.594
758.228	721.1
762.812	1020.89
767.392	1613.87
771.97	1870.39
776.546	1770.03
781.118	1138.88
785.689	652.217
790.256	420.607
794.822	410.979
799.384	409.823
803.944	772.1
808.502	793.77
813.057	578.22
817.609	178.133
822.159	83.8203
826.706	166.751
831.251	120.004
835.793	110.013
840.332	17.3467
844.869	115.062
849.404	158.83
853.936	95.6143
858.465	33.9111
862.992	50.0693
867.516	101.668
872.037	17.5361
876.557	138.716
881.073	10.0068
885.587	101.429
890.099	5.56641
894.608	48.7256
899.114	67.8018
903.618	3.50879
908.119	84.2334
912.618	196.028
917.114	22.9072
921.608	125.845
926.099	27.1602
930.588	53.4287
935.074	56.6523
939.557	19.4453
944.038	10.0732
948.517	156.598
952.993	83.5527
957.466	166.688
961.937	158.611
966.405	63.3232
970.871	181.704
975.334	80.6894
979.795	412.897
984.253	872.081
988.709	1535.94
993.162	2022.59
997.613	1386.25
1002.06	545.258
1006.51	92.4785
1010.95	167.99
1015.39	155.631
1019.83	194.777
1024.26	258.397
1028.7	357.986
1033.13	68.5234
1037.56	505.555
1041.98	477.481
1046.4	517.385
1050.83	554.1
1055.24	723.287
1059.66	899.209
1064.07	1056.31
1068.48	1322.16
1072.89	1227.4
1077.3	1375.34
1081.7	1189.43
1086.1	1483.36
1090.5	1714.75
1094.89	2132.3
1099.29	2352.75
1103.68	1872.1
1108.06	1673.08
1112.45	2144.33
1116.83	1491.18
1121.21	392.557
1125.59	508.807
1129.97	141.769
1134.34	103.594
1138.71	132.731
1143.08	69.3652
1147.44	113.447
1151.81	149.912
1156.17	85.8769
1160.53	79.9102
1164.88	220.846
1169.23	27.0996
1173.59	7.26953
1177.93	90.9453
1182.28	43.293
1186.62	170.697
1190.96	363.477
1195.3	260.15
1199.64	239.998
1203.97	407.068
1208.3	404.008
1212.63	428.625
1216.96	122.951
1221.28	298.594
1225.6	34.5273
1229.92	131.393
1234.24	117.693
1238.55	202.941
1242.86	25.3926
1247.17	212.949
1251.47	353.137
1255.78	141.397
1260.08	134.469
1264.38	282.74
1268.68	118.893
1272.97	545.537
1277.26	243.623
1281.55	260.58
1285.84	289.545
1290.12	84.2852
1294.4	46.4023
1298.68	77.0293
1302.96	252.238
1307.23	273.992
1311.51	374.397
1315.78	303.998
1320.04	305.883
1324.31	327.121
1328.57	305.068
1332.83	245.801
1337.09	474.324
1341.34	264.394
1345.59	332.484
1349.84	382.981
1354.09	208.477
1358.34	352.83
1362.58	74.5566
1366.82	271.805
1371.06	75.8242
1375.29	130.508
1379.52	247.31
1383.75	182.541
1387.98	158.963
1392.21	122.535
1396.43	107.695
1400.65	265.027
1404.87	77.6445
1409.09	40.0312
1413.3	189.203
1417.51	7.46094
1421.72	21.6055
1425.93	215.848
1430.13	81.6562
1434.33	212.75
1438.53	5.92969
1442.73	305.781
1446.92	315.008
1451.11	414.957
1455.3	523.481
1459.49	237.336
1463.67	182.059
1467.86	372.941
1472.04	223.609
1476.21	219.023
1480.39	248.199
1484.56	379.676
1488.73	451.367
1492.9	349.156
1497.06	271.551
1501.23	490.672
1505.39	226.656
1509.55	407.863
1513.7	474.297
1517.85	578.68
1522	234.527
1526.15	401.426
1530.3	472.891
1534.44	460.481
1538.58	187.836
1542.72	433.543
1546.86	384.574
1550.99	297.867
1555.13	155.742
1559.26	185.481
1563.38	231.758
1567.51	12.4883
1571.63	36.4648
1575.75	63.3711
