Measurement: Raman, 514 nm, depolarized, Raman Data Processed
Mineral: Marialite
Rruff sample: R050123
Ideal chemistry: Na_4_Al_3_Si_9_O_24_Cl
Locality: Pakistan
Source: Syed Shah
Description: Purple fragment
Measured chemistry: (Na_0.88_Ca_0.07_K_0.05_)_4_Al_3.00_Si_9.00_O_24_Cl_0.97
Pin_id: L00549
Orientation: Laser parallel to -a* (-1 0 0). Fiducial mark perpendicular to laser is parallel to -c [0 0 -1]
Raman shift (cm-1)	intensity
49.365	0
53.566	227.704
57.765	672.262
61.962	1043.91
66.157	742.08
70.349	973.987
74.54	606.625
78.729	206.382
82.916	68.525
87.101	166.076
91.284	123.016
95.465	1007.06
99.644	2402.61
103.82	4062.87
107.995	5456.37
112.168	5520.99
116.339	5273.24
120.508	4895.97
124.675	4741.35
128.84	4478.81
133.003	4488.5
137.164	4575.65
141.323	5083.94
145.48	5763.41
149.635	7024.36
153.788	8653.36
157.939	9701.88
162.088	9410.82
166.235	7910.19
170.38	6159.98
174.523	5109.2
178.664	4540.84
182.803	4197.12
186.94	3744.61
191.076	3149.71
195.209	2623.41
199.34	2208.53
203.47	1994.09
207.597	1886.12
211.722	1756.42
215.846	1699.15
219.967	1853.4
224.087	1830.81
228.204	1692.65
232.32	1495.18
236.434	1331.17
240.545	1408.19
244.655	1759.09
248.763	2559.55
252.869	4276.51
256.973	6708.83
261.075	7091.93
265.175	5068.42
269.273	3124.26
273.369	2040.45
277.463	1715.96
281.556	1644.78
285.646	1548.84
289.734	1422.12
293.821	1545.62
297.905	1519.35
301.988	763.279
306.069	188.376
310.147	156.373
314.224	188.127
318.299	163.949
322.372	115.442
326.443	25.651
330.512	153.264
334.579	342.087
338.645	409.164
342.708	587.481
346.769	874.762
350.829	1726.5
354.887	3039.51
358.942	3778.48
362.996	3459.63
367.048	2830.96
371.098	2054.44
375.146	1415.08
379.192	1047.83
383.236	882.503
387.279	626.097
391.319	416.667
395.358	253.27
399.394	208.975
403.429	184.827
407.462	304.769
411.493	438.649
415.522	675.405
419.549	885.461
423.575	1367.45
427.598	1516.56
431.619	1468.02
435.639	1778.32
439.657	2507.73
443.673	3940.26
447.687	7152.01
451.699	13754.7
455.709	22237.5
459.717	20409.6
463.724	12321.3
467.728	7132.25
471.731	4127.26
475.732	2700.03
479.731	1598.1
483.728	968.027
487.723	657.402
491.716	559.168
495.708	426.439
499.697	296.327
503.685	304.08
507.671	253.915
511.655	59.09
515.637	80.188
519.617	278.597
523.596	742.733
527.572	1585.28
531.547	4510.74
535.52	11141
539.491	10221.3
543.46	4439.14
547.427	1911.94
551.393	759.644
555.356	391.256
559.318	162.775
563.278	58.187
567.236	20.532
571.192	45.484
575.147	47.963
579.099	12.002
583.05	12.783
586.999	29.441
590.946	50.993
594.891	43.404
598.834	16.656
602.776	73.735
606.715	0.372
610.653	4.293
614.589	51.717
618.523	51.934
622.456	119.956
626.386	146.783
630.315	131.472
634.242	68.151
638.167	44.252
642.09	18.931
646.012	36.885
649.931	33.77
653.849	35.134
657.765	29.095
661.679	2.284
665.592	5.002
669.502	0.908
673.411	27.191
677.318	96.723
681.223	93.475
685.126	64.518
689.028	173.049
692.927	186.631
696.825	218.197
700.721	204.173
704.616	321.855
708.508	408.205
712.399	432.812
716.288	360.706
720.175	405.382
724.06	472.019
727.944	566.939
731.825	528.147
735.705	601.446
739.584	654.949
743.46	907.874
747.334	1016.28
751.207	1267.23
755.078	1468.89
758.947	1805.45
762.815	2236.33
766.68	3303.47
770.544	3204.89
774.406	3417.45
778.267	4098.62
782.125	4942.7
785.982	5168.29
789.837	4238.58
793.69	2503.91
797.542	1380.54
801.391	913.307
805.239	831.769
809.085	927.764
812.93	1087.09
816.772	703.489
820.613	327.469
824.452	173.188
828.29	205.246
832.125	143.321
835.959	108.703
839.791	109.335
843.621	98.407
847.45	81.025
851.277	95.376
855.102	89.86
858.925	91.187
862.746	9.626
866.566	3.602
870.384	78.272
874.2	35.025
878.015	16.331
881.828	14.238
885.639	79.08
889.448	59.469
893.256	68.075
897.061	41.078
900.865	34.037
904.668	64.853
908.468	64.533
912.267	28.874
916.064	60.625
919.86	41.085
923.653	37.5
927.445	35.174
931.236	2.054
935.024	46.77
938.811	10.702
942.596	8.361
946.379	101.544
950.161	40.844
953.94	55.224
957.719	29.661
961.495	106.14
965.27	91.713
969.043	133.328
972.814	159.998
976.583	238.735
980.351	258.578
984.117	585.453
987.882	853.194
991.644	1224.75
995.405	1235.56
999.165	676.06
1002.92	497.508
1006.68	492.286
1010.43	510.259
1014.18	581.045
1017.93	595.138
1021.68	559.278
1025.43	541.19
1029.18	551.72
1032.92	700.485
1036.66	734.566
1040.4	985.243
1044.14	1056.96
1047.88	1057.93
1051.62	1022.67
1055.35	1050.93
1059.08	1179.05
1062.81	1239.74
1066.54	1449.92
1070.27	1685.23
1073.99	1895.22
1077.72	2122.61
1081.44	2430.07
1085.16	2939.44
1088.88	3464.03
1092.59	3899.74
1096.31	3973.18
1100.02	3776.09
1103.73	3584.28
1107.44	3141.05
1111.15	2875.68
1114.86	2700.8
1118.57	2389.57
1122.27	2255.55
1125.97	1793.28
1129.67	1488.41
1133.37	1206.88
1137.07	949.012
1140.76	861.276
1144.45	708.271
1148.15	551.471
1151.84	482.319
1155.53	264.309
1159.21	142.189
1162.9	50.096
1166.58	121.24
1170.26	167.184
1173.94	215.128
1177.62	287.002
1181.3	214.823
1184.97	116.839
1188.65	116.713
1192.32	272.237
1195.99	315.939
1199.66	501.468
1203.33	552.921
1206.99	619.66
1210.65	558.726
1214.32	419.344
1217.98	267.194
1221.64	256.121
1225.29	160.605
1228.95	164.961
1232.6	237.391
1236.26	165.965
1239.91	179.127
1243.56	76.09
1247.2	28.082
1250.85	22.391
1254.49	37.08
1258.13	8.97
1261.78	81.842
1265.41	109.48
1269.05	114.934
1272.69	15.586
1276.32	159.891
1279.95	143.162
1283.59	10.344
1287.21	15.565
1290.84	102.569
1294.47	93.74
1298.09	137.934
1301.72	212.762
1305.34	96.033
1308.96	37.569
1312.58	75.125
1316.19	31.859
1319.81	16.188
1323.42	49.095
1327.03	152.133
1330.64	142.588
1334.25	90.586
1337.86	158.346
1341.46	95.558
1345.07	13.61
1348.67	28.853
1352.27	18.006
1355.87	55.792
1359.46	65.285
1363.06	98.514
1366.65	211.884
1370.25	69.625
1373.84	110.711
1377.43	116.455
1381.02	51.34
1384.6	37.9
1388.18	42.63
1391.77	78.876
1395.35	163.733
1398.93	194.138
1402.51	207.418
1406.08	380.7
1409.66	275.817
1413.23	257.007
1416.8	250.925
1420.37	146.956
1423.94	51.945
1427.51	139.502
1431.08	96.331
1434.64	177.358
1438.2	206.5
1441.76	341.968
1445.32	352.663
1448.88	306.839
1452.43	228.016
1455.99	161.923
1459.54	109.569
1463.09	98.162
1466.64	26.048
1470.19	405.642
1473.74	160.325
1477.28	151.246
1480.83	280.948
1484.37	296.304
1487.91	296.15
1491.45	217.283
1494.98	183.145
1498.52	105.61
1502.05	6.242
1505.59	22.092
1509.12	61.409
1512.65	53.831
1516.17	55.711
