Measurement: Raman, 514 nm, depolarized, Raman Data Processed
Mineral: Marialite
Rruff sample: R060526
Ideal chemistry: Na_4_Al_3_Si_9_O_24_Cl
Locality: Minas Gerais, Brazil
Source: Michael Scott
Description: Heavily striated pale yellow elongated prism
Measured chemistry: (Na_0.62_Ca_0.33_K_0.05_)_4_(Si_0.66_Al_0.34_)_12_O_24_(Cl_0.77_(CO_3_)_0.23_)
Pin_id: L01174
Orientation: Laser parallel to a* (1 0 0). Fiducial mark perpendicular to laser is parallel to c [0 0 1]
Raman shift (cm-1)	intensity
125.299	0
130.234	281.896
135.166	238.048
140.096	99.2925
145.023	150.403
149.947	399.675
154.869	1103.13
159.787	2112.03
164.703	2751.17
169.617	2156.75
174.528	1136.14
179.435	558.656
184.341	652.736
189.243	961.092
194.143	1131.95
199.04	1066.6
203.935	841.242
208.827	732.037
213.716	755.57
218.602	841.101
223.486	1150.68
228.367	1122.28
233.245	754.778
238.12	391.774
242.993	327.294
247.863	384.792
252.731	972.852
257.596	2037.38
262.458	3380.48
267.317	3270.19
272.174	1551.61
277.028	528.825
281.879	357.345
286.728	509.309
291.574	829.426
296.417	1271.89
301.258	1561.57
306.096	307.919
310.931	133.329
315.764	204.952
320.594	153.488
325.421	98.1977
330.246	92.2891
335.068	407.532
339.887	416.347
344.703	294.164
349.517	390.972
354.329	706.195
359.137	1470.35
363.943	1417.99
368.746	784.614
373.547	526.941
378.345	642.22
383.14	675.149
387.932	435.36
392.722	343.859
397.51	114.602
402.294	75.4785
407.076	204.352
411.855	464.078
416.632	1039.92
421.406	1454.14
426.177	1019.33
430.946	674.575
435.712	938.612
440.475	1599.57
445.236	2598.11
449.994	5029.19
454.75	9263.26
459.502	10558.5
464.253	8780.07
469	5305.42
473.745	2838.91
478.487	1624.86
483.227	901.67
487.964	443.16
492.698	214.423
497.43	204.483
502.159	48.4209
506.885	60.6929
511.609	43.9351
516.33	108.968
521.049	517.669
525.764	985.704
530.478	2824.06
535.188	5820.03
539.896	6167.16
544.602	3209.56
549.304	1353.02
554.004	580.914
558.702	365.883
563.397	241.944
568.089	112.915
572.779	22.8506
577.466	114.217
582.15	13.894
586.832	52.665
591.511	40.6372
596.188	56.1719
600.862	54.001
605.533	27.5513
610.202	46.3174
614.868	132.625
619.531	29.7212
624.192	15.1294
628.85	137.121
633.506	37.4199
638.159	135.446
642.81	32.1406
647.457	8.51074
652.103	99.624
656.745	107.341
661.385	10.7275
666.023	120.252
670.658	56.7119
675.29	53.4209
679.92	141.413
684.547	90.2261
689.171	128.245
693.793	202.907
698.413	160.044
703.029	360.756
707.643	436.531
712.255	309.735
716.864	364.784
721.47	238.44
726.074	279.592
730.675	266.295
735.274	207.789
739.87	144.459
744.463	329.843
749.054	503.286
753.643	699.137
758.228	1128.06
762.812	1773
767.392	2821.06
771.97	3933.25
776.546	3714.02
781.118	2120.84
785.689	934.394
790.256	480.912
794.822	339.188
799.384	314.91
803.944	441.629
808.502	533.501
813.057	359.88
817.609	76.2715
822.159	112.716
826.706	106.738
831.251	160.501
835.793	155.757
840.332	7.62988
844.869	35.0742
849.404	65.9189
853.936	160.462
858.465	16.7842
862.992	149.793
867.516	63.751
872.037	12.8633
876.557	54.1426
881.073	11.581
885.587	133.233
890.099	148.084
894.608	133.44
899.114	121.613
903.618	224.462
908.119	94.4365
912.618	8.87207
917.114	27.4814
921.608	23.4707
926.099	45.9297
930.588	75.7793
935.074	48.1484
939.557	64.8555
944.038	110.865
948.517	37.6426
952.993	246.431
957.466	360.544
961.937	275.153
966.405	56.1904
970.871	86.168
975.334	7.43652
979.795	181.066
984.253	278.902
988.709	429.905
993.162	222.765
997.613	243.47
1002.06	460.345
1006.51	282.164
1010.95	251.173
1015.39	285.647
1019.83	329.503
1024.26	389.238
1028.7	432.004
1033.13	381.273
1037.56	529.389
1041.98	684.475
1046.4	509.326
1050.83	745.883
1055.24	831.316
1059.66	1026.77
1064.07	1154.51
1068.48	1342.88
1072.89	1610.52
1077.3	2013.54
1081.7	2053.72
1086.1	2093.26
1090.5	2401.36
1094.89	2694.6
1099.29	2800.93
1103.68	2159.64
1108.06	1965.93
1112.45	2672.69
1116.83	2023.36
1121.21	591.846
1125.59	613.547
1129.97	487.805
1134.34	164.195
1138.71	203.742
1143.08	225.047
1147.44	118.152
1151.81	131.818
1156.17	45.0586
1160.53	268.717
1164.88	249.231
1169.23	71.2402
1173.59	10.1934
1177.93	132.353
1182.28	15.3105
1186.62	96.2617
1190.96	15.4238
1195.3	164.445
1199.64	285.301
1203.97	345.519
1208.3	294.297
1212.63	284.338
1216.96	216.185
1221.28	184.307
1225.6	3.38672
1229.92	58.7656
1234.24	233.281
1238.55	196.393
1242.86	216.565
1247.17	253.809
1251.47	177.906
1255.78	200.684
1260.08	128.312
1264.38	195.012
1268.68	510.176
1272.97	362.269
1277.26	326.455
1281.55	644.578
1285.84	249.676
1290.12	458.246
1294.4	306.762
1298.68	198.023
1302.96	335.121
1307.23	282.498
1311.51	396.492
1315.78	287.496
1320.04	458.533
1324.31	308.721
1328.57	245.674
1332.83	356.453
1337.09	220.848
1341.34	31.7461
1345.59	394.617
1349.84	368.961
1354.09	211.203
1358.34	325.047
1362.58	321.519
1366.82	57.043
1371.06	98.2578
1375.29	28.0781
1379.52	266.781
1383.75	149.027
1387.98	39.75
1392.21	102.367
1396.43	51.6875
1400.65	8.19141
1404.87	42.2578
1409.09	113.418
1413.3	5.90234
1417.51	34.8203
1421.72	428.984
1425.93	225.16
1430.13	87.6758
1434.33	202.402
1438.53	384.055
1442.73	546.543
1446.92	559.809
1451.11	557.074
1455.3	627.906
1459.49	307.043
1463.67	289.535
1467.86	371.148
1472.04	244.266
1476.21	287.938
1480.39	141.152
1484.56	455.969
1488.73	176.219
1492.9	308.176
1497.06	440.762
1501.23	215.93
1505.39	0
