Measurement: Raman, 514 nm, ccw, Raman Data Processed
Mineral: Marialite
Rruff sample: R060526
Ideal chemistry: Na_4_Al_3_Si_9_O_24_Cl
Locality: Minas Gerais, Brazil
Source: Michael Scott
Description: Heavily striated pale yellow elongated prism
Measured chemistry: (Na_0.62_Ca_0.33_K_0.05_)_4_(Si_0.66_Al_0.34_)_12_O_24_(Cl_0.77_(CO_3_)_0.23_)
Pin_id: L01174
Orientation: Laser parallel to a* (1 0 0). Fiducial mark perpendicular to laser is parallel to c [0 0 1]
Raman shift (cm-1)	intensity
122.83	0
127.767	109.925
132.7	318.143
137.631	232.736
142.56	500.252
147.485	1196.7
152.408	2555.76
157.328	4682.38
162.246	6567.06
167.16	6630.42
172.073	4441.54
176.982	2802.71
181.888	2342.18
186.792	2490.73
191.694	2908.68
196.592	2808.05
201.488	2463.68
206.381	2073.14
211.271	1753.43
216.159	1508.71
221.044	1848.45
225.926	1843
230.806	1369.85
235.683	1023.95
240.557	511.455
245.429	487.589
250.298	549.657
255.164	1213.96
260.027	2178.65
264.888	2712.18
269.746	1772.74
274.601	727.436
279.454	562.341
284.304	892.259
289.151	1508.46
293.996	1140.01
298.838	842.201
303.677	230.525
308.514	254.401
313.348	295.56
318.179	245.613
323.008	97.9981
327.834	305.814
332.657	835.512
337.478	1180.2
342.295	644.904
347.111	369.618
351.923	332.392
356.733	920.192
361.54	1403.51
366.345	886.773
371.147	360.529
375.946	398.517
380.743	440.763
385.537	375.144
390.328	222.731
395.116	105.44
399.902	51.023
404.686	122.233
409.466	191.712
414.244	385.789
419.019	650.332
423.792	702.828
428.562	673.07
433.329	987.286
438.094	1701.93
442.856	2968.18
447.616	5487.73
452.372	10950.4
457.126	16264.8
461.878	15985.1
466.627	11059.3
471.373	5984.84
476.116	2948.09
480.857	1509.51
485.596	839.688
490.331	468.211
495.064	372.977
499.795	274.985
504.522	156.046
509.247	130.575
513.97	167.964
518.69	252.002
523.407	571.852
528.121	1466.67
532.833	3223.9
537.543	5522.84
542.249	3865.5
546.953	1692.09
551.655	667.268
556.354	324.566
561.05	136.233
565.743	34.9097
570.434	6.13379
575.123	52.7524
579.808	18.5464
584.491	151.26
589.172	110.238
593.85	97.4287
598.525	10.9014
603.197	45.4067
607.868	190.254
612.535	64.2949
617.2	170.315
621.862	64.2798
626.522	5.62061
631.178	20.4829
635.833	25.4722
640.485	21.9385
645.134	3.73584
649.78	16.7505
654.424	63.5552
659.066	93.5029
663.704	23.7925
668.341	112.089
672.974	108.531
677.605	172.151
682.234	274.078
686.859	16.5762
691.483	4.57324
696.103	115.262
700.721	92.667
705.337	202.827
709.949	265.52
714.56	149.7
719.167	196.95
723.772	38.6694
728.375	137.914
732.975	57.6621
737.572	172.614
742.167	161.283
746.759	201.794
751.349	339.217
755.936	430.201
760.52	737.307
765.102	1278.02
769.681	2003
774.258	2377.7
778.832	1752.56
783.404	951.69
787.973	378.635
792.539	266.08
797.103	283.965
801.665	365.985
806.223	676.926
810.779	802.05
815.333	334.441
819.884	193.969
824.433	226.007
828.979	89.75
833.522	86.0156
838.063	170.642
842.601	76.8037
847.137	28.0459
851.67	183.227
856.2	62.4873
860.729	1.12109
865.254	213.039
869.777	120.603
874.297	113.919
878.815	148.253
883.33	61.3789
887.843	90.293
892.353	34.5938
896.861	110.265
901.366	44.6094
905.869	97.9053
910.369	107.529
914.866	166.463
919.361	64.2432
923.854	42.502
928.344	48.4883
932.831	44.793
937.316	221.262
941.798	220.033
946.278	119.957
950.755	132.996
955.23	65.1523
959.702	267.274
964.171	228.873
968.638	137.924
973.103	200.586
977.565	221.61
982.025	287.183
986.482	342.546
990.936	306.551
995.388	370.309
999.837	198.532
1004.28	315.658
1008.73	415.863
1013.17	271.38
1017.61	177.857
1022.05	153.315
1026.48	346.471
1030.91	378.144
1035.34	545.348
1039.77	573.059
1044.19	498.078
1048.62	405.656
1053.03	703.123
1057.45	1003.09
1061.87	1042.46
1066.28	1429.94
1070.69	1430.44
1075.09	1447.45
1079.5	1522.4
1083.9	1356.97
1088.3	1475.34
1092.69	1776.64
1097.09	2294.96
1101.48	2227.48
1105.87	1765.32
1110.26	2638.14
1114.64	3708.33
1119.02	963.934
1123.4	149.414
1127.78	291.315
1132.15	87.7129
1136.53	42.5137
1140.89	109.144
1145.26	202.873
1149.63	67.9004
1153.99	59.7285
1158.35	6.72266
1162.7	80.9199
1167.06	138.133
1171.41	44.793
1175.76	160.58
1180.11	184.055
1184.45	40.2754
1188.79	202.065
1193.13	256.125
1197.47	399.957
1201.81	324.522
1206.14	570.269
1210.47	295.168
1214.79	276.867
1219.12	344.996
1223.44	5.61328
1227.76	181.484
1232.08	203.435
1236.39	220.934
1240.7	192.078
1245.02	361.213
1249.32	172.285
1253.63	326.883
1257.93	276.066
1262.23	386.775
1266.53	255.201
1270.82	297.695
1275.12	445.764
1279.41	529.748
1283.69	204.19
1287.98	247.69
1292.26	363.986
1296.54	51.5605
1300.82	120.439
1305.1	288.894
1309.37	167.947
1313.64	326.891
1317.91	297.387
1322.17	384.316
1326.44	406.156
1330.7	335.426
1334.96	285.07
1339.21	78.2422
1343.47	48.0312
1347.72	53.6016
1351.97	20.7578
1356.21	227.176
1360.46	131.301
1364.7	409.668
1368.94	226.68
1373.17	38.3984
1377.41	118.332
1381.64	218.562
1385.87	165.629
1390.1	29.3086
1394.32	98.3398
1398.54	256.973
1402.76	381.637
1406.98	373.938
1411.19	320.32
1415.41	253.582
1419.62	233.137
1423.82	258.398
1428.03	131.973
1432.23	170.871
1436.43	414.633
1440.63	342.262
1444.82	217.613
1449.02	506.18
1453.21	219.434
1457.4	538.422
1461.58	168.016
1465.77	63.5859
1469.95	173.484
1474.12	369.422
1478.3	85.1172
1482.47	37.1445
1486.64	251.164
1490.81	139.496
1494.98	236.176
1499.14	362.113
1503.31	187.871
