Measurement: Raman, 514 nm, ccw, Raman Data Processed
Mineral: Marialite
Rruff sample: R060297
Ideal chemistry: Na_4_Al_3_Si_9_O_24_Cl
Locality: Morogoro District, Marasi, Tanzania
Source: Herb Obodda
Description: Pale yellow crystal fragment
Measured chemistry: (Na_0.66_Ca_0.29_K_0.06_)_4_(Si_0.68_Al_0.32_)_12_O_24_(Cl_0.70_(CO_3_)_0.30_)
Pin_id: L01219
Orientation: Laser parallel to c* (0 0 1). Fiducial mark perpendicular to laser is parallel to a [1 0 0]
Raman shift (cm-1)	intensity
93.286	0
98.231	219.01
103.174	4228.74
108.114	10660.6
113.052	9671.23
117.987	4878.85
122.919	2415.15
127.849	2063.79
132.777	2115.82
137.702	2392.6
142.624	4296.7
147.544	8991.19
152.461	16357.8
157.375	24816.2
162.287	28014.4
167.197	23269.6
172.104	15278.7
177.008	10385
181.91	8806.48
186.809	8698.5
191.706	8489.6
196.6	6759.38
201.491	5772.87
206.38	5898.64
211.267	4791.89
216.151	3730.93
221.032	3478.19
225.911	3613.83
230.787	2895.27
235.66	1429.65
240.531	592.168
245.4	320.914
250.266	1333.71
255.129	3838.29
259.99	7444
264.848	8346.22
269.703	4613.38
274.556	1959.83
279.407	1845.28
284.255	4164.23
289.1	6146.53
293.942	4301.89
298.783	2568.91
303.62	107.562
308.455	1030.3
313.288	1189.13
318.117	443.324
322.945	378.766
327.769	1596.39
332.591	3456.07
337.411	3916.2
342.228	2547.07
347.042	1717.91
351.854	2436.46
356.663	4129.02
361.47	5334.45
366.274	3016.53
371.075	1736.4
375.874	1670.23
380.67	1371.55
385.464	1041.29
390.255	761.588
395.043	572.551
399.829	614.807
404.613	799.762
409.393	1191.65
414.172	2103.42
418.947	3241.21
423.72	3657.23
428.49	3995.05
433.258	5325.88
438.024	8675.41
442.786	13718.6
447.546	25475.8
452.304	48447
457.059	63283.6
461.811	57631
466.56	36396.3
471.308	19306.5
476.052	10002.6
480.794	5678.25
485.533	3399.42
490.27	2269.27
495.004	1925.92
499.736	1384.92
504.465	1327.62
509.191	1389.19
513.915	1534.79
518.636	1948.42
523.354	3640.78
528.07	6833.95
532.784	14487.7
537.494	21019.9
542.203	13364.9
546.908	6099.88
551.611	2923.18
556.311	1381.24
561.009	859.277
565.704	581.904
570.397	531.769
575.087	407.953
579.774	394.955
584.459	485.203
589.141	262.053
593.821	499.078
598.498	1156.09
603.172	1798.23
607.844	1386.57
612.513	1095.66
617.18	687.387
621.844	264.807
626.505	164.727
631.164	140.941
635.82	123.141
640.473	18.1855
645.124	5.95703
649.773	196.707
654.418	30.2715
659.062	243.049
663.702	513.221
668.34	70.9043
672.975	163.785
677.608	473.137
682.238	196.652
686.866	144.082
691.49	166.67
696.113	255.199
700.732	99.5312
705.349	49.9043
709.964	442.486
714.576	456.092
719.185	446.56
723.792	526.146
728.396	335.762
732.997	317.371
737.596	384.428
742.192	547.33
746.785	636.434
751.376	1155.79
755.965	1846.28
760.551	2654.45
765.134	4734.27
769.714	6593.09
774.292	7085.79
778.867	5449.29
783.44	2783.84
788.01	1136.1
792.578	820.59
797.142	752.215
801.705	1667.46
806.264	2748.42
810.821	2799.11
815.376	1103.69
819.927	232.344
824.476	259.106
829.023	170.078
833.567	175.016
838.108	71.0469
842.647	179.906
847.183	230.176
851.716	58.4805
856.247	61.2031
860.776	565.191
865.301	488.5
869.824	308.68
874.345	279.016
878.862	627.715
883.377	269.844
887.89	291.223
892.4	496.965
896.907	891.227
901.412	902.012
905.914	734.746
910.413	940.027
914.91	1144.78
919.404	785.492
923.896	897.914
928.385	717.207
932.871	435.793
937.355	622.606
941.836	898.586
946.315	1074.86
950.79	1104.61
955.264	1216.83
959.734	1543.13
964.202	1194.54
968.668	1121.77
973.131	1627.48
977.591	2001.8
982.048	3887.34
986.503	6983.83
990.955	10388
995.405	9193.44
999.852	3684.34
1004.3	1639.12
1008.74	1000.73
1013.18	90.2422
1017.61	460.641
1022.05	473.106
1026.48	80.1367
1030.91	753.644
1035.33	1925.37
1039.76	2163.26
1044.18	2417.55
1048.6	2794.66
1053.01	3315.95
1057.42	3829.97
1061.84	5353.24
1066.24	5509.47
1070.65	6294.32
1075.05	6523.16
1079.45	6029.61
1083.85	5877.99
1088.24	7187.15
1092.63	9430
1097.02	11635.1
1101.41	10851.5
1105.8	7680.12
1110.18	9295.21
1114.56	10232.1
1118.93	3712.32
1123.31	1746.46
1127.68	1662.6
1132.04	1442.91
1136.41	1064.76
1140.77	1502.24
1145.13	857.356
1149.49	365.352
1153.85	476.68
1158.2	485.156
1162.55	174.891
1166.9	257.445
1171.24	228.172
1175.58	65.7344
1179.92	256.258
1184.26	781.469
1188.6	699.328
1192.93	1019.2
1197.26	1522.73
1201.58	1765.61
1205.9	1443.26
1210.23	1022.84
1214.55	651.188
1218.86	754.422
1223.17	355.414
1227.48	657.492
1231.79	167.633
1236.1	185.672
1240.4	44.9844
1244.7	75.5703
1249	320.438
1253.29	392.891
1257.59	53.5391
1261.88	812.719
1266.16	364.945
1270.45	455.883
1274.73	621.352
1279.01	57.9453
1283.28	33.7656
1287.56	291.156
1291.83	377.695
1296.1	396.305
1300.36	81.3359
1304.63	54.5547
1308.89	251.734
1313.15	370.43
1317.4	247.227
1321.65	122.281
1325.9	191.43
1330.15	264.812
1334.4	701.117
1338.64	477.203
1342.88	434.125
1347.12	624.852
1351.35	392.391
1355.58	520.922
1359.81	311.336
1364.04	102.008
1368.26	331.516
1372.48	570.539
1376.7	342.711
1380.92	381.75
1385.13	115.477
1389.34	192.281
1393.55	90.6094
1397.76	618.352
1401.96	298.766
1406.16	238.039
1410.36	670.086
1414.55	114.297
1418.75	340.945
1422.94	110.711
1427.12	273.5
1431.31	546.07
1435.49	161.242
1439.67	485.141
1443.85	717.234
1448.02	387.25
1452.19	49.7891
1456.36	501.719
1460.53	758.508
1464.69	211.695
1468.85	19.7891
1473.01	505.945
1477.17	454.508
1481.32	199.391
1485.47	157.547
1489.62	218.18
1493.76	319.344
1497.91	114.078
1502.05	863.227
1506.18	803.992
1510.32	510.023
1514.45	961.078
1518.58	772.516
1522.71	884.875
1526.83	402.047
1530.95	1199.23
1535.07	1245.31
1539.19	1127.58
1543.3	805.469
1547.41	886.719
1551.52	741.094
1555.63	267.688
1559.73	899.422
1563.83	605.531
1567.93	481
1572.03	531.766
1576.12	3.46875
