Measurement: Raman, 514 nm, ccw, Raman Data Processed
Mineral: Marialite
Rruff sample: R040113
Ideal chemistry: Na_4_Al_3_Si_9_O_24_Cl
Locality: Gouverneur, New York, USA
Source: University of Arizona Mineral Museum
Description: Green prismatic crystal
Measured chemistry: (Na_0.50_Ca_0.43_K_0.07_)_4_(Si_0.64_Al_0.36_)_12_O_24_(Cl_0.60_(CO_3_)_0.40_)
Pin_id: L01482
Orientation: Laser parallel to c* (0 0 1). Fiducial mark perpendicular to laser is parallel to a [1 0 0]
Raman shift (cm-1)	intensity
90.91	0
95.868	0.203125
100.823	999.994
105.776	2323.3
110.726	5192.55
115.673	4831.86
120.617	3360.8
125.559	1375.88
130.497	1497.81
135.433	2266.47
140.366	1707.09
145.296	3932.83
150.224	6747.66
155.149	11524.1
160.071	15805.4
164.99	16429.7
169.906	13200.1
174.82	8536.91
179.731	6176.65
184.639	5543.61
189.544	6042.01
194.447	5895.39
199.346	5581.6
204.243	5196.07
209.137	4626.98
214.029	3676.04
218.918	3606.23
223.803	3433.65
228.687	3035.71
233.567	2203.21
238.444	1085.7
243.319	742.769
248.191	516.32
253.061	1702.24
257.927	3079.66
262.791	5339.53
267.652	4755.2
272.51	2400.78
277.366	1030.51
282.219	1075.14
287.069	2381.42
291.916	3340.34
296.761	3275.06
301.602	1470.49
306.441	453.978
311.278	588.885
316.111	1005.32
320.942	363.334
325.77	326.401
330.596	1389.24
335.418	2341.93
340.238	2374.37
345.055	1599.03
349.87	1347.38
354.681	2104.29
359.49	3693.72
364.296	3431.52
369.1	2083.27
373.901	1530.22
378.699	1505.49
383.494	1762.7
388.287	1569.68
393.077	1322.15
397.864	1094.86
402.648	1036.88
407.43	1459.07
412.209	1872.66
416.985	2799.43
421.759	3608.27
426.53	3550.14
431.298	4302.91
436.063	5464.03
440.826	9239.12
445.586	16014.7
450.343	27507.3
455.098	40347.1
459.85	41770.4
464.599	34070.9
469.345	21512.1
474.089	12106.6
478.83	6783.4
483.569	3984.81
488.304	2791.28
493.037	2124.4
497.768	1593.18
502.495	1099.79
507.22	1264.25
511.942	1016.75
516.662	1384.51
521.379	2362.63
526.093	4353.33
530.805	8737.37
535.513	13558.4
540.22	10921.4
544.923	6225.56
549.624	3082.66
554.322	1704.26
559.017	944.975
563.71	730.048
568.4	738.493
573.087	505.943
577.772	226.399
582.454	436.777
587.134	100.188
591.81	112.45
596.484	148.826
601.156	278.567
605.824	574.869
610.49	718.384
615.154	483.285
619.815	27.248
624.473	127.699
629.128	68.1602
633.781	192.23
638.431	13.6943
643.078	75.5449
647.723	12.7969
652.365	156.213
657.005	303.337
661.642	367.033
666.276	380.53
670.907	434.871
675.536	672.099
680.162	1001.31
684.786	474.735
689.407	245.542
694.025	196.305
698.641	172.387
703.254	419.055
707.864	560.997
712.472	572.706
717.077	626.638
721.68	661.817
726.28	691.199
730.877	861.231
735.472	762.15
740.064	877.666
744.653	968.785
749.24	1509.18
753.824	1967.97
758.405	2655.77
762.984	3871.38
767.56	5114.99
772.134	5882.2
776.705	5035.78
781.273	2965.9
785.839	1420.4
790.402	795.75
794.963	837.293
799.521	1070.83
804.076	1419.28
808.629	1485.65
813.179	631.776
817.726	245.541
822.271	222.233
826.813	71.2061
831.353	160.048
835.89	131.874
840.425	76.7363
844.956	24.7168
849.486	68.1016
854.012	102.936
858.536	38.919
863.058	49.5117
867.577	100.943
872.093	40.7559
876.607	26.1035
881.118	33.123
885.626	20.7148
890.132	78.2344
894.636	195.926
899.136	291.606
903.635	273.209
908.13	195.84
912.623	260.383
917.114	152.674
921.602	107.609
926.087	191.156
930.57	146.248
935.05	138.853
939.527	123.879
944.002	176.383
948.475	313.463
952.944	474.82
957.412	447.891
961.876	521.748
966.338	489.242
970.798	611.453
975.255	737.182
979.709	923.445
984.161	993.461
988.611	875.221
993.057	587.451
997.501	591.244
1001.94	479.244
1006.38	468.543
1010.82	454.801
1015.25	486.111
1019.68	315.019
1024.11	536.324
1028.54	772.191
1032.96	1176.15
1037.38	1624.91
1041.8	1706.87
1046.22	1802.64
1050.63	2189.69
1055.04	2428.08
1059.45	3035.51
1063.86	3256.11
1068.26	3791.27
1072.66	4093.66
1077.06	4452.08
1081.46	4865.55
1085.85	6671.76
1090.24	10024.4
1094.63	12763.1
1099.01	13243.9
1103.4	13026.5
1107.78	14590.4
1112.16	11918.1
1116.53	4339.1
1120.9	1268.87
1125.28	583.188
1129.64	492.6
1134.01	260.309
1138.37	100.33
1142.73	335.182
1147.09	25.209
1151.44	242.897
1155.8	92.8477
1160.15	225.756
1164.5	279.158
1168.84	270.703
1173.18	375.969
1177.52	516.863
1181.86	579.981
1186.2	873.769
1190.53	1015.63
1194.86	1201.92
1199.19	1283.88
1203.51	1033.91
1207.84	573.436
1212.16	497.894
1216.47	183.781
1220.79	100.359
1225.1	211.893
1229.41	75.7871
1233.72	17.2324
1238.03	16.1328
1242.33	30.4453
1246.63	50.4199
1250.93	215.82
1255.22	152.994
1259.52	161.467
1263.81	31.8594
1268.09	115.664
1272.38	53.1289
1276.66	189.621
1280.94	64.2539
1285.22	86.7793
1289.49	153.529
1293.77	160.527
1298.04	145.935
1302.31	31.8535
1306.57	51.0879
1310.84	35.3379
1315.1	387.627
1319.35	129.342
1323.61	293.211
1327.86	104.389
1332.11	19.9473
1336.36	119.389
1340.61	180.094
1344.85	224.631
1349.09	338.049
1353.33	282.451
1357.57	374.103
1361.8	186.602
1366.03	266.209
1370.26	131.676
1374.48	209.129
1378.71	319.223
1382.93	118.783
1387.15	236.285
1391.37	331.723
1395.58	373.348
1399.79	209.26
1404	236.766
1408.2	413.91
1412.41	450.16
1416.61	550.586
1420.81	540.559
1425.01	595.936
1429.2	396.586
1433.39	372.238
1437.58	331.795
1441.77	396.596
1445.95	35.6621
1450.14	374.773
1454.32	138.115
1458.49	224.268
1462.67	294.305
1466.84	84.082
1471.01	168.373
1475.18	137.027
1479.34	233.127
1483.51	290.096
1487.66	257.367
1491.82	122.561
1495.98	267.516
1500.13	160.008
1504.28	172.613
1508.43	184.699
1512.58	219.012
1516.72	343.996
1520.86	550.893
1525	842.758
1529.13	1496.64
1533.27	945.949
1537.4	709.604
1541.53	445.781
1545.65	632.92
1549.78	166.16
1553.9	412.385
1558.02	225.315
1562.13	232.328
1566.25	321.193
1570.36	235.504
1574.47	0.714844
