Measurement: Raman, 514 nm, ccw, Raman Data Processed
Mineral: Marialite
Rruff sample: R060458
Ideal chemistry: Na_4_Al_3_Si_9_O_24_Cl
Locality: Dading, Nepal
Source: Michael Scott
Description: Colorless elongated prism
Measured chemistry: (Na_0.52_Ca_0.47_K_0.01_)_4_(Al_0.36_Si_0.64_)_12_O_24_(Cl_0.44_(CO_3_)_0.56_)
Pin_id: L00702
Orientation: Laser parallel to c* (0 0 1). Fiducial mark perpendicular to laser is parallel to a [1 0 0]
Raman shift (cm-1)	intensity
89.575	0
94.523	95.1758
99.467	1816.67
104.409	6461.48
109.349	11609.7
114.286	10080.4
119.22	5992.53
124.152	3292.29
129.081	2019.67
134.008	1761.47
138.932	3432.51
143.854	6629.47
148.773	12504.7
153.69	21000.6
158.604	28533.3
163.515	28351.8
168.424	22177
173.33	14263.6
178.234	9635.14
183.135	8594.8
188.034	9452.69
192.93	9538.94
197.823	8463.25
202.714	8486.23
207.602	7911.12
212.488	7932.25
217.371	6387.11
222.252	6350.46
227.13	5755.34
232.005	4457.77
236.878	3262.32
241.749	2081.7
246.616	2044.49
251.482	4226.02
256.344	7214.51
261.204	9408.77
266.062	6962.19
270.917	3015.52
275.769	1404.35
280.619	1830.3
285.466	3856.45
290.311	5745.79
295.153	5925.41
299.992	2699.83
304.829	108.978
309.663	1245.06
314.495	1027.47
319.324	674.881
324.151	123.549
328.975	967.951
333.796	2668.12
338.615	3327.62
343.432	2199.41
348.245	2033.01
353.056	3180.96
357.865	5152.74
362.671	5426.5
367.474	2976.35
372.275	2105.73
377.073	1741.82
381.869	1902.56
386.662	1507.26
391.452	1394.99
396.24	889.324
401.025	952.697
405.808	1273.13
410.588	2288.06
415.366	3619.64
420.141	5324.34
424.913	5757.82
429.683	6069.92
434.45	7981.44
439.214	12936.5
443.976	23177.3
448.736	41601.3
453.493	63411
458.247	66767.2
462.998	57716.7
467.747	36260.6
472.494	19223.9
477.238	10374
481.979	6027.19
486.718	3829.77
491.454	2486.01
496.187	1669.62
500.918	1236.34
505.646	866.484
510.372	610.143
515.095	1697.69
519.816	2710.71
524.534	6260.81
529.249	12865.2
533.962	21498.8
538.672	17536
543.379	8890.23
548.084	4076.52
552.786	2167.53
557.486	1588.3
562.183	753.092
566.878	832.894
571.57	691.59
576.259	308.898
580.946	167.109
585.63	100.76
590.311	17.5078
594.99	234.977
599.667	514.377
604.34	1354.77
609.012	1892.96
613.68	1425.49
618.346	534.654
623.009	3.32422
627.67	113.939
632.328	184.307
636.984	53.5352
641.636	103.07
646.287	242.815
650.934	125.393
655.579	63.1875
660.222	117.391
664.862	164.609
669.499	149.039
674.134	871.297
678.766	1615.98
683.395	304.773
688.022	179.152
692.646	125.633
697.268	188.481
701.887	310.371
706.503	451.039
711.117	932.191
715.728	899.781
720.337	838.543
724.943	1389.44
729.546	1511.05
734.147	1551.63
738.745	1492.49
743.341	1805.36
747.933	2589.77
752.524	2959.75
757.111	4110.49
761.697	5730.93
766.279	8513.47
770.859	10276
775.436	8589.47
780.011	4769.74
784.583	2216.44
789.152	1099.03
793.719	1124.55
798.283	1486.87
802.845	2630.9
807.404	2213.36
811.96	1242.33
816.514	662.328
821.065	244.688
825.613	56.4375
830.159	72.6406
834.703	39.793
839.243	75.8242
843.781	66.5
848.317	24.4219
852.849	171.098
857.38	233.281
861.907	262.09
866.432	195.586
870.954	567.754
875.474	131.445
879.991	502.438
884.506	224.231
889.018	488.582
893.527	761.098
898.034	666.246
902.538	1027.94
907.039	766.805
911.538	511.144
916.034	495.562
920.528	800.742
925.018	311.734
929.507	939.562
933.992	317.68
938.476	625.016
942.956	811.602
947.434	974.621
951.909	1275.16
956.382	1088.73
960.852	1612.47
965.319	1704.09
969.784	1496.64
974.246	1878.67
978.705	2036.34
983.162	1960.31
987.616	1483.43
992.068	1335.87
996.517	1404.77
1000.96	1110.75
1005.41	619
1009.85	94.1836
1014.29	432.242
1018.72	151.891
1023.16	232.602
1027.59	1546.28
1032.02	2393.61
1036.44	3279.2
1040.86	3801.77
1045.28	4102.68
1049.7	4868.8
1054.12	5298.37
1058.53	5932.06
1062.94	7111.34
1067.35	8702.3
1071.75	9715.37
1076.15	9743.62
1080.55	11444.8
1084.95	16750.7
1089.34	24806.2
1093.73	31472.2
1098.12	30233
1102.51	25122.6
1106.89	23137.7
1111.27	15981.7
1115.65	5691.27
1120.03	2219.73
1124.4	1415.13
1128.77	1151.87
1133.14	993.5
1137.5	716.141
1141.86	498.18
1146.22	198.773
1150.58	157.008
1154.93	605.43
1159.29	258.992
1163.64	608.031
1167.98	440.062
1172.33	1109.96
1176.67	1039.27
1181.01	857.25
1185.34	1635.81
1189.68	2074.61
1194.01	2101.49
1198.34	2081.49
1202.66	2286.27
1206.99	1576.13
1211.31	690.094
1215.62	375.32
1219.94	661.891
1224.25	83.4141
1228.56	149.117
1232.87	3.23438
1237.17	423.727
1241.48	91.1953
1245.78	376.844
1250.07	120.938
1254.37	645.484
1258.66	738.008
1262.95	602.797
1267.23	866.852
1271.52	712.641
1275.8	173.414
1280.08	772.406
1284.35	616.867
1288.63	391.25
1292.9	618.969
1297.16	8.74219
1301.43	485.305
1305.69	79.5781
1309.95	22.75
1314.21	632.992
1318.46	416.945
1322.72	107.734
1326.97	271.594
1331.21	30.5547
1335.46	148.68
1339.7	354.266
1343.94	425.352
1348.18	316.555
1352.41	472.766
1356.64	93.6406
1360.87	1060.22
1365.1	408.492
1369.32	448.984
1373.54	223.422
1377.76	1111.2
1381.97	410.531
1386.19	958.828
1390.4	695.875
1394.6	649.922
1398.81	354.172
1403.01	151.953
1407.21	868.812
1411.41	943.641
1415.6	742.312
1419.79	737.344
1423.98	953.531
1428.17	966.953
1432.35	342.016
1436.54	484.859
1440.71	445.953
1444.89	325.031
1449.06	324.344
1453.23	697.703
1457.4	975.516
1461.57	481.547
1465.73	162.328
1469.89	295.391
1474.05	391.688
1478.2	132.969
1482.36	196.547
1486.51	329.141
1490.65	198.844
1494.8	39.8281
1498.94	12.7969
1503.08	465.344
1507.22	249.078
1511.35	1296.25
1515.48	1613.47
1519.61	1198.66
1523.74	1937.14
1527.86	1722.72
1531.98	2236.17
1536.1	2192.47
1540.22	1423.39
1544.33	1759.22
1548.44	1884.05
1552.55	798.234
1556.65	1088.98
1560.76	860
1564.86	845.922
1568.95	1122.97
1573.05	778.203
1577.14	0
