Measurement: Raman, 514 nm, ccw, Raman Data Processed
Mineral: Marialite
Rruff sample: R060297
Ideal chemistry: Na_4_Al_3_Si_9_O_24_Cl
Locality: Morogoro District, Marasi, Tanzania
Source: Herb Obodda
Description: Pale yellow crystal fragment
Measured chemistry: (Na_0.66_Ca_0.29_K_0.06_)_4_(Si_0.68_Al_0.32_)_12_O_24_(Cl_0.70_(CO_3_)_0.30_)
Pin_id: L01156
Orientation: Laser parallel to a* (1 0 0). Fiducial mark perpendicular to laser is parallel to c [0 0 1]
Raman shift (cm-1)	intensity
88.338	0
93.286	103.393
98.231	346.543
103.174	2489.31
108.114	6190.72
113.052	7547.48
117.987	7068.9
122.919	8455.57
127.849	9968.91
132.777	10751.2
137.702	11480.9
142.624	14093.4
147.544	21106.8
152.461	33144.9
157.375	47032.3
162.287	54368
167.197	47018.4
172.104	32622.8
177.008	23210.9
181.91	19981.9
186.809	19777.9
191.706	19334.1
196.6	15763.6
201.491	12769.9
206.38	10231.8
211.267	8750.98
216.151	8277.35
221.032	8931.94
225.911	9016.43
230.787	8031.86
235.66	5145.58
240.531	3554.27
245.4	2694.55
250.266	3862.05
255.129	7868.01
259.99	14132.8
264.848	16399.8
269.703	10216.3
274.556	5030.72
279.407	4384.92
284.255	7078.87
289.1	10761.1
293.942	8322.44
298.783	5841.49
303.62	1350.14
308.455	1091.2
313.288	1536.04
318.117	978.377
322.945	603.633
327.769	2714.67
332.591	6135.6
337.411	6713.38
342.228	3961.07
347.042	2238.25
351.854	2747.6
356.663	5829
361.47	8184.62
366.274	4704.47
371.075	2009.54
375.874	1807.9
380.67	1580.15
385.464	975.375
390.255	416.703
395.043	116.853
399.829	21.4785
404.613	187.219
409.393	552.303
414.172	1742.07
418.947	3555.02
423.72	4451.51
428.49	5335.43
433.258	7145.98
438.024	11728.6
442.786	19484.4
447.546	37584.2
452.304	76916.4
457.059	104420
461.811	99319.4
466.56	65261.9
471.308	34038.2
476.052	17538.5
480.794	9043.42
485.533	5048.91
490.27	3080.93
495.004	2107.59
499.736	1320.03
504.465	977.525
509.191	650.297
513.915	991.051
518.636	1756.85
523.354	3681.97
528.07	9385.91
532.784	22246.1
537.494	34861.6
542.203	22527
546.908	9791.91
551.611	4156.94
556.311	2010.23
561.009	1057.18
565.704	463.383
570.397	19.8691
575.087	32.0684
579.774	91.0293
584.459	198.465
589.141	375.014
593.821	776.027
598.498	1882.96
603.172	3622.44
607.844	3006.98
612.513	1921.17
617.18	1242.78
621.844	381.807
626.505	95.0488
631.164	136.359
635.82	182.492
640.473	158.486
645.124	264.043
649.773	61.4258
654.418	62.5488
659.062	294.375
663.702	484.236
668.34	421.746
672.975	85.1523
677.608	790.252
682.238	315.328
686.866	211.016
691.49	181.377
696.113	14.2305
700.732	131.791
705.349	317.584
709.964	623.934
714.576	762.164
719.185	926.025
723.792	665.291
728.396	601.152
732.997	612.279
737.596	555.002
742.192	605.377
746.785	1163.7
751.376	2276.52
755.965	3170.78
760.551	4737.82
765.134	7594.51
769.714	10320.8
774.292	10829.9
778.867	7857.68
783.44	3732.88
788.01	1907.9
792.578	1438.89
797.142	1099.58
801.705	1610.65
806.264	3031.68
810.821	3510.45
815.376	1388.56
819.927	721.414
824.476	243.016
829.023	165.414
833.567	282.531
838.108	71.2695
842.647	165.602
847.183	85.6836
851.716	256.793
856.247	174.504
860.776	322.488
865.301	263.043
869.824	226.121
874.345	478.981
878.862	327.59
883.377	140.043
887.89	443.195
892.4	844.008
896.907	654.91
901.412	634.523
905.914	921.457
910.413	871.691
914.91	739.449
919.404	916.484
923.896	671.609
928.385	712.59
932.871	482.098
937.355	727.797
941.836	879.648
946.315	1072.82
950.79	1082.38
955.264	1353.98
959.734	1446.5
964.202	1487.15
968.668	1165.25
973.131	1912.53
977.591	2137.53
982.048	4935.25
986.503	10023.1
990.955	17059.2
995.405	15813
999.852	5746.16
1004.3	2107.06
1008.74	880.176
1013.18	214.891
1017.61	612.824
1022.05	445.215
1026.48	656.801
1030.91	1401.82
1035.33	2314.39
1039.76	3177.53
1044.18	3758.04
1048.6	3986.73
1053.01	4774.84
1057.42	6058.31
1061.84	7110.1
1066.24	8145.98
1070.65	9280.74
1075.05	9895.02
1079.45	8971.17
1083.85	9189.01
1088.24	10257
1092.63	13676.6
1097.02	17654.6
1101.41	16469.1
1105.8	11528.9
1110.18	13662.8
1114.56	17391.8
1118.93	6819.06
1123.31	2484.06
1127.68	2167.75
1132.04	1733.3
1136.41	1613.84
1140.77	1589.43
1145.13	1034.59
1149.49	749.047
1153.85	483.867
1158.2	1.46094
1162.55	135.5
1166.9	42.5078
1171.24	492.148
1175.58	621.781
1179.92	324.25
1184.26	777.289
1188.6	946.773
1192.93	991.516
1197.26	2139.27
1201.58	2405.2
1205.9	2107.12
1210.23	1470.46
1214.55	1167.91
1218.86	1015.83
1223.17	986.82
1227.48	618.414
1231.79	272.141
1236.1	328.094
1240.4	10.5781
1244.7	41.1016
1249	332.641
1253.29	617.195
1257.59	130.336
1261.88	28.6562
1266.16	35.8516
1270.45	258.523
1274.73	631.062
1279.01	90.8438
1283.28	568.656
1287.56	229.352
1291.83	259.086
1296.1	426.961
1300.36	282.055
1304.63	903.742
1308.89	0.796875
1313.15	297.352
1317.4	881.562
1321.65	205.18
1325.9	351.555
1330.15	221.695
1334.4	163.227
1338.64	421.242
1342.88	736.57
1347.12	568.289
1351.35	708.969
1355.58	738.18
1359.81	23.9141
1364.04	538.703
1368.26	384.164
1372.48	597.133
1376.7	951.453
1380.92	136.414
1385.13	542.742
1389.34	396.047
1393.55	339.156
1397.76	742.844
1401.96	171.445
1406.16	267.133
1410.36	259.195
1414.55	447.539
1418.75	1199.42
1422.94	118.773
1427.12	899.773
1431.31	775.531
1435.49	483.422
1439.67	117.734
1443.85	23.3047
1448.02	456.75
1452.19	162.359
1456.36	422.938
1460.53	388.094
1464.69	348.344
1468.85	354.531
1473.01	563.75
1477.17	582.75
1481.32	566.859
1485.47	563.391
1489.62	931.984
1493.76	589.844
1497.91	453.234
1502.05	735.172
1506.18	611.844
1510.32	1157.83
1514.45	1050.64
1518.58	1448.12
1522.71	895.078
1526.83	1087.48
1530.95	1416.41
1535.07	617.938
1539.19	324.406
1543.3	623.266
1547.41	480.094
1551.52	1390.55
1555.63	1033.27
1559.73	711.688
1563.83	973.547
1567.93	787.562
1572.03	721.391
1576.12	9.32812
