Measurement: Raman, 514 nm, depolarized, Raman Data Processed
Mineral: Marialite
Rruff sample: R060469
Ideal chemistry: Na_4_Al_3_Si_9_O_24_Cl
Locality: Mpwa-Mpwa mine, Umba Valley, near Arusha, Tanzania
Source: Michael Scott
Description: Yellow tetragonal prism with pronounced striations along the c-axis direction
Measured chemistry: (Na_0.66_Ca_0.27_K_0.07_)_4_(Si_0.68_Al_0.32_)_12_O_24_(Cl_0.75_(CO_3_)_0.25_)
Pin_id: L01385
Orientation: Laser parallel to a* (1 0 0). Fiducial mark perpendicular to laser is parallel to c [0 0 1]
Raman shift (cm-1)	intensity
129	0
133.933	154.846
138.864	56.0537
143.791	103.71
148.716	526.936
153.638	1103.41
158.558	1976.11
163.475	2349.87
168.389	1804.11
173.3	1148.24
178.209	664.267
183.115	728.74
188.018	735.168
192.918	801.993
197.816	623.231
202.711	396.096
207.604	350.211
212.494	199.736
217.381	281.022
222.265	659.355
227.147	713.788
232.026	647.097
236.902	386.12
241.775	318.573
246.646	439.804
251.514	972.901
256.38	1957.44
261.243	2788.39
266.103	2906.9
270.96	1768.17
275.815	782.163
280.667	638.967
285.516	719.665
290.363	877.086
295.207	929.72
300.048	931.227
304.887	290.378
309.723	31.0293
314.556	197.642
319.387	105.044
324.215	28.1851
329.04	126.024
333.862	271.984
338.682	328.948
343.5	335.989
348.314	575.187
353.126	758.843
357.935	1265.75
362.742	1634.97
367.546	978.806
372.347	820.035
377.145	675.934
381.941	747.363
386.735	528.731
391.525	476.896
396.313	287.665
401.098	303.851
405.881	314.439
410.661	555.345
415.438	1008.59
420.213	1192.75
424.985	1162.83
429.754	982.331
434.521	1052.44
439.285	1505.35
444.046	2443.73
448.805	4480.91
453.561	7813.57
458.315	10030.3
463.065	8512.24
467.813	5177.03
472.559	2884.84
477.302	1499.77
482.042	1068.31
486.78	553.481
491.515	262.9
496.247	223.032
500.977	191.024
505.704	85.7398
510.428	3.04736
515.15	190.595
519.869	324.402
524.586	756.418
529.3	2118.06
534.011	4493.64
538.719	5773.66
543.425	3534.55
548.129	1450.07
552.83	709.785
557.528	356.983
562.223	151.698
566.916	20.3193
571.607	36.0772
576.294	50.2373
580.979	40.4688
585.662	115.689
590.341	51.6943
595.019	146.697
599.693	112.566
604.365	97.0898
609.035	67.8125
613.701	100.398
618.366	79.4912
623.027	54.0791
627.686	38.1836
632.342	36.6084
636.996	72.2627
641.647	48.3164
646.296	29.7383
650.942	35.7832
655.585	70.7285
660.226	73.6953
664.864	75.3535
669.499	91.542
674.132	27.085
678.763	83.1103
683.39	119.41
688.015	132.922
692.638	211.737
697.258	153.673
701.875	265.144
706.49	325.203
711.102	456.88
715.712	351.298
720.319	398.113
724.923	219.446
729.525	213.4
734.124	330.179
738.721	315.4
743.315	262.196
747.907	564.165
752.496	681.247
757.082	1200.69
761.666	1627.47
766.247	2385.82
770.826	2965.81
775.402	3023.23
779.975	2296.4
784.546	1474.88
789.115	802.266
793.681	529.977
798.244	375.377
802.804	293.146
807.363	364.17
811.918	355.987
816.471	268.568
821.022	257.188
825.569	72.6143
830.115	139.652
834.657	74.0498
839.198	4.88086
843.735	80.5742
848.27	55.2256
852.803	139.838
857.333	38.3662
861.86	105.155
866.385	86.6572
870.907	131.203
875.427	52.2529
879.944	16.8682
884.459	90.6904
888.971	6.40332
893.481	50.7461
897.988	10.7773
902.492	67.1504
906.994	93.6084
911.493	26.7725
915.99	226.285
920.485	112.932
924.976	70.583
929.466	88.584
933.952	293.002
938.436	91.6689
942.918	47.71
947.397	63.9863
951.874	112.626
956.348	233.63
960.819	144.276
965.288	172.241
969.755	264.096
974.219	201.343
978.68	329.843
983.139	581.748
987.595	950.584
992.049	1685.17
996.501	1559.64
1000.95	534.078
1005.4	385.049
1009.84	497.775
1014.28	454.111
1018.72	284.44
1023.16	214.092
1027.59	396.481
1032.02	548.141
1036.45	416.365
1040.88	688.229
1045.3	606.08
1049.72	406.44
1054.14	636.91
1058.56	836.756
1062.97	974.176
1067.38	1206.11
1071.79	1439.67
1076.19	1630.53
1080.6	1641.29
1085	1830.03
1089.4	2140.69
1093.79	2256.31
1098.19	2510.34
1102.58	2108.81
1106.97	1680.85
1111.35	1659.68
1115.74	1364.55
1120.12	868.625
1124.5	901.834
1128.87	632.299
1133.25	397.59
1137.62	337.34
1141.99	190.606
1146.35	163.615
1150.72	160.35
1155.08	106.555
1159.44	233.975
1163.79	99.0215
1168.15	64.6856
1172.5	129.637
1176.85	118.699
1181.19	149.764
1185.54	176.012
1189.88	81.4394
1194.22	133.85
1198.55	282.103
1202.89	26.0215
1207.22	62.1113
1211.55	241.738
1215.88	152.197
1220.2	72.7383
1224.52	298.586
1228.84	228.961
1233.16	88.6133
1237.47	121.238
1241.78	115.582
1246.09	145.084
1250.4	60.7148
1254.7	138.988
1259.01	35.2148
1263.31	322.861
1267.6	97.3301
1271.9	193.023
1276.19	245.848
1280.48	182.027
1284.77	217.482
1289.05	251.473
1293.33	9.1582
1297.61	150.762
1301.89	16.9453
1306.16	192.783
1310.44	302.156
1314.71	13.2012
1318.97	164.562
1323.24	185.393
1327.5	150.719
1331.76	131.592
1336.02	207.815
1340.28	230.801
1344.53	118.074
1348.78	93.0391
1353.03	56.4629
1357.27	78.168
1361.52	202.978
1365.76	165.684
1370	192.807
1374.23	35.3145
1378.47	142.982
1382.7	405.574
1386.93	227.014
1391.15	215.408
1395.38	136.545
1399.6	98.2168
1403.82	95.4434
1408.03	82.707
1412.25	0.800781
1416.46	134.902
1420.67	99.8008
1424.88	3.57812
1429.08	35.9844
1433.28	366.254
1437.48	214
1441.68	466.094
1445.87	6.14062
1450.07	149.644
1454.26	265.426
1458.44	242.547
1462.63	128.809
1466.81	291.602
1470.99	98.1602
1475.17	197.703
1479.34	217.547
1483.52	334.438
1487.69	251.398
1491.86	331.562
1496.02	356.164
1500.19	163.43
1504.35	413.68
1508.51	309.781
1512.66	212.164
1516.82	654.516
1520.97	269.949
1525.12	39.0586
1529.26	476.516
1533.41	369.656
1537.55	83.8555
1541.69	264.973
1545.83	320.375
