Measurement: Raman, 514 nm, ccw, Raman Data Processed
Mineral: Marialite
Rruff sample: R060297
Ideal chemistry: Na_4_Al_3_Si_9_O_24_Cl
Locality: Morogoro District, Marasi, Tanzania
Source: Herb Obodda
Description: Pale yellow crystal fragment
Measured chemistry: (Na_0.66_Ca_0.29_K_0.06_)_4_(Si_0.68_Al_0.32_)_12_O_24_(Cl_0.70_(CO_3_)_0.30_)
Pin_id: L01219
Orientation: Laser parallel to c* (0 0 1). Fiducial mark perpendicular to laser is parallel to a [1 0 0]
Raman shift (cm-1)	intensity
93.286	0
98.231	586.391
103.174	4126.56
108.114	10295.6
113.052	10053.9
117.987	5215.75
122.919	3596.59
127.849	3055.4
132.777	3003.14
137.702	3034.84
142.624	5228.93
147.544	9104.84
152.461	16821.6
157.375	26519
162.287	31248
167.197	26465.5
172.104	17610.4
177.008	12362.4
181.91	10185.1
186.809	10107.7
191.706	9655.03
196.6	8401.51
201.491	6407.79
206.38	6579.42
211.267	5135.4
216.151	4550.96
221.032	4622.71
225.911	4470.57
230.787	3554.95
235.66	2027.31
240.531	770.688
245.4	727.432
250.266	1595.45
255.129	4451.18
259.99	8570.57
264.848	9834.14
269.703	5424.85
274.556	2186.42
279.407	1855.94
284.255	4034.41
289.1	5946.29
293.942	4084.06
298.783	2557.55
303.62	123.672
308.455	1452.48
313.288	1257.67
318.117	774.328
322.945	81.4668
327.769	1906.91
332.591	3306.7
337.411	3864.03
342.228	2636.03
347.042	1637.31
351.854	2609.7
356.663	4410.76
361.47	5647.57
366.274	3417.77
371.075	1829.81
375.874	1588.68
380.67	1608.39
385.464	1074.1
390.255	835.848
395.043	544.604
399.829	580.707
404.613	650.441
409.393	1032.6
414.172	1986.31
418.947	3120.16
423.72	3792.55
428.49	3942.72
433.258	5394.84
438.024	8761.73
442.786	14806.3
447.546	27254.5
452.304	53115.4
457.059	70223.1
461.811	66267.5
466.56	41638.7
471.308	21526.7
476.052	11107.9
480.794	6048.65
485.533	3519.8
490.27	2292.34
495.004	1767.99
499.736	1144.2
504.465	1143.19
509.191	886.41
513.915	1204.85
518.636	1677.61
523.354	3180.23
528.07	7151.38
532.784	15784
537.494	23187.8
542.203	14530.6
546.908	6614.72
551.611	2926.55
556.311	1126.67
561.009	715.018
565.704	381.008
570.397	242.531
575.087	183.996
579.774	262.912
584.459	255.691
589.141	139.037
593.821	654.129
598.498	842.834
603.172	1402.59
607.844	971.144
612.513	910.787
617.18	505.369
621.844	95.7324
626.505	36.7188
631.164	212.809
635.82	110.439
640.473	264.486
645.124	65.0332
649.773	49.2422
654.418	206.502
659.062	28.6133
663.702	465.559
668.34	419.143
672.975	69.4258
677.608	534.625
682.238	90.7441
686.866	19.0625
691.49	121.731
696.113	137.719
700.732	157.754
705.349	115.766
709.964	243.531
714.576	336.121
719.185	449.031
723.792	347.223
728.396	186.633
732.997	294.102
737.596	383.695
742.192	415.531
746.785	726.652
751.376	1264.42
755.965	1916.16
760.551	3243.97
765.134	4774.56
769.714	6909.22
774.292	7511.75
778.867	6107.71
783.44	2982.8
788.01	1265.8
792.578	1013.98
797.142	992.539
801.705	1545.07
806.264	2772.25
810.821	3192.93
815.376	1270.57
819.927	265.535
824.476	229.82
829.023	37.6172
833.567	164.305
838.108	2.10547
842.647	6.54688
847.183	283.078
851.716	99.5391
856.247	380.644
860.776	321.102
865.301	713.106
869.824	591.516
874.345	234.633
878.862	101.731
883.377	2.6875
887.89	444.914
892.4	537.57
896.907	628.391
901.412	694.84
905.914	1053.64
910.413	1107.57
914.91	926.773
919.404	687.223
923.896	860.512
928.385	1175.39
932.871	764.586
937.355	824.316
941.836	821.309
946.315	866.547
950.79	1347.15
955.264	1221.59
959.734	1263.73
964.202	1207.1
968.668	1357.52
973.131	1889.16
977.591	2423.66
982.048	3861.29
986.503	7100.2
990.955	10408.7
995.405	9942.76
999.852	3991.09
1004.3	1973.28
1008.74	867.93
1013.18	240.969
1017.61	247.809
1022.05	332.082
1026.48	95.4375
1030.91	650.711
1035.33	1320.53
1039.76	1966.55
1044.18	2565.77
1048.6	2965.17
1053.01	3297.86
1057.42	3995.11
1061.84	5182.71
1066.24	5952.14
1070.65	6620.05
1075.05	6867.88
1079.45	6176.72
1083.85	6339.4
1088.24	7370.08
1092.63	10016.6
1097.02	12425.5
1101.41	11818.8
1105.8	8272.52
1110.18	9440.92
1114.56	11089.5
1118.93	3581.97
1123.31	1734.59
1127.68	1941.13
1132.04	1623.77
1136.41	1477.56
1140.77	1582.49
1145.13	654.328
1149.49	492.805
1153.85	595.125
1158.2	256.891
1162.55	543.016
1166.9	493.312
1171.24	379.367
1175.58	473.414
1179.92	495.469
1184.26	536.5
1188.6	756.117
1192.93	707.211
1197.26	1685.19
1201.58	1705.39
1205.9	1415.26
1210.23	1053.12
1214.55	961.875
1218.86	513.773
1223.17	767.148
1227.48	435.906
1231.79	426.867
1236.1	158.086
1240.4	137.234
1244.7	45.5469
1249	41.1016
1253.29	81.0391
1257.59	291.164
1261.88	163.516
1266.16	473.523
1270.45	262.75
1274.73	457.812
1279.01	152.898
1283.28	32.7422
1287.56	97.9688
1291.83	249.828
1296.1	447.812
1300.36	456.57
1304.63	288.391
1308.89	870.773
1313.15	144.625
1317.4	223.242
1321.65	531.375
1325.9	570.391
1330.15	246.688
1334.4	446.867
1338.64	89.3203
1342.88	664.844
1347.12	273.109
1351.35	412.07
1355.58	251.094
1359.81	284.289
1364.04	328.125
1368.26	245.406
1372.48	448.594
1376.7	269.289
1380.92	105.07
1385.13	136.797
1389.34	234.422
1393.55	48.2266
1397.76	340.953
1401.96	19.6875
1406.16	301.562
1410.36	417.383
1414.55	347.844
1418.75	487.109
1422.94	313.664
1427.12	297.43
1431.31	436.477
1435.49	377.242
1439.67	606.438
1443.85	350.367
1448.02	229.711
1452.19	139.781
1456.36	94.3828
1460.53	337.281
1464.69	97.125
1468.85	665.172
1473.01	411.125
1477.17	68.1797
1481.32	386.18
1485.47	164.297
1489.62	3.3125
1493.76	600.07
1497.91	196.164
1502.05	686.023
1506.18	165.727
1510.32	1128.69
1514.45	704.031
1518.58	727.805
1522.71	998.805
1526.83	574.594
1530.95	1005.72
1535.07	1084.83
1539.19	375.172
1543.3	709.859
1547.41	655.094
1551.52	742.266
1555.63	351.312
1559.73	395.781
1563.83	566.859
1567.93	269.453
1572.03	746.234
1576.12	4.125
