Measurement: Raman, 514 nm, ccw, Raman Data Processed
Mineral: Marialite
Rruff sample: R060526
Ideal chemistry: Na_4_Al_3_Si_9_O_24_Cl
Locality: Minas Gerais, Brazil
Source: Michael Scott
Description: Heavily striated pale yellow elongated prism
Measured chemistry: (Na_0.62_Ca_0.33_K_0.05_)_4_(Si_0.66_Al_0.34_)_12_O_24_(Cl_0.77_(CO_3_)_0.23_)
Pin_id: L01495
Orientation: Laser parallel to c* (0 0 1). Fiducial mark perpendicular to laser is parallel to a [1 0 0]
Raman shift (cm-1)	intensity
114.185	0
119.126	72.4863
124.064	156.141
129	305.51
133.933	185.617
138.864	62.8838
143.791	46.2644
148.716	310.618
153.638	784.891
158.558	1495.32
163.475	1842.3
168.389	1680.47
173.3	982.71
178.209	493.456
183.115	393.858
188.018	567.692
192.918	610.31
197.816	577.034
202.711	488.698
207.604	379.518
212.494	299.604
217.381	383.776
222.265	460.398
227.147	444.226
232.026	292.813
236.902	143.589
241.775	1.56934
246.646	7.698
251.514	124.627
256.38	312.588
261.243	801.168
266.103	971.727
270.96	504.303
275.815	167.973
280.667	94.4428
285.516	211.216
290.363	469.02
295.207	341.92
300.048	311.929
304.887	66.8453
309.723	10.1967
314.556	32.2779
319.387	39.5427
324.215	33.0886
329.04	181.55
333.862	374.257
338.682	435.423
343.5	169.038
348.314	140.1
353.126	204.711
357.935	362.86
362.742	533.725
367.546	264.614
372.347	163.901
377.145	203.78
381.941	250.246
386.735	179.585
391.525	172.316
396.313	96.0305
401.098	9.60693
405.881	118.014
410.661	149.806
415.438	159.058
420.213	410.137
424.985	345.174
429.754	300.874
434.521	394.694
439.285	681.402
444.046	961.912
448.805	1885.15
453.561	3857.18
458.315	5168.68
463.065	4718.06
467.813	3097.37
472.559	1570.18
477.302	809.517
482.042	462.443
486.78	248.988
491.515	183.69
496.247	76.8174
500.977	88.9598
505.704	49.0024
510.428	64.7833
515.15	70.135
519.869	128.185
524.586	297.697
529.3	568.294
534.011	1437.88
538.719	2060.44
543.425	1199.45
548.129	517.316
552.83	247.175
557.528	132.996
562.223	98.4031
566.916	33.1274
571.607	40.803
576.294	1.89795
580.979	55.0581
585.662	15.7908
590.341	6.64551
595.019	38.3547
599.693	17.4617
604.365	35.9502
609.035	117.971
613.701	114.773
618.366	46.1365
623.027	8.19678
627.686	21.9355
632.342	9.7373
636.996	29.8105
641.647	6.75244
646.296	14.7991
650.942	40.1899
655.585	30.5764
660.226	65.3198
664.864	86.0542
669.499	65.8933
674.132	46.9001
678.763	37.5217
683.39	40.6211
688.015	39.0515
692.638	38.2043
697.258	37.1809
701.875	108.909
706.49	42.0183
711.102	110.039
715.712	84.7671
720.319	73.094
724.923	41.8169
729.525	107.39
734.124	78.6846
738.721	7.59424
743.315	33.3701
747.907	113.617
752.496	151.932
757.082	217.304
761.666	321.768
766.247	581.955
770.826	784.161
775.402	823.736
779.975	625.153
784.546	224.353
789.115	125.059
793.681	146.119
798.244	115.855
802.804	136.935
807.363	232.623
811.918	215.853
816.471	106.209
821.022	112.078
825.569	38.9463
830.115	9.31226
834.657	72.4453
839.198	55.248
843.735	129.776
848.27	84.0417
852.803	60.5908
857.333	35.7151
861.86	44.5093
866.385	21.2444
870.907	61.4629
875.427	82.5913
879.944	19.4121
884.459	134.307
888.971	0.901367
893.481	82.6763
897.988	141.058
902.492	31.1318
906.994	28.2891
911.493	34.8452
915.99	20.3872
920.485	106.773
924.976	28.3623
929.466	47.6348
933.952	27.6743
938.436	142.841
942.918	135.851
947.397	37.3413
951.874	96.4067
956.348	56.4937
960.819	79.5601
965.288	1.54248
969.755	47.4863
974.219	68.5347
978.68	25.5581
983.139	189.873
987.595	98.6665
992.049	236.465
996.501	162.259
1000.95	123.941
1005.4	8.14502
1009.84	50.6152
1014.28	105.901
1018.72	142.685
1023.16	142.685
1027.59	41.1001
1032.02	81.4443
1036.45	253.321
1040.88	282.487
1045.3	269.812
1049.72	320.191
1054.14	164.833
1058.56	364.04
1062.97	470.52
1067.38	503.652
1071.79	569.613
1076.19	571.068
1080.6	621.42
1085	373.954
1089.4	571.896
1093.79	679.766
1098.19	754.349
1102.58	786.099
1106.97	599.894
1111.35	944.93
1115.74	1231.51
1120.12	288.606
1124.5	234.017
1128.87	101.735
1133.25	285.751
1137.62	221.889
1141.99	123.969
1146.35	44.3491
1150.72	31.2686
1155.08	26.1221
1159.44	58.5147
1163.79	25.7734
1168.15	82.5459
1172.5	139.988
1176.85	53.7227
1181.19	104.457
1185.54	95.7227
1189.88	74.1377
1194.22	147.154
1198.55	178.844
1202.89	92.2207
1207.22	82.8887
1211.55	98.043
1215.88	45.2764
1220.2	116.806
1224.52	139.065
1228.84	136.103
1233.16	135.047
1237.47	97.7461
1241.78	135.246
1246.09	158.745
1250.4	129.603
1254.7	112.312
1259.01	156.748
1263.31	195.394
1267.6	136.662
1271.9	158.857
1276.19	73.3272
1280.48	197.995
1284.77	93.6113
1289.05	310.978
1293.33	151.849
1297.61	207.691
1301.89	8.97461
1306.16	179.744
1310.44	218.33
1314.71	187.374
1318.97	196.486
1323.24	206.904
1327.5	273.78
1331.76	254.611
1336.02	212.978
1340.28	282.431
1344.53	195.783
1348.78	290.889
1353.03	117.252
1357.27	184.749
1361.52	192.277
1365.76	256.421
1370	260.918
1374.23	142.656
1378.47	97.3779
1382.7	134.932
1386.93	91.4746
1391.15	147.893
1395.38	36.0059
1399.6	49.541
1403.82	190.711
1408.03	106.76
1412.25	21.4746
1416.46	46.6562
1420.67	126.551
1424.88	230.809
1429.08	177.767
1433.28	120.68
1437.48	188.624
1441.68	277.633
1445.87	158.167
1450.07	70.0644
1454.26	318.058
1458.44	141.802
1462.63	222.741
1466.81	15.8135
1470.99	213.587
1475.17	74.3477
1479.34	135.078
1483.52	205.086
1487.69	241.576
1491.86	231.75
1496.02	21.5664
1500.19	169.566
1504.35	121.33
1508.51	80.9297
1512.66	0.068359
