Measurement: Raman, 514 nm, ccw, Raman Data Processed
Mineral: Marialite
Rruff sample: R060469
Ideal chemistry: Na_4_Al_3_Si_9_O_24_Cl
Locality: Mpwa-Mpwa mine, Umba Valley, near Arusha, Tanzania
Source: Michael Scott
Description: Yellow tetragonal prism with pronounced striations along the c-axis direction
Measured chemistry: (Na_0.66_Ca_0.27_K_0.07_)_4_(Si_0.68_Al_0.32_)_12_O_24_(Cl_0.75_(CO_3_)_0.25_)
Pin_id: L01385
Orientation: Laser parallel to a* (1 0 0). Fiducial mark perpendicular to laser is parallel to c [0 0 1]
Raman shift (cm-1)	intensity
130.234	0
135.166	81.8081
140.096	246.756
145.023	87.3125
149.947	40.8098
154.869	49.1128
159.787	250.058
164.703	278.372
169.617	147.227
174.528	32.8276
179.435	25.7056
184.341	96.5915
189.243	230.204
194.143	402.29
199.04	352.357
203.935	229.784
208.827	257.088
213.716	289.994
218.602	306.707
223.486	551.411
228.367	590.584
233.245	602.321
238.12	495.954
242.993	567.661
247.863	911.367
252.731	1655.12
257.596	2688.69
262.458	3716.98
267.317	3435.33
272.174	1891.05
277.028	860.228
281.879	588.837
286.728	572.507
291.574	858.223
296.417	1158.67
301.258	1183.36
306.096	506.485
310.931	132.77
315.764	3.57373
320.594	53.9092
325.421	9.76514
330.246	4.62939
335.068	4.64575
339.887	105.36
344.703	293.526
349.517	546.027
354.329	1165.8
359.137	1542.2
363.943	1609.24
368.746	1246.63
373.547	852.423
378.345	780.11
383.14	624.158
387.932	407.843
392.722	360.683
397.51	333.181
402.294	257.5
407.076	501.999
411.855	818.59
416.632	1346.35
421.406	1605.88
426.177	1216.61
430.946	750.373
435.712	687.172
440.475	1042.91
445.236	1718.72
449.994	2986.8
454.75	4735.84
459.502	5592
464.253	4355.87
469	2720.69
473.745	1550.81
478.487	1035.84
483.227	613.714
487.964	290.729
492.698	208.482
497.43	80.834
502.159	145.752
506.885	3.18945
511.609	134.379
516.33	145.009
521.049	402.463
525.764	1226.48
530.478	3151.84
535.188	5532.45
539.896	5875.52
544.602	3118.49
549.304	1281.13
554.004	550.912
558.702	358.239
563.397	223.193
568.089	76.6655
572.779	39.8613
577.466	99.7324
582.15	1.26807
586.832	95.4624
591.511	70.3774
596.188	108.052
600.862	14.5171
605.533	36.7783
610.202	15.9756
614.868	0.847168
619.531	29.1631
624.192	49.0889
628.85	19.1348
633.506	24.2246
638.159	18.3691
642.81	5.60889
647.457	76.4517
652.103	80.5635
656.745	62.4302
661.385	40.124
666.023	96.4888
670.658	122.547
675.29	109.824
679.92	57.915
684.547	75.5523
689.171	91.7788
693.793	184.884
698.413	131.466
703.029	250.773
707.643	384.982
712.255	422.074
716.864	459.962
721.47	247.714
726.074	299.633
730.675	291.277
735.274	310.216
739.87	309.548
744.463	393.241
749.054	570.008
753.643	1026.09
758.228	1452.86
762.812	2145.06
767.392	3177.2
771.97	3849.65
776.546	3684.09
781.118	2692.5
785.689	1618.16
790.256	860.204
794.822	611.451
799.384	429.841
803.944	265.274
808.502	199.439
813.057	163.904
817.609	152.965
822.159	165.597
826.706	83.3926
831.251	88.8301
835.793	69.2944
840.332	130.541
844.869	123.385
849.404	108.696
853.936	49.5063
858.465	99.8154
862.992	1.37305
867.516	27.188
872.037	169.363
876.557	89.4404
881.073	97.0801
885.587	71.2495
890.099	16.0371
894.608	71.937
899.114	56.5889
903.618	56.729
908.119	4.49805
912.618	121.689
917.114	12.436
921.608	5.71191
926.099	138.347
930.588	39.3897
935.074	82.9297
939.557	7.36231
944.038	45.6065
948.517	92.8272
952.993	83.6856
957.466	15.335
961.937	169.162
966.405	54.6299
970.871	203.706
975.334	165.574
979.795	260.434
984.253	698.373
988.709	1148.61
993.162	1472.79
997.613	1155.55
1002.06	659.994
1006.51	347.769
1010.95	473.056
1015.39	507.648
1019.83	424.233
1024.26	458.213
1028.7	463.583
1033.13	446.356
1037.56	514.879
1041.98	557.127
1046.4	684.438
1050.83	674.004
1055.24	659.253
1059.66	771.677
1064.07	882.529
1068.48	981.437
1072.89	1307.15
1077.3	1566.92
1081.7	1784.53
1086.1	2268.16
1090.5	2301.41
1094.89	2546.73
1099.29	2390.62
1103.68	2019.32
1108.06	1451.79
1112.45	1388.6
1116.83	1185.15
1121.21	1006.8
1125.59	1070.58
1129.97	668.863
1134.34	521.668
1138.71	465.339
1143.08	295.416
1147.44	430.218
1151.81	146.753
1156.17	205.1
1160.53	24.8096
1164.88	2.80859
1169.23	71.7363
1173.59	5.28809
1177.93	55.8926
1182.28	5.42969
1186.62	48.9551
1190.96	82.5752
1195.3	1.67383
1199.64	88.1436
1203.97	9.78418
1208.3	125.881
1212.63	16.9844
1216.96	132.452
1221.28	135.981
1225.6	170.077
1229.92	36.0654
1234.24	165.815
1238.55	86.1572
1242.86	31.3896
1247.17	56.7451
1251.47	157.546
1255.78	119.585
1260.08	210.372
1264.38	37.5488
1268.68	296.745
1272.97	51.7773
1277.26	130.178
1281.55	225.612
1285.84	291.902
1290.12	154.763
1294.4	165.398
1298.68	252.898
1302.96	113.05
1307.23	115.304
1311.51	218.404
1315.78	125.636
1320.04	87.5879
1324.31	160.944
1328.57	163.901
1332.83	180.139
1337.09	143.144
1341.34	208.009
1345.59	182.436
1349.84	26.8633
1354.09	85.1553
1358.34	65.4258
1362.58	202.408
1366.82	139.371
1371.06	131.34
1375.29	122.062
1379.52	80.0273
1383.75	54.9004
1387.98	26.7363
1392.21	171.305
1396.43	73.5996
1400.65	2.67773
1404.87	62.2148
1409.09	99.9297
1413.3	34.4766
1417.51	168.217
1421.72	59.2676
1425.93	204.014
1430.13	44.1973
1434.33	251.633
1438.53	84.6699
1442.73	83.6719
1446.92	288.44
1451.11	246.533
1455.3	107.389
1459.49	227.01
1463.67	158.596
1467.86	144.385
1472.04	188.356
1476.21	166.068
1480.39	172.463
1484.56	219.568
1488.73	30.1699
1492.9	246.592
1497.06	112.34
1501.23	410.006
1505.39	290.603
1509.55	98.5488
1513.7	122.856
1517.85	0
