Measurement: Raman, , ccw, Raman Data Processed
Mineral: Marialite
Rruff sample: R060469
Ideal chemistry: Na_4_Al_3_Si_9_O_24_Cl
Locality: Mpwa-Mpwa mine, Umba Valley, near Arusha, Tanzania
Source: Michael Scott
Description: Yellow tetragonal prism with pronounced striations along the c-axis direction
Measured chemistry: (Na_0.66_Ca_0.27_K_0.07_)_4_(Si_0.68_Al_0.32_)_12_O_24_(Cl_0.75_(CO_3_)_0.25_)
Pin_id: L01121
Orientation: Laser parallel to c* (0 0 1). Fiducial mark perpendicular to laser is parallel to a [1 0 0]
Raman shift (cm-1)	intensity
114.185	0
119.126	36.4937
124.064	286.669
129	578.443
133.933	872.341
138.864	1131.49
143.791	1897.68
148.716	3265.95
153.638	5267.41
158.558	7578.61
163.475	8634.7
168.389	7117.71
173.3	5003.58
178.209	3718.67
183.115	3432.86
188.018	3322.04
192.918	3196.23
197.816	2583.49
202.711	1948.84
207.604	1483.88
212.494	1324.26
217.381	1418.01
222.265	1510.18
227.147	1497.62
232.026	1329.17
236.902	942.691
241.775	608.96
246.646	691.158
251.514	1026.99
256.38	1887.48
261.243	2820.79
266.103	2878.27
270.96	1599.51
275.815	881.835
280.667	1050.67
285.516	1528.17
290.363	1870.69
295.207	1363.72
300.048	1017.9
304.887	178.017
309.723	282.302
314.556	284.438
319.387	237.941
324.215	98.5933
329.04	405.981
333.862	862.485
338.682	952.07
343.5	528.769
348.314	491.608
353.126	687.639
357.935	1209.01
362.742	1598.59
367.546	998.206
372.347	504.384
377.145	318.142
381.941	339.487
386.735	188.101
391.525	68.854
396.313	9.43408
401.098	23.3179
405.881	83.6103
410.661	157.237
415.438	444.938
420.213	731.882
424.985	843.36
429.754	1026.54
434.521	1470.95
439.285	2371.36
444.046	3985.13
448.805	7914.73
453.561	15255
458.315	20399.7
463.065	17298.5
467.813	10240.9
472.559	5331.43
477.302	2797.66
482.042	1444.19
486.78	904.658
491.515	568.269
496.247	384.747
500.977	332.385
505.704	224.166
510.428	232.826
515.15	199.32
519.869	400.123
524.586	872.142
529.3	2152.17
534.011	4560.64
538.719	6434.63
543.425	3713.03
548.129	1456.85
552.83	766.837
557.528	276.051
562.223	153.895
566.916	61.9263
571.607	26.73
576.294	63.5664
580.979	68.8291
585.662	6.01025
590.341	96.271
595.019	149.598
599.693	238.371
604.365	415.933
609.035	353.217
613.701	240.817
618.366	195.61
623.027	155.656
627.686	64.9824
632.342	8.5293
636.996	78.9189
641.647	91.9233
646.296	7.18701
650.942	31.1729
655.585	13.1665
660.226	32.2007
664.864	67.0361
669.499	34.957
674.132	169.274
678.763	49.0454
683.39	227.183
688.015	98.3232
692.638	5.76172
697.258	135.864
701.875	129.633
706.49	123.369
711.102	66.5859
715.712	191.807
720.319	173.741
724.923	100.888
729.525	225.67
734.124	204.983
738.721	182.889
743.315	208.658
747.907	267.309
752.496	603.058
757.082	595.035
761.666	1023.31
766.247	1553.47
770.826	2008.06
775.402	2097.03
779.975	1718.68
784.546	880.579
789.115	547.713
793.681	310.493
798.244	284.863
802.804	472.965
807.363	830.323
811.918	824.269
816.471	397.44
821.022	253.677
825.569	5.75781
830.115	127.525
834.657	35.7383
839.198	52.3008
843.735	135.46
848.27	13.7031
852.803	138.034
857.333	89.6543
861.86	107.99
866.385	69.9824
870.907	13.6621
875.427	36.3428
879.944	4.01758
884.459	77.8828
888.971	125.758
893.481	96.5615
897.988	84.541
902.492	65.3731
906.994	53.8389
911.493	194.264
915.99	23.1982
920.485	30.1836
924.976	40.5264
929.466	109.492
933.952	207.199
938.436	88.5557
942.918	52.5645
947.397	216.236
951.874	198.665
956.348	18.8125
960.819	85.7236
965.288	38.9531
969.755	210.853
974.219	213.044
978.68	261.073
983.139	635.613
987.595	1412.21
992.049	2421.28
996.501	2108.76
1000.95	642.941
1005.4	318.796
1009.84	152.963
1014.28	204.88
1018.72	276.348
1023.16	290.46
1027.59	289.777
1032.02	243.867
1036.45	408.59
1040.88	547.394
1045.3	515.074
1049.72	703.591
1054.14	917.878
1058.56	770.4
1062.97	1091
1067.38	1264.65
1071.79	1441.35
1076.19	1463.46
1080.6	1260.37
1085	1403.42
1089.4	1693.87
1093.79	2470.16
1098.19	2715.05
1102.58	2307.84
1106.97	1841.85
1111.35	2244.48
1115.74	2241.32
1120.12	593.906
1124.5	438.217
1128.87	124.977
1133.25	258.031
1137.62	190.158
1141.99	82.0547
1146.35	146.75
1150.72	205.465
1155.08	98.9043
1159.44	39.4492
1163.79	46.0566
1168.15	2.15625
1172.5	185.117
1176.85	119.137
1181.19	79.3867
1185.54	108.795
1189.88	321.002
1194.22	163.748
1198.55	503.756
1202.89	570.002
1207.22	441.65
1211.55	388.115
1215.88	138.6
1220.2	110.785
1224.52	346.791
1228.84	269.275
1233.16	308.002
1237.47	188.512
1241.78	220.574
1246.09	249.58
1250.4	322.754
1254.7	481.129
1259.01	51.7578
1263.31	85.8379
1267.6	101.32
1271.9	312.432
1276.19	110.947
1280.48	182.885
1284.77	244.188
1289.05	209.305
1293.33	129.293
1297.61	239.078
1301.89	298.022
1306.16	171.51
1310.44	340.969
1314.71	114.602
1318.97	427.422
1323.24	266.943
1327.5	152.963
1331.76	171.357
1336.02	193.5
1340.28	428.344
1344.53	189.44
1348.78	240.279
1353.03	296.094
1357.27	246.66
1361.52	240.31
1365.76	232.514
1370	357.818
1374.23	203.022
1378.47	99.0566
1382.7	116.772
1386.93	82.8262
1391.15	109.805
1395.38	171.828
1399.6	12.6777
1403.82	80.7109
1408.03	38.8594
1412.25	86.9883
1416.46	281.773
1420.67	250.719
1424.88	115.816
1429.08	188.75
1433.28	46.2812
1437.48	181.332
1441.68	62.1289
1445.87	28.2266
1450.07	170.305
1454.26	217.746
1458.44	343.695
1462.63	194.918
1466.81	28.1367
1470.99	67.4258
1475.17	161.629
1479.34	217.016
1483.52	479.223
1487.69	176.887
1491.86	275.57
1496.02	523.379
1500.19	194.906
1504.35	423.246
1508.51	391.379
1512.66	800.281
1516.82	281.344
1520.97	664.707
1525.12	553.191
1529.26	449.82
1533.41	459.809
1537.55	459.039
1541.69	517.047
1545.83	525.367
1549.96	187.336
1554.09	52.0078
1558.22	556.137
1562.35	493.676
1566.48	260.234
1570.6	161.449
1574.72	49.7227
1578.84	0
