Measurement: Raman, 514 nm, ccw, Raman Data Processed
Mineral: Marialite
Rruff sample: R060458
Ideal chemistry: Na_4_Al_3_Si_9_O_24_Cl
Locality: Dading, Nepal
Source: Michael Scott
Description: Colorless elongated prism
Measured chemistry: (Na_0.52_Ca_0.47_K_0.01_)_4_(Al_0.36_Si_0.64_)_12_O_24_(Cl_0.44_(CO_3_)_0.56_)
Pin_id: L00702
Orientation: Laser parallel to c* (0 0 1). Fiducial mark perpendicular to laser is parallel to a [1 0 0]
Raman shift (cm-1)	intensity
89.575	0
94.523	52.5449
99.467	2428.1
104.409	7852.14
109.349	13212.1
114.286	10988.3
119.22	5289.25
124.152	2818.24
129.081	2114.72
134.008	3024.4
138.932	5499.07
143.854	9844.43
148.773	17254
153.69	27460.9
158.604	35411.4
163.515	35646.8
168.424	28592.4
173.33	18934.7
178.234	12693.6
183.135	11803.2
188.034	12159.3
192.93	11787.8
197.823	11415.3
202.714	11423.2
207.602	12012.4
212.488	10439.2
217.371	8669.02
222.252	7881.61
227.13	7895.92
232.005	6012.86
236.878	4042.5
241.749	2715.7
246.616	3047.38
251.482	4762.65
256.344	7728.67
261.204	10044.2
266.062	7286.9
270.917	2939.55
275.769	538.342
280.619	262.373
285.466	1082.95
290.311	2729.03
295.153	3731.52
299.992	2112.14
304.829	481.496
309.663	1200.83
314.495	1184.81
319.324	511.764
324.151	51.5605
328.975	795.959
333.796	1485.66
338.615	2026.39
343.432	1607.55
348.245	1507.43
353.056	3195.8
357.865	5501.07
362.671	6281.55
367.474	4021.6
372.275	2559.26
377.073	2170
381.869	2117.7
386.662	1973.47
391.452	1632.67
396.24	1365.62
401.025	1520.72
405.808	1858.02
410.588	2867.8
415.366	3870.03
420.141	5875.21
424.913	6404.63
429.683	7013.31
434.45	8503.95
439.214	13710.3
443.976	24039.3
448.736	43226.3
453.493	67243.4
458.247	71749.9
462.998	63390.8
467.747	40146.5
472.494	21575.3
477.238	11718.4
481.979	6968.93
486.718	4358.91
491.454	2910.14
496.187	1985.83
500.918	1297.43
505.646	1121.38
510.372	813.865
515.095	1107.25
519.816	2535.34
524.534	6153.02
529.249	13357.6
533.962	21999.6
538.672	19017.2
543.379	9570.85
548.084	4414.57
552.786	2189.57
557.486	1108
562.183	510.031
566.878	316.147
571.57	58.1953
576.259	197.154
580.946	150.019
585.63	11.873
590.311	160.217
594.99	193.998
599.667	510.978
604.34	990.361
609.012	1372.07
613.68	1310.04
618.346	485.092
623.009	115.465
627.67	192.791
632.328	94.8223
636.984	219.299
641.636	252.621
646.287	137.398
650.934	93.3906
655.579	282.047
660.222	517.731
664.862	257.527
669.499	229.191
674.134	975.348
678.766	1350.79
683.395	612.043
688.022	46.6797
692.646	167.25
697.268	250.582
701.887	513.106
706.503	721.887
711.117	584.019
715.728	1040.48
720.337	1006.86
724.943	1369.7
729.546	1268.02
734.147	1533.32
738.745	1620.44
743.341	1577.58
747.933	2335.43
752.524	3014.38
757.111	4296.85
761.697	6503.14
766.279	9552.75
770.859	12292.2
775.436	10779.4
780.011	5505.75
784.583	2095.4
789.152	1056.19
793.719	1045.62
798.283	956.426
802.845	1544.28
807.404	1687.14
811.96	742.984
816.514	131.055
821.065	350.856
825.613	6.46094
830.159	295.285
834.703	113.184
839.243	130.578
843.781	122.641
848.317	48.7109
852.849	55.375
857.38	238.129
861.907	493.141
866.432	317.832
870.954	191.398
875.474	135.617
879.991	331.809
884.506	437.832
889.018	782.301
893.527	717.949
898.034	897.945
902.538	929.707
907.039	791.363
911.538	1003.28
916.034	762.527
920.528	678.785
925.018	539.754
929.507	719.762
933.992	382.977
938.476	732.965
942.956	529.356
947.434	998.418
951.909	954.016
956.382	1088.6
960.852	1486.56
965.319	1486.69
969.784	1858.91
974.246	1866.74
978.705	1785.77
983.162	2317.14
987.616	2181.17
992.068	1440.46
996.517	981.836
1000.96	1614.51
1005.41	1191.21
1009.85	458.203
1014.29	48.7656
1018.72	512.398
1023.16	129.531
1027.59	798.891
1032.02	2140.82
1036.44	2851.36
1040.86	3843.03
1045.28	3897.74
1049.7	4741.26
1054.12	5392.62
1058.53	5997.87
1062.94	7586.69
1067.35	8657.77
1071.75	9966.51
1076.15	10275.4
1080.55	11884.7
1084.95	17705.1
1089.34	26888.9
1093.73	33015.4
1098.12	32294.7
1102.51	27223.2
1106.89	25150.5
1111.27	17031.7
1115.65	5948.82
1120.03	2580.4
1124.4	1627.79
1128.77	1355.45
1133.14	757.945
1137.5	903.82
1141.86	808.023
1146.22	584.258
1150.58	191.555
1154.93	398.086
1159.29	397.117
1163.64	441.531
1167.98	576.156
1172.33	883.203
1176.67	625.93
1181.01	880.297
1185.34	1254.44
1189.68	1791.66
1194.01	2075.48
1198.34	2465.73
1202.66	1544.11
1206.99	1631.1
1211.31	733.367
1215.62	409.578
1219.94	700.797
1224.25	350.297
1228.56	180.5
1232.87	61.6016
1237.17	73.9766
1241.48	68.2109
1245.78	261.375
1250.07	291.93
1254.37	488.258
1258.66	378.312
1262.95	413.266
1267.23	690.742
1271.52	335.891
1275.8	650.109
1280.08	465.297
1284.35	136.422
1288.63	880.422
1292.9	490.844
1297.16	487.414
1301.43	847.648
1305.69	629.945
1309.95	363.344
1314.21	778.539
1318.46	415.562
1322.72	401.211
1326.97	371.875
1331.21	302.961
1335.46	845.609
1339.7	611.422
1343.94	100.727
1348.18	1267.66
1352.41	410.281
1356.64	555.859
1360.87	474.578
1365.1	889.953
1369.32	130.875
1373.54	15.0781
1377.76	312.359
1381.97	506.281
1386.19	355.859
1390.4	443.562
1394.6	121.203
1398.81	187.938
1403.01	148.875
1407.21	823.594
1411.41	542.625
1415.6	692.984
1419.79	1013
1423.98	756.922
1428.17	400.406
1432.35	134.531
1436.54	386.484
1440.71	190.125
1444.89	1430.11
1449.06	217.562
1453.23	197.328
1457.4	376.094
1461.57	56.2969
1465.73	249.062
1469.89	345.844
1474.05	196.906
1478.2	470.562
1482.36	630.031
1486.51	640.312
1490.65	85.7969
1494.8	483.656
1498.94	26.8438
1503.08	89.3594
1507.22	870.688
1511.35	463.094
1515.48	1574.47
1519.61	1162.5
1523.74	2300.81
1527.86	2048.28
1531.98	2003.97
1536.1	1734.52
1540.22	1324.09
1544.33	1445.78
1548.44	1364.62
1552.55	1700.06
1556.65	1367.12
1560.76	910.953
1564.86	834.625
1568.95	777.875
1573.05	1223.11
1577.14	0
