Measurement: Raman, 514 nm, ccw, Raman Data Processed
Mineral: Marialite
Rruff sample: R040113
Ideal chemistry: Na_4_Al_3_Si_9_O_24_Cl
Locality: Gouverneur, New York, USA
Source: University of Arizona Mineral Museum
Description: Green prismatic crystal
Measured chemistry: (Na_0.50_Ca_0.43_K_0.07_)_4_(Si_0.64_Al_0.36_)_12_O_24_(Cl_0.60_(CO_3_)_0.40_)
Pin_id: L01738
Orientation: Laser parallel to -a* (-1 0 0). Fiducial mark perpendicular to laser is parallel to c [0 0 1]
Raman shift (cm-1)	intensity
88.429	0
93.389	586.324
98.346	623.246
103.3	240.531
108.251	358.981
113.2	667.082
118.145	1923.26
123.088	2452.69
128.028	2927.47
132.965	2716.41
137.9	2280.38
142.832	1492.44
147.761	1530.94
152.687	2549.61
157.61	3573.32
162.531	4107.97
167.448	3426.46
172.363	1666.29
177.276	532.5
182.185	86.1602
187.092	504.348
191.996	343.32
196.897	690.297
201.795	730.656
206.691	779.309
211.584	1085.93
216.474	1032.79
221.361	1310.07
226.245	914.309
231.127	440.664
236.006	277.996
240.882	193
245.756	178.695
250.626	313.481
255.494	1538.38
260.36	3271.17
265.222	3674.25
270.082	2365
274.939	1073.44
279.793	557.727
284.644	415.758
289.493	1278.69
294.339	2043.05
299.182	1919.82
304.022	554.82
308.86	28.7031
313.695	158.695
318.527	125.25
323.357	22.1133
328.183	327.332
333.007	564.031
337.829	1015.52
342.647	1081.09
347.463	1086.42
352.276	1504.88
357.086	2095.97
361.894	2199.36
366.699	1938.94
371.501	1457.02
376.3	1504.3
381.097	1960.83
385.891	1718.83
390.682	1432.6
395.47	1052.36
400.256	880.629
405.039	803.789
409.82	892.469
414.597	1545.52
419.372	2054.82
424.144	2106.98
428.914	1909.62
433.681	1978.17
438.445	3187.12
443.206	5955.91
447.965	10072.5
452.721	15597.1
457.474	17414.7
462.225	15698.9
466.972	11201.1
471.718	6877.82
476.46	3838.94
481.2	2028.14
485.937	1197.2
490.671	872.051
495.403	970.617
500.132	590.484
504.858	672.992
509.582	331.441
514.303	484.922
519.021	1097.18
523.736	2091.95
528.449	4632.4
533.159	7401.28
537.867	7723.49
542.572	4488.69
547.274	2264.18
551.973	1093.98
556.67	708.695
561.364	864.543
566.055	504.957
570.744	473.32
575.43	81.5234
580.114	202.387
584.794	390.949
589.472	5.20703
594.148	172.945
598.82	165.719
603.49	271.523
608.158	165.062
612.823	220.227
617.485	579.547
622.144	501.359
626.801	356.07
631.455	145.148
636.106	129.742
640.755	130.594
645.401	2.73438
650.045	13.8047
654.685	31.0625
659.323	400.898
663.959	34.1719
668.592	74.7188
673.222	328.164
677.85	436
682.475	546.539
687.097	178.602
691.717	391.68
696.334	259.469
700.948	812.555
705.56	696.438
710.169	686.078
714.775	638.656
719.379	621.078
723.98	566.953
728.579	166.953
733.175	561.883
737.768	71.5
742.359	213.953
746.947	429.391
751.532	502.727
756.115	718.5
760.695	1715.75
765.273	2748.35
769.847	3303.46
774.42	3053.19
778.989	2037.98
783.557	676.039
788.121	600.281
792.683	553
797.242	351.227
801.799	345.516
806.353	717.75
810.904	534.641
815.453	499.438
819.999	666.984
824.543	205.227
829.084	466.844
833.622	233.484
838.158	277.75
842.691	166.383
847.221	534.633
851.749	63.6562
856.275	346.203
860.798	252.156
865.318	395.273
869.835	241.414
874.35	794.891
878.863	1050.59
883.373	797.531
887.88	1318.79
892.384	1761.53
896.886	1402.19
901.386	1671.2
905.883	1861.48
910.377	1945.77
914.869	1566.35
919.358	2135.15
923.844	1774.69
928.328	1913.27
932.81	1895.12
937.289	1891.67
941.765	2205.09
946.239	2286.62
950.71	2005.3
955.178	2221.38
959.644	2318.18
964.108	2170.94
968.569	1967.58
973.027	2095.1
977.482	2010
981.936	2100.81
986.386	1496.51
990.834	1299.17
995.28	801.664
999.723	706.586
1004.16	534.211
1008.6	109.805
1013.04	371.578
1017.47	302.977
1021.9	276.156
1026.33	645.031
1030.75	1047.63
1035.17	1712.2
1039.59	2758.93
1044.01	2473.37
1048.43	3262.47
1052.84	3697
1057.25	3919.5
1061.65	4222.23
1066.06	4390.25
1070.46	5075.62
1074.86	5032.53
1079.26	5216.77
1083.65	6514.39
1088.05	7864.09
1092.43	9738.78
1096.82	9119
1101.21	8467.64
1105.59	8639.34
1109.97	8219.17
1114.34	5477.58
1118.72	3195.48
1123.09	2461.21
1127.46	3044.77
1131.83	2168.12
1136.19	1734.09
1140.55	2064.55
1144.91	1083.66
1149.27	1281.8
1153.62	1104.72
1157.97	967.273
1162.32	839.547
1166.67	849.578
1171.01	504.797
1175.36	811.227
1179.69	416.844
1184.03	1027.69
1188.36	998.391
1192.7	1361.87
1197.03	1375.1
1201.35	1121.11
1205.67	897.375
1210	652.93
1214.32	1205.31
1218.63	759.844
1222.95	520.898
1227.26	171.914
1231.57	445.891
1235.87	496.82
1240.18	227.867
1244.48	413.883
1248.78	361.148
1253.07	512.086
1257.37	110.891
1261.66	347.516
1265.95	260.234
1270.24	290.25
1274.52	285.305
1278.8	80.6094
1283.08	427.469
1287.36	263.258
1291.63	86.8125
1295.9	238.609
1300.17	354.312
1304.44	98.75
1308.7	68.9766
1312.96	391.523
1317.22	283.016
1321.48	365.891
1325.74	104.844
1329.99	49.3438
1334.24	659.273
1338.48	701.266
1342.73	627.094
1346.97	38.2031
1351.21	1272.17
1355.45	346.609
1359.68	165.094
1363.91	609.219
1368.14	589.609
1372.37	437.312
1376.6	211.359
1380.82	34.9844
1385.04	45.6562
1389.26	789.156
1393.47	233.391
1397.68	1.54688
1401.89	323.297
1406.1	668.453
1410.31	693.234
1414.51	158.453
1418.71	630.094
1422.91	156.531
1427.1	256.094
1431.3	451.125
1435.49	721.453
1439.68	416.641
1443.86	122.344
1448.05	980.875
1452.23	599.641
1456.4	514.406
1460.58	124.25
1464.75	10.3438
1468.92	963.297
1473.09	329.469
1477.26	244.641
1481.42	106.719
1485.59	93.6094
1489.74	543.094
1493.9	192.469
1498.06	816.375
1502.21	342.062
1506.36	250.734
1510.5	580.719
1514.65	308.672
1518.79	91.1719
1522.93	769.5
1527.07	964.641
1531.2	500.5
1535.33	39.5781
1539.46	398.719
1543.59	480.375
1547.72	678.906
1551.84	1196.09
1555.96	809.047
1560.08	1026.03
1564.19	661.609
1568.31	537.047
1572.42	246.016
1576.53	0
