Measurement: Raman, 514 nm, ccw, Raman Data Processed
Mineral: Marialite
Rruff sample: R060526
Ideal chemistry: Na_4_Al_3_Si_9_O_24_Cl
Locality: Minas Gerais, Brazil
Source: Michael Scott
Description: Heavily striated pale yellow elongated prism
Measured chemistry: (Na_0.62_Ca_0.33_K_0.05_)_4_(Si_0.66_Al_0.34_)_12_O_24_(Cl_0.77_(CO_3_)_0.23_)
Pin_id: L01495
Orientation: Laser parallel to c* (0 0 1). Fiducial mark perpendicular to laser is parallel to a [1 0 0]
Raman shift (cm-1)	intensity
112.949	0
117.891	0.394531
122.83	68.4819
127.767	10.5513
132.7	82.8867
137.631	79.7217
142.56	11.331
147.485	273.337
152.408	582.109
157.328	933.704
162.246	1254.13
167.16	1227.8
172.073	649.087
176.982	389.586
181.888	292.725
186.792	259.071
191.694	357.95
196.592	400.541
201.488	338.987
206.381	440.138
211.271	360.799
216.159	247.169
221.044	336.525
225.926	304.969
230.806	185.553
235.683	148.727
240.557	24.3843
245.429	65.2305
250.298	2.32471
255.164	154.645
260.027	290.12
264.888	487.343
269.746	326.487
274.601	135.067
279.454	126.198
284.304	120.085
289.151	269.144
293.996	212.677
298.838	211.24
303.677	51.1943
308.514	112.283
313.348	10.5249
318.179	26.438
323.008	49.9004
327.834	71.415
332.657	210.319
337.478	264.828
342.295	153.884
347.111	194.916
351.923	161.679
356.733	259.006
361.54	204.37
366.345	219.6
371.147	126.315
375.946	178.495
380.743	132.01
385.537	230.241
390.328	134.604
395.116	55.3633
399.902	10.6504
404.686	55.0332
409.466	97.9077
414.244	201.659
419.019	212.392
423.792	263.775
428.562	269.153
433.329	176.182
438.094	303.179
442.856	543.941
447.616	845.493
452.372	1896.25
457.126	2793.49
461.878	2812.94
466.627	2004.75
471.373	1092.7
476.116	524.952
480.857	468.578
485.596	189.622
490.331	108.615
495.064	75.0523
499.795	172.592
504.522	105.706
509.247	16.4605
513.97	79.5449
518.69	108.876
523.407	134.611
528.121	299.461
532.833	733.26
537.543	1113.93
542.249	788.399
546.953	294.67
551.655	232.366
556.354	111.207
561.05	151.016
565.743	78.6899
570.434	31.8696
575.123	13.3799
579.808	12.0586
584.491	77.3662
589.172	27.8267
593.85	53.4785
598.525	80.0908
603.197	118.173
607.868	95.6631
612.535	127.026
617.2	128.039
621.862	21.0737
626.522	92.7925
631.178	87.5254
635.833	37.8789
640.485	65.3076
645.134	35.0601
649.78	142.222
654.424	57.1812
659.066	66.1216
663.704	81.3301
668.341	106.462
672.974	35.1431
677.605	17.6465
682.234	21.7427
686.859	53.0908
691.483	81.0815
696.103	37.7231
700.721	64.8438
705.337	152.14
709.949	43.6846
714.56	91.6938
719.167	60.3516
723.772	92.8472
728.375	118.076
732.975	33.4634
737.572	117.768
742.167	38.8101
746.759	39.9653
751.349	44.6543
755.936	218.932
760.52	287.918
765.102	314.39
769.681	416.385
774.258	594.518
778.832	500.17
783.404	320.771
787.973	180.816
792.539	103.403
797.103	125.589
801.665	133.399
806.223	181.243
810.779	207.363
815.333	130.897
819.884	102.269
824.433	90.0996
828.979	87.2734
833.522	125.228
838.063	79.5059
842.601	138.163
847.137	67.4883
851.67	32.7119
856.2	87.1123
860.729	81.3154
865.254	11.6543
869.777	32.6553
874.297	42.707
878.815	173.155
883.33	34.0303
887.843	50.6533
892.353	54.9688
896.861	70.1309
901.366	67.0283
905.869	34.2978
910.369	187.238
914.866	27.2217
919.361	1.19727
923.854	114.211
928.344	16.7021
932.831	8.75586
937.316	137.808
941.798	111.663
946.278	62.9688
950.755	32.416
955.23	15.5273
959.702	137.518
964.171	307.164
968.638	91.5644
973.103	145.644
977.565	116.707
982.025	148.719
986.482	129.332
990.936	262.382
995.388	137.403
999.837	129.587
1004.28	299.608
1008.73	151.926
1013.17	127.108
1017.61	134.304
1022.05	50.5195
1026.48	136.762
1030.91	155.844
1035.34	89.2939
1039.77	215.597
1044.19	139.047
1048.62	298.515
1053.03	178.597
1057.45	184.905
1061.87	371.89
1066.28	347.522
1070.69	503.114
1075.09	419.517
1079.5	389.284
1083.9	413.448
1088.3	356.444
1092.69	382.392
1097.09	628.014
1101.48	606.725
1105.87	427.111
1110.26	694.372
1114.64	911.867
1119.02	414.907
1123.4	170.168
1127.78	277.577
1132.15	154.678
1136.53	86.1201
1140.89	197.765
1145.26	122.113
1149.63	147.233
1153.99	108.724
1158.35	91.9512
1162.7	63.7324
1167.06	54.3818
1171.41	54.5977
1175.76	114.534
1180.11	71.1816
1184.45	33.4287
1188.79	65.8096
1193.13	210.254
1197.47	197.638
1201.81	105.55
1206.14	201.64
1210.47	226.381
1214.79	208.769
1219.12	172.997
1223.44	93.3906
1227.76	210.974
1232.08	233.997
1236.39	147.701
1240.7	325.783
1245.02	137.291
1249.32	214.55
1253.63	134.49
1257.93	158.227
1262.23	224.713
1266.53	190.731
1270.82	442.344
1275.12	440.894
1279.41	318.041
1283.69	230.807
1287.98	355.981
1292.26	315.856
1296.54	254.982
1300.82	218.359
1305.1	225.885
1309.37	303.691
1313.64	138.406
1317.91	189.371
1322.17	195.853
1326.44	262.508
1330.7	170.977
1334.96	297.144
1339.21	65.291
1343.47	110.709
1347.72	345.106
1351.97	58.0938
1356.21	210.59
1360.46	132.602
1364.7	88.3867
1368.94	128.219
1373.17	208.353
1377.41	247.508
1381.64	267.193
1385.87	75.7695
1390.1	257.492
1394.32	221.994
1398.54	68.0234
1402.76	88.6543
1406.98	211.709
1411.19	148.508
1415.41	50.8457
1419.62	178.603
1423.82	113.92
1428.03	312.85
1432.23	160.441
1436.43	224.268
1440.63	135.15
1444.82	390.248
1449.02	179.203
1453.21	198.807
1457.4	179.238
1461.58	193.635
1465.77	247.644
1469.95	3.20117
1474.12	172.535
1478.3	214.272
1482.47	304.898
1486.64	330.967
1490.81	154.475
1494.98	413.775
1499.14	131.863
1503.31	274.33
1507.47	1.02734
