Measurement: Raman, 514 nm, depolarized, Raman Data Processed
Mineral: Marialite
Rruff sample: R040113
Ideal chemistry: Na_4_Al_3_Si_9_O_24_Cl
Locality: Gouverneur, New York, USA
Source: University of Arizona Mineral Museum
Description: Green prismatic crystal
Measured chemistry: (Na_0.50_Ca_0.43_K_0.07_)_4_(Si_0.64_Al_0.36_)_12_O_24_(Cl_0.60_(CO_3_)_0.40_)
Pin_id: L01738
Orientation: Laser parallel to -a* (-1 0 0). Fiducial mark perpendicular to laser is parallel to c [0 0 1]
Raman shift (cm-1)	intensity
88.429	0
93.389	675.547
98.346	384.25
103.3	434.523
108.251	536.102
113.2	1366.66
118.145	2482.23
123.088	2565.59
128.028	2938.4
132.965	2647.88
137.9	2716.5
142.832	2034.09
147.761	2294.62
152.687	3161.36
157.61	4675.3
162.531	5216.83
167.448	4509.12
172.363	2881.96
177.276	1354.65
182.185	1063.69
187.092	1199.11
191.996	1916.28
196.897	1706.91
201.795	1795.84
206.691	1756.64
211.584	1806.34
216.474	1670.49
221.361	1739.91
226.245	1446.68
231.127	1176.42
236.006	1360.02
240.882	280.531
245.756	250.477
250.626	1377.09
255.494	2989.16
260.36	5378.87
265.222	6750.27
270.082	4422.23
274.939	1866.12
279.793	769.125
284.644	1017.93
289.493	1883.51
294.339	3085.71
299.182	3129.88
304.022	833.938
308.86	168.156
313.695	375.25
318.527	309.508
323.357	439.398
328.183	190.383
333.007	791.289
337.829	790.312
342.647	1201.11
347.463	1324.92
352.276	1823.4
357.086	2843.96
361.894	3393.98
366.699	2589.36
371.501	1702.7
376.3	1240.44
381.097	1740.53
385.891	1519.61
390.682	1349.97
395.47	829.836
400.256	736.133
405.039	952.531
409.82	1433.19
414.597	2150.34
419.372	2741.22
424.144	3442.23
428.914	2490.48
433.681	2612.73
438.445	3803.91
443.206	6654.64
447.965	11397.9
452.721	19050.4
457.474	22517.9
462.225	20655
466.972	14094.3
471.718	8589.94
476.46	4804.23
481.2	2848.91
485.937	1888.31
490.671	988.195
495.403	1028.34
500.132	867.617
504.858	1021.7
509.582	637.219
514.303	1053.86
519.021	1581.27
523.736	2891.07
528.449	5996.14
533.159	11490.3
537.867	12463.6
542.572	7628.55
547.274	3462.81
551.973	2096.24
556.67	1563.88
561.364	1122.71
566.055	796.227
570.744	732.594
575.43	842.938
580.114	414.281
584.794	199.43
589.472	168.422
594.148	247.492
598.82	948.305
603.49	101.461
608.158	139.633
612.823	109.656
617.485	221.883
622.144	247.734
626.801	264.625
631.455	657.938
636.106	98.1172
640.755	409.945
645.401	83.9141
650.045	288.266
654.685	258.789
659.323	228.812
663.959	455.75
668.592	1248.69
673.222	561.297
677.85	413.422
682.475	580.484
687.097	733.984
691.717	334.227
696.334	66.4922
700.948	322.797
705.56	584.172
710.169	1037.38
714.775	669.367
719.379	829.891
723.98	518.727
728.579	87.6562
733.175	68.6406
737.768	253.555
742.359	1.48438
746.947	750.781
751.532	399.57
756.115	1155.34
760.695	1735.66
765.273	3088.53
769.847	3835.85
774.42	3560.72
778.989	2039.02
783.557	777.047
788.121	812.625
792.683	470.453
797.242	599.531
801.799	804.086
806.353	1163.24
810.904	971.164
815.453	1188.41
819.999	682.102
824.543	635.258
829.084	608.594
833.622	624.641
838.158	1024.99
842.691	643.578
847.221	298.039
851.749	111.258
856.275	808.211
860.798	658.391
865.318	1126.62
869.835	713.391
874.35	1560.75
878.863	1323.59
883.373	966.805
887.88	1980.25
892.384	3069.24
896.886	2654.4
901.386	3230.97
905.883	3527.12
910.377	3449.34
914.869	3212.95
919.358	3063.03
923.844	3599.47
928.328	3744.59
932.81	3077.03
937.289	3905.64
941.765	4128.09
946.239	3942.78
950.71	4373.92
955.178	4372.22
959.644	4453.83
964.108	4049.73
968.569	4318.42
973.027	4007.55
977.482	4024.73
981.936	3439.52
986.386	3517.16
990.834	2830.48
995.28	2663.33
999.723	2601.41
1004.16	1945.11
1008.6	1195.62
1013.04	245.656
1017.47	1203.55
1021.9	992.859
1026.33	303.969
1030.75	1976.23
1035.17	3445
1039.59	4271.81
1044.01	5530.08
1048.43	5331.12
1052.84	6193.03
1057.25	6447.77
1061.65	6344.53
1066.06	7470.41
1070.46	8323.41
1074.86	8656.66
1079.26	8328.56
1083.65	9277.66
1088.05	10268
1092.43	11848.8
1096.82	12108.6
1101.21	11738.7
1105.59	11281
1109.97	11707
1114.34	7933.84
1118.72	5436.58
1123.09	4841.64
1127.46	3893.12
1131.83	3977.39
1136.19	4204.94
1140.55	3552.98
1144.91	3477.22
1149.27	2874.59
1153.62	2031.42
1157.97	1630.05
1162.32	1427.84
1166.67	1096.5
1171.01	879.859
1175.36	1599.23
1179.69	1047.78
1184.03	1581.81
1188.36	1617.89
1192.7	1190.53
1197.03	1767.05
1201.35	1044.61
1205.67	1517.75
1210	1114.17
1214.32	922.094
1218.63	1143.78
1222.95	761.703
1227.26	708.984
1231.57	413.984
1235.87	405.062
1240.18	508.609
1244.48	672.047
1248.78	680.922
1253.07	754.688
1257.37	513.125
1261.66	539.844
1265.95	453.656
1270.24	536.859
1274.52	295.484
1278.8	525.891
1283.08	407.5
1287.36	319.156
1291.63	134.781
1295.9	489.922
1300.17	218.594
1304.44	269.094
1308.7	595.188
1312.96	220.859
1317.22	148.062
1321.48	1110.06
1325.74	213.5
1329.99	523.094
1334.24	218.047
1338.48	446.078
1342.73	469.688
1346.97	130.469
1351.21	575.844
1355.45	204.156
1359.68	847.938
1363.91	1021.38
1368.14	554.438
1372.37	67.4375
1376.6	116.938
1380.82	820.922
1385.04	425.859
1389.26	813.391
1393.47	419.109
1397.68	345.797
1401.89	165.75
1406.1	710.297
1410.31	658.766
1414.51	522.688
1418.71	465.172
1422.91	279.016
1427.1	832.516
1431.3	379.172
1435.49	360.016
1439.68	809.906
1443.86	326.438
1448.05	426.438
1452.23	202.328
1456.4	558.797
1460.58	795.312
1464.75	896.906
1468.92	885.344
1473.09	115.984
1477.26	596.484
1481.42	340.5
1485.59	677.266
1489.74	441.156
1493.9	948.328
1498.06	774.312
1502.21	680.938
1506.36	397.656
1510.5	774.281
1514.65	143.703
1518.79	1233.94
1522.93	1156.05
1527.07	1102.45
1531.2	1069.7
1535.33	622
1539.46	940.281
1543.59	891.359
1547.72	1210.52
1551.84	1576.56
1555.96	321.641
1560.08	1485.03
1564.19	1031.31
1568.31	1369.06
1572.42	322.719
1576.53	0
