Measurement: Raman, 514 nm, ccw, Raman Data Processed
Mineral: Marialite
Rruff sample: R060297
Ideal chemistry: Na_4_Al_3_Si_9_O_24_Cl
Locality: Morogoro District, Marasi, Tanzania
Source: Herb Obodda
Description: Pale yellow crystal fragment
Measured chemistry: (Na_0.66_Ca_0.29_K_0.06_)_4_(Si_0.68_Al_0.32_)_12_O_24_(Cl_0.70_(CO_3_)_0.30_)
Pin_id: L01219
Orientation: Laser parallel to c* (0 0 1). Fiducial mark perpendicular to laser is parallel to a [1 0 0]
Raman shift (cm-1)	intensity
93.286	0
98.231	549.779
103.174	2795.86
108.114	8082.13
113.052	7410.78
117.987	3575.92
122.919	2317.27
127.849	2194.8
132.777	3227.92
137.702	4478.76
142.624	7980.9
147.544	14086
152.461	23699.2
157.375	31374.4
162.287	34085.9
167.197	27128.8
172.104	20120.9
177.008	12470.2
181.91	10444
186.809	10556.2
191.706	10695.8
196.6	9344.19
201.491	8708.58
206.38	8583.34
211.267	6722.75
216.151	4960.96
221.032	4923.69
225.911	4533.89
230.787	3473.98
235.66	1886.36
240.531	706.562
245.4	402.467
250.266	1574.54
255.129	4086.09
259.99	8069.49
264.848	8771.68
269.703	4540.86
274.556	806.42
279.407	569.791
284.255	199.348
289.1	440.715
293.942	1178.34
298.783	1796.93
303.62	144.033
308.455	803.596
313.288	791.295
318.117	123.305
322.945	304.152
327.769	1041.06
332.591	1746.32
337.411	1903.86
342.228	1500.52
347.042	1560.7
351.854	2637.34
356.663	4721.06
361.47	5879
366.274	3734.53
371.075	2528.42
375.874	2245.38
380.67	2150.41
385.464	1702.29
390.255	1309.23
395.043	1037.91
399.829	1184.36
404.613	1264.35
409.393	1972.02
414.172	3001.71
418.947	4258.81
423.72	5058.79
428.49	5385.33
433.258	6364.35
438.024	9143.4
442.786	14611.7
447.546	27244.4
452.304	51728.7
457.059	68005.2
461.811	62328.2
466.56	39713.8
471.308	20743.7
476.052	10677.6
480.794	6054.8
485.533	3772.32
490.27	2572.89
495.004	1751.82
499.736	1635.84
504.465	1612.27
509.191	1377.52
513.915	1865.49
518.636	2279.77
523.354	3499.49
528.07	7366.4
532.784	15542.3
537.494	22672
542.203	13855.2
546.908	6151.34
551.611	2989.72
556.311	1418.19
561.009	756.455
565.704	654.914
570.397	472.148
575.087	160.223
579.774	260.682
584.459	36.2754
589.141	151.129
593.821	222.379
598.498	174.268
603.172	722.973
607.844	505.223
612.513	731.246
617.18	206.721
621.844	122.414
626.505	103.648
631.164	1.32422
635.82	119.543
640.473	77.6172
645.124	104.393
649.773	150.705
654.418	122.519
659.062	260.777
663.702	428.223
668.34	412.387
672.975	103.519
677.608	327.461
682.238	203.685
686.866	48.1133
691.49	36.7949
696.113	155.168
700.732	137.238
705.349	348.945
709.964	538.57
714.576	534.836
719.185	373.289
723.792	555.137
728.396	395.305
732.997	672.754
737.596	316.836
742.192	335.809
746.785	535.723
751.376	1352.34
755.965	2181.95
760.551	3161.1
765.134	4931.69
769.714	7092.56
774.292	8113.46
778.867	6492.62
783.44	3412.63
788.01	1304.17
792.578	867.223
797.142	686.785
801.705	242.578
806.264	1048.46
810.821	1222.83
815.376	352.422
819.927	69.4258
824.476	208.973
829.023	167.418
833.567	262.426
838.108	111.297
842.647	89.668
847.183	103.195
851.716	288.332
856.247	54.8516
860.776	530.344
865.301	497.191
869.824	559.598
874.345	391.215
878.862	504.981
883.377	276.363
887.89	388.516
892.4	722.008
896.907	853.602
901.412	704.82
905.914	875.512
910.413	760.633
914.91	851.574
919.404	872.242
923.896	850.606
928.385	708.566
932.871	913.191
937.355	879.715
941.836	851.492
946.315	1130.37
950.79	1247.97
955.264	1174.25
959.734	1499.77
964.202	1195.85
968.668	1209.45
973.131	1906.3
977.591	2215.67
982.048	3914.73
986.503	6991.72
990.955	10683.9
995.405	9343.6
999.852	3496.62
1004.3	1704.39
1008.74	864.164
1013.18	295.207
1017.61	422.973
1022.05	326.414
1026.48	118.613
1030.91	918.262
1035.33	1379.15
1039.76	2119.1
1044.18	2376.74
1048.6	2857.81
1053.01	3204
1057.42	4048.33
1061.84	4928.24
1066.24	5698.99
1070.65	6643.41
1075.05	6706.09
1079.45	6341.42
1083.85	6399.51
1088.24	7293.34
1092.63	9944.31
1097.02	12023.6
1101.41	11056.3
1105.8	7550
1110.18	9136.14
1114.56	11207.5
1118.93	3619.06
1123.31	1847.91
1127.68	1408.94
1132.04	1405.89
1136.41	1252.17
1140.77	957.75
1145.13	681.539
1149.49	279.938
1153.85	450.227
1158.2	78.8438
1162.55	481.742
1166.9	154.836
1171.24	471.617
1175.58	317.094
1179.92	330.305
1184.26	155.242
1188.6	624.812
1192.93	601.805
1197.26	950.742
1201.58	1169.98
1205.9	784.609
1210.23	725.883
1214.55	1037.16
1218.86	398.375
1223.17	528.938
1227.48	263.211
1231.79	138.766
1236.1	244.406
1240.4	498.109
1244.7	203.5
1249	247.547
1253.29	27.5625
1257.59	590.531
1261.88	152.539
1266.16	1022.33
1270.45	433.055
1274.73	335.883
1279.01	485.266
1283.28	221.555
1287.56	216.469
1291.83	90.5
1296.1	578.945
1300.36	646.625
1304.63	169.922
1308.89	513.656
1313.15	569.805
1317.4	106.172
1321.65	517.102
1325.9	76.6406
1330.15	315.141
1334.4	243.992
1338.64	241.68
1342.88	843.758
1347.12	395.82
1351.35	336.18
1355.58	223.617
1359.81	438.531
1364.04	150.156
1368.26	184.906
1372.48	407.328
1376.7	478.25
1380.92	409.875
1385.13	444.289
1389.34	376.414
1393.55	212.039
1397.76	367.055
1401.96	305.797
1406.16	34.2344
1410.36	703.398
1414.55	451.445
1418.75	482.18
1422.94	445.219
1427.12	40.0938
1431.31	295.625
1435.49	23.4375
1439.67	186.641
1443.85	233.477
1448.02	470.141
1452.19	244.289
1456.36	63.1016
1460.53	100.125
1464.69	898.719
1468.85	219.969
1473.01	303.258
1477.17	853.93
1481.32	650.492
1485.47	57.6328
1489.62	539.82
1493.76	376.688
1497.91	226.617
1502.05	706.141
1506.18	89.4766
1510.32	438.586
1514.45	404.969
1518.58	171.094
1522.71	819.375
1526.83	410.359
1530.95	655.484
1535.07	705.609
1539.19	546.375
1543.3	975.609
1547.41	1131.42
1551.52	1446.14
1555.63	572.125
1559.73	203.656
1563.83	661.5
1567.93	583.641
1572.03	1171.3
1576.12	3.4375
