Measurement: Raman, 514 nm, ccw, Raman Data Processed
Mineral: Marialite
Rruff sample: R060458
Ideal chemistry: Na_4_Al_3_Si_9_O_24_Cl
Locality: Dading, Nepal
Source: Michael Scott
Description: Colorless elongated prism
Measured chemistry: (Na_0.52_Ca_0.47_K_0.01_)_4_(Al_0.36_Si_0.64_)_12_O_24_(Cl_0.44_(CO_3_)_0.56_)
Pin_id: L01838
Orientation: Laser parallel to a* (1 0 0). Fiducial mark perpendicular to laser is parallel to -c [0 0 -1]
Raman shift (cm-1)	intensity
115.52	0
120.453	2386.35
125.385	23.0273
130.313	45.3164
135.239	534.551
140.163	1407.71
145.084	5236.6
150.002	12276
154.918	22882.1
159.832	32375.8
164.742	32313.2
169.651	24012.5
174.556	15056.6
179.459	10857.4
184.36	10684.2
189.258	12031.2
194.153	11638.3
199.046	10136.7
203.936	8122.93
208.824	7058.16
213.709	7239.66
218.592	8037.79
223.472	9011.19
228.349	8338.27
233.224	6362.17
238.096	4693.7
242.966	3766.65
247.833	4480.84
252.698	7494.94
257.56	11907
262.419	13969.7
267.276	9151.42
272.13	4125.22
276.982	2699.79
281.831	3659.3
286.677	6555.05
291.521	8251.95
296.363	6851.31
301.202	2395.68
306.038	462.043
310.872	1182.49
315.703	864.586
320.531	431.121
325.357	916.033
330.181	2593.11
335.001	4943.46
339.82	4553.99
344.635	3141.73
349.448	3310.16
354.259	5233.59
359.067	7872.11
363.872	7072.75
368.675	3826.8
373.475	2859.1
378.272	2909.94
383.067	2889.6
387.86	2571.22
392.649	1900.97
397.437	1410.79
402.221	1459.41
407.003	1854.11
411.783	3097.22
416.56	4744.5
421.334	6044.2
426.106	5711.83
430.875	6553.75
435.641	10377.5
440.405	18979.8
445.167	35535.4
449.925	63481.5
454.681	89436
459.435	90235.7
464.186	71671
468.934	41167.7
473.68	21040.6
478.423	11508.1
483.164	6901.19
487.902	4219.98
492.637	2365.72
497.37	1480.62
502.1	781.869
506.828	493.943
511.553	767.047
516.276	1419.69
520.995	3841.94
525.713	9102.93
530.427	19759.8
535.139	28915.8
539.849	20259.5
544.556	9408.47
549.26	3921.89
553.962	1691.18
558.661	841.949
563.357	553.068
568.051	153.158
572.742	204.871
577.431	181.117
582.117	571.906
586.801	299.91
591.481	301.467
596.16	197.934
600.835	610.189
605.508	1231.71
610.179	1493.46
614.847	1061.05
619.512	902.496
624.175	1786.36
628.835	1456.86
633.492	280.279
638.147	384.217
642.799	994.352
647.449	1197.09
652.096	1249.74
656.74	860.832
661.382	191.176
666.021	205.35
670.658	25.1602
675.292	574.523
679.923	703.693
684.552	228.543
689.178	432.572
693.802	596.35
698.423	615.176
703.041	2.80078
707.657	279.947
712.27	236.478
716.881	388.455
721.489	587.932
726.094	472.547
730.697	779.981
735.297	838.039
739.894	859.883
744.489	1559.5
749.081	2153.42
753.671	3222.84
758.258	4495.8
762.842	6987.77
767.424	10110.9
772.003	10791.2
776.58	7875.23
781.154	3572.53
785.725	1378.67
790.294	888.777
794.86	1398.11
799.424	2219.28
803.985	2990.74
808.543	2788.51
813.099	904.023
817.652	270.207
822.202	362.801
826.75	360.008
831.295	37.5742
835.838	37.0547
840.378	7.27344
844.915	305.984
849.45	323.066
853.982	435.184
858.512	1345.5
863.039	1453.58
867.563	436.434
872.085	309.328
876.604	742.383
881.12	414.5
885.634	581.207
890.145	333.441
894.654	963.156
899.16	744.637
903.663	749.703
908.164	798.332
912.662	506.598
917.158	238.258
921.651	44.8828
926.141	112.711
930.628	1.91406
935.113	17.5156
939.596	103.781
944.076	220.106
948.553	596.695
953.027	1029.9
957.499	730.387
961.969	930.367
966.435	826.172
970.899	901.301
975.361	756.512
979.82	1601.49
984.276	912.926
988.73	1128.04
993.181	700.996
997.629	1188.04
1002.08	1581.29
1006.52	142.102
1010.96	204.688
1015.4	187.164
1019.83	258.992
1024.26	1564.94
1028.69	2521.39
1033.12	3025.8
1037.55	3904.96
1041.97	4255.27
1046.39	4580.12
1050.81	5444.1
1055.22	5586.65
1059.63	6936.39
1064.04	8384
1068.45	10276.3
1072.85	10766.7
1077.25	10841.1
1081.65	13605.6
1086.05	20179.3
1090.44	29768.6
1094.83	35238.3
1099.22	32869.4
1103.6	27482.8
1107.99	26342.1
1112.37	16521.2
1116.74	4965.54
1121.12	1971.34
1125.49	1639.05
1129.86	1033.05
1134.23	632.719
1138.59	736.094
1142.95	41.7812
1147.31	291.953
1151.67	390.867
1156.02	97.5938
1160.38	669.086
1164.72	377.695
1169.07	698.297
1173.41	577.664
1177.75	1004.2
1182.09	1018.81
1186.43	1725.52
1190.76	2350.33
1195.09	2184.05
1199.42	2647.13
1203.74	2024.01
1208.07	1570.91
1212.39	800.391
1216.7	631.055
1221.02	424.414
1225.33	453.82
1229.64	148.891
1233.95	411.438
1238.25	653.328
1242.55	353.188
1246.85	615.734
1251.15	362.023
1255.44	497.836
1259.73	675.992
1264.02	821.766
1268.31	1240.32
1272.59	1447.24
1276.87	1494.34
1281.15	1187.68
1285.42	916.336
1289.69	493.266
1293.96	1261.23
1298.23	1040.88
1302.5	1109.91
1306.76	1194.97
1311.02	1309.88
1315.27	992.727
1319.53	1429.02
1323.78	1013.38
1328.03	731.141
1332.28	34.3672
1336.52	471.453
1340.76	651.219
1345	552.438
1349.23	165.898
1353.47	791.188
1357.7	1.75
1361.93	84.875
1366.15	213
1370.37	240.133
1374.59	619.438
1378.81	409.164
1383.03	314.078
1387.24	572.508
1391.45	156.367
1395.65	563.773
1399.86	5.03125
1404.06	25.1875
1408.26	920.297
1412.46	578.625
1416.65	728.602
1420.84	1029.23
1425.03	363.766
1429.22	855.25
1433.4	401.125
1437.58	2119.48
1441.76	3588.91
1445.93	1857.39
1450.11	3144.84
1454.28	2543.62
1458.44	2479.38
1462.61	1956.69
1466.77	1644.19
1470.93	1670.97
1475.09	718.844
1479.24	1580.19
1483.39	1020.48
1487.54	97.0625
1491.69	265.75
1495.84	5.26562
1499.98	431.953
1504.12	95.7969
1508.25	577.953
1512.38	1203.47
1516.52	79.7969
1520.64	700.266
1524.77	1083.55
1528.89	1436.48
1533.01	1040.98
1537.13	866.641
1541.25	1778.42
1545.36	846.875
1549.47	993.031
1553.58	1220.17
1557.68	837.438
1561.78	1638.28
1565.88	455.328
1569.98	1567
1574.07	197.625
