Measurement: Raman, 514 nm, depolarized, Raman Data Processed
Mineral: Marialite
Rruff sample: R050123
Ideal chemistry: Na_4_Al_3_Si_9_O_24_Cl
Locality: Pakistan
Source: Syed Shah
Description: Purple fragment
Measured chemistry: (Na_0.88_Ca_0.07_K_0.05_)_4_Al_3.00_Si_9.00_O_24_Cl_0.97
Pin_id: L00138
Orientation: Laser parallel to c* (0 0 1). Fiducial mark perpendicular to laser is parallel to a [1 0 0]
Raman shift (cm-1)	intensity
49.365	0
53.566	168.494
57.765	740.143
61.962	1119.28
66.157	991.677
70.349	864.903
74.54	527.323
78.729	135.752
82.916	92.285
87.101	90.914
91.284	476.182
95.465	1450.03
99.644	2496.2
103.82	4331.98
107.995	6179.85
112.168	4734.63
116.339	3610.09
120.508	3217.66
124.675	3463.7
128.84	3570.16
133.003	4215.19
137.164	5314.08
141.323	6563.86
145.48	8030.18
149.635	10316.2
153.788	12980
157.939	14553.4
162.088	14416.8
166.235	12250.2
170.38	9133.61
174.523	7077.01
178.664	6571.02
182.803	6195.51
186.94	5131.91
191.076	4044.61
195.209	3496.14
199.34	3017.03
203.47	2588.86
207.597	2345.66
211.722	2117.45
215.846	1752.22
219.967	1648.14
224.087	1671.4
228.204	1713.65
232.32	1497.85
236.434	1240.7
240.545	1337.02
244.655	1480.3
248.763	1852.2
252.869	2925.64
256.973	5028.34
261.075	5735.31
265.175	3834.44
269.273	2118.66
273.369	1389.94
277.463	1111.26
281.556	1045.62
285.646	1093.92
289.734	1010.14
293.821	1126.29
297.905	1521.36
301.988	868.342
306.069	268.217
310.147	88.054
314.224	247.678
318.299	105.834
322.372	42.362
326.443	34.141
330.512	85.914
334.579	331.857
338.645	352.721
342.708	344.501
346.769	453.839
350.829	998.252
354.887	1959.3
358.942	2652.28
362.996	2315.23
367.048	1907.12
371.098	1278.95
375.146	740.73
379.192	418.441
383.236	308.871
387.279	137.999
391.319	15.834
395.358	38.606
399.394	39.377
403.429	39.51
407.462	62.271
411.493	149.811
415.522	406.698
419.549	694.46
423.575	822.117
427.598	1089.48
431.619	1516.46
435.639	1994.29
439.657	2994.99
443.673	4395.35
447.687	7669.6
451.699	15126
455.709	26472.2
459.717	25687.8
463.724	15293
467.728	9287.44
471.731	5590.09
475.732	2984.91
479.731	1843.18
483.728	1330.63
487.723	987.689
491.716	765.377
495.708	502.321
499.697	518.964
503.685	577.464
507.671	474.22
511.655	282.952
515.637	213.828
519.617	360.867
523.596	604.869
527.572	1012.04
531.547	2493.82
535.52	7535.56
539.491	8799.2
543.46	3656.09
547.427	1439.26
551.393	708.345
555.356	440.258
559.318	251.136
563.278	38.918
567.236	26.985
571.192	12.144
575.147	20.396
579.099	25.841
583.05	40.38
586.999	74.408
590.946	117.306
594.891	108.076
598.834	101.671
602.776	51.146
606.715	104.463
610.653	81.618
614.589	141.601
618.523	139.43
622.456	182.117
626.386	324.66
630.315	236.129
634.242	76.811
638.167	10.26
642.09	22.237
646.012	1.255
649.931	64.597
653.849	6.278
657.765	12.233
661.679	36.95
665.592	39.072
669.502	12.871
673.411	25.501
677.318	38.878
681.223	12.067
685.126	18.507
689.028	93.347
692.927	82.86
696.825	8.427
700.721	26.054
704.616	67.44
708.508	177.009
712.399	82.28
716.288	67.157
720.175	84.736
724.06	185.997
727.944	223.826
731.825	188.158
735.705	207.673
739.584	198.986
743.46	348.889
747.334	491.571
751.207	625.58
755.078	634.938
758.947	707.68
762.815	991.769
766.68	1174.03
770.544	1275.62
774.406	1303.12
778.267	1360.05
782.125	1513.79
785.982	1684.7
789.837	1527.76
793.69	924.376
797.542	508.928
801.391	380.149
805.239	432.765
809.085	740.63
812.93	1084.6
816.772	663.203
820.613	198.573
824.452	133.744
828.29	134.659
832.125	114.143
835.959	69.219
839.791	83.983
843.621	0.843
847.45	8.299
851.277	67.621
855.102	70.483
858.925	24.301
862.746	7.821
866.566	37.482
870.384	20.93
874.2	86.69
878.015	56.445
881.828	12.988
885.639	46.373
889.448	8.182
893.256	3.708
897.061	76.109
900.865	80.379
904.668	25.512
908.468	11.488
912.267	36.392
916.064	72.193
919.86	128.921
923.653	141.577
927.445	10.139
931.236	15.609
935.024	1.998
938.811	13.697
942.596	81.464
946.379	60.514
950.161	27.473
953.94	36.39
957.719	33.283
961.495	95.153
965.27	123.01
969.043	124.853
972.814	97.7
976.583	86.545
980.351	116.321
984.117	388.091
987.882	656.559
991.644	934.068
995.405	1001.85
999.165	452.302
1002.92	249.064
1006.68	309.362
1010.43	355.526
1014.18	436.531
1017.93	469.99
1021.68	443.335
1025.43	441.618
1029.18	340.977
1032.92	406.227
1036.66	490.586
1040.4	656.086
1044.14	703.264
1047.88	610.986
1051.62	591.728
1055.35	611.573
1059.08	678.252
1062.81	751.265
1066.54	902.401
1070.27	1032.48
1073.99	1021.37
1077.72	1098.13
1081.44	1083.99
1085.16	1401.81
1088.88	1792.88
1092.59	2189.71
1096.31	2207.65
1100.02	1928.08
1103.73	1577.08
1107.44	1230.64
1111.15	1121.27
1114.86	1017.97
1118.57	970.574
1122.27	930.368
1125.97	663.245
1129.67	433.193
1133.37	344.943
1137.07	308.706
1140.76	329.619
1144.45	288.803
1148.15	310.432
1151.84	234.025
1155.53	120.025
1159.21	7.583
1162.9	3.458
1166.58	21.413
1170.26	83.065
1173.94	129.988
1177.62	176.17
1181.3	169.501
1184.97	139.445
1188.65	112.235
1192.32	178.843
1195.99	216.085
1199.66	430.221
1203.33	587.037
1206.99	552.433
1210.65	556.138
1214.32	354.786
1217.98	239.765
1221.64	184.289
1225.29	137.147
1228.95	186.492
1232.6	285.289
1236.26	207.438
1239.91	242.677
1243.56	57.613
1247.2	0.432
1250.85	11.231
1254.49	18.836
1258.13	91.942
1261.78	243.687
1265.41	215.608
1269.05	214.162
1272.69	147.601
1276.32	165.623
1279.95	44.58
1283.59	14.458
1287.21	35.805
1290.84	154.987
1294.47	206.248
1298.09	309.075
1301.72	212.483
1305.34	106.515
1308.96	66.734
1312.58	4.168
1316.19	3.17
1319.81	88.721
1323.42	90.147
1327.03	152.66
1330.64	187.862
1334.25	229.288
1337.86	106.159
1341.46	131.519
1345.07	32.71
1348.67	43.42
1352.27	48.979
1355.87	26.165
1359.46	126.021
1363.06	188.62
1366.65	341.541
1370.25	258.834
1373.84	125.385
1377.43	68.098
1381.02	146.079
1384.6	22.888
1388.18	148.274
1391.77	89.979
1395.35	199.063
1398.93	271.083
1402.51	338.794
1406.08	322.01
1409.66	279.227
1413.23	301.153
1416.8	224.295
1420.37	140.259
1423.94	84.515
1427.51	171.853
1431.08	250.896
1434.64	202.516
1438.2	269.507
1441.76	353.435
1445.32	371.758
1448.88	378.481
1452.43	252.308
1455.99	237.9
1459.54	100.507
1463.09	87.145
1466.64	51.126
1470.19	132.291
1473.74	194.837
1477.28	328.708
1480.83	384.396
1484.37	397.075
1487.91	369.85
1491.45	293.965
1494.98	169.499
1498.52	109.827
1502.05	91.603
1505.59	2.485
1509.12	5.823
1512.65	79.806
1516.17	0
