Measurement: Raman, 514 nm, ccw, Raman Data Processed
Mineral: Marialite
Rruff sample: R040113
Ideal chemistry: Na_4_Al_3_Si_9_O_24_Cl
Locality: Gouverneur, New York, USA
Source: University of Arizona Mineral Museum
Description: Green prismatic crystal
Measured chemistry: (Na_0.50_Ca_0.43_K_0.07_)_4_(Si_0.64_Al_0.36_)_12_O_24_(Cl_0.60_(CO_3_)_0.40_)
Pin_id: L01738
Orientation: Laser parallel to -a* (-1 0 0). Fiducial mark perpendicular to laser is parallel to c [0 0 1]
Raman shift (cm-1)	intensity
88.429	0
93.389	209.852
98.346	39.7344
103.3	121.852
108.251	103.859
113.2	1889.81
118.145	3360.91
123.088	3910.77
128.028	5027.86
132.965	5779.9
137.9	5473.58
142.832	4660.96
147.761	3821.29
152.687	1966.15
157.61	1875.21
162.531	1989.74
167.448	967.445
172.363	918.852
177.276	204.078
182.185	366.781
187.092	640.219
191.996	2060.5
196.897	1948.73
201.795	2089.55
206.691	1546.06
211.584	1924.36
216.474	2435.67
221.361	2744.07
226.245	2804.79
231.127	3323.3
236.006	2605.26
240.882	2168.48
245.756	2648.88
250.626	4116.34
255.494	7244.23
260.36	12066.7
265.222	13119.5
270.082	9405.48
274.939	3989.79
279.793	2292.19
284.644	1337.34
289.493	2366.52
294.339	4948.63
299.182	6374.26
304.022	2785.25
308.86	32.8125
313.695	260.945
318.527	69.9219
323.357	261.375
328.183	205.617
333.007	27.8984
337.829	195.336
342.647	733.445
347.463	1221.99
352.276	3122.68
357.086	4314.59
361.894	4735.93
366.699	3200.53
371.501	2489.55
376.3	2013.93
381.097	1982.62
385.891	1901.46
390.682	1258.51
395.47	855.484
400.256	888.609
405.039	992.422
409.82	2105.25
414.597	3738.07
419.372	5487.18
424.144	5768.26
428.914	2825.8
433.681	2233.3
438.445	3260.78
443.206	5574.27
447.965	9038.75
452.721	14586
457.474	16576.9
462.225	15093.1
466.972	10522.2
471.718	6696.91
476.46	4093.42
481.2	2547.46
485.937	1791.35
490.671	1336.29
495.403	1057.4
500.132	705.938
504.858	1041.68
509.582	936.234
514.303	1392.4
519.021	2549.11
523.736	4491.53
528.449	10496.6
533.159	18264.4
537.867	19792
542.572	11252.8
547.274	5910.84
551.973	3284.59
556.67	2370.87
561.364	1702.56
566.055	1395.84
570.744	1190.09
575.43	826.32
580.114	629.516
584.794	585.742
589.472	340.047
594.148	214.18
598.82	48.9844
603.49	165.258
608.158	127.703
612.823	79.7734
617.485	46.0156
622.144	159.773
626.801	111.352
631.455	29.3906
636.106	66.4375
640.755	373.836
645.401	435.547
650.045	146.664
654.685	246.586
659.323	349.211
663.959	458.484
668.592	747.422
673.222	127.945
677.85	360.156
682.475	45.0469
687.097	474.281
691.717	436.312
696.334	530.312
700.948	864.742
705.56	1060.02
710.169	1293.79
714.775	1252.59
719.379	1088.16
723.98	778.961
728.579	662.734
733.175	251.43
737.768	777.898
742.359	946.516
746.947	1131.61
751.532	2454.39
756.115	3641.05
760.695	5182.56
765.273	6884.64
769.847	9236.75
774.42	7628.22
778.989	5458.78
783.557	2292.97
788.121	1205.31
792.683	927.898
797.242	590.008
801.799	578.195
806.353	290.578
810.904	536.914
815.453	903.75
819.999	478.531
824.543	452.766
829.084	1021.43
833.622	1099.98
838.158	642.352
842.691	33.5
847.221	395.211
851.749	536.023
856.275	468.406
860.798	340.859
865.318	359.594
869.835	760.18
874.35	941.633
878.863	518.344
883.373	1066.59
887.88	1626.25
892.384	2204.84
896.886	2868.23
901.386	3139.81
905.883	2670.17
910.377	3197.87
914.869	2809.52
919.358	4118.14
923.844	3207.59
928.328	3381.84
932.81	2680.05
937.289	3202.94
941.765	3830.42
946.239	3589.5
950.71	3808.17
955.178	4137.34
959.644	3695.06
964.108	3845.05
968.569	4350.16
973.027	3955.8
977.482	4164.41
981.936	3038.55
986.386	2921.59
990.834	3294.73
995.28	2705.95
999.723	2353.95
1004.16	2346.19
1008.6	1191.41
1013.04	26.9688
1017.47	1559.53
1021.9	917
1026.33	77.9219
1030.75	2437.64
1035.17	3641.03
1039.59	4327.72
1044.01	5598.7
1048.43	6178.98
1052.84	6516.56
1057.25	7109.48
1061.65	7392.81
1066.06	7478.56
1070.46	8872.81
1074.86	9728.55
1079.26	10335.9
1083.65	10462.8
1088.05	11549.5
1092.43	11527.9
1096.82	11772.2
1101.21	9953.28
1105.59	8732.33
1109.97	8219.62
1114.34	6301.03
1118.72	5425.56
1123.09	5782.39
1127.46	5312.38
1131.83	4531.05
1136.19	4347.69
1140.55	4048.75
1144.91	2489.48
1149.27	2621.75
1153.62	2114.48
1157.97	1827.98
1162.32	1823.86
1166.67	1593.97
1171.01	1588.52
1175.36	1785.83
1179.69	981.719
1184.03	1157
1188.36	1175.48
1192.7	963.25
1197.03	799.344
1201.35	746.828
1205.67	744.781
1210	488.781
1214.32	867.859
1218.63	655.594
1222.95	700.594
1227.26	937.812
1231.57	161.109
1235.87	61.5469
1240.18	490.016
1244.48	287.812
1248.78	685.391
1253.07	874.906
1257.37	663.578
1261.66	455.719
1265.95	545.141
1270.24	565.047
1274.52	429.25
1278.8	441.891
1283.08	645.375
1287.36	383.891
1291.63	172.688
1295.9	435.281
1300.17	585.422
1304.44	180.812
1308.7	437.719
1312.96	553.766
1317.22	119.156
1321.48	776.906
1325.74	102.984
1329.99	521.359
1334.24	661.203
1338.48	22.4688
1342.73	562.047
1346.97	122.031
1351.21	321.109
1355.45	613.578
1359.68	556.422
1363.91	458.766
1368.14	201.75
1372.37	131.969
1376.6	336.781
1380.82	52.4688
1385.04	883.766
1389.26	228.719
1393.47	356.906
1397.68	111.375
1401.89	353.047
1406.1	90.2031
1410.31	189.078
1414.51	713.141
1418.71	112.703
1422.91	200.781
1427.1	806.703
1431.3	6.0625
1435.49	351.578
1439.68	847.969
1443.86	241.219
1448.05	607.25
1452.23	417.578
1456.4	919.953
1460.58	250.656
1464.75	254.609
1468.92	919.641
1473.09	685.484
1477.26	378.766
1481.42	234.641
1485.59	591.109
1489.74	821.469
1493.9	107.984
1498.06	420.375
1502.21	137.281
1506.36	246.641
1510.5	331.625
1514.65	1084.22
1518.79	787.5
1522.93	1169.72
1527.07	342.594
1531.2	496.734
1535.33	601.688
1539.46	735.703
1543.59	545.891
1547.72	853.938
1551.84	1183.17
1555.96	974.094
1560.08	511.781
1564.19	523.406
1568.31	410.562
1572.42	391.312
1576.53	0
