Measurement: Raman, 514 nm, ccw, Raman Data Processed
Mineral: Marialite
Rruff sample: R060458
Ideal chemistry: Na_4_Al_3_Si_9_O_24_Cl
Locality: Dading, Nepal
Source: Michael Scott
Description: Colorless elongated prism
Measured chemistry: (Na_0.52_Ca_0.47_K_0.01_)_4_(Al_0.36_Si_0.64_)_12_O_24_(Cl_0.44_(CO_3_)_0.56_)
Pin_id: L01838
Orientation: Laser parallel to a* (1 0 0). Fiducial mark perpendicular to laser is parallel to -c [0 0 -1]
Raman shift (cm-1)	intensity
115.52	0
120.453	3918.19
125.385	4262.42
130.313	6346.31
135.239	8640.57
140.163	8944.12
145.084	8609.31
150.002	7697.87
154.918	5155.97
159.832	3569.22
164.742	3013.8
169.651	1459.15
174.556	49.8965
179.459	864.375
184.36	290.529
189.258	722.299
194.153	1841.14
199.046	2103.81
203.936	1795.76
208.824	1653.68
213.709	2448.53
218.592	3588.25
223.472	6412.61
228.349	8513.68
233.224	7599.09
238.096	6314.6
242.966	7102.92
247.833	9361.15
252.698	15914.9
257.56	27331.8
262.419	37697
267.276	29764.5
272.13	15577.1
276.982	7473.67
281.831	4661.68
286.677	4839.49
291.521	8596.56
296.363	17411.7
301.202	11326
306.038	3704.28
310.872	1195.48
315.703	498.496
320.531	29.168
325.357	144.631
330.181	634.79
335.001	384.681
339.82	599.361
344.635	2149.77
349.448	4639.66
354.259	8080.87
359.067	12172.3
363.872	10925.9
368.675	6675.23
373.475	5195.98
378.272	4786.51
383.067	4412.84
387.86	3456.04
392.649	2600.28
397.437	1806.72
402.221	1874.9
407.003	2765.4
411.783	5193.73
416.56	10236.1
421.334	16156.8
426.106	11325.7
430.875	5836.55
435.641	5895.9
440.405	9164.76
445.167	15387.2
449.925	26443
454.681	39686.7
459.435	40057.9
464.186	34297.3
468.934	21817.8
473.68	12360.4
478.423	7369.71
483.164	4232.86
487.902	1978.73
492.637	1174.72
497.37	565.863
502.1	392.441
506.828	206.957
511.553	715.391
516.276	2018.27
520.995	5196.09
525.713	13337.2
530.427	30161.5
535.139	52536
539.849	40058.3
544.556	18992.3
549.26	8457.86
553.962	4283.23
558.661	2146.79
563.357	1171.55
568.051	811.836
572.742	602.781
577.431	639.332
582.117	451.451
586.801	353.019
591.481	339.016
596.16	101.518
600.835	102.422
605.508	277.221
610.179	287.428
614.847	69.1231
619.512	403.853
624.175	726.908
628.835	556.533
633.492	152.188
638.147	13.9355
642.799	518.367
647.449	924.668
652.096	630.492
656.74	409.877
661.382	347.033
666.021	136.158
670.658	21.3535
675.292	146.881
679.923	4.84766
684.552	85.4981
689.178	323.809
693.802	525.811
698.423	836.57
703.041	1748.4
707.657	2016.52
712.27	2208.64
716.881	2455.52
721.489	2298.16
726.094	2513.33
730.697	2817.4
735.297	3069.99
739.894	3825.85
744.489	4887.19
749.081	6935.33
753.671	10156
758.258	14970.5
762.842	21938.6
767.424	29602.3
772.003	31449.2
776.58	23455.1
781.154	12211.3
785.725	5548.29
790.294	2662.78
794.86	1766.71
799.424	1163.04
803.985	833.953
808.543	427.615
813.099	481.707
817.652	408
822.202	209.986
826.75	527.438
831.295	167.805
835.838	434.678
840.378	346.002
844.915	518.027
849.45	699.242
853.982	557.393
858.512	1069.59
863.039	1840.02
867.563	2325.71
872.085	189.629
876.604	362.508
881.12	399.912
885.634	137.287
890.145	208.731
894.654	258.672
899.16	275.66
903.663	76.75
908.164	253.932
912.662	20.2109
917.158	6.17188
921.651	210.617
926.141	154.375
930.628	313.504
935.113	168.641
939.596	243.535
944.076	252.269
948.553	2.96094
953.027	400.484
957.499	417.387
961.969	628.465
966.435	744.824
970.899	556.062
975.361	507.856
979.82	779.176
984.276	1334.42
988.73	2102.53
993.181	2566.94
997.629	3346.73
1002.08	4486.67
1006.52	3551.14
1010.96	2814.55
1015.4	3190.35
1019.83	3317.39
1024.26	3683.6
1028.69	4334.17
1033.12	4962.95
1037.55	5660.21
1041.97	6074.46
1046.39	6116.67
1050.81	6742.29
1055.22	6627.31
1059.63	7467.42
1064.04	8819.71
1068.45	10212.2
1072.85	12293.6
1077.25	14264.4
1081.65	15901.6
1086.05	17714.2
1090.44	20211.1
1094.83	21088.3
1099.22	18800.6
1103.6	14067.9
1107.99	10943.6
1112.37	8312.74
1116.74	5150.32
1121.12	4591.01
1125.49	3870.68
1129.86	3589.48
1134.23	2680.09
1138.59	1982.19
1142.95	735.574
1147.31	209.793
1151.67	241.41
1156.02	128.684
1160.38	253.301
1164.72	254.707
1169.07	79.2852
1173.41	3.36719
1177.75	77.3359
1182.09	116.578
1186.43	120.359
1190.76	460.191
1195.09	12.8711
1199.42	539.016
1203.74	298.113
1208.07	378.582
1212.39	331.375
1216.7	269.414
1221.02	29.9062
1225.33	90.832
1229.64	44.8555
1233.95	263.863
1238.25	447.215
1242.55	240.367
1246.85	236.203
1251.15	332.062
1255.44	438.57
1259.73	591.789
1264.02	870.398
1268.31	1114.55
1272.59	999.047
1276.87	1092.67
1281.15	1372.6
1285.42	1071.74
1289.69	691.797
1293.96	1105.75
1298.23	1323.99
1302.5	754.625
1306.76	1261.72
1311.02	1601.33
1315.27	987
1319.53	1503.49
1323.78	1220.74
1328.03	747.656
1332.28	874.398
1336.52	474.703
1340.76	557.234
1345	695.938
1349.23	253.266
1353.47	785.844
1357.7	11.5156
1361.93	177.75
1366.15	563.828
1370.37	364.805
1374.59	544.32
1378.81	366.75
1383.03	658.703
1387.24	445.242
1391.45	377.734
1395.65	264.461
1399.86	61.4375
1404.06	106.586
1408.26	750.078
1412.46	379.539
1416.65	469.719
1420.84	584.602
1425.03	96.6562
1429.22	652.195
1433.4	714.5
1437.58	1371.02
1441.76	1454.34
1445.93	2317.26
1450.11	2421.21
1454.28	2081.61
1458.44	1733.96
1462.61	1788.15
1466.77	1303.84
1470.93	559.242
1475.09	500.898
1479.24	1059.88
1483.39	1372.69
1487.54	152.852
1491.69	633.664
1495.84	177.789
1499.98	549.734
1504.12	415.328
1508.25	66.3828
1512.38	644.711
1516.52	353.289
1520.64	951.844
1524.77	975.812
1528.89	966
1533.01	1119.02
1537.13	1330.52
1541.25	1420.16
1545.36	650.305
1549.47	937.445
1553.58	628.672
1557.68	1034.59
1561.78	949.219
1565.88	19.7969
1569.98	742.344
1574.07	476.828
