Measurement: Raman, 514 nm, depolarized, Raman Data Processed
Mineral: Marialite
Rruff sample: R060458
Ideal chemistry: Na_4_Al_3_Si_9_O_24_Cl
Locality: Dading, Nepal
Source: Michael Scott
Description: Colorless elongated prism
Measured chemistry: (Na_0.52_Ca_0.47_K_0.01_)_4_(Al_0.36_Si_0.64_)_12_O_24_(Cl_0.44_(CO_3_)_0.56_)
Pin_id: L00702
Orientation: Laser parallel to c* (0 0 1). Fiducial mark perpendicular to laser is parallel to a [1 0 0]
Raman shift (cm-1)	intensity
89.575	0
94.523	131.666
99.467	1912.86
104.409	7316.06
109.349	12554.3
114.286	11291.1
119.22	6066.05
124.152	3644.09
129.081	3096.04
134.008	3659.82
138.932	5175.31
143.854	8981.16
148.773	15489.9
153.69	25825.1
158.604	34588.3
163.515	36215.8
168.424	29139.6
173.33	19850.1
178.234	13886.8
183.135	11828.2
188.034	12588.9
192.93	13093.4
197.823	11952.4
202.714	11845.8
207.602	11803.5
212.488	10756.9
217.371	9256.16
222.252	8825.9
227.13	8471.06
232.005	6873.92
236.878	5113.45
241.749	3563.88
246.616	3770.83
251.482	5373.36
256.344	8855.48
261.204	11605.9
266.062	9211.83
270.917	4125.22
275.769	1582.34
280.619	960.002
285.466	2264.67
290.311	4406.18
295.153	5160.45
299.992	2821.79
304.829	198.881
309.663	1071.58
314.495	1401.68
319.324	744.191
324.151	59.8008
328.975	716.975
333.796	1983.71
338.615	2450.83
343.432	1925.33
348.245	1721.28
353.056	3075.59
357.865	5947.19
362.671	6647.9
367.474	4188.29
372.275	2587.63
377.073	2214.98
381.869	2165.78
386.662	1910.21
391.452	1586.63
396.24	1226.28
401.025	1140.48
405.808	1571.07
410.588	2231.43
415.366	3731.73
420.141	5997.94
424.913	6445.14
429.683	6731
434.45	8477.32
439.214	13540.1
443.976	24605.3
448.736	44756.1
453.493	71845.8
458.247	78045.1
462.998	69857
467.747	44912.5
472.494	23480.8
477.238	12507.9
481.979	7370.14
486.718	4622.03
491.454	2805.81
496.187	1974.88
500.918	1265.66
505.646	848.041
510.372	556.207
515.095	1075.9
519.816	2454.97
524.534	5888.51
529.249	13194.7
533.962	24175.6
538.672	21283.6
543.379	10910.5
548.084	4782.22
552.786	2455.82
557.486	1100.26
562.183	481.293
566.878	486.908
571.57	74.3418
576.259	4.85156
580.946	247.949
585.63	115.728
590.311	140.793
594.99	39.7969
599.667	186.594
604.34	828.078
609.012	1513.51
613.68	1059.66
618.346	349.856
623.009	145.106
627.67	22.8555
632.328	199.727
636.984	253.203
641.636	51.7773
646.287	19.3359
650.934	12.9727
655.579	81.8242
660.222	556.469
664.862	376.762
669.499	508.106
674.134	891.211
678.766	1429.85
683.395	416.703
688.022	195.996
692.646	148.441
697.268	203.195
701.887	215.195
706.503	699.562
711.117	762.004
715.728	860.769
720.337	918.957
724.943	906.277
729.546	1524.08
734.147	1495.88
738.745	1520.46
743.341	1877.54
747.933	2443.43
752.524	3426.68
757.111	4239.3
761.697	6179.1
766.279	9274.07
770.859	11705.9
775.436	10505.3
780.011	5532.82
784.583	2198.3
789.152	967.746
793.719	820.266
798.283	915.84
802.845	1711.64
807.404	1678.18
811.96	892.188
816.514	438.715
821.065	184.258
825.613	203.266
830.159	277.559
834.703	328.129
839.243	339.981
843.781	37.8672
848.317	116.117
852.849	0.890625
857.38	288.195
861.907	277.262
866.432	146.613
870.954	133.566
875.474	167.082
879.991	490.746
884.506	255.144
889.018	686.941
893.527	620.637
898.034	944.574
902.538	1159.71
907.039	908.438
911.538	981.84
916.034	1159.67
920.528	822.43
925.018	784.977
929.507	873.277
933.992	915.035
938.476	592.352
942.956	1129
947.434	1058.09
951.909	1452.36
956.382	1582.78
960.852	1711.41
965.319	1592.12
969.784	2169.34
974.246	1739.29
978.705	2300.88
983.162	2405.17
987.616	2424.14
992.068	1686.52
996.517	1867.81
1000.96	1803.26
1005.41	1277.62
1009.85	514.086
1014.29	357.281
1018.72	286.086
1023.16	107.742
1027.59	961.578
1032.02	2284.52
1036.44	3694.66
1040.86	4073.4
1045.28	4653.8
1049.7	5176.98
1054.12	5832.89
1058.53	6700.52
1062.94	7843.58
1067.35	9231.27
1071.75	10522.9
1076.15	10925.2
1080.55	12395.7
1084.95	17717.5
1089.34	26818.5
1093.73	34347.9
1098.12	33831.3
1102.51	28526
1106.89	26956.6
1111.27	18973.2
1115.65	7369.63
1120.03	3075.97
1124.4	1721.25
1128.77	1895.16
1133.14	1376.23
1137.5	1149.88
1141.86	852.844
1146.22	730.359
1150.58	647.016
1154.93	458.656
1159.29	718.367
1163.64	849.391
1167.98	1032.97
1172.33	959.969
1176.67	956.219
1181.01	1135.19
1185.34	1431.31
1189.68	1972.29
1194.01	2138.77
1198.34	1977.06
1202.66	1867.68
1206.99	1996.9
1211.31	1141.69
1215.62	809.414
1219.94	440.172
1224.25	430.945
1228.56	329.258
1232.87	418.07
1237.17	77.1172
1241.48	206.125
1245.78	263.961
1250.07	547.484
1254.37	395.609
1258.66	126.562
1262.95	336.703
1267.23	568.828
1271.52	834.148
1275.8	779.086
1280.08	638.148
1284.35	430.898
1288.63	317.148
1292.9	585.312
1297.16	255.07
1301.43	582.336
1305.69	568.086
1309.95	217.336
1314.21	522.977
1318.46	82.0156
1322.72	245.617
1326.97	502.859
1331.21	136.898
1335.46	741.578
1339.7	834.938
1343.94	612.219
1348.18	542.93
1352.41	556.031
1356.64	1011.19
1360.87	897.453
1365.1	38.2031
1369.32	667.953
1373.54	1153.08
1377.76	609.25
1381.97	1039.81
1386.19	729.078
1390.4	460.031
1394.6	24.6719
1398.81	137.109
1403.01	449.609
1407.21	911.922
1411.41	620.438
1415.6	777.453
1419.79	1181.27
1423.98	1032.64
1428.17	645.062
1432.35	961.453
1436.54	346.828
1440.71	233.938
1444.89	675.719
1449.06	41.1094
1453.23	955.172
1457.4	669.938
1461.57	253.031
1465.73	282.609
1469.89	411.641
1474.05	68.125
1478.2	132.516
1482.36	20.6719
1486.51	672.812
1490.65	164.203
1494.8	828.203
1498.94	135.562
1503.08	597.344
1507.22	1228.23
1511.35	519.609
1515.48	1785.05
1519.61	1502.67
1523.74	1837.11
1527.86	2354.34
1531.98	1682.36
1536.1	1946.09
1540.22	885.922
1544.33	1787.88
1548.44	1653.33
1552.55	1429.06
1556.65	855.812
1560.76	921.703
1564.86	945.906
1568.95	34.375
1573.05	388.562
1577.14	0
