Measurement: Raman, 514 nm, ccw, Raman Data Processed
Mineral: Marialite
Rruff sample: R060458
Ideal chemistry: Na_4_Al_3_Si_9_O_24_Cl
Locality: Dading, Nepal
Source: Michael Scott
Description: Colorless elongated prism
Measured chemistry: (Na_0.52_Ca_0.47_K_0.01_)_4_(Al_0.36_Si_0.64_)_12_O_24_(Cl_0.44_(CO_3_)_0.56_)
Pin_id: L01838
Orientation: Laser parallel to a* (1 0 0). Fiducial mark perpendicular to laser is parallel to -c [0 0 -1]
Raman shift (cm-1)	intensity
115.52	0
120.453	3405.04
125.385	2509.79
130.313	2977.33
135.239	2659.89
140.163	1740.83
145.084	1346.35
150.002	2630.48
154.918	4903.66
159.832	7421.19
164.742	7470.66
169.651	4395.14
174.556	1313.92
179.459	279.752
184.36	135.463
189.258	371.941
194.153	793.475
199.046	850.856
203.936	411.148
208.824	369.842
213.709	1003.12
218.592	2157.33
223.472	2703.44
228.349	2419.17
233.224	1632.93
238.096	617.179
242.966	659.777
247.833	1428.36
252.698	4567.81
257.56	8624.1
262.419	11838
267.276	8640.48
272.13	3581.51
276.982	1242.34
281.831	944.832
286.677	2134.1
291.521	3837.85
296.363	5975.42
301.202	2970.39
306.038	439.683
310.872	249.549
315.703	301.983
320.531	10.7139
325.357	15.6875
330.181	495.684
335.001	986.216
339.82	1439.79
344.635	1458.07
349.448	2036.68
354.259	3595.23
359.067	5478.46
363.872	5080.9
368.675	3029.56
373.475	2318.48
378.272	2914.59
383.067	2923.12
387.86	2591.91
392.649	1934.55
397.437	1237.68
402.221	1036.7
407.003	1366.92
411.783	2249.95
416.56	4043.92
421.334	5876.55
426.106	4479.59
430.875	3213.5
435.641	4440.88
440.405	7495.56
445.167	13494.9
449.925	24277.5
454.681	35972
459.435	36929.4
464.186	31079.9
468.934	19166.3
473.68	10274
478.423	5828.95
483.164	3220.38
487.902	1688.07
492.637	877.416
497.37	501.6
502.1	138.464
506.828	143.688
511.553	87.8887
516.276	763.279
520.995	2137.61
525.713	5844.56
530.427	13704.7
535.139	22465.9
539.849	16502.3
544.556	7542.68
549.26	3357.65
553.962	1304.71
558.661	805.119
563.357	355.644
568.051	385.498
572.742	253.24
577.431	157.658
582.117	246.5
586.801	306.838
591.481	45.291
596.16	78.6367
600.835	3.93945
605.508	270.9
610.179	244.721
614.847	190.602
619.512	53.0098
624.175	465.342
628.835	364.883
633.492	61.4531
638.147	92.7871
642.799	140.353
647.449	279.172
652.096	314.025
656.74	70.1582
661.382	155.143
666.021	79.2012
670.658	65.1523
675.292	169.065
679.923	164.586
684.552	104.734
689.178	988.414
693.802	287.215
698.423	456.447
703.041	919.535
707.657	1198.11
712.27	1193.66
716.881	1117.91
721.489	997.957
726.094	1278.65
730.697	1216.64
735.297	1346.63
739.894	1566.62
744.489	2213.75
749.081	2832.44
753.671	4136.09
758.258	5702.2
762.842	8480.77
767.424	11502.3
772.003	12188.8
776.58	8930.72
781.154	4490.88
785.725	1943.95
790.294	1253.99
794.86	532.055
799.424	773.992
803.985	1179.62
808.543	1204.86
813.099	458.471
817.652	246.277
822.202	49.6406
826.75	136.027
831.295	373.861
835.838	189.894
840.378	61.3672
844.915	156.777
849.45	380.361
853.982	44.7383
858.512	505.023
863.039	322.648
867.563	143.264
872.085	67.8906
876.604	68.0117
881.12	55.623
885.634	46.4941
890.145	187.379
894.654	236.602
899.16	213.141
903.663	160.363
908.164	111.234
912.662	64.0469
917.158	142.898
921.651	36.4727
926.141	65.5742
930.628	291.106
935.113	157.793
939.596	192.312
944.076	305.172
948.553	435.481
953.027	740.449
957.499	966.094
961.969	742.812
966.435	569.383
970.899	423.574
975.361	656.223
979.82	574.555
984.276	770.203
988.73	806.844
993.181	1008.72
997.629	1379.51
1002.08	2085.43
1006.52	1483.97
1010.96	629.285
1015.4	311.293
1019.83	682.102
1024.26	1058.91
1028.69	1755.86
1033.12	2123.54
1037.55	2673.92
1041.97	3255.61
1046.39	3283.67
1050.81	3852.52
1055.22	4074.21
1059.63	4999.23
1064.04	5694.7
1068.45	6786.76
1072.85	7584.2
1077.25	8316.73
1081.65	9786.72
1086.05	12420.5
1090.44	16098.4
1094.83	18712.9
1099.22	17338.4
1103.6	14233.1
1107.99	12336.6
1112.37	8636.94
1116.74	3313.19
1121.12	1684.94
1125.49	1760.94
1129.86	1540.55
1134.23	1116.38
1138.59	964.731
1142.95	181.426
1147.31	97.6172
1151.67	128.828
1156.02	89.7656
1160.38	231.609
1164.72	609.336
1169.07	310.68
1173.41	317.223
1177.75	586.426
1182.09	469.977
1186.43	305.07
1190.76	727.938
1195.09	738.039
1199.42	1110.73
1203.74	1066.16
1208.07	375.609
1212.39	734.57
1216.7	415.734
1221.02	186.422
1225.33	299.438
1229.64	60.5781
1233.95	101.602
1238.25	402.562
1242.55	391.32
1246.85	265.117
1251.15	500.141
1255.44	447.914
1259.73	413.859
1264.02	806.422
1268.31	1002.9
1272.59	964.469
1276.87	368.016
1281.15	623.422
1285.42	837.117
1289.69	721.641
1293.96	863.477
1298.23	983.297
1302.5	205.719
1306.76	1020.52
1311.02	588.406
1315.27	900.805
1319.53	1001.59
1323.78	517.797
1328.03	278.664
1332.28	623.703
1336.52	753.109
1340.76	589.977
1345	505.656
1349.23	80.1094
1353.47	549.062
1357.7	230.672
1361.93	46.9453
1366.15	221.297
1370.37	168.578
1374.59	498.047
1378.81	62.3672
1383.03	402.664
1387.24	589.391
1391.45	545.297
1395.65	125.703
1399.86	316.727
1404.06	281.602
1408.26	398.117
1412.46	77.0859
1416.65	271.68
1420.84	283.977
1425.03	710.039
1429.22	109.242
1433.4	467.031
1437.58	1051.44
1441.76	1332.62
1445.93	853.594
1450.11	1838.88
1454.28	2049.25
1458.44	1320.95
1462.61	1559.99
1466.77	1055.44
1470.93	702.797
1475.09	566.539
1479.24	598.297
1483.39	778.82
1487.54	57.5234
1491.69	404.359
1495.84	44.3125
1499.98	46.2188
1504.12	17.4453
1508.25	308.984
1512.38	870.695
1516.52	287.5
1520.64	1592.27
1524.77	1241.09
1528.89	815
1533.01	732.234
1537.13	776.641
1541.25	1046.38
1545.36	1007.16
1549.47	732.188
1553.58	1279.75
1557.68	926.234
1561.78	656.75
1565.88	978.406
1569.98	520.594
1574.07	451.438
