Measurement: Raman, 514 nm, ccw, Raman Data Processed
Mineral: Marialite
Rruff sample: R060469
Ideal chemistry: Na_4_Al_3_Si_9_O_24_Cl
Locality: Mpwa-Mpwa mine, Umba Valley, near Arusha, Tanzania
Source: Michael Scott
Description: Yellow tetragonal prism with pronounced striations along the c-axis direction
Measured chemistry: (Na_0.66_Ca_0.27_K_0.07_)_4_(Si_0.68_Al_0.32_)_12_O_24_(Cl_0.75_(CO_3_)_0.25_)
Pin_id: L01385
Orientation: Laser parallel to a* (1 0 0). Fiducial mark perpendicular to laser is parallel to c [0 0 1]
Raman shift (cm-1)	intensity
127.767	0
132.7	123.043
137.631	14.4214
142.56	16.9688
147.485	131.064
152.408	411.375
157.328	769.144
162.246	914.063
167.16	716.854
172.073	387.276
176.982	154.032
181.888	204.05
186.792	281.699
191.694	310.759
196.592	266.841
201.488	253.816
206.381	103.658
211.271	124.261
216.159	209.815
221.044	324.082
225.926	303.641
230.806	240.607
235.683	159.073
240.557	82.687
245.429	143.27
250.298	451.808
255.164	948.008
260.027	1457.41
264.888	1492.26
269.746	1039.01
274.601	457.873
279.454	198.639
284.304	271.485
289.151	465.674
293.996	600.152
298.838	599.329
303.677	241.897
308.514	25.7251
313.348	119.421
318.179	66.8779
323.008	28.5757
327.834	119.614
332.657	207.776
337.478	233.119
342.295	179.671
347.111	316.688
351.923	465.56
356.733	819.116
361.54	811.635
366.345	704.722
371.147	592.368
375.946	578.633
380.743	457.518
385.537	380.502
390.328	372.447
395.116	231.366
399.902	128.282
404.686	231.74
409.466	417.72
414.244	597.442
419.019	709.869
423.792	748.876
428.562	572.796
433.329	515.932
438.094	765.924
442.856	1141.5
447.616	2137.42
452.372	3772.63
457.126	4908.76
461.878	4576.71
466.627	2908.86
471.373	1703.59
476.116	942.597
480.857	641.104
485.596	321.052
490.331	178.782
495.064	216.35
499.795	106.607
504.522	23.0327
509.247	35.3208
513.97	109.862
518.69	58.4551
523.407	371.528
528.121	1175.82
532.833	2373.59
537.543	3090.66
542.249	2117.38
546.953	907.045
551.655	368.288
556.354	256.28
561.05	167.044
565.743	75.2978
570.434	107.251
575.123	32.4453
579.808	79.5161
584.491	64.0269
589.172	71.4331
593.85	34.7588
598.525	65.7871
603.197	100.77
607.868	102.749
612.535	34.5757
617.2	7.98486
621.862	61.1743
626.522	55.0239
631.178	56.8149
635.833	3.53174
640.485	4.10596
645.134	150.737
649.78	10.5259
654.424	22.2056
659.066	95.708
663.704	36.2588
668.341	52.2378
672.974	19.3364
677.605	104.734
682.234	51.9517
686.859	103.918
691.483	150.436
696.103	23.1045
700.721	85.3428
705.337	96.4463
709.949	198.173
714.56	175.983
719.167	87.3467
723.772	185.634
728.375	84.5518
732.975	153.997
737.572	95.1064
742.167	113.149
746.759	207.929
751.349	409.956
755.936	545.087
760.52	960.829
765.102	1396.65
769.681	1708.02
774.258	1836.58
778.832	1432.63
783.404	990.017
787.973	439.929
792.539	341.272
797.103	192.373
801.665	109.235
806.223	188.252
810.779	160.721
815.333	55.9873
819.884	163.699
824.433	29.1533
828.979	116.856
833.522	4.35938
838.063	0.703125
842.601	19.791
847.137	91.1328
851.67	12.209
856.2	37.459
860.729	15.251
865.254	63.1973
869.777	16.6465
874.297	10.458
878.815	129.519
883.33	69.9258
887.843	158.428
892.353	44.3565
896.861	35.3555
901.366	66.2519
905.869	37.2148
910.369	106.549
914.866	1.74316
919.361	66.4981
923.854	32.8672
928.344	157.99
932.831	82.1709
937.316	105.976
941.798	175.62
946.278	172.457
950.755	167.938
955.23	221.923
959.702	157.56
964.171	226.39
968.638	123.575
973.103	70.1943
977.565	288.988
982.025	485.13
986.482	645.887
990.936	938.776
995.388	1000.5
999.837	551.462
1004.28	347.182
1008.73	342.966
1013.17	154.52
1017.61	300.319
1022.05	296.067
1026.48	314.956
1030.91	253.401
1035.34	259.86
1039.77	446.361
1044.19	401.927
1048.62	346.221
1053.03	472.941
1057.45	499.341
1061.87	561.269
1066.28	685.557
1070.69	768.484
1075.09	893.02
1079.5	1056.17
1083.9	1270.8
1088.3	1362.52
1092.69	1348.34
1097.09	1479.2
1101.48	1365.51
1105.87	1038.02
1110.26	999.217
1114.64	1029
1119.02	563.157
1123.4	538.757
1127.78	590.518
1132.15	223.546
1136.53	107.278
1140.89	93.6816
1145.26	278.546
1149.63	86.6143
1153.99	38.6045
1158.35	11.0566
1162.7	128.593
1167.06	21.2412
1171.41	76.166
1175.76	151.587
1180.11	213.672
1184.45	14.3916
1188.79	148.956
1193.13	13.4453
1197.47	184.504
1201.81	237.506
1206.14	280.41
1210.47	163.377
1214.79	98.3301
1219.12	267.674
1223.44	90.1836
1227.76	155.92
1232.08	232.404
1236.39	147.24
1240.7	54.8379
1245.02	53.709
1249.32	89.6211
1253.63	47.9258
1257.93	229.69
1262.23	70.3633
1266.53	116.5
1270.82	113.217
1275.12	277.75
1279.41	202.522
1283.69	127.648
1287.98	50.0078
1292.26	3.30664
1296.54	139.697
1300.82	96.0684
1305.1	32.0156
1309.37	220.035
1313.64	248.818
1317.91	301.545
1322.17	221.592
1326.44	292.24
1330.7	99.6973
1334.96	50.7832
1339.21	109.082
1343.47	391.865
1347.72	194.731
1351.97	43.3516
1356.21	81.0566
1360.46	29.2461
1364.7	354.422
1368.94	211.227
1373.17	100.746
1377.41	195.152
1381.64	208.791
1385.87	128.109
1390.1	100.287
1394.32	121.635
1398.54	86.1621
1402.76	91.832
1406.98	338.717
1411.19	101.289
1415.41	242.596
1419.62	191.281
1423.82	164.127
1428.03	26.5918
1432.23	31.6914
1436.43	88.5156
1440.63	230.727
1444.82	191.953
1449.02	295.123
1453.21	276.856
1457.4	343.381
1461.58	289.631
1465.77	202.486
1469.95	185.057
1474.12	128.377
1478.3	286.215
1482.47	184
1486.64	189.481
1490.81	222.152
1494.98	294.795
1499.14	60.9355
1503.31	64.0547
