Measurement: Raman, 514 nm, ccw, Raman Data Processed
Mineral: Marialite
Rruff sample: R060458
Ideal chemistry: Na_4_Al_3_Si_9_O_24_Cl
Locality: Dading, Nepal
Source: Michael Scott
Description: Colorless elongated prism
Measured chemistry: (Na_0.52_Ca_0.47_K_0.01_)_4_(Al_0.36_Si_0.64_)_12_O_24_(Cl_0.44_(CO_3_)_0.56_)
Pin_id: L00702
Orientation: Laser parallel to c* (0 0 1). Fiducial mark perpendicular to laser is parallel to a [1 0 0]
Raman shift (cm-1)	intensity
89.575	0
94.523	82.7012
99.467	2102.72
104.409	6931.71
109.349	11963.3
114.286	10738.9
119.22	6442.57
124.152	4218.73
129.081	3790.81
134.008	4734.17
138.932	6004.86
143.854	9146.7
148.773	15925.3
153.69	26028.8
158.604	35270.2
163.515	37063
168.424	29980.9
173.33	20681.7
178.234	14720.7
183.135	12977.5
188.034	13939.4
192.93	13791.5
197.823	12668.7
202.714	11537.1
207.602	11345.8
212.488	10024.6
217.371	9190.26
222.252	9146.04
227.13	8991.6
232.005	7322.04
236.878	5256.78
241.749	4027.19
246.616	4228.11
251.482	6408.25
256.344	9951.98
261.204	12461.8
266.062	9998.47
270.917	4801.33
275.769	2387.19
280.619	2785.9
285.466	4740.9
290.311	7289.75
295.153	7261.16
299.992	3659.28
304.829	85.3789
309.663	1214.86
314.495	1491.88
319.324	802.945
324.151	27.8457
328.975	1159.37
333.796	2936.62
338.615	3626.81
343.432	2384.69
348.245	1907.02
353.056	3155.38
357.865	5682.75
362.671	6658.07
367.474	3939.95
372.275	1983.9
377.073	1615.94
381.869	1474.74
386.662	1126.51
391.452	686.525
396.24	644.481
401.025	536.393
405.808	745.965
410.588	1499.91
415.366	3161.62
420.141	5345.05
424.913	5679.25
429.683	6068.62
434.45	8130.94
439.214	14003.1
443.976	26235.3
448.736	48732.2
453.493	76967
458.247	82143.6
462.998	71974.4
467.747	45009.1
472.494	23521.2
477.238	12426.9
481.979	7410.43
486.718	4498.91
491.454	2971.64
496.187	1708.44
500.918	1119.09
505.646	615.986
510.372	450.027
515.095	978.432
519.816	2866.51
524.534	6508.41
529.249	14872.9
533.962	25698
538.672	21508.9
543.379	10471.3
548.084	4523.78
552.786	2034.4
557.486	784.303
562.183	281.859
566.878	261.291
571.57	397.264
576.259	44.2891
580.946	34.791
585.63	161.195
590.311	130.047
594.99	157.865
599.667	415.019
604.34	1191.83
609.012	1936.18
613.68	1675.12
618.346	632.162
623.009	45.2305
627.67	110.346
632.328	164.527
636.984	258.469
641.636	66.9102
646.287	237.244
650.934	242.586
655.579	387.361
660.222	259.586
664.862	432.691
669.499	369.773
674.134	1136
678.766	1710.2
683.395	499.75
688.022	317.945
692.646	28.5078
697.268	165.57
701.887	367.051
706.503	753.234
711.117	1055.04
715.728	1018.8
720.337	1150.27
724.943	1314
729.546	1656.72
734.147	1625.47
738.745	1906.55
743.341	2091.98
747.933	2792.2
752.524	3364.62
757.111	4214.23
761.697	6509.31
766.279	9480.66
770.859	11377.3
775.436	9484.93
780.011	5218.1
784.583	2432.83
789.152	1366.64
793.719	1308.91
798.283	1708.94
802.845	2648.38
807.404	2493.73
811.96	1505.29
816.514	520.523
821.065	404.156
825.613	216.742
830.159	172.742
834.703	237.367
839.243	284.242
843.781	235.312
848.317	260.359
852.849	105.242
857.38	211.894
861.907	371.531
866.432	332.574
870.954	14.1836
875.474	206.5
879.991	287.523
884.506	372.754
889.018	754.812
893.527	916.824
898.034	684.465
902.538	821.469
907.039	707.168
911.538	837.449
916.034	1000.06
920.528	713.344
925.018	636.961
929.507	867.012
933.992	605.031
938.476	662.195
942.956	721.449
947.434	912.828
951.909	1412.34
956.382	740.332
960.852	918.824
965.319	1357.46
969.784	1347.82
974.246	1467.61
978.705	1919.12
983.162	1558.27
987.616	1341.49
992.068	1324.23
996.517	919.527
1000.96	1155.77
1005.41	893.945
1009.85	295.059
1014.29	169.5
1018.72	225.672
1023.16	184.781
1027.59	1200.77
1032.02	2305.68
1036.44	3418.27
1040.86	4187.98
1045.28	4314.35
1049.7	5200.16
1054.12	5932.15
1058.53	6480.29
1062.94	8099.19
1067.35	9457.17
1071.75	11006.2
1076.15	10984.8
1080.55	13050.6
1084.95	19231.5
1089.34	29340.2
1093.73	37234.4
1098.12	35622.3
1102.51	30386.7
1106.89	28393.1
1111.27	19746.1
1115.65	6921.59
1120.03	2605.34
1124.4	1281.52
1128.77	1234.99
1133.14	1019.26
1137.5	569.477
1141.86	455.562
1146.22	196.617
1150.58	52.4453
1154.93	359.867
1159.29	492.961
1163.64	452.07
1167.98	843.047
1172.33	742.477
1176.67	987.188
1181.01	1268.67
1185.34	1425.31
1189.68	2237.88
1194.01	2447.21
1198.34	2232.21
1202.66	2381.74
1206.99	1818.94
1211.31	793.867
1215.62	1048.45
1219.94	467.047
1224.25	123.766
1228.56	33.6797
1232.87	126.438
1237.17	42.5938
1241.48	453.258
1245.78	426.625
1250.07	161.586
1254.37	487.078
1258.66	135.289
1262.95	473.352
1267.23	1047.37
1271.52	557.812
1275.8	891.672
1280.08	582.906
1284.35	182.492
1288.63	593.289
1292.9	794.656
1297.16	392.648
1301.43	997.383
1305.69	181.711
1309.95	13.3281
1314.21	597.344
1318.46	1386.37
1322.72	891.617
1326.97	420.641
1331.21	585.43
1335.46	813.898
1339.7	438.195
1343.94	548.773
1348.18	881.086
1352.41	420.953
1356.64	263.844
1360.87	293.625
1365.1	623.625
1369.32	343.625
1373.54	620.5
1377.76	716.828
1381.97	807.078
1386.19	926.781
1390.4	498.688
1394.6	282.312
1398.81	473.953
1403.01	786.422
1407.21	541.516
1411.41	840.406
1415.6	1049.86
1419.79	625.906
1423.98	888.062
1428.17	883.266
1432.35	520.953
1436.54	735.109
1440.71	597.281
1444.89	593.641
1449.06	594.891
1453.23	300.812
1457.4	199.359
1461.57	127.094
1465.73	374.953
1469.89	125.828
1474.05	341.391
1478.2	528.141
1482.36	118.219
1486.51	232.359
1490.65	294.062
1494.8	585.641
1498.94	24.5625
1503.08	243.5
1507.22	143.344
1511.35	938.625
1515.48	1903.06
1519.61	2045.48
1523.74	2050.89
1527.86	1745.89
1531.98	1991.44
1536.1	1836.61
1540.22	1517.7
1544.33	1958.2
1548.44	1409.86
1552.55	1311.53
1556.65	1514.84
1560.76	1103.05
1564.86	1222.7
1568.95	498.375
1573.05	496.703
1577.14	0
