Measurement: Raman, 514 nm, ccw, Raman Data Processed
Mineral: Marialite
Rruff sample: R060469
Ideal chemistry: Na_4_Al_3_Si_9_O_24_Cl
Locality: Mpwa-Mpwa mine, Umba Valley, near Arusha, Tanzania
Source: Michael Scott
Description: Yellow tetragonal prism with pronounced striations along the c-axis direction
Measured chemistry: (Na_0.66_Ca_0.27_K_0.07_)_4_(Si_0.68_Al_0.32_)_12_O_24_(Cl_0.75_(CO_3_)_0.25_)
Pin_id: L01121
Orientation: Laser parallel to c* (0 0 1). Fiducial mark perpendicular to laser is parallel to a [1 0 0]
Raman shift (cm-1)	intensity
122.83	0
127.767	51.0664
132.7	228.875
137.631	402.879
142.56	1051.12
147.485	2447.21
152.408	4737.65
157.328	7448.25
162.246	9289.01
167.16	8159.9
172.073	5724.35
176.982	3733.61
181.888	3206.35
186.792	3198.86
191.694	2973.05
196.592	2392.66
201.488	1899.82
206.381	1287.62
211.271	1023.22
216.159	842.338
221.044	1276.77
225.926	1371.15
230.806	1286.37
235.683	865.097
240.557	511.127
245.429	398.032
250.298	688.54
255.164	1430.29
260.027	2683.74
264.888	3225.12
269.746	2110.23
274.601	924.14
279.454	907.863
284.304	1445.49
289.151	2054.57
293.996	1737.69
298.838	1093.46
303.677	381.86
308.514	303.601
313.348	360.362
318.179	338.237
323.008	37.7236
327.834	320.168
332.657	852.217
337.478	1131.63
342.295	874.425
347.111	656.659
351.923	713.439
356.733	1373.89
361.54	1850.37
366.345	1435.34
371.147	756.919
375.946	584.832
380.743	547.728
385.537	263.716
390.328	204.432
395.116	75.7644
399.902	75.4255
404.686	187.012
409.466	311.289
414.244	538.881
419.019	914.603
423.792	1134.42
428.562	1241.83
433.329	1627.24
438.094	2352.86
442.856	3879.39
447.616	7491.61
452.372	14622.7
457.126	22165.7
461.878	21632.5
466.627	14021.1
471.373	7288.2
476.116	3778.99
480.857	1958.61
485.596	1198.09
490.331	755.535
495.064	592.473
499.795	426.758
504.522	303.269
509.247	254.243
513.97	207.15
518.69	318.43
523.407	801.981
528.121	1796.34
532.833	4327.13
537.543	7002.44
542.249	5119.41
546.953	2279.23
551.655	1062.51
556.354	447.795
561.05	272.046
565.743	90.6172
570.434	16.6694
575.123	22.5386
579.808	108.233
584.491	93.7485
589.172	97.4194
593.85	94.0508
598.525	308.118
603.197	469.099
607.868	431.038
612.535	342.93
617.2	300.683
621.862	190.628
626.522	148.718
631.178	46.8799
635.833	10.9482
640.485	82.417
645.134	51.1343
649.78	19.0884
654.424	2.73438
659.066	75.6357
663.704	175.303
668.341	64.3745
672.974	26.8862
677.605	26.8262
682.234	192.466
686.859	147.935
691.483	55.4238
696.103	42.9097
700.721	59.8877
705.337	232.631
709.949	180.282
714.56	170.348
719.167	287.687
723.772	214.607
728.375	212.049
732.975	165.167
737.572	300.484
742.167	246.818
746.759	233.875
751.349	545.867
755.936	786.688
760.52	1102.73
765.102	1594
769.681	2112.18
774.258	2443.57
778.832	2181.73
783.404	1332.6
787.973	644.605
792.539	437.953
797.103	401.772
801.665	489.576
806.223	849.613
810.779	1227.26
815.333	627.09
819.884	354.775
824.433	156.522
828.979	119.209
833.522	152.068
838.063	65.2627
842.601	68.6856
847.137	74.3691
851.67	96.418
856.2	9.96973
860.729	7.66406
865.254	125.241
869.777	129.981
874.297	57.3477
878.815	78.9082
883.33	148.93
887.843	52.3369
892.353	18.3467
896.861	0.584961
901.366	121.768
905.869	70.457
910.369	163.091
914.866	134.36
919.361	161.415
923.854	123.138
928.344	294.445
932.831	84.7158
937.316	63.3252
941.798	53.4385
946.278	157.956
950.755	101.814
955.23	135.782
959.702	233.015
964.171	263.492
968.638	236.89
973.103	276.989
977.565	342.827
982.025	645.313
986.482	1536.2
990.936	2600.12
995.388	2657.81
999.837	1102.56
1004.28	535.25
1008.73	413.222
1013.17	193.218
1017.61	177.004
1022.05	142.022
1026.48	408.887
1030.91	538.742
1035.34	562.818
1039.77	468.352
1044.19	700.367
1048.62	599.97
1053.03	852.977
1057.45	1059.7
1061.87	1356.83
1066.28	1546.29
1070.69	1596.83
1075.09	1765.43
1079.5	1711.58
1083.9	1649.25
1088.3	1945.77
1092.69	2252.26
1097.09	3071.23
1101.48	3052.81
1105.87	2191.57
1110.26	2142.95
1114.64	3099.27
1119.02	1138.95
1123.4	495.772
1127.78	413.346
1132.15	334.697
1136.53	144.185
1140.89	41.2227
1145.26	195.223
1149.63	52.6523
1153.99	158.346
1158.35	23.209
1162.7	109.119
1167.06	105.764
1171.41	102.768
1175.76	80.7207
1180.11	115.711
1184.45	20.4648
1188.79	243.258
1193.13	275.037
1197.47	223.685
1201.81	761.713
1206.14	413.088
1210.47	405.367
1214.79	333.607
1219.12	167.67
1223.44	305.031
1227.76	24.8145
1232.08	247.51
1236.39	363.551
1240.7	220.565
1245.02	195.127
1249.32	144.859
1253.63	155.695
1257.93	181.365
1262.23	73.6582
1266.53	117.414
1270.82	167.6
1275.12	267.045
1279.41	215.586
1283.69	128.928
1287.98	239.326
1292.26	204.996
1296.54	55.252
1300.82	366.102
1305.1	174.394
1309.37	246.148
1313.64	259.457
1317.91	279.234
1322.17	73.7129
1326.44	267.184
1330.7	352.893
1334.96	137.144
1339.21	142.412
1343.47	252.268
1347.72	570.238
1351.97	137.059
1356.21	438.815
1360.46	227.922
1364.7	171.299
1368.94	270.574
1373.17	190.516
1377.41	458.984
1381.64	129.441
1385.87	168.992
1390.1	200.207
1394.32	147.418
1398.54	116.875
1402.76	109.383
1406.98	88.7773
1411.19	93.1055
1415.41	131.07
1419.62	207.18
1423.82	224.891
1428.03	248.719
1432.23	441.894
1436.43	260.754
1440.63	309.727
1444.82	262.262
1449.02	244.648
1453.21	425.574
1457.4	384.863
1461.58	408.113
1465.77	411.391
1469.95	94.1055
1474.12	197.273
1478.3	390.457
1482.47	88.1523
1486.64	204.766
1490.81	116.891
1494.98	327.379
1499.14	449.144
1503.31	248.742
1507.47	186.121
1511.62	249.934
1515.78	146.777
1519.93	196.969
1524.08	0
