Measurement: Raman, 514 nm, ccw, Raman Data Processed
Mineral: Marialite
Rruff sample: R040113
Ideal chemistry: Na_4_Al_3_Si_9_O_24_Cl
Locality: Gouverneur, New York, USA
Source: University of Arizona Mineral Museum
Description: Green prismatic crystal
Measured chemistry: (Na_0.50_Ca_0.43_K_0.07_)_4_(Si_0.64_Al_0.36_)_12_O_24_(Cl_0.60_(CO_3_)_0.40_)
Pin_id: L01482
Orientation: Laser parallel to c* (0 0 1). Fiducial mark perpendicular to laser is parallel to a [1 0 0]
Raman shift (cm-1)	intensity
90.91	0
95.868	713.789
100.823	1013.75
105.776	3325.34
110.726	7000.83
115.673	4866.3
120.617	2351.48
125.559	583.107
130.497	187.598
135.433	730.604
140.366	619.83
145.296	3958.88
150.224	7063.93
155.149	12407.1
160.071	16598.5
164.99	15590.8
169.906	12045.4
174.82	8538.78
179.731	5534.95
184.639	4966.57
189.544	6063.53
194.447	6645.65
199.346	5862.94
204.243	5292.67
209.137	5294.23
214.029	4651.73
218.918	3677.19
223.803	2941.21
228.687	2625.77
233.567	1991.82
238.444	787.414
243.319	368.609
248.191	592.93
253.061	996.652
257.927	2340.93
262.791	4443.44
267.652	3663.74
272.51	1232.45
277.366	39.5977
282.219	227.85
287.069	640.731
291.916	1374.3
296.761	1996.8
301.602	846.871
306.441	28.5176
311.278	542.661
316.111	221.12
320.942	314.523
325.77	635.125
330.596	900.767
335.418	1637.11
340.238	1860.46
345.055	1155.32
349.87	1528.9
354.681	2220.74
359.49	3359.24
364.296	3488.81
369.1	2642.31
373.901	1761.07
378.699	1975.68
383.494	1925.55
388.287	1902.03
393.077	1676.28
397.864	1429.87
402.648	1613.03
407.43	2017.79
412.209	2425.28
416.985	3118.32
421.759	3991.83
426.53	3613.7
431.298	4249.19
436.063	6375.89
440.826	8641.28
445.586	14575.2
450.343	24987
455.098	35558.6
459.85	36378.7
464.599	29611.3
469.345	18959.9
474.089	10933.6
478.83	6390.08
483.569	4026.26
488.304	2565.13
493.037	2159.56
497.768	1574.49
502.495	1386.32
507.22	1370.16
511.942	1356.09
516.662	1509.26
521.379	2595.89
526.093	4232.84
530.805	8478.46
535.513	11832.7
540.22	9639.43
544.923	5439.61
549.624	2976.84
554.322	1701.02
559.017	956.396
563.71	888.368
568.4	664.602
573.087	850.525
577.772	484.057
582.454	369.886
587.134	143.949
591.81	60.2891
596.484	85.8906
601.156	99.6328
605.824	429.401
610.49	563.995
615.154	328.991
619.815	17.0156
624.473	89.4492
629.128	142.601
633.781	12.2773
638.431	21.6016
643.078	11.169
647.723	79.6728
652.365	115.277
657.005	52.0478
661.642	315.56
666.276	349.188
670.907	392.805
675.536	485.428
680.162	729.609
684.786	276.201
689.407	238.57
694.025	263.143
698.641	349.117
703.254	512.953
707.864	378.434
712.472	644.678
717.077	506.246
721.68	640.234
726.28	634.535
730.877	746.508
735.472	765.617
740.064	819.74
744.653	916.021
749.24	1401.31
753.824	1747.01
758.405	2787.83
762.984	3724.3
767.56	5196.35
772.134	6270.79
776.705	5684.72
781.273	3240.02
785.839	1331.89
790.402	590.045
794.963	548.606
799.521	647.416
804.076	793.877
808.629	798.283
813.179	436.022
817.726	238.318
822.271	9.21289
826.813	28.2305
831.353	10.5859
835.89	174.084
840.425	132.525
844.956	196.744
849.486	27.4727
854.012	44.3594
858.536	118.75
863.058	8.00781
867.577	118.744
872.093	19.6152
876.607	179.457
881.118	39.4766
885.626	43.2988
890.132	17.1133
894.636	20.2422
899.136	82.9082
903.635	311.049
908.13	306.336
912.623	239.307
917.114	177.592
921.602	58.6348
926.087	286.191
930.57	40.1914
935.05	67.4238
939.527	234.025
944.002	174.133
948.475	230.758
952.944	509.154
957.412	508.088
961.876	680.738
966.338	690.162
970.798	687.455
975.255	965.99
979.709	1077.43
984.161	1267.85
988.611	878.01
993.057	797.801
997.501	613.088
1001.94	379.471
1006.38	326.109
1010.82	339.291
1015.25	167.732
1019.68	345.299
1024.11	429.641
1028.54	865.066
1032.96	1066.14
1037.38	1474.48
1041.8	1618.48
1046.22	1803.09
1050.63	2027.8
1055.04	2394.9
1059.45	2712.77
1063.86	3240.24
1068.26	3588.67
1072.66	3881.38
1077.06	3675.49
1081.46	4643.76
1085.85	6473.1
1090.24	9272.63
1094.63	11736.8
1099.01	12229
1103.4	11778.5
1107.78	13290.5
1112.16	11073.6
1116.53	3811.63
1120.9	872.322
1125.28	536.447
1129.64	363.99
1134.01	373.154
1138.37	289.977
1142.73	119.936
1147.09	226.432
1151.44	53.1875
1155.8	345.822
1160.15	263.547
1164.5	178.67
1168.84	315.699
1173.18	392.197
1177.52	468.799
1181.86	515.619
1186.2	701.193
1190.53	738.352
1194.86	673.949
1199.19	940.49
1203.51	837.932
1207.84	553.078
1212.16	462.106
1216.47	104.522
1220.79	143.588
1225.1	218.678
1229.41	82.5176
1233.72	19.5996
1238.03	57.668
1242.33	49.4473
1246.63	148.185
1250.93	11.791
1255.22	211.164
1259.52	57.7539
1263.81	29.6738
1268.09	35.9023
1272.38	68.9824
1276.66	72.4453
1280.94	75.3984
1285.22	114.941
1289.49	76.2266
1293.77	58.3574
1298.04	286.154
1302.31	63.0879
1306.57	65.5195
1310.84	152.402
1315.1	88.7637
1319.35	166.103
1323.61	84.9473
1327.86	216.832
1332.11	238.484
1336.36	26.1738
1340.61	161.481
1344.85	238.644
1349.09	154.606
1353.33	117.617
1357.57	70.7109
1361.8	179.053
1366.03	170.152
1370.26	256.984
1374.48	102.219
1378.71	263.592
1382.93	95.5195
1387.15	291.01
1391.37	190.232
1395.58	197.318
1399.79	297.844
1404	300.231
1408.2	260.357
1412.41	308.184
1416.61	487.035
1420.81	396.449
1425.01	535.106
1429.2	374.121
1433.39	515.438
1437.58	226.842
1441.77	202.371
1445.95	75.5137
1450.14	259.793
1454.32	152.857
1458.49	53.4082
1462.67	46.0215
1466.84	79.9238
1471.01	141.887
1475.18	153.402
1479.34	266.697
1483.51	341.906
1487.66	76.6445
1491.82	151.1
1495.98	67.5606
1500.13	244.404
1504.28	246.154
1508.43	182.324
1512.58	364.615
1516.72	409.289
1520.86	806.231
1525	810.842
1529.13	1108.74
1533.27	1150.49
1537.4	825.164
1541.53	756.078
1545.65	570.875
1549.78	405.164
1553.9	551.457
1558.02	404.055
1562.13	296.777
1566.25	533.684
1570.36	586.777
1574.47	360.625
