Measurement: Raman, 514 nm, ccw, Raman Data Processed
Mineral: Marialite
Rruff sample: R060297
Ideal chemistry: Na_4_Al_3_Si_9_O_24_Cl
Locality: Morogoro District, Marasi, Tanzania
Source: Herb Obodda
Description: Pale yellow crystal fragment
Measured chemistry: (Na_0.66_Ca_0.29_K_0.06_)_4_(Si_0.68_Al_0.32_)_12_O_24_(Cl_0.70_(CO_3_)_0.30_)
Pin_id: L01156
Orientation: Laser parallel to a* (1 0 0). Fiducial mark perpendicular to laser is parallel to c [0 0 1]
Raman shift (cm-1)	intensity
88.338	0
93.286	47.7793
98.231	232.356
103.174	426.512
108.114	1564.14
113.052	3780.89
117.987	7711.82
122.919	12239.5
127.849	15405.5
132.777	14851.8
137.702	11667.7
142.624	8222.24
147.544	4883.35
152.461	2717.54
157.375	2688.89
162.287	3011.18
167.197	2120.3
172.104	872.854
177.008	154.898
181.91	305.383
186.809	1123.76
191.706	1877.24
196.6	2229.91
201.491	1829.69
206.38	1829.61
211.267	1964.84
216.151	2849.94
221.032	3991.07
225.911	5137.6
230.787	4953.3
235.66	4103.2
240.531	3557.01
245.4	4471.02
250.266	7944.53
255.129	15053
259.99	26391.8
264.848	31996.1
269.703	20745
274.556	9546.85
279.407	4561.28
284.255	3221.98
289.1	4311.86
293.942	9365.79
298.783	15585
303.62	6158.06
308.455	1417.12
313.288	26.3057
318.117	443.022
322.945	439.065
327.769	493.072
332.591	351.79
337.411	42.0635
342.228	1054.54
347.042	3163.44
351.854	5983.65
356.663	10244.6
361.47	12002.4
366.274	8027.09
371.075	6128.56
375.874	6012.83
380.67	4790.47
385.464	3580.79
390.255	2226.57
395.043	1617.66
399.829	1775.91
404.613	2742.24
409.393	5567.53
414.172	11039.7
418.947	16202.7
423.72	12416.5
428.49	6224.51
433.258	4969.22
438.024	6699.81
442.786	9754.88
447.546	15501.1
452.304	29396.6
457.059	37508.4
461.811	34925.2
466.56	23872.1
471.308	13710.2
476.052	8367.98
480.794	5386.39
485.533	2848.4
490.27	1511.3
495.004	699.379
499.736	512.393
504.465	275.93
509.191	498.857
513.915	1012.27
518.636	2296.39
523.354	5740.66
528.07	14885.4
532.784	34498
537.494	51855.8
542.203	31935.2
546.908	13903.5
551.611	6243.36
556.311	3149.4
561.009	1855.66
565.704	1052.1
570.397	865.75
575.087	548.504
579.774	550.234
584.459	512.949
589.141	410.647
593.821	282.293
598.498	28.082
603.172	144.785
607.844	6.93164
612.513	144.953
617.18	177.893
621.844	21.0156
626.505	38.207
631.164	97.1289
635.82	157.779
640.473	36.6387
645.124	219.727
649.773	283.57
654.418	442.535
659.062	582.908
663.702	890.445
668.34	651.715
672.975	576.566
677.608	634.769
682.238	523.215
686.866	675.391
691.49	962.885
696.113	1480.43
700.732	2089.04
705.349	2745.13
709.964	2984.3
714.576	2849.59
719.185	2590.92
723.792	2060.33
728.396	1950
732.997	1711.08
737.596	1693.8
742.192	2296.08
746.785	3296.17
751.376	5478.69
755.965	8952.59
760.551	14218.8
765.134	21466.9
769.714	29043.6
774.292	30505.9
778.867	21790
783.44	11924.7
788.01	6127.73
792.578	3430.39
797.142	2262.95
801.705	1470.63
806.264	970.436
810.821	782.598
815.376	435.182
819.927	338.43
824.476	397.072
829.023	204.047
833.567	399.541
838.108	285.82
842.647	242.402
847.183	215.152
851.716	171.246
856.247	218.721
860.776	200.594
865.301	233.397
869.824	205.264
874.345	188.844
878.862	79.9883
883.377	100.939
887.89	24.0625
892.4	45.1328
896.907	78.4023
901.412	45.9922
905.914	10.4102
910.413	39.1133
914.91	69.7031
919.404	119.668
923.896	53.4492
928.385	35.3047
932.871	94.2734
937.355	28.3477
941.836	311.773
946.315	302.242
950.79	655.277
955.264	506.914
959.734	352.957
964.202	225.387
968.668	275.836
973.131	694.965
977.591	1331.99
982.048	4204.93
986.503	8497.61
990.955	14443.7
995.405	14307.3
999.852	6438.11
1004.3	3795.4
1008.74	2555.7
1013.18	1956.14
1017.61	1270.74
1022.05	889.238
1026.48	1796.65
1030.91	2311.51
1035.33	3568.49
1039.76	3880.92
1044.18	4122.54
1048.6	3936.9
1053.01	4031.41
1057.42	4915.21
1061.84	5709.28
1066.24	7113.59
1070.65	8976.82
1075.05	10908.6
1079.45	13433.7
1083.85	15834
1088.24	17599.8
1092.63	18541.6
1097.02	18667
1101.41	15540.7
1105.8	11565.6
1110.18	9202.14
1114.56	8264.98
1118.93	5150.16
1123.31	4679.65
1127.68	3752.06
1132.04	3439.06
1136.41	2916.24
1140.77	1879.63
1145.13	1138.26
1149.49	1068.43
1153.85	279.258
1158.2	208.957
1162.55	72.4844
1166.9	150.07
1171.24	331.164
1175.58	103.914
1179.92	353.387
1184.26	200.754
1188.6	365.902
1192.93	55.7188
1197.26	378.176
1201.58	595.539
1205.9	223.016
1210.23	350.523
1214.55	507.098
1218.86	97.6172
1223.17	588.887
1227.48	166.305
1231.79	72.3477
1236.1	82.3086
1240.4	207.184
1244.7	136.562
1249	293.289
1253.29	329.926
1257.59	312.289
1261.88	117.945
1266.16	106.375
1270.45	309.137
1274.73	356.34
1279.01	278.223
1283.28	378.973
1287.56	345.438
1291.83	456.273
1296.1	700.344
1300.36	786.102
1304.63	390.434
1308.89	548.914
1313.15	827.359
1317.4	630.031
1321.65	541.305
1325.9	444.641
1330.15	609.57
1334.4	632.18
1338.64	347.375
1342.88	505.68
1347.12	541.555
1351.35	556.812
1355.58	579.086
1359.81	585.492
1364.04	248.273
1368.26	362.688
1372.48	365.945
1376.7	589.281
1380.92	136.188
1385.13	654.023
1389.34	107.062
1393.55	599.141
1397.76	230.523
1401.96	203.32
1406.16	344.391
1410.36	17.9688
1414.55	218.641
1418.75	250.422
1422.94	252.25
1427.12	314.406
1431.31	132.656
1435.49	28.8125
1439.67	599.156
1443.85	235.672
1448.02	105.742
1452.19	460.117
1456.36	278.945
1460.53	141.75
1464.69	307.469
1468.85	2.14062
1473.01	714.883
1477.17	516.492
1481.32	414.211
1485.47	230.43
1489.62	454.891
1493.76	381.812
1497.91	399.961
1502.05	513.727
1506.18	238.945
1510.32	819.258
1514.45	450.688
1518.58	794.062
1522.71	802.773
1526.83	423
1530.95	894.992
1535.07	370.258
1539.19	66.6719
1543.3	537.242
1547.41	905.836
1551.52	782.156
1555.63	257.195
1559.73	132.852
1563.83	543.32
1567.93	399.016
1572.03	548.789
1576.12	478.82
