Measurement: Raman, 514 nm, depolarized, Raman Data Processed
Mineral: Marialite
Rruff sample: R060526
Ideal chemistry: Na_4_Al_3_Si_9_O_24_Cl
Locality: Minas Gerais, Brazil
Source: Michael Scott
Description: Heavily striated pale yellow elongated prism
Measured chemistry: (Na_0.62_Ca_0.33_K_0.05_)_4_(Si_0.66_Al_0.34_)_12_O_24_(Cl_0.77_(CO_3_)_0.23_)
Pin_id: L01495
Orientation: Laser parallel to c* (0 0 1). Fiducial mark perpendicular to laser is parallel to a [1 0 0]
Raman shift (cm-1)	intensity
111.713	0
116.656	73.4961
121.596	139.773
126.533	221.936
131.467	328.699
136.399	238.935
141.328	121.784
146.254	298.6
151.178	773.857
156.098	1113.07
161.017	1693.71
165.932	1724.82
170.845	1140
175.755	689.238
180.662	556.466
185.567	562.466
190.469	555.512
195.368	504.184
200.264	560.702
205.158	521.035
210.049	397.102
214.937	514.438
219.823	297.818
224.706	441.371
229.586	255.881
234.464	190.582
239.339	149.023
244.211	141.383
249.081	155.807
253.947	148.572
258.812	406.416
263.673	582.692
268.532	385.82
273.388	117.068
278.241	39.1133
283.092	145.071
287.94	362.894
292.785	451.445
297.628	194.822
302.468	155.955
307.305	55.1807
312.14	40.2022
316.972	77.0342
321.801	26.709
326.628	131.916
331.451	315.044
336.273	329.784
341.091	194.141
345.907	48.1299
350.72	81.0254
355.531	218.76
360.339	276.477
365.144	283.184
369.947	128.462
374.746	223.421
379.544	274.973
384.338	136.419
389.13	169.367
393.919	24.0254
398.706	172.969
403.49	44.0166
408.271	104.98
413.05	201.269
417.826	182.998
422.599	495.562
427.37	382.618
432.138	371.287
436.903	389.949
441.666	734.284
446.426	1128.13
451.183	2121.28
455.938	3811.14
460.69	4155.78
465.44	3174
470.187	1696.5
474.931	872.93
479.672	412.589
484.411	422.806
489.148	27.3877
493.881	182.407
498.612	18.3984
503.341	151.091
508.066	263.821
512.789	147.571
517.51	77.8125
522.228	134.836
526.943	322.514
531.656	848.343
536.365	1435.04
541.073	1474.72
545.778	832.61
550.48	460.265
555.179	314.06
559.876	82.7793
564.57	122.551
569.262	91.3535
573.951	144.602
578.637	4.98633
583.321	114.453
588.002	12.0254
592.68	106.246
597.356	76.3106
602.03	227.08
606.7	40.082
611.368	206.113
616.034	295.363
620.697	279.414
625.357	71.3203
630.014	26.6367
634.67	270.338
639.322	233.051
643.972	102.842
648.619	24.8281
653.264	215.293
657.906	47.7168
662.545	53.2031
667.182	134.029
671.816	129.06
676.448	111.59
681.077	203.816
685.703	356.916
690.327	110.955
694.948	276.049
699.567	233.482
704.183	56.1758
708.797	335.012
713.407	180.375
718.016	230.221
722.621	162.885
727.225	240.277
731.825	308.367
736.423	272.5
741.019	105.775
745.611	239.482
750.202	274.477
754.789	368.977
759.374	278.041
763.957	390.809
768.537	659.168
773.114	913.695
777.689	915.818
782.261	551.957
786.831	295.594
791.398	226.231
795.963	229.191
800.524	137.338
805.084	433.234
809.641	415.215
814.195	147.797
818.747	100.662
823.296	202.426
827.842	130.016
832.386	274.779
836.928	119.768
841.467	161.922
846.003	226.443
850.537	94.1172
855.068	224.059
859.597	170.217
864.123	81.1152
868.646	191.408
873.167	94.2891
877.686	92.8613
882.202	189.647
886.715	101.652
891.226	72.7168
895.734	7.26367
900.24	263.551
904.743	274.307
909.244	77.2598
913.742	3.09375
918.238	21.2305
922.731	253.621
927.221	197.682
931.709	106.451
936.195	122.148
940.678	211.174
945.158	88.2656
949.636	135.58
954.111	163.816
958.584	197.941
963.054	171.519
967.522	269.805
971.987	177.728
976.45	146.598
980.91	94.5391
985.368	135.49
989.823	448.59
994.275	214.004
998.725	200.723
1003.17	32.7441
1007.62	151.148
1012.06	347.221
1016.5	141.914
1020.94	156.67
1025.37	101.037
1029.81	301.123
1034.23	174.133
1038.66	374.144
1043.09	261.566
1047.51	119.109
1051.93	416.353
1056.35	564.856
1060.76	331.098
1065.17	488.018
1069.58	650.533
1073.99	401.4
1078.4	485.742
1082.8	270.121
1087.2	574.408
1091.6	607.092
1095.99	1009.26
1100.38	899.291
1104.77	795.188
1109.16	716.906
1113.55	943.578
1117.93	795.613
1122.31	330.519
1126.68	150.398
1131.06	415.6
1135.43	299.301
1139.8	71.7793
1144.17	167.781
1148.54	480.822
1152.9	139.062
1157.26	122.844
1161.62	121.365
1165.97	86.9121
1170.32	93.4668
1174.67	458.643
1179.02	126.922
1183.37	38.457
1187.71	383.883
1192.05	69.3359
1196.39	324.742
1200.72	199.387
1205.05	164.082
1209.38	337.484
1213.71	206.816
1218.04	96.0898
1222.36	82.6602
1226.68	235.188
1231	337.191
1235.31	353.867
1239.63	391.117
1243.94	139.106
1248.25	259.039
1252.55	470.523
1256.86	228.629
1261.15	81.8203
1265.45	388.734
1269.75	183.473
1274.04	492.578
1278.33	325.488
1282.62	410.582
1286.91	272.586
1291.19	427.641
1295.47	275.965
1299.75	207.965
1304.03	126.731
1308.3	130.574
1312.57	63.1406
1316.84	465.191
1321.11	462.164
1325.37	236.75
1329.63	325.625
1333.89	346.738
1338.15	180.039
1342.4	332.809
1346.65	23.5664
1350.9	338.516
1355.15	257.086
1359.4	7.78125
1363.64	275.894
1367.88	228.953
1372.12	7.49219
1376.35	329.848
1380.58	122.106
1384.81	302.961
1389.04	144.844
1393.26	263.977
1397.49	263.457
1401.71	245.191
1405.92	298.824
1410.14	160.941
1414.35	57.4375
1418.56	70.8555
1422.77	383.644
1426.98	203.766
1431.18	68.0195
1435.38	194.074
1439.58	58.293
1443.78	180.996
1447.97	323.254
1452.16	281.785
1456.35	427.141
1460.54	202.07
1464.72	3.34766
1468.9	356
1473.08	199.125
1477.26	269.902
1481.43	437.402
1485.6	192.09
1489.77	83.8906
