Measurement: Raman, 514 nm, depolarized, Raman Data Processed
Mineral: Marialite
Rruff sample: R060297
Ideal chemistry: Na_4_Al_3_Si_9_O_24_Cl
Locality: Morogoro District, Marasi, Tanzania
Source: Herb Obodda
Description: Pale yellow crystal fragment
Measured chemistry: (Na_0.66_Ca_0.29_K_0.06_)_4_(Si_0.68_Al_0.32_)_12_O_24_(Cl_0.70_(CO_3_)_0.30_)
Pin_id: L01156
Orientation: Laser parallel to a* (1 0 0). Fiducial mark perpendicular to laser is parallel to c [0 0 1]
Raman shift (cm-1)	intensity
88.338	0
93.286	23.5254
98.231	1177.26
103.174	1642.45
108.114	2357.35
113.052	3021.83
117.987	4019.14
122.919	6441.28
127.849	7996.58
132.777	7535.29
137.702	5754.27
142.624	4814.27
147.544	6017.76
152.461	9394.59
157.375	14682.2
162.287	17457.2
167.197	14467.3
172.104	9155.52
177.008	4553.24
181.91	3325.9
186.809	4009.86
191.706	4024.41
196.6	2943.53
201.491	2446.76
206.38	1948.96
211.267	1904.48
216.151	2439.17
221.032	3266.89
225.911	3389.92
230.787	2586.65
235.66	1261.18
240.531	265.137
245.4	386.951
250.266	2705.7
255.129	6962.01
259.99	14479.1
264.848	17403.3
269.703	10605.9
274.556	4364.41
279.407	2045.09
284.255	3048.53
289.1	4770.43
293.942	5751.08
298.783	7732.92
303.62	2595.95
308.455	358.877
313.288	1247.02
318.117	844.125
322.945	508.988
327.769	664.988
332.591	1864.49
337.411	2251.31
342.228	1857.62
347.042	1915.18
351.854	3325.5
356.663	6099.36
361.47	7942.2
366.274	4661.09
371.075	3076.44
375.874	3277.09
380.67	3066.76
385.464	2300.71
390.255	1445.66
395.043	783.93
399.829	527.928
404.613	1135.26
409.393	2856.14
414.172	5221.27
418.947	7868.73
423.72	6701.33
428.49	5156.52
433.258	4716.48
438.024	7486.03
442.786	11720.1
447.546	21438.4
452.304	42736.1
457.059	55935.2
461.811	52312.9
466.56	33931.1
471.308	18641
476.052	9873.35
480.794	5420.16
485.533	2729.95
490.27	1487.74
495.004	870.514
499.736	480.365
504.465	13.4746
509.191	54.7246
513.915	334.539
518.636	1346.79
523.354	3756.98
528.07	9714.31
532.784	23183.4
537.494	34481
542.203	21603.3
546.908	9304
551.611	4013.08
556.311	2300.08
561.009	1046
565.704	779.109
570.397	516.957
575.087	361.541
579.774	576.283
584.459	272.272
589.141	409.797
593.821	593.744
598.498	744.826
603.172	1410.91
607.844	1305.14
612.513	1025.75
617.18	578.637
621.844	216.221
626.505	130.375
631.164	39.0703
635.82	69.1523
640.473	53.6523
645.124	10.7812
649.773	4.64453
654.418	9.95312
659.062	35.6914
663.702	435.172
668.34	20.5547
672.975	49.2148
677.608	48.1211
682.238	190.547
686.866	39.5
691.49	101.082
696.113	143.918
700.732	331.172
705.349	697.727
709.964	971.012
714.576	975.398
719.185	807.203
723.792	473.273
728.396	273.769
732.997	578.769
737.596	198.023
742.192	654.434
746.785	1307.68
751.376	2347.14
755.965	4175.54
760.551	7118.18
765.134	11197.2
769.714	17124.5
774.292	17520
778.867	11716.8
783.44	6002.59
788.01	3015.88
792.578	1527.98
797.142	1088.9
801.705	1033.14
806.264	1528.5
810.821	1425.52
815.376	198.227
819.927	127.902
824.476	51.5898
829.023	19.5625
833.567	43.2266
838.108	177.316
842.647	254.965
847.183	156.359
851.716	198.367
856.247	194.887
860.776	278.731
865.301	510.367
869.824	595.352
874.345	481.539
878.862	530.168
883.377	208.82
887.89	391.856
892.4	368.234
896.907	351.856
901.412	777.68
905.914	441.727
910.413	467.68
914.91	453.637
919.404	481.375
923.896	871.691
928.385	435.652
932.871	365.023
937.355	673.219
941.836	373.758
946.315	924.977
950.79	1023.79
955.264	961.586
959.734	836.953
964.202	879.547
968.668	561.75
973.131	789.086
977.591	1591.8
982.048	3701.2
986.503	7924.48
990.955	13564.8
995.405	12408.1
999.852	4970.95
1004.3	2203.87
1008.74	1125.77
1013.18	400.074
1017.61	319.227
1022.05	353.238
1026.48	11.0078
1030.91	954.781
1035.33	2044.47
1039.76	2518.06
1044.18	2859.56
1048.6	3082.85
1053.01	3692.22
1057.42	4328.88
1061.84	5507.79
1066.24	6045.31
1070.65	7986.99
1075.05	8624.3
1079.45	9895.64
1083.85	10763.3
1088.24	11876.9
1092.63	14178.5
1097.02	15896
1101.41	13884.3
1105.8	10013.4
1110.18	9577.73
1114.56	10584
1118.93	4376.92
1123.31	3527.53
1127.68	2415.58
1132.04	2390.33
1136.41	2192.72
1140.77	1669.92
1145.13	1287.7
1149.49	233.5
1153.85	467.531
1158.2	119.922
1162.55	30.6328
1166.9	27.6562
1171.24	69.2656
1175.58	70.7188
1179.92	94.2969
1184.26	523.109
1188.6	443.344
1192.93	750.922
1197.26	1011.16
1201.58	1206.04
1205.9	961.953
1210.23	872.578
1214.55	1084.71
1218.86	500.117
1223.17	769.992
1227.48	261.922
1231.79	263.477
1236.1	189.172
1240.4	405.766
1244.7	319.242
1249	539.953
1253.29	587.461
1257.59	148.375
1261.88	606.031
1266.16	359.352
1270.45	316.023
1274.73	636.906
1279.01	212.18
1283.28	516.742
1287.56	625.453
1291.83	287.727
1296.1	527.406
1300.36	181.172
1304.63	243.469
1308.89	438.758
1313.15	219.18
1317.4	273.633
1321.65	587.898
1325.9	775.969
1330.15	95.0859
1334.4	208.898
1338.64	322.227
1342.88	592.453
1347.12	201.297
1351.35	105.461
1355.58	35.9141
1359.81	115.516
1364.04	433.109
1368.26	584.82
1372.48	363.039
1376.7	582.875
1380.92	44.2656
1385.13	222.828
1389.34	201.328
1393.55	440.938
1397.76	175.977
1401.96	224.359
1406.16	83.9922
1410.36	584.344
1414.55	41.5312
1418.75	105.547
1422.94	374.492
1427.12	213.109
1431.31	322.391
1435.49	394.602
1439.67	594.398
1443.85	26.5312
1448.02	268.023
1452.19	5.67969
1456.36	330.047
1460.53	223.18
1464.69	216.469
1468.85	328.93
1473.01	558.922
1477.17	435.578
1481.32	562.953
1485.47	4.375
1489.62	778.719
1493.76	535.609
1497.91	283.281
1502.05	714.453
1506.18	754.531
1510.32	564.344
1514.45	333.156
1518.58	635.484
1522.71	411.438
1526.83	394.953
1530.95	860.625
1535.07	558.891
1539.19	278.016
1543.3	655.234
1547.41	480.484
1551.52	681.156
1555.63	1059.92
1559.73	921.328
1563.83	760.219
1567.93	727.609
1572.03	692.859
1576.12	5.3125
