Measurement: Raman, 514 nm, ccw, Raman Data Processed
Mineral: Marialite
Rruff sample: R060526
Ideal chemistry: Na_4_Al_3_Si_9_O_24_Cl
Locality: Minas Gerais, Brazil
Source: Michael Scott
Description: Heavily striated pale yellow elongated prism
Measured chemistry: (Na_0.62_Ca_0.33_K_0.05_)_4_(Si_0.66_Al_0.34_)_12_O_24_(Cl_0.77_(CO_3_)_0.23_)
Pin_id: L01495
Orientation: Laser parallel to c* (0 0 1). Fiducial mark perpendicular to laser is parallel to a [1 0 0]
Raman shift (cm-1)	intensity
116.656	0
121.596	43.5696
126.533	237.995
131.467	231.157
136.399	33.8775
141.328	24.5566
146.254	136.355
151.178	647.854
156.098	1245.62
161.017	1861.56
165.932	2087.01
170.845	1475.04
175.755	828.006
180.662	477.353
185.567	438.173
190.469	595.261
195.368	766.155
200.264	529.19
205.158	408.882
210.049	382.065
214.937	360.274
219.823	260.285
224.706	373.219
229.586	315.364
234.464	244.335
239.339	170.072
244.211	1.33637
249.081	86.8233
253.947	214.943
258.812	378.114
263.673	757.605
268.532	451.743
273.388	335.928
278.241	85.3879
283.092	40.6037
287.94	434.195
292.785	491.75
297.628	282.308
302.468	199.819
307.305	23.8703
312.14	19.9151
316.972	3.37829
321.801	112.8
326.628	8.6865
331.451	292.872
336.273	443.605
341.091	296.968
345.907	172.396
350.72	93.4176
355.531	123.777
360.339	287.755
365.144	255.847
369.947	26.6333
374.746	58.151
379.544	117.609
384.338	116.53
389.13	156.069
393.919	13.9235
398.706	33.347
403.49	5.48066
408.271	36.4198
413.05	14.3432
417.826	360.069
422.599	250.972
427.37	172.907
432.138	380.461
436.903	385.678
441.666	572.798
446.426	1069.26
451.183	2111.32
455.938	4183.7
460.69	4733.83
465.44	3740.44
470.187	2083.96
474.931	1162.55
479.672	684.226
484.411	419.611
489.148	58.117
493.881	234.512
498.612	140.103
503.341	123.18
508.066	119.624
512.789	91.2306
517.51	127.253
522.228	101.164
526.943	252.857
531.656	840.834
536.365	1619.16
541.073	1513.74
545.778	614.04
550.48	344.328
555.179	156.968
559.876	132.057
564.57	8.57808
569.262	163.566
573.951	75.9208
578.637	7.91126
583.321	16.6073
588.002	48.605
592.68	125.271
597.356	52.7543
602.03	89.3147
606.7	21.4238
611.368	175.548
616.034	167.555
620.697	140.641
625.357	54.2542
630.014	27.4415
634.67	4.81001
639.322	37.7408
643.972	35.4394
648.619	148.108
653.264	25.6141
657.906	236.592
662.545	45.6247
667.182	55.6409
671.816	4.33966
676.448	39.113
681.077	151.988
685.703	120.409
690.327	73.725
694.948	185.171
699.567	225.485
704.183	17.9728
708.797	44.1793
713.407	163.044
718.016	92.1571
722.621	10.0681
727.225	74.711
731.825	124.744
736.423	78.527
741.019	192.054
745.611	93.293
750.202	244.19
754.789	209.06
759.374	190.335
763.957	534.489
768.537	575.563
773.114	637.125
777.689	810.563
782.261	275.636
786.831	196.602
791.398	147.342
795.963	165.599
800.524	156.48
805.084	2.6654
809.641	274.431
814.195	180.236
818.747	11.7411
823.296	127.471
827.842	72.3385
832.386	181.881
836.928	63.783
841.467	211.089
846.003	90.7111
850.537	266.643
855.068	7.84708
859.597	50.6528
864.123	0.871181
868.646	71.0831
873.167	59.0151
877.686	170.284
882.202	104.654
886.715	44.1601
891.226	316.703
895.734	235.679
900.24	14.5337
904.743	226.143
909.244	83.7689
913.742	92.3122
918.238	161.456
922.731	65.4418
927.221	86.1781
931.709	133.512
936.195	126.228
940.678	66.5028
945.158	171.49
949.636	182.276
954.111	215.897
958.584	173.725
963.054	122.193
967.522	18.1779
971.987	16.3434
976.45	94.3483
980.91	216.346
985.368	237.674
989.823	38.2196
994.275	69.3562
998.725	170.74
1003.17	36.2128
1007.62	84.7264
1012.06	381.703
1016.5	184.981
1020.94	148.905
1025.37	209.482
1029.81	252.445
1034.23	45.2163
1038.66	373.786
1043.09	315.079
1047.51	403.188
1051.93	240.918
1056.35	221.834
1060.76	492.118
1065.17	274.7
1069.58	630.961
1073.99	629.914
1078.4	712.835
1082.8	392.405
1087.2	442.359
1091.6	654.203
1095.99	822.164
1100.38	767.232
1104.77	612.596
1109.16	895.409
1113.55	1250.37
1117.93	727.499
1122.31	197.146
1126.68	172.331
1131.06	145.79
1135.43	366.075
1139.8	92.4287
1144.17	13.8867
1148.54	259.098
1152.9	393.001
1157.26	47.9925
1161.62	340.737
1165.97	41.3353
1170.32	35.8307
1174.67	126.774
1179.02	204.655
1183.37	1.78263
1187.71	11.5168
1192.05	36.1654
1196.39	373.156
1200.72	423.413
1205.05	147.372
1209.38	208.621
1213.71	352.721
1218.04	303.896
1222.36	3.0333
1226.68	241.533
1231	156.212
1235.31	267.33
1239.63	49.6373
1243.94	91.2769
1248.25	161.328
1252.55	368.345
1256.86	127.117
1261.15	416.04
1265.45	343.947
1269.75	323.055
1274.04	467.082
1278.33	288.542
1282.62	449.843
1286.91	239.774
1291.19	374.55
1295.47	292.915
1299.75	37.7488
1304.03	101.861
1308.3	369.193
1312.57	144.373
1316.84	140.018
1321.11	260.684
1325.37	46.6134
1329.63	248.124
1333.89	1.21534
1338.15	49.37
1342.4	30.7024
1346.65	283.027
1350.9	403.218
1355.15	396.827
1359.4	338.146
1363.64	13.6964
1367.88	84.5322
1372.12	216.204
1376.35	328.629
1380.58	17.5589
1384.81	203.438
1389.04	7.15639
1393.26	309.929
1397.49	263.921
1401.71	155.601
1405.92	215.131
1410.14	239.59
1414.35	191
1418.56	193.162
1422.77	142.626
1426.98	300.517
1431.18	195.505
1435.38	4.47096
1439.58	10.8604
1443.78	253.41
1447.97	391.55
1452.16	141.332
1456.35	29.5191
1460.54	358.464
1464.72	128.747
1468.9	245.771
1473.08	118.393
1477.26	38.0492
1481.43	351.405
