Measurement: Raman, 514 nm, ccw, Raman Data Processed
Mineral: Marialite
Rruff sample: R060526
Ideal chemistry: Na_4_Al_3_Si_9_O_24_Cl
Locality: Minas Gerais, Brazil
Source: Michael Scott
Description: Heavily striated pale yellow elongated prism
Measured chemistry: (Na_0.62_Ca_0.33_K_0.05_)_4_(Si_0.66_Al_0.34_)_12_O_24_(Cl_0.77_(CO_3_)_0.23_)
Pin_id: L01174
Orientation: Laser parallel to a* (1 0 0). Fiducial mark perpendicular to laser is parallel to c [0 0 1]
Raman shift (cm-1)	intensity
122.83	0
126.533	260.664
130.234	592.477
133.933	595.825
137.631	494.664
141.328	293.875
145.023	155.306
148.716	10.96
152.408	212.503
156.098	395.076
159.787	777.019
163.475	1014.59
167.16	925.012
170.845	576.729
174.528	190.711
178.209	63.9172
181.888	53.4468
185.567	102.523
189.243	256.239
192.918	381.073
196.592	388.808
200.264	364.912
203.935	283.215
207.604	258.925
211.271	206.125
214.937	395.859
218.602	578.19
222.265	812.327
225.926	819.017
229.586	610.212
233.245	417.481
236.902	292.365
240.557	155.708
244.211	167.053
247.863	212.336
251.514	569.438
255.164	1183.14
258.812	2001.84
262.458	2767.06
266.103	2970.38
269.746	2043.74
273.388	1024.3
277.028	443.144
280.667	250.106
284.304	168.68
287.94	326.555
291.574	660.565
295.207	953.591
298.838	1588.47
302.468	1071.13
306.096	260.557
309.723	12.7158
313.348	85.5488
316.972	144.452
320.594	128.259
324.215	69.1038
327.834	20.1775
331.451	13.2876
335.068	179.179
338.682	130.613
342.295	195.64
345.907	266.231
349.517	385.456
353.126	611.243
356.733	947.172
360.339	1208.95
363.943	1134.59
367.546	732.236
371.147	529.31
374.746	539.014
378.345	676.539
381.941	720.268
385.537	705.491
389.13	572.401
392.722	321.043
396.313	249.393
399.902	244.403
403.49	238.048
407.076	189.296
410.661	387.101
414.244	760.539
417.826	1062.63
421.406	1473.89
424.985	1101.39
428.562	607.22
432.138	505.747
435.712	732.082
439.285	1045.71
442.856	1345.58
446.426	1894.98
449.994	3185.22
453.561	4984.64
457.126	6382.51
460.69	6349.11
464.253	5314.51
467.813	3819.2
471.373	2556.48
474.931	1704.58
478.487	1123.96
482.042	802.568
485.596	458.511
489.148	251.727
492.698	141.792
496.247	105.928
499.795	87.7781
503.341	152.595
506.885	74.3149
510.428	125.763
513.97	17.6914
517.51	85.3235
521.049	250.609
524.586	726.645
528.121	1526.22
531.656	2803.33
535.188	4631.44
538.719	5478.65
542.249	3763.75
545.778	2127.59
549.304	1087.76
552.83	635.492
556.354	323.864
559.876	262.707
563.397	185.126
566.916	100.112
570.434	89.2244
573.951	97.8782
577.466	56.0947
580.979	121.899
584.491	115.255
588.002	51.4297
591.511	61.2563
595.019	76.2549
598.525	71.2051
602.03	53.165
605.533	68.8218
609.035	61.2163
612.535	11.8438
616.034	52.8447
619.531	15.2007
623.027	55.0727
626.522	21.4751
630.014	48.2637
633.506	0.720215
636.996	9.20312
640.485	53.8774
643.972	12.7183
647.457	73.7505
650.942	20.3623
654.424	98.3198
657.906	90.0859
661.385	73.0523
664.864	130.132
668.341	177.62
671.816	82.979
675.29	34.48
678.763	10.5151
682.234	111.46
685.703	12.0015
689.171	46.627
692.638	108.7
696.103	184.305
699.567	278.227
703.029	247.06
706.49	262.897
709.949	322.998
713.407	375.245
716.864	316.822
720.319	316.463
723.772	243.549
727.225	258.568
730.675	341.812
734.124	222.857
737.572	184.441
741.019	244.878
744.463	333.948
747.907	437.066
751.349	520.935
754.789	747.473
758.228	965.241
761.666	1394.18
765.102	2106.25
768.537	2809.59
771.97	3449.09
775.402	3323.58
778.832	2524.04
782.261	1609.91
785.689	861.835
789.115	534.939
792.539	353.168
795.963	299.678
799.384	308.445
802.804	193.801
806.223	269.453
809.641	343.345
813.057	230.247
816.471	164.751
819.884	166.232
823.296	56.873
826.706	109.867
830.115	10.9766
833.522	97.6494
836.928	109.688
840.332	9.38721
843.735	74.4556
847.137	165.848
850.537	60.0815
853.936	105.941
857.333	103.864
860.729	153.898
864.123	111.202
867.516	85.4736
870.907	0.866211
874.297	5.96777
877.686	101.074
881.073	63.5332
884.459	121.939
887.843	119.122
891.226	130.463
894.608	70.1299
897.988	27.7783
901.366	44.044
904.743	12.5918
908.119	170.193
911.493	35.9512
914.866	89.7715
918.238	168.648
921.608	140.516
924.976	82.3731
928.344	84.416
931.709	112.445
935.074	75.9463
938.436	139.546
941.798	104.324
945.158	91.9795
948.517	121.574
951.874	101.529
955.23	75.6631
958.584	301.56
961.937	63.8565
965.288	177.855
968.638	168.801
971.987	20.8955
975.334	15.2783
978.68	63.0918
982.025	171.084
985.368	136.311
988.709	294.103
992.049	437.267
995.388	500.477
998.725	620.663
1002.06	427.165
1005.4	372.211
1008.73	339.563
1012.06	211.275
1015.39	468.079
1018.72	345.261
1022.05	290.069
1025.37	497.251
1028.7	536.391
1032.02	587.176
1035.34	384.174
1038.66	531.15
1041.98	629.215
1045.3	664.063
1048.62	509.833
1051.93	555.433
1055.24	691.587
1058.56	773.394
1061.87	862.189
1065.17	1136.73
1068.48	1132.84
1071.79	1440.88
1075.09	1648.82
1078.4	1788.71
1081.7	1784.95
1085	2018.5
1088.3	2079.86
1091.6	2314.69
1094.89	2232.36
1098.19	2381.95
1101.48	2298.45
1104.77	1936.4
1108.06	1608.46
1111.35	1888.82
1114.64	2071.02
1117.93	1018.47
1121.21	520.214
1124.5	493.094
1127.78	543.673
1131.06	535.746
1134.34	195.555
1137.62	324.481
1140.89	250.514
1144.17	179.846
1147.44	3.57422
1150.72	48.4414
1153.99	137.273
1157.26	142.67
1160.53	76.8164
1163.79	111.709
1167.06	195.232
1170.32	230.15
1173.59	11.5781
1176.85	127.959
1180.11	56.207
1183.37	24.8711
1186.62	60.1719
1189.88	221.859
1193.13	214.865
1196.39	137.873
1199.64	167.982
1202.89	225.973
1206.14	69.084
1209.38	64.625
1212.63	81.6562
1215.88	57.873
1219.12	156.93
1222.36	189.84
1225.6	41.6074
1228.84	14.4941
1232.08	8.98438
1235.31	43.0352
1238.55	127.689
1241.78	49.1875
1245.02	69.875
1248.25	315.147
1251.47	65.0039
1254.7	34.0078
1257.93	318.924
1261.15	335.781
1264.38	375.875
1267.6	188.125
1270.82	150.935
1274.04	491.309
1277.26	408.287
1280.48	234.043
1283.69	127.338
1286.91	109.582
1290.12	192.574
1293.33	338.869
1296.54	173.147
1299.75	174.662
1302.96	301.684
1306.16	238.889
1309.37	233.781
1312.57	128.232
1315.78	97.8711
1318.97	102.641
1322.17	111.285
1325.37	45.5312
1328.57	101.336
1331.76	235.672
1334.96	213.477
1338.15	6.80664
1341.34	183.537
1344.53	221.85
1347.72	119.318
1350.9	82.1758
1354.09	238.678
1357.27	356.516
1360.46	210.748
1363.64	408.106
1366.82	470.834
1370	308.875
1373.17	190.102
1376.35	172.486
1379.52	200.193
1382.7	102.797
1385.87	226.416
1389.04	224.438
1392.21	21.2715
1395.38	345.518
1398.54	122.17
1401.71	59.5352
1404.87	100.285
1408.03	217.527
1411.19	194.834
1414.35	237.195
1417.51	143.953
1420.67	267.606
1423.82	353.508
1426.98	157.125
1430.13	66.6836
1433.28	295.82
1436.43	218.844
1439.58	162.363
1442.73	55.8125
1445.87	0
