Measurement: Raman, 514 nm, ccw, Raman Data Processed
Mineral: Marialite
Rruff sample: R040113
Ideal chemistry: Na_4_Al_3_Si_9_O_24_Cl
Locality: Gouverneur, New York, USA
Source: University of Arizona Mineral Museum
Description: Green prismatic crystal
Measured chemistry: (Na_0.50_Ca_0.43_K_0.07_)_4_(Si_0.64_Al_0.36_)_12_O_24_(Cl_0.60_(CO_3_)_0.40_)
Pin_id: L01738
Orientation: Laser parallel to -a* (-1 0 0). Fiducial mark perpendicular to laser is parallel to c [0 0 1]
Raman shift (cm-1)	intensity
88.429	0
93.389	29.0547
98.346	86.8516
103.3	1579.48
108.251	3429.93
113.2	4632.78
118.145	4348.63
123.088	4099.92
128.028	4399.07
132.965	4332.29
137.9	4589.1
142.832	5823.38
147.761	8145.75
152.687	12397.7
157.61	17286.2
162.531	20099
167.448	17593.2
172.363	12990.6
177.276	9296.79
182.185	8059.47
187.092	8084.85
191.996	8766.12
196.897	7994.3
201.795	7070.93
206.691	6286.8
211.584	5555.57
216.474	5369.5
221.361	5171.31
226.245	5026.02
231.127	4004.52
236.006	3193.91
240.882	2142.2
245.756	1855.24
250.626	1846.58
255.494	4025.99
260.36	6315.12
265.222	6511.16
270.082	4630.73
274.939	2532.26
279.793	2062.64
284.644	2807.91
289.493	3768.78
294.339	4122.85
299.182	3031.26
304.022	622.891
308.86	571.356
313.695	552.867
318.527	594.363
323.357	382.75
328.183	547.106
333.007	1941.09
337.829	2381.3
342.647	1773.22
347.463	917.465
352.276	1281.04
357.086	2847.05
361.894	3553.33
366.699	2655.35
371.501	1196.34
376.3	804.644
381.097	1220.52
385.891	1221.48
390.682	679.231
395.47	419.254
400.256	310.922
405.039	171.773
409.82	763.789
414.597	1044.09
419.372	1612.78
424.144	2345.47
428.914	2899.67
433.681	3603.71
438.445	6390.66
443.206	11496.7
447.965	21453.5
452.721	36263.4
457.474	43521.1
462.225	40563.2
466.972	28286.1
471.718	15690
476.46	8708.76
481.2	4829.22
485.937	2881.93
490.671	1932.58
495.403	1229.53
500.132	952.727
504.858	571.891
509.582	740.492
514.303	792.656
519.021	943.844
523.736	2731.19
528.449	6191.43
533.159	11534.2
537.867	13310.8
542.572	7840.85
547.274	3593.25
551.973	1889.62
556.67	705.508
561.364	776.535
566.055	23.4844
570.744	161.492
575.43	172.606
580.114	10.3594
584.794	126.488
589.472	40.6719
594.148	18.3281
598.82	273.195
603.49	693.789
608.158	858.684
612.823	642.988
617.485	340.961
622.144	169.719
626.801	313.082
631.455	14.1562
636.106	10.5117
640.755	52.9531
645.401	65.1641
650.045	35.5234
654.685	279.609
659.323	307.992
663.959	325.836
668.592	525.352
673.222	710.586
677.85	1124.41
682.475	603.547
687.097	505.547
691.717	309.938
696.334	322.648
700.948	955.664
705.56	771.82
710.169	694.227
714.775	651.141
719.379	842.18
723.98	712.055
728.579	398.039
733.175	686.914
737.768	395.945
742.359	763.18
746.947	437.406
751.532	853.492
756.115	951.203
760.695	1720.76
765.273	2604.41
769.847	4177.1
774.42	3776.27
778.989	2819.94
783.557	1402.8
788.121	313.711
792.683	759.383
797.242	676.242
801.799	934.898
806.353	1380.09
810.904	1018.63
815.453	534.469
819.999	182.57
824.543	398.148
829.084	361.039
833.622	483.781
838.158	36.2734
842.691	117.594
847.221	331.445
851.749	64.6094
856.275	399.516
860.798	135.461
865.318	179.32
869.835	184.852
874.35	412.125
878.863	855.391
883.373	522.875
887.88	1232.06
892.384	1386.43
896.886	1315.73
901.386	1596.54
905.883	1648.56
910.377	1639.27
914.869	1415.68
919.358	1838.89
923.844	1680.34
928.328	1505.66
932.81	1207.94
937.289	1870.28
941.765	1702.79
946.239	2005.48
950.71	2125.66
955.178	1982.84
959.644	1911.06
964.108	2300.36
968.569	2229.92
973.027	1624.84
977.482	1847.04
981.936	1970.27
986.386	1720.77
990.834	1341.05
995.28	1194.7
999.723	977.211
1004.16	939.156
1008.6	618.781
1013.04	140.844
1017.47	672.727
1021.9	197.328
1026.33	438.766
1030.75	1492.12
1035.17	2084.58
1039.59	2881.24
1044.01	3366.18
1048.43	3693.5
1052.84	4190.14
1057.25	5158.05
1061.65	5139.27
1066.06	5511.77
1070.46	6463.7
1074.86	6186.14
1079.26	6644.02
1083.65	8124.53
1088.05	10171.4
1092.43	13562.4
1096.82	15889.5
1101.21	14767.4
1105.59	15640
1109.97	16885.1
1114.34	10115.4
1118.72	4012.59
1123.09	2498.73
1127.46	2421.96
1131.83	1945.02
1136.19	2580.7
1140.55	1865.99
1144.91	1620.59
1149.27	1304.47
1153.62	1080.88
1157.97	781.188
1162.32	1464.91
1166.67	1037.15
1171.01	921.336
1175.36	837.695
1179.69	994.516
1184.03	1060.18
1188.36	1238.44
1192.7	1484.62
1197.03	1384.41
1201.35	1362.09
1205.67	1094.03
1210	782.133
1214.32	965.93
1218.63	545.5
1222.95	490.578
1227.26	383.055
1231.57	26.8438
1235.87	212.242
1240.18	196.992
1244.48	265.156
1248.78	406.477
1253.07	278.68
1257.37	366.836
1261.66	161.336
1265.95	386.078
1270.24	759.102
1274.52	432.375
1278.8	265.688
1283.08	18.4766
1287.36	31.0781
1291.63	253.445
1295.9	133.141
1300.17	465.953
1304.44	67.2891
1308.7	195.32
1312.96	207.602
1317.22	310.312
1321.48	222.117
1325.74	15.5234
1329.99	175.523
1334.24	99.4141
1338.48	169.578
1342.73	389.586
1346.97	55.2188
1351.21	345.617
1355.45	245.766
1359.68	329.414
1363.91	242.094
1368.14	315.773
1372.37	477.789
1376.6	122.914
1380.82	461.633
1385.04	203.75
1389.26	115.273
1393.47	814.953
1397.68	240.477
1401.89	389.648
1406.1	549.766
1410.31	133.352
1414.51	534.586
1418.71	447.297
1422.91	488.617
1427.1	740.422
1431.3	347.492
1435.49	80.8516
1439.68	636.039
1443.86	239.375
1448.05	742.898
1452.23	281.102
1456.4	557.789
1460.58	295.484
1464.75	121.719
1468.92	525.609
1473.09	532.32
1477.26	58
1481.42	673.617
1485.59	83.0078
1489.74	114.438
1493.9	125.359
1498.06	52.1562
1502.21	874.438
1506.36	289.109
1510.5	303.25
1514.65	1094.94
1518.79	1223.06
1522.93	433.375
1527.07	208.297
1531.2	1101.66
1535.33	489.062
1539.46	830.75
1543.59	541.25
1547.72	796.641
1551.84	945.062
1555.96	447.719
1560.08	615.281
1564.19	230.031
1568.31	196.016
1572.42	451.625
1576.53	0
