Measurement: Raman, 514 nm, depolarized, Raman Data Processed
Mineral: Meionite
Rruff sample: R040169
Ideal chemistry: Ca_4_Al_6_Si_6_O_24_(CO_3_)
Locality: Black Hills, South Dakota, USA
Source: University of Arizona Mineral Museum
Description: White massive
Measured chemistry: (Ca_0.73_Na_0.24_K_0.03_)_4_(Si_0.58_Al_0.41_)_12_O_24_((CO_3_)_0.90_Cl_0.10_)
Pin_id: L00447
Orientation: Laser parallel to c* (0 0 1). Fiducial mark perpendicular to laser is parallel to -a [-1 0 0]
Raman shift (cm-1)	intensity
87.101	0
91.284	34.412
95.465	473.062
99.644	854.929
103.82	2182.95
107.995	4159.76
112.168	5742.93
116.339	4967.4
120.508	3440.5
124.675	2487.5
128.84	2289.06
133.003	2499.48
137.164	2675.64
141.323	3005.9
145.48	3857.66
149.635	5292.95
153.788	7649.9
157.939	10389.8
162.088	11653
166.235	10940.5
170.38	8973.1
174.523	6631.03
178.664	5176.11
182.803	4379.48
186.94	4361.68
191.076	4762.97
195.209	4963.47
199.34	4884.71
203.47	4949.66
207.597	5108.59
211.722	5077.88
215.846	4780.99
219.967	4608.69
224.087	4307.04
228.204	4405.34
232.32	4343.2
236.434	4010.25
240.545	3456.43
244.655	3292.91
248.763	3389.44
252.869	3972.44
256.973	4094.89
261.075	3868.31
265.175	2627.13
269.273	1339.52
273.369	534.289
277.463	710.706
281.556	1208.15
285.646	1556.15
289.734	1654.28
293.821	1872.28
297.905	1719.97
301.988	887.29
306.069	245.178
310.147	200.595
314.224	300.998
318.299	233.816
322.372	359.054
326.443	435.729
330.512	406.921
334.579	166.455
338.645	73.261
342.708	289.665
346.769	644.823
350.829	951.277
354.887	1620.42
358.942	2525.8
362.996	2919.77
367.048	2430.25
371.098	1956.43
375.146	1478.33
379.192	1357.82
383.236	1256.37
387.279	1204.23
391.319	1137.04
395.358	1118.67
399.394	987.404
403.429	977.345
407.462	1177.58
411.493	1547.53
415.522	2055.74
419.549	2813.75
423.575	3491.45
427.598	3493.2
431.619	3479.68
435.639	3793.42
439.657	5288.07
443.673	8628.87
447.687	16276.5
451.699	25480.9
455.709	26724.9
459.717	24280.8
463.724	21648.4
467.728	15791.8
471.731	10686.9
475.732	7161.44
479.731	5220.97
483.728	3779.1
487.723	2641.81
491.716	1824.24
495.708	1250.19
499.697	957.675
503.685	620.729
507.671	420.452
511.655	402.145
515.637	653.171
519.617	1120.51
523.596	2507.13
527.572	5654.93
531.547	9423.03
535.52	8020.7
539.491	4767.42
543.46	2331.97
547.427	1285.5
551.393	788.042
555.356	499.593
559.318	229.322
563.278	167.483
567.236	66.802
571.192	145.2
575.147	82.88
579.099	59.724
583.05	4.286
586.999	30.828
590.946	25.044
594.891	128.277
598.834	120.566
602.776	382.059
606.715	762.793
610.653	492.799
614.589	272.121
618.523	70.738
622.456	78.525
626.386	35.453
630.315	121.736
634.242	31.954
638.167	234.694
642.09	37.922
646.012	110.566
649.931	50.882
653.849	166.892
657.765	43.61
661.679	69.555
665.592	87.642
669.502	161.803
673.411	525.874
677.318	976.383
681.223	455.231
685.126	219.755
689.028	401.116
692.927	309.022
696.825	399.168
700.721	524.959
704.616	475.779
708.508	828.877
712.399	1150.4
716.288	1189.39
720.175	894.581
724.06	1067.65
727.944	1096.22
731.825	1100.29
735.705	1251.28
739.584	1513.04
743.46	2013.65
747.334	2374.52
751.207	2654.7
755.078	3416.32
758.947	4516.22
762.815	5564.78
766.68	5974.88
770.544	5678.57
774.406	3952.59
778.267	2172.51
782.125	1451.55
785.982	1169.45
789.837	714.649
793.69	511.681
797.542	495.197
801.391	468.351
805.239	358.645
809.085	204.372
812.93	66.494
816.772	82.862
820.613	11.532
824.452	13.464
828.29	7.852
832.125	12.638
835.959	7.048
839.791	225.401
843.621	115.451
847.45	53.924
851.277	122.311
855.102	101.372
858.925	118.919
862.746	146.209
866.566	7.557
870.384	107.597
874.2	131.759
878.015	65.225
881.828	66.604
885.639	327.447
889.448	257.326
893.256	66.221
897.061	134.082
900.865	0.938
904.668	43.09
908.468	41.863
912.267	75.812
916.064	28.793
919.86	150.801
923.653	21.744
927.445	101.725
931.236	100.857
935.024	329.219
938.811	336.85
942.596	293.684
946.379	309.35
950.161	414.148
953.94	567.479
957.719	448.42
961.495	726.953
965.27	743.434
969.043	929.336
972.814	1062.31
976.583	865.371
980.351	913.992
984.117	986.488
987.882	1144.67
991.644	1092.34
995.405	1016.33
999.165	1040.97
1002.92	898.844
1006.68	1292.63
1010.43	1505.77
1014.18	1744.95
1017.93	1801.39
1021.68	2179.7
1025.43	2017.82
1029.18	2709.66
1032.92	2986.38
1036.66	2872.58
1040.4	2868.88
1044.14	2731.47
1047.88	2981.69
1051.62	3001.83
1055.35	3172.2
1059.08	2963.65
1062.81	2816.02
1066.54	3829.37
1070.27	4212.85
1073.99	4169.54
1077.72	5862.11
1081.44	10250
1085.16	20728.3
1088.88	31504.5
1092.59	22589
1096.31	20071.6
1100.02	18703.2
1103.73	15984.2
1107.44	9638.96
1111.15	3956.03
1114.86	1612.68
1118.57	1029.17
1122.27	805.658
1125.97	732.48
1129.67	128.965
1133.37	44.85
1137.07	241.234
1140.76	437.324
1144.45	383.773
1148.15	80.264
1151.84	222.877
1155.53	274.416
1159.21	512.186
1162.9	360.42
1166.58	699.229
1170.26	868.143
1173.94	917.328
1177.62	817.123
1181.3	727.602
1184.97	828.486
1188.65	849.848
1192.32	1478.52
1195.99	1573.84
1199.66	1388.62
1203.33	1150.32
1206.99	616.094
1210.65	281.947
1214.32	227.695
1217.98	342.295
1221.64	435.059
1225.29	407.898
1228.95	637.584
1232.6	19.057
1236.26	442.146
1239.91	143.779
1243.56	99.762
1247.2	101.939
1250.85	0
