Measurement: Raman, 514 nm, depolarized, Raman Data Processed
Mineral: Meionite
Rruff sample: R040169
Ideal chemistry: Ca_4_Al_6_Si_6_O_24_(CO_3_)
Locality: Black Hills, South Dakota, USA
Source: University of Arizona Mineral Museum
Description: White massive
Measured chemistry: (Ca_0.73_Na_0.24_K_0.03_)_4_(Si_0.58_Al_0.41_)_12_O_24_((CO_3_)_0.90_Cl_0.10_)
Pin_id: L00216
Orientation: Laser parallel to a* (1 0 0). Fiducial mark perpendicular to laser is parallel to c [0 0 1]
Raman shift (cm-1)	intensity
105.212	0
109.387	228.418
113.559	1257.83
117.729	2003.65
121.897	1946.36
126.063	2274.6
130.228	2560.95
134.39	2232.19
138.55	2210.86
142.709	2052.52
146.865	2275.59
151.019	2391.71
155.171	2925.47
159.322	2949.27
163.47	2829.45
167.617	2214.35
171.761	1139.92
175.904	342.155
180.044	202.759
184.183	235.524
188.319	45.025
192.454	206.505
196.586	715.411
200.717	1010.87
204.846	860.303
208.972	617.631
213.097	779.916
217.22	1220.63
221.341	1401.56
225.46	1667.01
229.577	2116.34
233.692	2141.12
237.805	1895.09
241.916	2070.82
246.025	2610.21
250.132	3442.58
254.237	4295.29
258.34	4834.03
262.442	4149.19
266.541	2482.95
270.639	1075.99
274.734	407.854
278.828	363.681
282.919	590.108
287.009	495.792
291.097	1210.03
295.183	1802.17
299.266	1292.37
303.348	590.689
307.428	196.773
311.507	27.044
315.583	105.77
319.657	170.839
323.729	188.4
327.8	68.743
331.868	142.077
335.935	12.005
339.999	214.521
344.062	586.065
348.123	730.074
352.182	1108.96
356.239	1894.52
360.294	2276.92
364.347	2107.65
368.398	1726.9
372.448	1493.93
376.495	1367.13
380.54	1245.95
384.584	1310.82
388.626	1433.19
392.666	1484.09
396.704	1354.71
400.74	1316.3
404.774	1417.4
408.806	1706.9
412.836	1995.99
416.865	2504.13
420.891	3271.51
424.916	3558
428.939	3183.44
432.959	2789.19
436.978	2817.66
440.996	3809.44
445.011	6040.65
449.024	11210.1
453.036	16265.6
457.045	14904.1
461.053	13034.5
465.059	10633.9
469.063	7638.49
473.065	5318.36
477.065	4056.46
481.063	2889.01
485.06	2151.25
489.054	1649.13
493.047	1308.13
497.038	983.817
501.027	724.05
505.014	499.901
508.999	705.357
512.982	593.104
516.964	942.271
520.944	1746.8
524.921	3821.51
528.897	7887.65
532.871	9322.52
536.844	5903.67
540.814	3211.64
544.783	2039.57
548.749	1288.04
552.714	625.252
556.677	460.331
560.638	594.421
564.597	657.916
568.555	381.896
572.511	395.614
576.464	408.58
580.416	540.829
584.366	562.354
588.315	263.157
592.261	173.149
596.206	272.329
600.148	300.859
604.089	308.7
608.028	205.829
611.965	182.215
615.901	237.774
619.834	162.464
623.766	16.296
627.696	20.536
631.624	2.236
635.551	145.159
639.475	139.01
643.398	32.562
647.318	102.533
651.237	66.299
655.155	171.352
659.07	46.422
662.984	102.035
666.895	50.383
670.805	35.98
674.713	467.006
678.62	635.779
682.524	179.486
686.427	160.455
690.328	383.393
694.227	315.221
698.124	356.619
702.02	418.613
705.913	426.939
709.805	473.467
713.695	639.656
717.584	795.488
721.47	858.678
725.355	945.477
729.238	1079.22
733.119	1430.52
736.998	1747.74
740.876	2142.98
744.752	2250.36
748.626	2886.09
752.498	3876
756.368	4882.13
760.237	5396.1
764.104	5438.96
767.969	4321.06
771.832	3074.87
775.693	2288.62
779.553	1435.54
783.411	870.705
787.267	514.672
791.122	565.625
794.974	627.279
798.825	520.051
802.674	176.709
806.522	84.395
810.367	140.332
814.211	377.875
818.053	418.559
821.893	91.559
825.732	36.912
829.568	24.393
833.403	113.066
837.236	148.049
841.068	261.109
844.898	14.617
848.726	36.721
852.552	20.955
856.376	81.125
860.199	221.932
864.02	193.518
867.839	4.461
871.656	24.074
875.472	256.58
879.286	51.525
883.098	78.699
886.909	304.85
890.717	50.008
894.524	115.906
898.33	147.121
902.133	349.359
905.935	250.748
909.735	111.357
913.533	141.193
917.33	120.299
921.124	18.715
924.918	386.465
928.709	153.641
932.499	251.936
936.286	426.232
940.073	131.537
943.857	396.373
947.64	599.668
951.421	712.861
955.2	712.986
958.978	512.459
962.753	300.359
966.527	529.053
970.3	647.529
974.071	853.26
977.84	844.045
981.607	842.889
985.372	944.646
989.136	689.379
992.898	796.104
996.659	1287.53
1000.42	1543.12
1004.17	1632.29
1007.93	1146
1011.68	1490.18
1015.43	1745.57
1019.18	2406.4
1022.93	2677.17
1026.68	2653.25
1030.42	2469.73
1034.17	2626.16
1037.91	2343.8
1041.65	2746.09
1045.39	3119.2
1049.12	2873.06
1052.86	2913.03
1056.59	2221.03
1060.33	2626.84
1064.06	2320.69
1067.78	2688.03
1071.51	3497.93
1075.23	3507.98
1078.96	4008.88
1082.68	5469.01
1086.4	7629.52
1090.12	9759.97
1093.83	10050.2
1097.55	9580.16
1101.26	9819.59
1104.97	7078.57
1108.68	2847.1
1112.39	1005.5
1116.1	414.598
1119.8	474.664
1123.5	866.055
1127.2	638.414
1130.9	671.539
1134.6	615.336
1138.3	130.469
1141.99	254.168
1145.69	9.344
1149.38	84.73
1153.07	562.285
1156.76	850.75
1160.44	710.777
1164.13	868.238
1167.81	427.883
1171.49	1.328
1175.17	39.695
1178.85	783.867
1182.52	751.707
1186.2	860.066
1189.87	642.254
1193.54	414.609
