Measurement: Raman, 514 nm, depolarized, Raman Data Processed
Mineral: Mesolite
Rruff sample: R050013
Ideal chemistry: Na_2_Ca_2_(Si_9_Al_6_)O_30_8H_2_O
Locality: Poona, Maharashtra, India
Source: University of Arizona Mineral Museum
Description: Clear to white elongated prismatic single crystal
Measured chemistry: Na_2.00_Ca_2.00_(Si_9.00_Al_6.00_)O_30_Â·8H_2_O
Pin_id: M00325
Orientation: Laser parallel to -c* (0 0 -1). Fiducial mark perpendicular to laser is parallel to a [1 0 0]
Raman shift (cm-1)	intensity
120.589	0
124.77	79.844
128.949	876.227
133.126	2197.51
137.301	2006.88
141.473	4569.28
145.644	6096.08
149.812	6703.93
153.979	8329.01
158.143	7345.02
162.305	7257.57
166.465	8082.61
170.623	6785.38
174.778	4632.8
178.932	3290.77
183.083	3179.95
187.233	2095.86
191.38	856.223
195.525	885.232
199.669	769.327
203.81	441.682
207.949	562.484
212.085	1080.79
216.22	1065.78
220.353	1896.58
224.483	3688.68
228.612	3441.4
232.738	1719.94
236.863	1582.2
240.985	2055.07
245.105	1187.14
249.223	309.255
253.339	459.864
257.453	695.327
261.565	121.97
265.675	232.754
269.783	404.325
273.888	411.37
277.992	297.695
282.093	14.143
286.193	434.225
290.29	1580.16
294.386	2138.02
298.479	1633.76
302.57	1290.1
306.659	805.332
310.746	494.967
314.831	293.628
318.914	97.174
322.995	17.55
327.074	11.776
331.151	149.016
335.226	197.444
339.299	221.177
343.37	486.287
347.438	865.86
351.505	1119.96
355.57	749.614
359.632	610.065
363.693	591.878
367.751	574.703
371.808	366.576
375.862	88.522
379.914	76.472
383.965	87.384
388.013	122.256
392.06	149.228
396.104	274.48
400.146	511.724
404.186	1039.95
408.225	2136.16
412.261	3281.34
416.295	3749.37
420.327	4191.28
424.357	4093.93
428.386	3498.7
432.412	3943.59
436.436	5616.48
440.458	8148.98
444.478	9435.49
448.496	9288.6
452.513	8311.83
456.527	5924.06
460.539	3494.22
464.549	2165.45
468.557	1542.24
472.563	1338.32
476.567	1185.13
480.57	1199.93
484.57	1340.48
488.568	1692.63
492.564	1964.87
496.558	2194.92
500.551	2291.11
504.541	2587.07
508.529	3135.1
512.515	4317.19
516.5	6373.27
520.482	10654.4
524.462	19067.5
528.441	31290.7
532.417	31614
536.391	19845.7
540.364	10484.6
544.334	5999.03
548.303	3615.1
552.269	2300.96
556.234	1642.41
560.197	1239.18
564.157	893.019
568.116	644.917
572.073	470.875
576.027	417.891
579.98	303.965
583.931	291.102
587.88	258.553
591.827	172.907
595.772	181.411
599.715	192.983
603.656	174.178
607.595	129.492
611.532	160.842
615.468	42.226
619.401	16.642
623.332	3.069
627.262	101.383
631.189	22.524
635.115	5.694
639.039	22.928
642.96	8.748
646.88	0.428
650.798	130.227
654.714	267.954
658.628	362.544
662.54	541.271
666.45	845.43
670.358	1237.65
674.264	1227.12
678.169	640.095
682.071	378.559
685.972	245.961
689.87	309.815
693.767	408.345
697.662	580.229
701.555	753.132
705.446	1105.25
709.335	2041.35
713.222	2308.85
717.107	1709.2
720.99	1035.41
724.872	636.548
728.751	466.604
732.629	370.248
736.504	325.056
740.378	399.285
744.25	460.207
748.12	549.323
751.988	746.229
755.854	847.15
759.719	759.832
763.581	677.349
767.442	447.699
771.3	424.881
775.157	245.891
779.012	160.55
782.865	39.545
786.716	8.249
790.565	35.363
794.413	19.733
798.258	26.847
802.102	70.778
805.943	1.377
809.783	46.463
813.621	24.098
817.457	43.193
821.292	2.776
825.124	0.725
828.954	15.015
832.783	18.484
836.61	54.704
840.435	58.696
844.258	72.465
848.079	59.013
851.898	73.331
855.715	32.449
859.531	35.261
863.345	89.074
867.157	84.592
870.967	87.922
874.775	56.071
878.581	62.042
882.386	118.838
886.188	99.463
889.989	59.917
893.788	66.196
897.585	105.309
901.38	141.263
905.174	159.064
908.965	197.712
912.755	158.211
916.543	235.564
920.329	235.772
924.113	361.84
927.895	504.771
931.676	732.592
935.454	1151.88
939.231	1282.92
943.006	910.247
946.78	963.218
950.551	987.667
954.32	717.298
958.088	620.159
961.854	805.211
965.618	1345.58
969.38	1932.13
973.141	1859.93
976.9	1369.18
980.656	967.835
984.411	1090.22
988.165	1317.45
991.916	1533.15
995.665	1882.43
999.413	2408.91
1003.16	1793.17
1006.9	1097.16
1010.65	879.318
1014.39	964.518
1018.12	1124.07
1021.86	1568.74
1025.6	2483.45
1029.33	3686.67
1033.06	4770.62
1036.79	4581.75
1040.52	3642.53
1044.25	2968.53
1047.97	2278.89
1051.69	1858.36
1055.41	1864.88
1059.13	2108.43
1062.85	2231.02
1066.57	2142.65
1070.28	2241.31
1073.99	2317.06
1077.7	2426.8
1081.41	2424.48
1085.12	2148.51
1088.82	1640.38
1092.52	1245.41
1096.22	1033.54
1099.92	962.651
1103.62	1028.28
1107.32	932.092
1111.01	772.272
1114.7	552.515
1118.39	486.003
1122.08	420.873
1125.77	377.148
1129.45	355.907
1133.14	254.909
1136.82	218.688
1140.5	83.852
1144.18	73.41
1147.85	57.108
1151.53	71.981
1155.2	80.384
1158.87	25.198
1162.54	14.875
1166.21	5.284
1169.88	5.631
1173.54	8.52
1177.2	3.445
1180.86	25.443
1184.52	50.882
1188.18	0.938
1191.83	38.354
1195.49	33.413
1199.14	7.254
1202.79	1.696
1206.44	28.238
1210.08	2.619
1213.73	27.922
1217.37	47.167
1221.01	11.462
1224.65	25.907
1228.29	5.393
1231.93	106.236
1235.56	13.203
1239.19	34.202
1242.83	61.073
1246.46	9.079
1250.08	39.677
1253.71	22.216
1257.33	37.236
1260.96	42.267
1264.58	0.028
1268.19	57.501
1271.81	38.945
1275.43	57.357
1279.04	61.651
1282.65	22.7
1286.27	13.567
1289.87	0.936
1293.48	19.787
1297.09	7.651
1300.69	23.409
1304.29	56.116
1307.89	15.809
1311.49	19.34
1315.09	49.742
1318.68	23.902
1322.28	67.563
1325.87	18.504
1329.46	26.737
1333.05	14.823
1336.63	52.22
1340.22	0.532
1343.8	63.552
1347.38	7.576
1350.96	51.401
1354.54	3.091
1358.12	43.668
1361.69	43.14
1365.26	22.45
1368.83	57.808
1372.4	42.843
1375.97	82.43
1379.54	71.051
1383.1	83.319
1386.66	95.546
1390.23	26.177
1393.79	75.51
1397.34	42.254
1400.9	57.359
1404.45	78.074
1408.01	122.393
1411.56	158.238
1415.11	125.835
1418.66	79.558
1422.2	83.234
1425.75	29.274
1429.29	85.161
1432.83	63.792
1436.37	51.804
1439.91	36.788
1443.44	90.961
1446.98	77.121
1450.51	113.514
1454.04	122.521
1457.57	139.682
1461.1	173.56
1464.63	132.237
1468.15	90.481
1471.67	85.694
1475.19	51.949
1478.71	87.95
1482.23	83.802
1485.75	111.757
1489.26	52.558
1492.78	105.486
1496.29	78.688
1499.8	119.689
1503.31	41.147
1506.81	60.379
1510.32	80.159
1513.82	18.277
1517.32	40.394
