Measurement: Raman, 514 nm, depolarized, Raman Data Processed
Mineral: Mesolite
Rruff sample: R040139
Ideal chemistry: Na_2_Ca_2_(Si_9_Al_6_)O_30_8H_2_O
Locality: Lake Superior beach,  41 miles north of Tofte, Minnesota, USA
Source: University of Arizona Mineral Museum
Description: Aggregate of white radiating thin acicular crystals.
Measured chemistry: Na_1.95_Ca_1.89_(Si_9.21_Al_5.82_)O_30_Â·8H_2_O
Pin_id: L00494
Raman shift (cm-1)	intensity
71.747	0
75.937	118.312
80.125	757.536
84.311	423.651
88.496	455.876
92.678	1592.08
96.858	2467.52
101.036	3174.11
105.212	4123.39
109.387	3785.77
113.559	3382.41
117.729	3933.91
121.897	2481.57
126.063	2503.04
130.228	3746.58
134.39	4138.72
138.55	2868.13
142.709	2745.46
146.865	4334.57
151.019	4134.53
155.171	4739.22
159.322	5312.07
163.47	4532.87
167.617	4351.6
171.761	4829.88
175.904	4131.91
180.044	3245.9
184.183	2721.78
188.319	2427.95
192.454	1596.96
196.586	1108.86
200.717	1012.29
204.846	614.206
208.972	165.417
213.097	68.967
217.22	32.938
221.341	62.581
225.46	302.4
229.577	825.948
233.692	447.551
237.805	324.453
241.916	421.691
246.025	501.05
250.132	12.67
254.237	227.68
258.34	69.986
262.442	169.462
266.541	229.549
270.639	211.654
274.734	101.878
278.828	49.907
282.919	225.959
287.009	385.268
291.097	1043.63
295.183	1916.08
299.266	1579.69
303.348	1102.54
307.428	677.638
311.507	342.721
315.583	199.784
319.657	223.284
323.729	264.278
327.8	293.373
331.868	321.465
335.935	352.1
339.999	302.543
344.062	321.303
348.123	437.77
352.182	663.96
356.239	745.875
360.294	498.451
364.347	539.681
368.398	561.583
372.448	628.05
376.495	455.268
380.54	293.96
384.584	184.677
388.626	166.764
392.666	220.931
396.704	218.726
400.74	271.149
404.774	517.259
408.806	962.015
412.836	1615.74
416.865	2047.37
420.891	2343.46
424.916	2773.7
428.939	2552.06
432.959	2151.94
436.978	2328.19
440.996	3110.9
445.011	4131.23
449.024	4121.79
453.036	3173.57
457.045	2200.97
461.053	1404.19
465.059	886.563
469.063	574.274
473.065	517.808
477.065	584.594
481.063	620.3
485.06	661.451
489.054	975.562
493.047	1292.85
497.038	1430.03
501.027	1293.16
505.014	1403.48
508.999	1698.74
512.982	2245.36
516.964	3182.04
520.944	4981.16
524.921	8533.2
528.897	15933.1
532.871	24423
536.844	21252.9
540.814	12211
544.783	6388.34
548.749	3804.73
552.714	2473.84
556.677	1720.3
560.638	1342.29
564.597	1099.18
568.555	791.678
572.511	601.113
576.464	343.821
580.416	336.977
584.366	339.459
588.315	254.494
592.261	163.212
596.206	108.528
600.148	100.136
604.089	72.801
608.028	106.424
611.965	104.334
615.901	20.493
619.834	14.932
623.766	45.287
627.696	0.686
631.624	32.343
635.551	12.162
639.475	23.61
643.398	96.203
647.318	92.532
651.237	5.437
655.155	43.57
659.07	124.653
662.984	222.838
666.895	408.567
670.805	446.717
674.713	413.242
678.62	308.429
682.524	296.913
686.427	378.101
690.328	378.64
694.227	376.92
698.124	460.431
702.02	553.718
705.913	660.488
709.805	1315.53
713.695	1870.96
717.584	1787.55
721.47	1149
725.355	709.654
729.238	468.821
733.119	439.517
736.998	316.188
740.876	334.98
744.752	426.462
748.626	539.621
752.498	711.623
756.368	892.461
760.237	827.132
764.104	619.697
767.969	658.054
771.832	327.103
775.693	230.969
779.553	168.387
783.411	54.694
787.267	12.552
791.122	0.147
794.974	17.52
798.825	3.126
802.674	9.574
806.522	26.345
810.367	47.187
814.211	11.989
818.053	12.122
821.893	22.045
825.732	59.636
829.568	34.333
833.403	3.042
837.236	30.529
841.068	10.189
844.898	77.837
848.726	75.68
852.552	15.333
856.376	114.765
860.199	83.021
864.02	106.116
867.839	99.059
871.656	10.145
875.472	40.474
879.286	48.941
883.098	116.264
886.909	103.456
890.717	30.519
894.524	39.578
898.33	210.237
902.133	144.935
905.935	170.503
909.735	154.35
913.533	53.298
917.33	41.538
921.124	147.674
924.918	223.708
928.709	325.654
932.499	444.514
936.286	679.804
940.073	1007.95
943.857	773.909
947.64	489.067
951.421	424.728
955.2	374.904
958.978	369.092
962.753	423.631
966.527	561.638
970.3	906.614
974.071	1148.62
977.84	1400.75
981.607	1235.27
985.372	894.979
989.136	868.371
992.898	915.157
996.659	1172.81
1000.42	1202.07
1004.17	1006.33
1007.93	988.394
1011.68	797.515
1015.43	806.573
1019.18	843.118
1022.93	920.393
1026.68	1223.9
1030.42	1585.2
1034.17	1943.04
1037.91	2119.12
1041.65	2639.91
1045.39	3673.8
1049.12	3295.04
1052.86	2019.32
1056.59	1412.6
1060.33	987.908
1064.06	901.185
1067.78	869.247
1071.51	966.661
1075.23	1098.13
1078.96	1139.63
1082.68	1155.18
1086.4	1056.92
1090.12	915.557
1093.83	869.383
1097.55	775.42
1101.26	743.104
1104.97	649.194
1108.68	601.353
1112.39	559.948
1116.1	427.737
1119.8	443.14
1123.5	327.094
1127.2	274.717
1130.9	245.171
1134.6	182.337
1138.3	135.548
1141.99	80.868
1145.69	74.746
1149.38	78.764
1153.07	18.51
1156.76	14.316
1160.44	19.923
1164.13	30.929
1167.81	3.73
1171.49	13.5
1175.17	64.381
1178.85	72.443
1182.52	25.386
1186.2	99.068
1189.87	62.082
1193.54	40.365
1197.21	56.742
1200.88	20.62
1204.55	21.459
1208.21	59.625
1211.88	23.254
1215.54	148.945
1219.2	134.789
1222.86	137.218
1226.51	51.608
1230.17	104.733
1233.82	54.089
1237.47	96.2
1241.12	153.875
1244.77	89.45
1248.42	14.883
1252.06	114.201
1255.71	20.675
1259.35	32.958
1262.99	105.24
1266.63	58.537
1270.26	41.822
1273.9	27.876
1277.53	14.47
1281.16	3.211
1284.8	2.123
1288.42	26.124
1292.05	60.792
1295.68	23.542
1299.3	1.997
1302.92	49.738
1306.55	32.276
1310.16	121.88
1313.78	4.702
1317.4	1.598
1321.01	12.397
1324.62	29.255
1328.24	30.16
1331.85	32.198
1335.45	12.63
1339.06	86.439
1342.66	123.104
1346.27	96.694
1349.87	117.164
1353.47	118.482
1357.07	79.949
1360.66	5.934
1364.26	75.655
1367.85	9.532
1371.44	10.279
1375.04	65.825
1378.62	147.808
1382.21	139.16
1385.8	139.94
1389.38	113.208
1392.96	147.479
1396.54	66.555
1400.12	92.945
1403.7	129.801
1407.28	53.965
1410.85	158.641
1414.42	157.319
1417.99	187.514
1421.56	108.96
1425.13	137.268
1428.7	72.485
1432.26	214.605
1435.83	73.217
1439.39	75.767
1442.95	187.64
1446.51	191.662
1450.06	79.516
1453.62	103.507
1457.17	122.8
1460.73	130.244
1464.28	170.993
1467.83	150.369
1471.37	208.48
1474.92	107.581
1478.46	140.1
1482.01	108.91
1485.55	99.718
1489.09	74.053
1492.63	185.347
1496.16	98.701
1499.7	130.1
1503.23	148.457
1506.76	163.015
1510.29	78.39
1513.82	44.736
1517.35	0.542
