Measurement: Raman, 514 nm, depolarized, Raman Data Processed
Mineral: Mesolite
Rruff sample: R050013
Ideal chemistry: Na_2_Ca_2_(Si_9_Al_6_)O_30_8H_2_O
Locality: Poona, Maharashtra, India
Source: University of Arizona Mineral Museum
Description: Clear to white elongated prismatic single crystal
Measured chemistry: Na_2.00_Ca_2.00_(Si_9.00_Al_6.00_)O_30_Â·8H_2_O
Pin_id: M00156
Orientation: Laser parallel to -a* (-1 0 0). Fiducial mark perpendicular to laser is parallel to b [0 1 0]
Raman shift (cm-1)	intensity
113.208	0
118.134	72.7891
123.058	331.779
127.979	2032.74
132.898	2470.27
137.814	4734.51
142.728	7752.79
147.639	7670.46
152.549	8955.38
157.455	7710.75
162.359	7753.62
167.261	7163.24
172.161	5793.91
177.058	4259.36
181.952	3389.28
186.845	2501.82
191.734	2107.8
196.622	1395.91
201.507	659.654
206.389	389.4
211.269	422.15
216.147	52.0332
221.022	142.856
225.895	117.389
230.765	126.902
235.633	23.9805
240.498	313.59
245.361	63.7578
250.222	196.098
255.08	334.957
259.936	402.022
264.789	658.588
269.64	300.545
274.488	339.346
279.334	758.42
284.178	1529.22
289.019	2544.46
293.857	1959.71
298.693	1146.86
303.527	340.953
308.358	43.9883
313.187	24.4629
318.013	78.5098
322.837	127.188
327.659	40.4336
332.478	180.264
337.294	333.109
342.108	499.055
346.92	1045.17
351.729	616.488
356.535	525.906
361.34	272.135
366.141	11.4043
370.94	18.2832
375.737	247.184
380.531	272.568
385.323	161.799
390.113	144.17
394.9	514.449
399.684	577.1
404.466	1362.4
409.245	2054.97
414.022	2738.13
418.797	3582.93
423.569	3475.22
428.338	3157.82
433.105	3858.72
437.87	5051.95
442.632	4875.51
447.391	3887.34
452.149	2542.55
456.903	1603.18
461.655	1210.98
466.405	987.771
471.152	1138.8
475.897	1434.07
480.639	2026.14
485.378	3069.76
490.116	3595.08
494.85	3523.83
499.582	3114.87
504.312	3640.99
509.039	4760.4
513.764	7173.19
518.486	13892
523.206	27132.3
527.923	38153.8
532.638	28674.4
537.35	14594
542.059	7001.15
546.766	3857.58
551.471	2693.09
556.173	1752.53
560.873	1377.27
565.57	1036.76
570.264	930.008
574.957	641.016
579.646	417.072
584.333	491.336
589.018	250.309
593.7	301.635
598.379	346.404
603.056	292.574
607.73	357.848
612.402	492.086
617.072	1014.29
621.739	1636.37
626.403	2136.35
631.065	1208.33
635.724	805.045
640.381	1053.4
645.035	1655.83
649.687	1559.97
654.336	1340.73
658.983	677.943
663.627	14.6562
668.268	299.654
672.907	80.2481
677.544	137.336
682.178	21.6191
686.809	57.6504
691.438	27.9609
696.065	417.971
700.688	395.449
705.31	1368.53
709.929	2216.2
714.545	1533.47
719.158	782.342
723.77	173.809
728.378	372.861
732.984	161.486
737.588	411.672
742.189	342.398
746.787	756.668
751.383	769.535
755.976	653.016
760.567	510.109
765.155	132.822
769.741	76.1445
774.324	30.7539
778.904	128.656
783.482	69.7559
788.058	168.076
792.631	122.695
797.201	103.496
801.769	11.8691
806.334	213.764
810.897	31.584
815.457	141.232
820.014	13.0859
824.569	257.1
829.122	288.685
833.671	374.768
838.219	661.393
842.763	576.812
847.306	863.037
851.845	941.08
856.382	1778.95
860.917	1865.43
865.448	1446.57
869.978	658.607
874.505	573.848
879.029	541.736
883.55	511.543
888.069	342.682
892.586	506.035
897.1	493.664
901.611	549.086
906.12	391.965
910.626	434.047
915.129	430.885
919.63	82.8535
924.129	318.758
928.625	815.691
933.118	1714.87
937.609	1493.15
942.097	697.981
946.582	119.508
951.065	328.188
955.546	276.307
960.023	530.889
964.499	923.045
968.971	1204.56
973.441	1808.28
977.909	1148.19
982.374	503.297
986.836	906.617
991.295	1155.14
995.753	1379.88
1000.21	2270.84
1004.66	1503.04
1009.11	690.029
1013.55	923.09
1018	1066.76
1022.44	1984.37
1026.88	2288.35
1031.32	3048.28
1035.75	3616.75
1040.18	6274.38
1044.61	5025.35
1049.04	2573.6
1053.46	1479.15
1057.88	883.713
1062.3	626.438
1066.71	852.494
1071.13	710.494
1075.54	989.627
1079.94	1121.01
1084.35	1470.81
1088.75	956.816
1093.15	964.893
1097.55	633.994
1101.94	581.113
1106.34	701.24
1110.73	614.373
1115.11	633.508
1119.5	736.639
1123.88	630.758
1128.26	325.865
1132.63	251.955
1137.01	14.0312
1141.38	31.332
1145.75	129.316
1150.12	87.9336
1154.48	98.7109
1158.84	109.75
1163.2	46.1992
1167.55	282.566
1171.91	250.91
1176.26	174.215
1180.61	80.5195
1184.95	102.43
1189.29	297.035
1193.63	28.2109
1197.97	270.918
1202.31	232.562
1206.64	142.652
1210.97	306.914
1215.29	257.031
1219.62	182.012
1223.94	317.914
1228.26	213.738
1232.57	615.488
1236.89	904.164
1241.2	427.773
1245.51	361.309
1249.81	720.809
1254.12	662.285
1258.42	657.742
1262.72	798.445
1267.01	1624.55
1271.3	1410.82
1275.59	1244.35
1279.88	1079.46
1284.17	846.211
1288.45	890.062
1292.73	1100.8
1297.01	1184.85
1301.28	980.227
1305.55	920.641
1309.82	902.051
1314.09	1367.32
1318.35	1817.18
1322.61	1267.91
1326.87	1109.88
1331.13	640.394
1335.38	392.059
1339.63	331.875
1343.88	539.719
1348.12	355.887
1352.37	174.254
1356.61	140.816
1360.85	246.555
1365.08	366.414
1369.31	307.34
1373.54	750.574
1377.77	351.203
1381.99	490.184
1386.22	278.203
1390.43	278.492
1394.65	94.0625
1398.87	86.1289
1403.08	127.297
1407.29	33.4023
1411.49	190.402
1415.69	185.371
1419.89	228.977
1424.09	117.676
1428.29	359.879
1432.48	641.121
1436.67	1513.68
1440.86	2250.43
1445.04	2744.29
1449.23	2913.12
1453.4	2907.8
1457.58	2677.68
1461.76	2295.13
1465.93	1733.07
1470.1	1386.55
1474.26	1279.57
1478.43	931.023
1482.59	905.844
1486.75	602.047
1490.9	555.734
1495.06	374.293
1499.21	40.6055
1503.35	16.707
1507.5	113.914
1511.64	358.578
1515.78	348.984
1519.92	252.949
1524.05	292.402
1528.18	572.344
1532.31	332.75
1536.44	376.789
1540.56	574.602
1544.69	464.688
1548.8	148.469
1552.92	286.426
1557.03	41.7812
1561.14	246.938
1565.25	159.613
1569.36	100.164
