Measurement: Raman, 514 nm, depolarized, Raman Data Processed
Mineral: Mesolite
Rruff sample: R040139
Ideal chemistry: Na_2_Ca_2_(Si_9_Al_6_)O_30_8H_2_O
Locality: Lake Superior beach,  41 miles north of Tofte, Minnesota, USA
Source: University of Arizona Mineral Museum
Description: Aggregate of white radiating thin acicular crystals.
Measured chemistry: Na_1.95_Ca_1.89_(Si_9.21_Al_5.82_)O_30_Â·8H_2_O
Pin_id: L00551
Raman shift (cm-1)	intensity
127.452	0
131.615	269.888
135.777	1018.72
139.937	714.525
144.094	2187.16
148.25	5527.38
152.403	6034.66
156.555	8389.39
160.705	7546.32
164.853	6385.25
168.998	7091.93
173.142	6909.01
177.284	5151.47
181.424	3470.92
185.562	3071.76
189.698	2303.06
193.831	923.493
197.963	977.652
202.093	1119.35
206.221	726.795
210.347	563.421
214.472	720.539
218.594	818.213
222.714	907.295
226.832	2398.56
230.948	3080.15
235.063	1716.48
239.175	1262.81
243.286	1713.27
247.394	1598
251.501	463.795
255.605	218.987
259.708	176.733
263.808	101.15
267.907	449.221
272.004	536.088
276.099	397.821
280.192	344.863
284.283	85.19
288.372	395.13
292.459	1560.94
296.544	2511.41
300.627	1946.47
304.709	1620.13
308.788	1194.99
312.865	767.317
316.941	641.31
321.015	542.698
325.086	384.527
329.156	422.492
333.224	475.319
337.29	699.825
341.354	659.004
345.416	809.625
349.476	1279.97
353.534	1694.24
357.591	1581.72
361.645	1150.77
365.698	1221.41
369.748	1281.88
373.797	1132.04
377.844	775.153
381.889	662.512
385.932	644.064
389.973	869.011
394.012	622.848
398.049	769.739
402.084	1029.83
406.118	1631.34
410.15	2646.31
414.179	3842.13
418.207	4745.06
422.233	5404.2
426.257	5393.89
430.279	4942.07
434.299	4882.14
438.318	6283.43
442.334	8722.37
446.349	10679.9
450.361	11068.6
454.372	9664.47
458.381	6642.37
462.388	4081.65
466.394	2662.52
470.397	2118.28
474.398	1721.1
478.398	1541.36
482.396	1560.64
486.391	1859.36
490.385	2191.94
494.377	2515.39
498.368	2788.78
502.356	2811.66
506.342	3025.26
510.327	3503.43
514.31	4452.68
518.291	6591.59
522.27	10659.2
526.247	18196.5
530.222	31054.4
534.196	39121.2
538.167	28544.8
542.137	15486.6
546.105	8397.12
550.071	4869.47
554.035	3081.61
557.998	2384.58
561.958	1710.01
565.917	1197.26
569.874	914.558
573.829	721.838
577.782	689.229
581.733	507.825
585.683	464.736
589.63	393.609
593.576	310.094
597.52	269.196
601.462	112.735
605.402	206.193
609.341	235.991
613.277	225.792
617.212	48.501
621.145	76.954
625.076	91.493
629.006	61.312
632.933	43.001
636.859	3.407
640.783	112.973
644.705	29.624
648.625	71.102
652.543	176.423
656.46	256.955
660.375	205.729
664.288	434.059
668.199	622.574
672.108	928.266
676.016	926.209
679.921	626.091
683.825	269.734
687.727	343.186
691.628	327.612
695.526	387.255
699.423	524.755
703.318	778.947
707.211	1122.77
711.102	2128.23
714.992	2652
718.879	2246.86
722.765	1361.23
726.649	918.053
730.532	611.098
734.412	456.649
738.291	389.463
742.168	281.603
746.043	483.777
749.916	695.859
753.788	957.432
757.658	968.651
761.526	849.603
765.392	710.294
769.257	640.627
773.119	570.565
776.98	316.06
780.839	250.522
784.697	70.571
788.552	50.97
792.406	54.535
796.258	27.018
800.108	25.791
803.957	13.975
807.804	147.696
811.649	22.134
815.492	6.824
819.333	87.797
823.173	38.007
827.011	65.693
830.847	1.072
834.681	91.762
838.514	44.228
842.345	56.35
846.174	75.676
850.001	19.716
853.827	160.921
857.651	141.819
861.473	22.447
865.293	72.767
869.112	12.81
872.928	102.608
876.744	62.219
880.557	91.535
884.369	80.563
888.178	59.29
891.987	117.741
895.793	125.957
899.598	233.946
903.401	271.703
907.202	229.236
911.001	156.549
914.799	203.649
918.595	310.556
922.389	274.468
926.182	432.493
929.972	480.107
933.761	976.277
937.549	1351.66
941.334	1636.16
945.118	1415.38
948.9	1258.94
952.681	1104.99
956.459	829.334
960.236	608.371
964.012	808.517
967.785	1186.39
971.557	1681.9
975.327	1847.92
979.095	1674.64
982.862	1343.23
986.627	1293.41
990.39	1444.69
994.152	1657.32
997.912	1940.99
1001.67	2163.57
1005.43	2076.49
1009.18	1500.18
1012.93	1333.35
1016.68	1456.63
1020.43	1510.68
1024.18	1813.59
1027.93	2477.59
1031.67	3471.58
1035.42	4606.02
1039.16	5127.67
1042.9	5332.3
1046.63	4957.7
1050.37	3682.98
1054.11	2638.03
1057.84	2143.31
1061.57	2158.33
1065.3	2314.85
1069.03	2330.31
1072.75	2536.01
1076.47	2611.01
1080.2	2596.32
1083.92	2451.76
1087.64	2307.03
1091.36	2062.54
1095.07	1588.15
1098.79	1263.64
1102.5	1229.72
1106.21	1215.89
1109.92	1071.97
1113.62	909.161
1117.33	806.115
1121.04	881.875
1124.74	684.748
1128.44	509.803
1132.14	339.366
1135.83	284.945
1139.53	93.263
1143.22	269.109
1146.92	161.863
1150.61	31.509
1154.3	160.412
1157.98	90.206
1161.67	151.353
1165.35	10.593
1169.04	101.082
1172.72	23.871
1176.4	46.516
1180.07	40.631
1183.75	114.478
1187.42	86.435
1191.1	4.035
1194.77	31.586
1198.44	53.854
1202.1	44.475
1205.77	120.809
1209.43	136.977
1213.1	262.792
1216.76	58.814
1220.42	164.541
1224.07	75.626
1227.73	133.332
1231.38	249.779
1235.04	259.028
1238.69	245.759
1242.34	240.082
1245.99	233.939
1249.63	67.754
1253.28	131.854
1256.92	38.731
1260.56	51.985
1264.2	145.798
1267.84	330.023
1271.48	342.491
1275.11	254.656
1278.74	172.885
1282.38	155.65
1286.01	86.619
1289.63	27.107
1293.26	88.03
1296.89	57.798
1300.51	55.942
1304.13	95.128
1307.75	73.754
1311.37	141.171
1314.99	173.595
1318.6	24.54
1322.22	88.041
1325.83	65.001
1329.44	160.859
1333.05	186.126
1336.66	230.604
1340.26	194.745
1343.87	288.44
1347.47	61.578
1351.07	54.679
1354.67	137.551
1358.27	158.644
1361.86	180.306
1365.46	241.941
1369.05	173.429
1372.64	104.906
1376.23	86.01
1379.82	159.591
1383.41	138.243
1386.99	295.971
1390.57	273.445
1394.16	149.981
1397.74	183.566
1401.32	148.432
1404.89	209.607
1408.47	367.295
1412.04	263.259
1415.61	247.692
1419.18	357.676
1422.75	273.204
1426.32	130.275
1429.89	168.23
1433.45	34.723
1437.01	282.322
1440.58	171.449
1444.13	388.516
1447.69	383.023
1451.25	426.361
1454.81	121.279
1458.36	254.117
1461.91	247.217
1465.46	342.254
1469.01	291.717
1472.56	218.68
1476.1	226.029
1479.64	50.389
1483.19	374.389
1486.73	360.482
1490.27	326.596
1493.81	152.83
1497.34	210.088
1500.88	128.941
1504.41	0.061
1507.94	153.75
1511.47	270.752
1515	61.631
1518.53	0.949
