Measurement: Raman, 514 nm, depolarized, Raman Data Processed
Mineral: Mesolite
Rruff sample: R050013
Ideal chemistry: Na_2_Ca_2_(Si_9_Al_6_)O_30_8H_2_O
Locality: Poona, Maharashtra, India
Source: University of Arizona Mineral Museum
Description: Clear to white elongated prismatic single crystal
Measured chemistry: Na_2.00_Ca_2.00_(Si_9.00_Al_6.00_)O_30_Â·8H_2_O
Pin_id: M00096
Orientation: Laser parallel to b* (0 1 0). Fiducial mark perpendicular to laser is parallel to c [0 0 1]
Raman shift (cm-1)	intensity
88.542	0
93.48	1587.42
98.416	3265.18
103.349	2827.3
108.28	2845.32
113.208	1438.09
118.134	1980.02
123.058	4562.85
127.979	5477.36
132.898	7459.15
137.814	5509.54
142.728	3878.94
147.639	6691.32
152.549	6589.13
157.455	7205.74
162.359	6561.3
167.261	5836.15
172.161	5690.91
177.058	3800.04
181.952	2949.18
186.845	2289.35
191.734	1390.52
196.622	357.726
201.507	129.415
206.389	887.501
211.269	910.901
216.147	430.698
221.022	1673.6
225.895	3065.75
230.765	4000.49
235.633	2887.86
240.498	2312.35
245.361	2014.63
250.222	679.301
255.08	285.074
259.936	523.438
264.789	114.047
269.64	286.059
274.488	117.446
279.334	336.007
284.178	1673.62
289.019	3008.62
293.857	3598.35
298.693	3133.09
303.527	2145.39
308.358	1230.49
313.187	1052.36
318.013	1107.81
322.837	1042.36
327.659	914.525
332.478	1058.63
337.294	677.236
342.108	912.742
346.92	1225.04
351.729	1350.89
356.535	1123.83
361.34	1206.3
366.141	1152.54
370.94	1079.92
375.737	462.597
380.531	35.5752
385.323	12.8926
390.113	62.708
394.9	157.666
399.684	696.623
404.466	1786.4
409.245	2912.76
414.022	4465.18
418.797	5228.72
423.569	5607.79
428.338	5531.69
433.105	5742.88
437.87	7407.83
442.632	8901.78
447.391	8391.91
452.149	6265.55
456.903	3751.11
461.655	2123.92
466.405	1090.34
471.152	543.444
475.897	55.4062
480.639	8.71484
485.378	50.9014
490.116	121.274
494.85	377.696
499.582	879.949
504.312	2134.35
509.039	3908.19
513.764	7056.9
518.486	14111.6
523.206	26867.7
527.923	35690.6
532.638	35800.7
537.35	22861.1
542.059	10490.1
546.766	5313.09
551.471	3191.6
556.173	1940
560.873	1018.95
565.57	707.047
570.264	436.221
574.957	226.333
579.646	191.397
584.333	259.427
589.018	268.424
593.7	103.393
598.379	268.329
603.056	185.248
607.73	142.166
612.402	192.959
617.072	380.051
621.739	960.547
626.403	1212.39
631.065	361.574
635.724	165.869
640.381	434.984
645.035	832.831
649.687	1053.56
654.336	1188.44
658.983	981.847
663.627	1215.04
668.268	1142.06
672.907	827.045
677.544	272.495
682.178	73.8418
686.809	5.42969
691.438	77.5029
696.065	174.855
700.688	784.658
705.31	1630.97
709.929	2408.77
714.545	2456.05
719.158	1489.81
723.77	620.039
728.378	625.731
732.984	390.578
737.588	382.172
742.189	779.208
746.787	1224.68
751.383	1578.64
755.976	1325.23
760.567	1052.05
765.155	821.494
769.741	382.507
774.324	207.927
778.904	74.709
783.482	159.039
788.058	55.7275
792.631	12.3447
797.201	52.1318
801.769	38.1016
806.334	73.584
810.897	21.4102
815.457	106.643
820.014	46.0459
824.569	216.13
829.122	271.01
833.671	350.588
838.219	381.555
842.763	644.568
847.306	692.062
851.845	897.051
856.382	1378.54
860.917	1671.54
865.448	1118.06
869.978	637.115
874.505	538.764
879.029	556.031
883.55	509.254
888.069	475.164
892.586	512.918
897.1	495.363
901.611	486.441
906.12	456.164
910.626	520.35
915.129	376.379
919.63	227.527
924.129	8.0293
928.625	391.986
933.118	673.123
937.609	477.215
942.097	228.268
946.582	55.584
951.065	393.041
955.546	311.988
960.023	404.672
964.499	669.785
968.971	1357.58
973.441	2031.42
977.909	2164.3
982.374	1553.23
986.836	1045.22
991.295	1104.28
995.753	1526.42
1000.21	2802.64
1004.66	1733.29
1009.11	956.723
1013.55	676.764
1018	1162.56
1022.44	1523.88
1026.88	1842.71
1031.32	2222.72
1035.75	2878.5
1040.18	4185
1044.61	4789.71
1049.04	3333
1053.46	1854.65
1057.88	840.717
1062.3	596.709
1066.71	777.574
1071.13	1155
1075.54	1802.45
1079.94	2235.3
1084.35	1903.62
1088.75	1328.26
1093.15	1036.1
1097.55	732.18
1101.94	771.393
1106.34	842.732
1110.73	695.197
1115.11	667.783
1119.5	616.49
1123.88	852.316
1128.26	383.262
1132.63	145.326
1137.01	74.5078
1141.38	127.709
1145.75	86.1582
1150.12	15.459
1154.48	24.9043
1158.84	119.672
1163.2	175.305
1167.55	103.002
1171.91	91.2188
1176.26	214.465
1180.61	66.2207
1184.95	33.4199
1189.29	93.8184
1193.63	795.688
1197.97	69.5469
1202.31	32.7168
1206.64	102.266
1210.97	114.564
1215.29	166.381
1219.62	145.305
1223.94	85.1055
1228.26	122.881
1232.57	313.65
1236.89	573.414
1241.2	476.215
1245.51	512.961
1249.81	678.693
1254.12	445.426
1258.42	543.322
1262.72	568.293
1267.01	879.014
1271.3	997.678
1275.59	844.086
1279.88	707.424
1284.17	510.096
1288.45	683.193
1292.73	838.338
1297.01	622.736
1301.28	512.242
1305.55	1167.22
1309.82	1016.79
1314.09	1177.75
1318.35	1244.63
1322.61	916.457
1326.87	652.018
1331.13	352.873
1335.38	271.363
1339.63	168.287
1343.88	225.221
1348.12	245.195
1352.37	331.279
1356.61	182.363
1360.85	292.494
1365.08	6.8125
1369.31	186.15
1373.54	414.371
1377.77	501.482
1381.99	318.709
1386.22	324.615
1390.43	374.791
1394.65	36.6211
1398.87	52.6406
1403.08	95.6367
1407.29	65.1172
1411.49	101.934
1415.69	23.168
1419.89	80.9648
1424.09	213.154
1428.29	256.074
1432.48	610.637
1436.67	1216.31
1440.86	1953.84
1445.04	2353.08
1449.23	2785.33
1453.4	2714.14
1457.58	2645.98
1461.76	1986.54
1465.93	1539.72
1470.1	1073.04
1474.26	991.629
1478.43	892.273
1482.59	618.508
1486.75	793.908
1490.9	406.248
1495.06	303.762
1499.21	340.928
1503.35	226.443
1507.5	149.65
1511.64	112.775
1515.78	136.4
1519.92	378.234
1524.05	137.981
1528.18	579.584
1532.31	354.588
1536.44	384.06
1540.56	100.244
1544.69	503.742
1548.8	216.693
1552.92	374.982
1557.03	43.4629
1561.14	242.019
1565.25	200.781
1569.36	0.117188
