Measurement: Raman, 514 nm, depolarized, Raman Data Processed
Mineral: Metatorbernite
Rruff sample: R040171
Ideal chemistry: Cu^2+^(U^6+^O_2_)_2_(PO_4_)_2_8H_2_O
Locality: La Luz de Cobre, Sonora, Mexico
Source: University of Arizona Mineral Museum
Description: Green thin tabular crystals
Measured chemistry: (Cu_0.80_[box]_0.20_)_Σ=1_(U_1.00_O_2_)_2_(P_1.00_O_4_)_2_·8((H_2_O)_0.95_(H_3_O)^+^_0.05_)
Pin_id: S00039
Orientation: Laser parallel to -b* (0 -1 0). Fiducial mark perpendicular to laser is parallel to c [0 0 1]
Raman shift (cm-1)	intensity
142.016	0
146.172	132.089
150.327	131.137
154.48	35.831
158.63	5.652
162.779	27.188
166.926	6.873
171.07	32.156
175.213	110.09
179.354	357.03
183.493	994.548
187.63	2565.21
191.765	4954.44
195.898	5159.85
200.029	2021.26
204.158	818.53
208.285	416.579
212.41	337.91
216.533	361.814
220.654	489.946
224.773	571.664
228.891	370.229
233.006	233.177
237.119	76.448
241.231	170.361
245.34	294.058
249.448	361.591
253.553	478.99
257.657	551.762
261.758	642.482
265.858	785.256
269.956	983.663
274.052	1143.66
278.146	1495.63
282.237	1834.7
286.327	2113.87
290.416	2272.05
294.502	2177.12
298.586	2353.06
302.668	2422.84
306.749	2493.78
310.827	2653.32
314.903	2604.02
318.978	2670.18
323.051	2647.62
327.121	2536.09
331.19	2633.71
335.257	2548.45
339.322	2510.11
343.385	2601.62
347.446	2428.96
351.505	2410.06
355.563	2405.91
359.618	2888.5
363.672	2267.8
367.723	2196.86
371.773	2102.59
375.821	2093.01
379.866	2142.17
383.91	2084.04
387.952	1990.59
391.992	2031.84
396.031	2441.73
400.067	2821.27
404.101	3068.78
408.134	2987.95
412.165	2234.01
416.193	1868.78
420.22	1885.43
424.245	1905.05
428.268	1648.24
432.289	1853.89
436.309	1869.43
440.326	2033.45
444.342	1855.65
448.355	1494.6
452.367	1393.07
456.377	1264.92
460.385	1225.15
464.391	1152.73
468.395	1191.63
472.398	909.951
476.398	790.701
480.397	739.919
484.394	628.565
488.389	636.666
492.382	557.185
496.373	392.088
500.362	333.355
504.349	440.97
508.335	504.332
512.319	426.6
516.3	385.866
520.28	319.682
524.259	82.976
528.235	213.315
532.209	182.526
536.182	171.662
540.152	88.057
544.121	152.946
548.088	159.311
552.053	167.708
556.017	201.406
559.978	73.306
563.938	21.668
567.895	119.988
571.851	38.998
575.805	60.49
579.758	32.139
583.708	9.7
587.657	34.801
591.603	1.416
595.548	31.93
599.491	5.545
603.432	54.023
607.372	0.625
611.309	134.106
615.245	82.832
619.179	69.089
623.111	140.634
627.041	172.28
630.97	166.717
634.896	3.1
638.821	109.456
642.744	104.86
646.665	172.182
650.584	28.41
654.502	146.504
658.418	65.444
662.331	2.1
666.244	167.566
670.154	80.809
674.062	95.767
677.969	48.433
681.874	80.718
685.777	56.606
689.678	19.466
693.577	35.186
697.475	79.327
701.371	42.411
705.265	81.866
709.157	23.627
713.047	10.833
716.936	138.49
720.823	137.597
724.708	56.749
728.591	101.39
732.472	86.614
736.352	123.818
740.23	47.835
744.106	46.937
747.98	60.748
751.853	13.06
755.723	99.887
759.592	64.528
763.459	100.235
767.325	87.442
771.188	82.182
775.05	198.54
778.91	178.844
782.768	276.813
786.625	328.926
790.479	444.354
794.332	645.421
798.183	909.038
802.033	1586.89
805.88	1738.8
809.726	2247.68
813.57	3361.17
817.413	5266.86
821.253	11656.6
825.092	36451.9
828.929	37605.2
832.764	12326.3
836.598	7071.84
840.429	3838.74
844.259	1949.93
848.088	1040.85
851.914	691.32
855.739	472.567
859.562	316.533
863.383	353.023
867.203	187.725
871.02	249.857
874.836	146.392
878.65	118.475
882.463	192.468
886.274	253.763
890.083	393.619
893.89	375.608
897.695	751.596
901.499	756.379
905.301	717.347
909.102	504.408
912.9	349.593
916.697	110.725
920.492	192.871
924.285	139.829
928.077	13.649
931.867	32.683
935.655	84.166
939.442	30.935
943.226	86.954
947.009	105.413
950.791	10.321
954.57	46.456
958.348	145.156
962.124	220.641
965.899	362.05
969.671	647.395
973.442	807.686
977.211	1565.93
980.979	2821.17
984.745	6398.41
988.509	12159.7
992.271	11888
996.032	12004.4
999.791	9376.93
1003.55	4735.6
1007.3	2797.41
1011.06	1243.44
1014.81	784.587
1018.56	382.916
1022.31	235.395
1026.06	190.043
1029.8	106.501
1033.55	74.721
1037.29	255.814
1041.03	689.047
1044.77	42.407
1048.5	78.918
1052.24	400.576
1055.97	216.432
1059.7	159.453
1063.43	80.679
1067.16	125.195
1070.89	158.913
1074.61	194.831
1078.34	302.117
1082.06	189.393
1085.78	229.376
1089.5	329.644
1093.21	262.549
1096.93	389.048
1100.64	359.853
1104.35	627.271
1108.06	662.897
1111.77	682.821
1115.48	596.186
1119.18	713.791
1122.89	1039.65
1126.59	1034.77
1130.29	976.182
1133.99	970.871
1137.68	1283.82
1141.38	1534.05
1145.07	1335.56
1148.76	1339.35
1152.45	1323.4
1156.14	1208.73
1159.83	1333.33
1163.51	1301.19
1167.19	1337.19
1170.88	1320.73
1174.56	1377.41
1178.23	1389.36
1181.91	1350.07
1185.59	1282.78
1189.26	1282.56
1192.93	1323.61
1196.6	1412.19
1200.27	1115.93
1203.94	1360.34
1207.6	1051.71
1211.27	1233.09
1214.93	1244.42
1218.59	1157.26
1222.25	1280.03
1225.9	1012.16
1229.56	1169.98
1233.21	1087.77
1236.86	1024.72
1240.51	1030.55
1244.16	974.549
1247.81	907.163
1251.45	875.791
1255.1	849.645
1258.74	830.231
1262.38	747.014
1266.02	695.146
1269.66	558.503
1273.29	578.134
1276.93	601.055
1280.56	449.101
1284.19	418.542
1287.82	575.648
1291.45	521.208
1295.07	584.25
1298.7	337.516
1302.32	209.03
1305.94	258.742
1309.56	287.625
1313.18	186.645
1316.8	147.832
1320.41	150.129
1324.02	73.52
1327.63	91.102
1331.24	106.771
1334.85	115.566
1338.46	83.424
1342.06	142.907
1345.67	42.604
1349.27	23.086
1352.87	97.354
1356.47	143.934
1360.07	37.074
1363.66	61.985
1367.25	22.243
1370.85	9.41
1374.44	28.101
1378.03	96.046
1381.61	274.625
1385.2	31.889
1388.78	11.719
1392.37	65.261
1395.95	13.034
1399.53	44.538
1403.1	35.116
1406.68	7.009
1410.26	13.92
1413.83	12.394
1417.4	85.047
1420.97	116.758
1424.54	61.811
1428.1	20.748
1431.67	71.69
1435.23	184.267
1438.8	247.222
1442.36	156.545
1445.91	141.25
1449.47	210.776
1453.03	291.402
1456.58	240.339
1460.13	261.979
1463.68	215.339
1467.23	239.924
1470.78	284.716
1474.33	229.871
1477.87	129
1481.42	143.691
1484.96	259.037
1488.5	92.933
1492.04	125.965
1495.57	112.697
1499.11	33.916
1502.64	67.644
1506.17	43.79
1509.71	75.288
1513.23	238.193
1516.76	31.403
1520.29	15.921
1523.81	0
