Measurement: Raman, 514 nm, depolarized, Raman Data Processed
Mineral: Metatorbernite
Rruff sample: R070686
Ideal chemistry: Cu^2+^(U^6+^O_2_)_2_(PO_4_)_2_8H_2_O
Locality: Fichtelgebirge, Franconia, Bavaria, Germany
Source: Michael Scott
Description: Green tabular crystals
Pin_id: M00978
Orientation: Laser parallel to -a* (-1 0 0). Fiducial mark perpendicular to laser is parallel to c [0 0 1]
Raman shift (cm-1)	intensity
170.705	0
175.635	2.19336
180.563	749.436
185.487	2074.34
190.409	3199.95
195.327	3251.2
200.242	1756.71
205.155	741.481
210.064	345.356
214.97	391.717
219.873	190.383
224.773	418.762
229.67	169.398
234.564	100.156
239.455	88.7578
244.342	276.852
249.227	30.4551
254.109	284.383
258.988	117.254
263.864	101.324
268.736	163.695
273.606	232.402
278.473	448.402
283.337	372.664
288.197	875.135
293.055	537.846
297.91	630.789
302.762	726.896
307.611	779.828
312.456	541.016
317.299	624.24
322.139	669.139
326.976	698.963
331.81	597.068
336.641	771.514
341.469	572.707
346.294	843.328
351.116	937.084
355.936	790.809
360.752	841.252
365.565	822.531
370.376	1119.61
375.183	768.219
379.988	1125.12
384.789	920.781
389.588	1102.74
394.384	1208.26
399.177	1616.25
403.967	1771.27
408.754	1679.47
413.538	1511.95
418.319	1345.81
423.097	1152.3
427.873	1267.21
432.646	1391.14
437.415	1415.13
442.182	1402.99
446.946	1009.49
451.707	1071.28
456.465	963.787
461.221	976.082
465.973	1108.01
470.723	653.986
475.47	701.711
480.214	703.207
484.955	461.498
489.693	434.008
494.429	587.102
499.161	425.434
503.891	487.705
508.618	164.49
513.342	379.656
518.063	427.365
522.782	207.293
527.497	204.918
532.21	313.32
536.92	317.81
541.627	313.316
546.332	321.943
551.034	418.5
555.732	12.002
560.428	59.3418
565.122	86.9609
569.812	4.28906
574.5	230.924
579.185	288.322
583.867	223.344
588.546	18.0781
593.223	111.961
597.897	54.6445
602.568	8.33984
607.236	54.875
611.902	125.168
616.565	104.398
621.225	15.5
625.882	167.992
630.537	198.894
635.189	71.2734
639.838	373.184
644.484	204.055
649.128	14.8867
653.769	187.379
658.407	203.461
663.043	220.629
667.676	121.418
672.306	55.375
676.933	272.938
681.558	265.578
686.18	313.602
690.799	229.676
695.416	192.543
700.03	257.012
704.641	231.152
709.25	312.144
713.856	204.156
718.459	227.07
723.059	145.961
727.657	153.066
732.253	302.812
736.845	188.469
741.435	210.609
746.022	253.156
750.607	332.707
755.189	387.641
759.768	298.648
764.345	587.602
768.919	352.598
773.49	303.906
778.059	513.109
782.625	412.035
787.189	267.754
791.749	703.773
796.308	1086.41
800.863	1262.65
805.416	1745.36
809.967	2476.07
814.515	4212.63
819.06	10635.9
823.603	20203
828.143	21577.5
832.68	8181.03
837.215	3726.99
841.747	2042.13
846.277	1521.56
850.804	794.012
855.328	365.598
859.85	417.031
864.37	523.293
868.886	162.098
873.401	9.78125
877.912	183.031
882.421	200.856
886.928	550.383
891.432	350.555
895.933	843.164
900.432	415.957
904.929	614.586
909.423	514.496
913.914	481.133
918.403	190.164
922.889	424.894
927.373	262.012
931.854	119.203
936.332	191.152
940.809	190.637
945.282	203.492
949.753	224.879
954.222	186.152
958.688	388.879
963.152	764.238
967.613	781.945
972.071	754.93
976.527	1658.66
980.981	3282.68
985.432	6381.41
989.881	8316.66
994.327	7667.47
998.771	5944.31
1003.21	3066.93
1007.65	1687.55
1012.09	693.027
1016.52	322.328
1020.95	142.25
1025.38	127.777
1029.81	69.8047
1034.23	113.797
1038.65	25.1992
1043.07	50.5273
1047.49	13.8008
1051.9	3.64062
1056.31	58
1060.72	213.07
1065.13	322.684
1069.54	18.9727
1073.94	208.141
1078.34	230.871
1082.73	238.238
1087.13	2.39844
1091.52	139.098
1095.91	76.8828
1100.3	159.414
1104.68	176.078
1109.07	166.109
1113.45	128.535
1117.82	211.383
1122.2	82.6836
1126.57	180.461
1130.94	235.809
1135.31	313.82
1139.68	338.516
1144.04	473.91
1148.4	629.113
1152.76	500.074
1157.12	398.648
1161.47	500.856
1165.82	564.75
1170.17	713.812
1174.52	622.57
1178.87	756.574
1183.21	395.281
1187.55	493.414
1191.88	1009.48
1196.22	941.984
1200.55	747.133
1204.88	749.996
1209.21	925.734
1213.54	767.316
1217.86	604.094
1222.18	997.812
1226.5	498.031
1230.82	757.113
1235.13	1035.57
1239.44	1004.82
1243.75	803.316
1248.06	644.602
1252.37	771.246
1256.67	537.129
1260.97	832.281
1265.27	545.582
1269.56	316.848
1273.86	745.035
1278.15	721.152
1282.44	356.754
1286.72	488.117
1291.01	224.074
1295.29	426.961
1299.57	246.699
1303.85	356.332
1308.12	593.57
1312.39	548.508
1316.67	524.34
1320.93	745.07
1325.2	227.547
1329.46	356.871
1333.73	439.926
1337.98	317.477
1342.24	175.328
1346.5	381.988
1350.75	244.75
1355	468.168
1359.25	233.34
1363.49	447.035
1367.74	205.883
1371.98	147.172
1376.22	426.914
1380.46	65.0234
1384.69	119.391
1388.92	144.652
1393.15	61.207
1397.38	77.2227
1401.61	65.3438
1405.83	92.3008
1410.05	240.258
1414.27	121.719
1418.49	133.664
1422.7	119.121
1426.92	57.8789
1431.13	9.62109
1435.34	316.656
1439.54	310.789
1443.75	181.555
1447.95	408.551
1452.15	364.016
1456.35	451.367
1460.54	116.695
1464.73	197.731
1468.92	283.465
1473.11	223.816
1477.3	102.891
1481.48	46.0078
1485.67	24.7852
1489.85	248.938
1494.02	333.797
1498.2	561.543
1502.37	411.231
1506.55	160.918
1510.71	186.144
1514.88	589.715
1519.05	84.5078
1523.21	661.348
1527.37	564.133
1531.53	95.6367
1535.68	474.34
1539.84	206.062
1543.99	695.133
1548.14	193.961
1552.29	371.809
1556.44	437.328
1560.58	49
1564.72	300.246
1568.86	166.883
1573	221.168
1577.13	1.00391
