Measurement: Raman, 514 nm, depolarized, Raman Data Processed
Mineral: Metatorbernite
Rruff sample: R070686
Ideal chemistry: Cu^2+^(U^6+^O_2_)_2_(PO_4_)_2_8H_2_O
Locality: Fichtelgebirge, Franconia, Bavaria, Germany
Source: Michael Scott
Description: Green tabular crystals
Pin_id: M01699
Orientation: Laser parallel to c* (0 0 1). Fiducial mark perpendicular to laser is parallel to b [0 1 0]
Raman shift (cm-1)	intensity
153.423	0
158.365	228.852
163.303	293.393
168.238	67.5742
173.17	21.623
178.1	432.518
183.026	1656.04
187.948	3424.88
192.868	4885.52
197.785	4144.89
202.699	2167.3
207.609	1956.96
212.517	2458.45
217.422	3625.98
222.323	4309.15
227.222	4372.58
232.117	3933.14
237.01	3775.36
241.899	4102.07
246.785	4308.06
251.669	4904.1
256.549	5361.45
261.426	5462.17
266.3	6311.12
271.172	6686.1
276.04	7260.47
280.905	8271.29
285.767	9095.01
290.627	9302.9
295.483	9804.3
300.336	10379.6
305.186	10576.9
310.034	10440.7
314.878	10930
319.72	10868.8
324.558	10954.2
329.393	11215
334.226	11257.9
339.055	11165.6
343.882	11228.4
348.706	10953.4
353.526	11296.3
358.344	10973.6
363.159	10851.9
367.971	10898.8
372.78	10554.1
377.586	10385.4
382.389	10237.6
387.189	9928.69
391.986	10384.5
396.78	10817.9
401.572	11572.6
406.36	12023.6
411.146	10881.8
415.929	9210.94
420.709	8685.93
425.486	8423.68
430.26	8162.69
435.031	8344.66
439.799	8709.35
444.564	8245.32
449.327	7102.65
454.087	6223.5
458.843	5753.23
463.597	5198.4
468.348	4897.51
473.097	4320.06
477.842	3856.64
482.585	3201.13
487.324	3033.29
492.061	2616.29
496.795	2338.63
501.526	2010.76
506.255	1920.9
510.98	1557.73
515.703	1445.78
520.423	1117.48
525.14	1098.8
529.854	867.428
534.566	679.25
539.274	464.897
543.98	511.902
548.683	215.557
553.383	272.418
558.081	52.2832
562.775	57.1641
567.467	83.5332
572.156	152.291
576.843	189.328
581.526	266.711
586.207	303.537
590.885	315.244
595.56	45.6973
600.233	329.252
604.902	319.193
609.569	4.37891
614.234	60.3477
618.895	135.447
623.554	144.219
628.21	209.511
632.863	233.819
637.514	265.06
642.161	252.179
646.806	469.601
651.449	554.325
656.088	493.788
660.725	436.626
665.36	462.429
669.991	544.175
674.62	564.556
679.246	693.794
683.869	381.199
688.49	685.828
693.108	672.429
697.723	758.636
702.336	620.557
706.946	647.165
711.553	673.381
716.158	735.382
720.759	677.508
725.359	625.574
729.955	483.109
734.549	543.487
739.14	647.803
743.729	522.874
748.315	446.029
752.898	652.696
757.479	620.648
762.057	536.954
766.632	630.068
771.205	714.368
775.775	719.273
780.342	802.743
784.907	985.189
789.469	1268.37
794.029	1677.82
798.586	2227.77
803.14	2897.01
807.692	3883.12
812.241	5722.79
816.788	10749.1
821.332	27102.6
825.873	53194.4
830.412	35753.7
834.948	10964.8
839.481	5864.37
844.012	3283.97
848.541	2041.09
853.066	1618.63
857.59	1241.54
862.11	976.523
866.628	552.823
871.144	409.169
875.657	429.305
880.167	436.3
884.675	392.359
889.18	568.369
893.683	715.26
898.183	1003.44
902.681	974.401
907.176	834.226
911.669	325.102
916.159	37.0576
920.646	205.489
925.131	222.861
929.613	119.596
934.093	340.161
938.571	297.274
943.046	192.411
947.518	169.777
951.988	127.257
956.455	100.974
960.92	456.045
965.382	679.273
969.842	1245.9
974.3	2459.94
978.754	6538.69
983.207	15202.4
987.657	28837.2
992.104	32395.3
996.549	28424.4
1000.99	17442.9
1005.43	8909.19
1009.87	4091.1
1014.3	1957.61
1018.74	1285.9
1023.17	941.879
1027.59	783.674
1032.02	789.25
1036.44	851.859
1040.86	899.531
1045.28	1020.32
1049.7	1233.53
1054.11	1119.45
1058.52	1461.2
1062.93	1536.63
1067.33	1640.62
1071.74	1871.73
1076.14	1776.91
1080.54	1971.11
1084.93	2105.31
1089.33	2434.13
1093.72	2545.5
1098.11	2756.43
1102.49	2913.52
1106.88	3216.88
1111.26	3557.6
1115.64	3494.05
1120.01	3950.53
1124.39	4044.08
1128.76	4196.29
1133.13	4471.11
1137.49	4578.34
1141.86	4514.34
1146.22	4834.16
1150.58	5079.82
1154.94	5447.32
1159.3	5206.52
1163.65	5337.36
1168	5101.87
1172.35	5361.14
1176.69	5385.17
1181.04	5558.15
1185.38	5362.63
1189.72	5494.22
1194.05	5513.59
1198.39	5294.14
1202.72	5411.87
1207.05	5218.5
1211.38	5299.73
1215.7	5012.07
1220.02	5049.12
1224.34	4897.47
1228.66	4926.05
1232.97	4714.76
1237.29	4388.6
1241.6	4040.55
1245.91	3908.19
1250.21	3940.48
1254.52	3448.09
1258.82	3546.4
1263.12	3026.09
1267.41	2906.05
1271.71	2613.87
1276	2503.36
1280.29	2299.67
1284.58	2311.79
1288.87	2023.07
1293.15	1627.98
1297.43	1613.55
1301.71	1266.54
1305.98	1206.33
1310.26	1154.44
1314.53	981.58
1318.8	863.885
1323.07	718.887
1327.33	625.791
1331.6	549.906
1335.86	637.982
1340.11	412.441
1344.37	259.719
1348.62	305.115
1352.88	97.9141
1357.12	144.594
1361.37	84.043
1365.62	28.9746
1369.86	12.6426
1374.1	1.08398
1378.34	126.988
1382.57	39.1924
1386.81	25.5039
1391.04	313.478
1395.27	127.495
1399.49	133.05
1403.72	210.621
1407.94	237.625
1412.16	148.787
1416.38	131.751
1420.6	96.2705
1424.81	125.965
1429.02	62.293
1433.23	132.095
1437.44	76.5801
1441.64	188.619
1445.85	111.293
1450.05	41.6865
1454.25	104.754
1458.44	153.35
1462.64	216.497
1466.83	303.974
1471.02	434.703
1475.21	412.353
1479.39	536.621
1483.58	567.374
1487.76	504.351
1491.93	681.128
1496.11	759.222
1500.29	555.162
1504.46	619.602
1508.63	577.787
1512.8	587.518
1516.96	557.702
1521.13	509.577
1525.29	471.306
1529.45	615.865
1533.61	502.623
1537.76	418.115
1541.92	267.081
1546.07	298.363
1550.22	347.897
1554.36	360.579
1558.51	332.876
1562.65	293.678
1566.79	201.825
1570.93	218.113
1575.07	24.7041
