Measurement: Raman, 514 nm, depolarized, Raman Data Processed
Mineral: Metatorbernite
Rruff sample: R040171
Ideal chemistry: Cu^2+^(U^6+^O_2_)_2_(PO_4_)_2_8H_2_O
Locality: La Luz de Cobre, Sonora, Mexico
Source: University of Arizona Mineral Museum
Description: Green thin tabular crystals
Measured chemistry: (Cu_0.80_[box]_0.20_)_Σ=1_(U_1.00_O_2_)_2_(P_1.00_O_4_)_2_·8((H_2_O)_0.95_(H_3_O)^+^_0.05_)
Pin_id: M00079
Orientation: Laser parallel to -c* (0 0 -1). Fiducial mark perpendicular to laser is parallel to a [1 0 0]
Raman shift (cm-1)	intensity
85.009	0
89.193	308.896
93.375	1370.61
97.554	2281.33
101.732	1285.56
105.908	987.88
110.082	1351.86
114.254	1093.34
118.424	664.802
122.592	669.033
126.758	622.198
130.922	458.105
135.083	232.577
139.243	264.633
143.401	206.145
147.557	112.953
151.711	59.222
155.863	18.401
160.013	35.828
164.161	50.546
168.308	113.494
172.452	14.029
176.594	124.506
180.734	372.857
184.872	969.004
189.008	2161.14
193.143	3492.17
197.275	2348.03
201.405	892.745
205.534	393.238
209.66	299.125
213.784	496.272
217.907	984.183
222.027	1456.89
226.146	1256.39
230.263	547.676
234.377	508.739
238.49	116.42
242.601	10.8
246.709	52.468
250.816	97.488
254.921	77.316
259.024	85.014
263.125	65.285
267.224	93.243
271.321	18.263
275.416	48.315
279.51	186.471
283.601	445.208
287.69	499.422
291.778	492.457
295.863	287.32
299.947	326.747
304.029	380.743
308.108	327.295
312.186	280.387
316.262	234.007
320.336	263.132
324.408	240.442
328.478	198.92
332.546	368.415
336.612	322.978
340.677	353.525
344.739	509.801
348.799	473.557
352.858	625.812
356.915	838.555
360.969	768.794
365.022	920.507
369.073	978.723
373.122	1062.46
377.169	1147.67
381.215	1147.49
385.258	1248.87
389.299	1413.74
393.339	1700.15
397.376	2563.15
401.412	2984.67
405.446	3712.29
409.478	3371.6
413.508	2190.22
417.536	1934.95
421.562	1866
425.586	1896.44
429.609	1930.19
433.629	2369.19
437.648	2683.15
441.665	2864.69
445.68	2525.66
449.693	1854.06
453.704	1799.87
457.713	1574.11
461.721	1599.74
465.726	1506.75
469.73	1281.13
473.731	1147.86
477.731	972.947
481.729	979.375
485.725	921.164
489.72	752.357
493.712	736.013
497.703	639.11
501.691	698.56
505.678	621.316
509.663	620.937
513.646	559.286
517.627	555.897
521.607	417.182
525.584	416.695
529.56	341.802
533.534	261.415
537.506	392.275
541.476	252.846
545.444	282.2
549.41	259.013
553.375	294.833
557.337	210.315
561.298	116.009
565.257	77.458
569.214	215.11
573.17	15.007
577.123	43.092
581.075	102.849
585.024	28.5
588.972	51.714
592.918	20.09
596.863	338.875
600.805	68.101
604.746	131.138
608.685	52.536
612.621	116.021
616.557	130.036
620.49	176.407
624.421	162.999
628.351	272.584
632.279	248.153
636.205	134.708
640.129	121.235
644.051	110.722
647.972	169.156
651.89	50.53
655.807	122.836
659.722	176.063
663.636	0.205
667.547	164.238
671.457	3.163
675.365	13.046
679.271	123.585
683.175	26.064
687.077	17.323
690.978	57.325
694.877	153.086
698.774	50.611
702.669	15.328
706.562	82.961
710.454	8.19
714.344	51.03
718.232	55.823
722.118	54.749
726.002	24.624
729.885	45.738
733.766	33.222
737.645	27.917
741.522	57.332
745.397	102.298
749.271	8.967
753.143	0.239
757.013	23.172
760.881	98.803
764.748	88.189
768.613	125.614
772.476	54.188
776.337	252.941
780.196	231.745
784.054	317.026
787.91	350.352
791.764	508.478
795.616	701.112
799.467	996.815
803.316	1345.95
807.163	1626.59
811.008	2296.66
814.851	3485.5
818.693	5900.85
822.533	16234.9
826.371	44770.7
830.208	22644.6
834.042	7010.34
837.875	3606.35
841.706	2451.69
845.536	1186.23
849.363	550.126
853.189	529.897
857.013	560.849
860.836	265.721
864.656	281.33
868.475	129.899
872.292	155.646
876.108	43.857
879.922	238.442
883.733	178.799
887.544	249.688
891.352	395.929
895.159	566.623
898.964	816.694
902.767	803.989
906.568	718.385
910.368	358.826
914.166	321.128
917.962	141.37
921.757	166.905
925.55	159.44
929.341	47.235
933.13	27.988
936.918	67.526
940.703	80.899
944.488	21.955
948.27	198.961
952.051	122.07
955.83	324.756
959.607	361.492
963.383	477.132
967.156	752.688
970.928	1037.17
974.699	1657.58
978.468	3214.69
982.234	5922.99
986	13944.9
989.763	23216.1
993.525	20797.4
997.285	21244.6
1001.04	13665.8
1004.8	7229.25
1008.55	3818.66
1012.31	1750.14
1016.06	1008.75
1019.81	692.433
1023.56	537.735
1027.31	464.553
1031.05	299.308
1034.79	257.296
1038.53	225.327
1042.27	206.208
1046.01	141.641
1049.75	279.911
1053.48	202.242
1057.22	149.683
1060.95	13.186
1064.68	54.724
1068.4	17.215
1072.13	20.347
1075.86	33.057
1079.58	96.14
1083.3	55.257
1087.02	85.329
1090.74	54.696
1094.45	97.473
1098.17	30.381
1101.88	18.678
1105.59	26.707
1109.3	105.272
1113.01	29.31
1116.71	214.419
1120.42	41.613
1124.12	106.897
1127.82	91.256
1131.52	74.679
1135.22	47.172
1138.91	88.721
1142.61	45.357
1146.3	170.088
1149.99	148.911
1153.68	309.831
1157.37	244.846
1161.06	450.963
1164.74	351.179
1168.42	497.495
1172.1	430.923
1175.78	478.464
1179.46	478.119
1183.14	690.885
1186.81	658.762
1190.48	800.754
1194.15	691.863
1197.83	794.092
1201.49	822.443
1205.16	977.923
1208.82	875.534
1212.49	989.086
1216.15	1033.7
1219.81	918.526
1223.46	939.401
1227.12	1091
1230.78	1025.1
1234.43	1026.6
1238.08	1130.28
1241.73	1097.12
1245.38	1024.12
1249.03	919.789
1252.67	948.877
1256.31	962.503
1259.95	968.092
1263.6	828.014
1267.23	823.286
1270.87	919.612
1274.51	710.075
1278.14	630.475
1281.77	683.381
1285.4	699.13
1289.03	697.059
1292.66	539.168
1296.28	520.46
1299.91	405.567
1303.53	448.608
1307.15	414.48
1310.77	448.539
1314.38	328.81
1318	356.23
1321.61	386.835
1325.23	294.668
1328.84	158.741
1332.45	345.062
1336.06	240.644
1339.66	159.502
1343.27	224.656
1346.87	249.142
1350.47	203.991
1354.07	217.252
1357.67	389.21
1361.26	262.651
1364.86	286.816
1368.45	271.04
1372.04	244.304
1375.63	249.017
1379.22	159.11
1382.81	171.544
1386.39	63.297
1389.98	19.289
1393.56	286.563
1397.14	151.184
1400.72	186.133
1404.3	103.391
1407.87	40.965
1411.45	61.143
1415.02	88.068
1418.59	30.61
1422.16	12.478
1425.73	125.662
1429.29	46.148
1432.86	175.901
1436.42	170.746
1439.98	118.912
1443.54	173.658
1447.1	124.928
1450.66	222.466
1454.21	242.946
1457.77	319.772
1461.32	381.432
1464.87	295.343
1468.42	118.969
1471.96	67.393
1475.51	174.768
1479.06	155.191
1482.6	94.962
1486.14	105.251
1489.68	160.993
1493.22	267.739
1496.75	279.776
1500.29	91.811
1503.82	124.401
1507.35	0
