Measurement: Raman, 514 nm, depolarized, Raman Data Processed
Mineral: Microcline
Rruff sample: R040154
Ideal chemistry: KAlSi_3_O_8_
Locality: Mitchell County, North Carolina, USA
Source: University of Arizona Mineral Museum
Description: White cleavage fragment with some perthitic character
Measured chemistry: (K_0.90_Na_0.09_Ba_0.01_)Al_1.00_(Si_2.99_Al_0.01_)_Î£=3_O_8_
Pin_id: L00336
Orientation: Laser parallel to (-1 0 -1). Fiducial mark perpendicular to laser is parallel to a [1 0 0]
Raman shift (cm-1)	intensity
94.768	0
98.947	2.994
103.124	832.07
107.3	2003.54
111.473	967.669
115.644	587.562
119.813	1975.99
123.981	4335.39
128.146	5705.29
132.309	4328.98
136.47	4752.86
140.63	8573.33
144.787	10340.3
148.942	15698
153.096	17230.8
157.247	18278.8
161.396	13540.5
165.544	6976.6
169.689	3938.75
173.833	3576.59
177.974	4106.21
182.114	3086.46
186.251	2200.88
190.387	1791.09
194.52	2495.98
198.652	4095.47
202.782	2369.44
206.909	1051.82
211.035	319.496
215.159	53.225
219.281	162.07
223.4	212.754
227.518	112.303
231.634	93.888
235.748	103.502
239.86	100.171
243.97	575.763
248.079	1773.01
252.185	4401.18
256.289	8249.52
260.391	7334.8
264.492	7237.14
268.59	5832.4
272.687	4665.47
276.781	6823.31
280.874	12867.2
284.964	17881.5
289.053	11981
293.14	6183.71
297.225	3671.12
301.308	2064.14
305.389	1030.86
309.468	445.315
313.545	266.547
317.62	171.57
321.693	497.157
325.765	1562.8
329.834	3115.62
333.902	2459.82
337.967	807.054
342.031	195.319
346.093	150.567
350.153	413.743
354.21	1005.86
358.267	1121.93
362.321	650.921
366.373	1016.94
370.423	2416.02
374.471	2326.1
378.518	529.347
382.563	130.412
386.605	27.592
390.646	9.242
394.685	281.404
398.722	1251.27
402.757	2293.18
406.79	1544.28
410.821	1072.1
414.851	598.595
418.878	55.052
422.904	128.856
426.927	47.569
430.949	61.976
434.969	196.414
438.987	255.16
443.003	827.088
447.018	2134.59
451.03	4643.72
455.041	6089.63
459.049	4086.74
463.056	3997.32
467.061	7029.71
471.064	15045.9
475.065	23233.9
479.064	15873.8
483.062	10399.4
487.057	6178.92
491.051	3498.27
495.043	3005.5
499.032	4466.59
503.02	8436.53
507.007	19921.2
510.991	39591.4
514.973	37793.8
518.954	17538.1
522.933	8056.38
526.91	4421.69
530.885	2620.88
534.858	1906.74
538.829	1380.05
542.799	919.667
546.766	642.837
550.732	800.938
554.696	351.116
558.658	581.8
562.618	317.256
566.576	182.828
570.533	460.897
574.488	396.556
578.44	556.061
582.391	848.277
586.341	455.258
590.288	294.148
594.233	107.07
598.177	140.877
602.119	159.324
606.059	84.592
609.997	32.4
613.933	239.34
617.868	391.904
621.801	490.307
625.731	730.547
629.66	912.625
633.588	970.555
637.513	828.338
641.437	1396.11
645.358	1908.85
649.278	2567.14
653.196	2443.27
657.113	1478.24
661.027	853.045
664.94	487.715
668.851	449.244
672.76	245.598
676.667	219.922
680.572	174.982
684.476	110.27
688.378	166.418
692.278	344.672
696.176	136.016
700.072	9.971
703.967	241.588
707.86	64.459
711.751	320.971
715.64	28.902
719.527	63.789
723.413	42.99
727.297	84.049
731.179	261.768
735.059	399.131
738.937	869.178
742.814	1687.89
746.689	3055.55
750.562	3632.51
754.433	2071.12
758.303	1163.86
762.17	1061.45
766.036	1141.33
769.901	958.525
773.763	487.457
777.624	441.543
781.482	263.438
785.339	292.316
789.195	287.562
793.048	193.836
796.9	236.971
800.75	283.914
804.598	244.674
808.445	1021.25
812.289	1929.65
816.132	1673.88
819.973	730.922
823.813	469.801
827.65	172.625
831.486	122.34
835.32	269.607
839.152	92.676
842.983	29.68
846.812	127.484
850.639	45.043
854.464	180.795
858.288	53.199
862.11	99.557
865.93	52.041
869.748	58.445
873.564	81.361
877.379	88.041
881.192	105.52
885.004	37.475
888.813	28.99
892.621	240.395
896.427	80.289
900.232	87.764
904.034	24.25
907.835	257.707
911.634	319.646
915.432	4.543
919.227	40.402
923.021	198.205
926.813	206.98
930.604	211.729
934.393	287.457
938.18	129.16
941.965	269.801
945.749	340.258
949.53	238.844
953.311	59.123
957.089	299.672
960.866	247.213
964.641	194.756
968.414	271.418
972.185	426.086
975.955	383.76
979.723	575.297
983.49	364.715
987.254	639.826
991.017	1508.2
994.779	1989.35
998.538	1725.27
1002.3	2058.82
1006.05	1755.6
1009.81	1179.81
1013.56	854.844
1017.31	779.684
1021.06	857.514
1024.81	870.955
1028.55	1367.5
1032.3	1342.77
1036.04	1485.98
1039.78	1536.35
1043.52	1376.64
1047.26	1178.85
1050.99	1358.81
1054.73	1209.35
1058.46	860.594
1062.19	585.738
1065.92	167.973
1069.65	157.664
1073.37	289.268
1077.1	212.469
1080.82	374.551
1084.54	350.588
1088.26	562.682
1091.97	452.994
1095.69	599.672
1099.4	1049.52
1103.12	966.873
1106.83	1166.18
1110.54	1435.66
1114.24	2204.58
1117.95	3712.83
1121.65	6142.73
1125.35	6744.18
1129.06	5264.05
1132.75	4006.61
1136.45	4312.23
1140.15	4329.93
1143.84	3168.36
1147.53	1841.28
1151.22	1010.74
1154.91	834.352
1158.6	402.344
1162.28	285.131
1165.97	335.512
1169.65	214.9
1173.33	71.533
1177.01	21.637
1180.69	95.441
1184.36	132.828
1188.04	157.041
1191.71	187.514
1195.38	35.252
1199.05	302.227
1202.71	58.84
1206.38	323.125
1210.04	339.531
1213.71	73.453
1217.37	277.469
1221.03	246.893
1224.68	326.662
1228.34	229.088
1231.99	112.857
1235.65	152.154
1239.3	187.205
1242.95	262.064
1246.59	454.412
1250.24	103.426
1253.88	126.207
1257.53	250.092
1261.17	58.99
1264.81	89.898
1268.45	198.826
1272.08	93.465
1275.72	95.848
1279.35	153.277
1282.98	141.014
1286.61	35.172
1290.24	94.658
1293.87	214.881
1297.49	45.926
1301.11	60.984
1304.73	65.883
1308.36	184.705
1311.97	111.518
1315.59	55.311
1319.2	85.023
1322.82	229.062
1326.43	193.457
1330.04	26.879
1333.65	147.816
1337.26	155.688
1340.86	122.828
1344.47	256.539
1348.07	353.754
1351.67	355.48
1355.27	209.031
1358.87	432.262
1362.46	307.664
1366.06	472.191
1369.65	231.711
1373.24	638.961
1376.83	597.906
1380.42	392.223
1384	538.582
1387.59	717.688
1391.17	422.992
1394.75	549.746
1398.33	492.707
1401.91	489.344
1405.49	361.184
1409.06	490.898
1412.64	70.895
1416.21	438.129
1419.78	156.43
1423.35	265.07
1426.91	288.035
1430.48	377.402
1434.05	145.559
1437.61	332.961
1441.17	496.934
1444.73	528.074
1448.29	346.406
1451.84	450.492
1455.4	362.664
1458.95	172.758
1462.5	209.797
1466.05	738.406
1469.6	0
