Measurement: Raman, 514 nm, depolarized, Raman Data Processed
Mineral: Microcline
Rruff sample: R050150
Ideal chemistry: KAlSi_3_O_8_
Locality: Crystal Peak area, Park/Teller Counties, Colorado, USA
Source: Dave Bunk Minerals
Description: Pale blue prismatic crystals
Measured chemistry: (K_0.95_Na_0.05_)_Î£=1_Al_1.00_Si_3.00_O_8_
Pin_id: L01075
Orientation: Laser parallel to (0 1 1). Fiducial mark perpendicular to laser is parallel to a [1 0 0]
Raman shift (cm-1)	intensity
131.492	0
136.445	2433.97
141.395	4398.28
146.343	8457.73
151.287	12527
156.228	14367.5
161.166	8741.46
166.1	3078.94
171.032	2391.79
175.961	5824.61
180.887	5255.85
185.809	2778.84
190.729	2142.65
195.645	3644.82
200.559	3633.58
205.469	1274.88
210.376	235.952
215.281	8.5332
220.182	194.079
225.08	151.309
229.976	137.92
234.868	122.895
239.757	118.73
244.643	702.302
249.527	2513.07
254.407	6105.46
259.284	8368.56
264.158	9202.6
269.029	7329.02
273.898	6105.9
278.763	9955.01
283.625	16552.7
288.485	12704.4
293.341	5762.03
298.194	3108.68
303.045	1564.32
307.892	956.212
312.736	628.411
317.578	597.967
322.417	994.055
327.252	2030.17
332.085	2760.16
336.914	1471.5
341.741	755.773
346.565	735.913
351.386	1012.89
356.204	1137.14
361.019	1033.54
365.831	978.335
370.64	1788.8
375.447	1162.61
380.25	200.909
385.05	25.6025
389.848	72.6445
394.643	685.928
399.434	1808.42
404.223	2309.87
409.009	1447.96
413.792	954.214
418.573	193.835
423.35	59.3897
428.124	112.644
432.896	168.455
437.665	528.335
442.431	1445.22
447.194	4119.2
451.954	8900.38
456.711	7487.46
461.465	4733.94
466.217	6978.03
470.966	14444.9
475.712	21031.7
480.455	13602.7
485.195	7944.04
489.932	3979.43
494.667	3196.57
499.399	5067.77
504.128	13028.8
508.854	29889.5
513.577	41034
518.297	22137
523.015	8284.03
527.73	3692.01
532.442	2053.08
537.151	1330.89
541.858	922.19
546.561	401.615
551.262	443.726
555.96	253.154
560.656	303.91
565.348	189.959
570.038	225.779
574.725	361.418
579.409	644.795
584.091	671.557
588.769	271.122
593.445	117.774
598.119	1.20703
602.789	75.7559
607.457	80.5371
612.122	8.10547
616.784	80.5732
621.443	279.495
626.1	616.747
630.754	873.322
635.405	985.809
640.054	1289.41
644.7	1729.87
649.343	2388.54
653.983	2359.4
658.621	1682.37
663.256	825.402
667.888	514.733
672.518	244.522
677.144	22.4727
681.769	0.540039
686.39	48.9922
691.009	91.0664
695.625	143.81
700.238	17.6865
704.849	63.5166
709.457	257.631
714.062	235.332
718.665	227.864
723.265	221.885
727.863	295.878
732.457	461.442
737.049	962.579
741.639	1911.7
746.225	3713.23
750.81	3841.11
755.391	2082.01
759.97	1223.04
764.546	993.067
769.12	793.757
773.69	405.967
778.259	492.453
782.824	170.967
787.387	163.72
791.948	307.221
796.506	511.171
801.061	553.509
805.613	1053.08
810.163	2387.91
814.711	2399.85
819.255	1200.41
823.797	516.046
828.337	284.847
832.874	149.897
837.408	275.211
841.94	25.3535
846.469	0.166016
850.996	118.652
855.52	58.8594
860.041	6.17383
864.56	109.143
869.077	160.814
873.59	83.5547
878.101	84.0518
882.61	61.7627
887.116	32.8799
891.62	148.217
896.121	149.17
900.619	48.1953
905.115	11.0986
909.608	194.094
914.099	89.7861
918.587	61.7852
923.073	38.6562
927.556	3.76367
932.037	165.989
936.515	144.629
940.991	7.19141
945.464	151.66
949.934	132.051
954.403	179.395
958.868	236.94
963.331	287.587
967.792	253.358
972.25	273.072
976.705	436.019
981.158	454.108
985.609	861.909
990.057	1570.96
994.503	2094.6
998.946	1889.99
1003.39	1899.65
1007.83	1406.12
1012.26	972.662
1016.69	878.213
1021.12	855.297
1025.55	778.648
1029.98	928.151
1034.4	1067.74
1038.82	856.135
1043.24	834.741
1047.66	967.396
1052.07	1145.16
1056.48	743.266
1060.89	370.276
1065.3	271.837
1069.7	145.123
1074.1	270.815
1078.5	316.937
1082.9	430.251
1087.29	370.762
1091.68	839.475
1096.07	1090.38
1100.46	1291.48
1104.84	1279.8
1109.23	1606.33
1113.61	2250.85
1117.98	4533.79
1122.36	6600.45
1126.73	5521.75
1131.1	4367.6
1135.47	4533.79
1139.83	4273.55
1144.19	2589.97
1148.56	1397.18
1152.91	778.805
1157.27	719.434
1161.62	341.381
1165.97	290.356
1170.32	118.102
1174.67	307.728
1179.01	192.588
1183.35	222.1
1187.69	87.9336
1192.03	63.4023
1196.36	71.0156
1200.7	39.2422
1205.03	136.559
1209.35	165.467
1213.68	168.502
1218	95.6562
1222.32	33.9199
1226.64	92.2969
1230.95	116.777
1235.27	152.359
1239.58	165.008
1243.89	104.332
1248.19	122.963
1252.5	143.529
1256.8	187.621
1261.1	55.6797
1265.4	27.1738
1269.69	32.3086
1273.98	23.2246
1278.27	130.754
1282.56	144.631
1286.85	61.5527
1291.13	156.496
1295.41	270.438
1299.69	142.357
1303.97	255.275
1308.24	274.19
1312.51	117.107
1316.78	195.01
1321.05	196.315
1325.31	78.8184
1329.58	170.121
1333.84	65.8281
1338.1	294.715
1342.35	292.5
1346.61	280.18
1350.86	126.846
1355.11	76.4863
1359.35	382.025
1363.6	264.066
1367.84	72.4727
1372.08	327.287
1376.32	172.574
1380.55	215.047
1384.79	174.078
1389.02	146.522
1393.25	231.807
1397.47	255.748
1401.7	215.578
1405.92	52.5293
1410.14	161.022
1414.36	203.166
1418.57	133.023
1422.79	37.4297
1427	215.938
1431.21	256.477
1435.41	254.49
1439.62	306.914
1443.82	215.394
1448.02	257.799
1452.22	225.225
1456.41	345.951
1460.61	64.834
1464.8	212.006
1468.99	261.842
1473.17	209.016
1477.36	198.731
1481.54	163.738
1485.72	243.018
1489.9	36.8125
1494.08	50.5898
1498.25	112.481
1502.42	251.453
1506.59	58.4961
1510.76	378.535
1514.93	137.586
1519.09	206.529
1523.25	197.856
1527.41	106.945
1531.57	234.023
1535.72	290.859
1539.87	223.195
1544.02	217.447
1548.17	151.389
1552.32	103.273
1556.46	50.1602
1560.6	125.777
