Measurement: Raman, 514 nm, depolarized, Raman Data Processed
Mineral: Microcline
Rruff sample: R040154
Ideal chemistry: KAlSi_3_O_8_
Locality: Mitchell County, North Carolina, USA
Source: University of Arizona Mineral Museum
Description: White cleavage fragment with some perthitic character
Measured chemistry: (K_0.90_Na_0.09_Ba_0.01_)Al_1.00_(Si_2.99_Al_0.01_)_Î£=3_O_8_
Pin_id: L00079
Orientation: Laser parallel to a* (1 0 0). Fiducial mark perpendicular to laser is parallel to -b [0 -1 0]
Raman shift (cm-1)	intensity
94.768	0
98.947	363.235
103.124	1822.91
107.3	3654.78
111.473	3932.45
115.644	2205.04
119.813	2516.94
123.981	3746.94
128.146	3938.77
132.309	2470.48
136.47	1188.65
140.63	1098.1
144.787	1889.81
148.942	2514.16
153.096	2517.37
157.247	1913.3
161.396	1577.77
165.544	1306.08
169.689	1248.99
173.833	1887.18
177.974	2726.03
182.114	2223.14
186.251	1874.41
190.387	1231.29
194.52	1116.97
198.652	1636.44
202.782	1304.51
206.909	1255.28
211.035	933.576
215.159	280.763
219.281	61.495
223.4	41.347
227.518	134.957
231.634	138.73
235.748	153.965
239.86	181.371
243.97	154
248.079	829.291
252.185	1740.34
256.289	3006.43
260.391	4351.38
264.492	5508.43
268.59	4729.6
272.687	3391.55
276.781	3278.02
280.874	4813.5
284.964	6418.36
289.053	5831.08
293.14	3552.53
297.225	1551.43
301.308	601.334
305.389	123.145
309.468	47.168
313.545	47.738
317.62	36.738
321.693	16.807
325.765	820.586
329.834	1221.6
333.902	261.551
337.967	11.82
342.031	125.025
346.093	227.678
350.153	35.057
354.21	171.496
358.267	182.756
362.321	329.879
366.373	835.744
370.423	1706.88
374.471	1535.5
378.518	297.123
382.563	75.496
386.605	16.248
390.646	31.836
394.685	287.549
398.722	924.311
402.757	1646.83
406.79	1256.91
410.821	1402.79
414.851	1166.89
418.878	492.842
422.904	215.629
426.927	326.307
430.949	177.773
434.969	571.861
438.987	804.799
443.003	1688.81
447.018	4161.91
451.03	7495.39
455.041	8735.28
459.049	5740.43
463.056	4894.91
467.061	7660.99
471.064	14325.8
475.065	20936.2
479.064	17659.1
483.062	10533
487.057	5807.5
491.051	3838.6
495.043	3667.36
499.032	6300.46
503.02	12811.6
507.007	24539.8
510.991	33872.3
514.973	27707.2
518.954	13843.7
522.933	6684.84
526.91	3939.72
530.885	2478.38
534.858	1685.77
538.829	1361.05
542.799	769.639
546.766	527.088
550.732	663.264
554.696	317.846
558.658	467.041
562.618	210.672
566.576	72.793
570.533	379.369
574.488	500.691
578.44	548.699
582.391	844.703
586.341	653.385
590.288	375.789
594.233	158.031
598.177	23.498
602.119	20.445
606.059	183.104
609.997	34.285
613.933	112.193
617.868	299.578
621.801	600.916
625.731	267.908
629.66	386.615
633.588	609.18
637.513	469.686
641.437	842.068
645.358	1444.18
649.278	1567.99
653.196	1556.49
657.113	1087.75
661.027	689.967
664.94	177.213
668.851	420.527
672.76	340.592
676.667	149.24
680.572	165.078
684.476	40.631
688.378	224.961
692.278	338.424
696.176	459.461
700.072	13.229
703.967	33.596
707.86	81.043
711.751	514.836
715.64	133.697
719.527	391.928
723.413	457.398
727.297	969.17
731.179	2339.63
735.059	835.518
738.937	1531.72
742.814	2485.85
746.689	4082.91
750.562	4411.74
754.433	3178.31
758.303	2336.74
762.17	2780.95
766.036	2479.3
769.901	2446.02
773.763	559.053
777.624	988.924
781.482	462.377
785.339	498.076
789.195	379.887
793.048	387.877
796.9	864.246
800.75	816.398
804.598	1045.48
808.445	2440.21
812.289	3965.17
816.132	3311.5
819.973	1544.04
823.813	918.762
827.65	533.918
831.486	166.828
835.32	415.947
839.152	366.23
842.983	95
846.812	165.613
850.639	394.215
854.464	150.855
858.288	177.883
862.11	125.785
865.93	200.066
869.748	189.918
873.564	110.168
877.379	32.273
881.192	45.641
885.004	140.984
888.813	69.445
892.621	87.957
896.427	26.301
900.232	150.402
904.034	151.293
907.835	296.688
911.634	276.785
915.432	200.984
919.227	235.184
923.021	336.605
926.813	257.176
930.604	360.715
934.393	553.227
938.18	201.707
941.965	219.156
945.749	322.559
949.53	306.93
953.311	82.277
957.089	391.609
960.866	185.926
964.641	444.219
968.414	343.516
972.185	664.797
975.955	820.117
979.723	662.512
983.49	271.652
987.254	667.715
991.017	1226.14
994.779	1752.44
998.538	944.477
1002.3	1487.46
1006.05	1322.28
1009.81	912.41
1013.56	882.762
1017.31	1015.52
1021.06	949.953
1024.81	602.41
1028.55	1171.56
1032.3	997.609
1036.04	1017.92
1039.78	1467.46
1043.52	1117.76
1047.26	1087.06
1050.99	1331.45
1054.73	853.238
1058.46	864.484
1062.19	439.539
1065.92	475.898
1069.65	412.652
1073.37	515.109
1077.1	473.641
1080.82	858.359
1084.54	863.945
1088.26	1040.09
1091.97	1514.34
1095.69	2313.54
1099.4	3426.56
1103.12	2711.35
1106.83	2585.3
1110.54	2541.25
1114.24	3180.35
1117.95	4013.08
1121.65	6048.19
1125.35	5473.72
1129.06	4288.3
1132.75	3367.56
1136.45	3035.6
1140.15	2989.2
1143.84	2346.45
1147.53	1512.35
1151.22	1007.43
1154.91	882.359
1158.6	367.293
1162.28	328.598
1165.97	9.656
1169.65	367.945
1173.33	3.535
1177.01	247.703
1180.69	91.277
1184.36	194.41
1188.04	102.539
1191.71	365.047
1195.38	342.668
1199.05	404.152
1202.71	147.742
1206.38	568
1210.04	347.977
1213.71	15.75
1217.37	353.188
1221.03	329.332
1224.68	539.602
1228.34	522.949
1231.99	278.258
1235.65	367.105
1239.3	415.09
1242.95	285.934
1246.59	397.672
1250.24	172.082
1253.88	253.289
1257.53	207.801
1261.17	247.102
1264.81	280.465
1268.45	334.75
1272.08	177.223
1275.72	138.672
1279.35	236.844
1282.98	4.449
1286.61	112.043
1290.24	203.41
1293.87	95.836
1297.49	3.664
1301.11	95.031
1304.73	385.352
1308.36	192.062
1311.97	171.406
1315.59	124.27
1319.2	144.844
1322.82	498.656
1326.43	226.078
1330.04	351.793
1333.65	354.914
1337.26	558.074
1340.86	519.824
1344.47	572.082
1348.07	796.773
1351.67	737.012
1355.27	316.512
1358.87	495.891
1362.46	464.465
1366.06	776.105
1369.65	383.137
1373.24	619.25
1376.83	370.645
1380.42	452.387
1384	521.66
1387.59	638.312
1391.17	264.137
1394.75	397.234
1398.33	769.746
1401.91	565.887
1405.49	536.207
1409.06	818.234
1412.64	154.551
1416.21	285.039
1419.78	0.094
