Measurement: Raman, 514 nm, depolarized, Raman Data Processed
Mineral: Microcline
Rruff sample: R050193
Ideal chemistry: KAlSi_3_O_8_
Locality: Devil's Head, Douglas County, Colorado, USA
Source: Dave Bunk Minerals
Description: White to colorless heterogeneous mixture of K and Na feldspar in a cluster of crystals. Crystal structure determined, presented below. This sample is known as an intermediate microcline in the literature.
Measured chemistry: (K_0.929_Na_0.071_)(Al_1.005_Si_2.994_Fe_0.001_)O_7.993_F_0.007_  ; Light Band :  (Na_0.973_K_0.007_Ca_0.020_)(Al_1.020_Si_2.980_)O_8_ ; Dark Band
Pin_id: L00660
Orientation: Laser parallel to c* (0 0 1). Fiducial mark perpendicular to laser is parallel to a [1 0 0]
Raman shift (cm-1)	intensity
142.556	0
147.482	827.08
152.405	3072.91
157.326	4623.72
162.244	3392.73
167.159	1506.97
172.072	840.791
176.982	988.426
181.89	1247.48
186.795	1134.91
191.697	1090.6
196.597	1429
201.494	1266.94
206.389	536.332
211.281	283.758
216.17	100.121
221.057	192.269
225.941	228.637
230.823	75.2617
235.702	37.9844
240.578	229.227
245.452	745.865
250.323	1476.9
255.192	2538.16
260.058	4329.54
264.921	4936.75
269.782	5702.8
274.64	6760.44
279.495	8524.78
284.348	8190.74
289.198	5341.27
294.046	2843.5
298.891	1258.78
303.733	712.547
308.573	421.127
313.41	575.85
318.245	624.934
323.077	861.475
327.906	1158.4
332.733	773.812
337.557	604.527
342.379	381.869
347.198	610.711
352.014	702.406
356.828	491.897
361.639	453.19
366.447	633.289
371.253	526.047
376.056	297.92
380.857	375.053
385.655	214.318
390.451	143.971
395.243	307.467
400.034	710.291
404.821	970.693
409.606	885.019
414.389	329.426
419.168	73.3262
423.945	43.8438
428.72	102.928
433.492	478.332
438.261	659.436
443.028	1609.89
447.792	2933.74
452.553	4378.67
457.312	4266.58
462.068	3370.71
466.822	4347.05
471.573	6878.29
476.321	8129.83
481.067	6112.7
485.81	3678.17
490.551	2992.14
495.289	3183.43
500.024	5732.91
504.757	12635.6
509.487	20590.1
514.214	22751.4
518.939	12281.4
523.661	5203.15
528.381	2503.04
533.098	1741.94
537.812	1023.58
542.524	849.537
547.233	495.627
551.94	443.215
556.644	512.561
561.345	187.51
566.044	167.992
570.74	288.816
575.433	435.547
580.124	437.324
584.812	165.59
589.498	80.3594
594.181	74.3633
598.861	212.383
603.539	144.68
608.214	95.5625
612.887	364.019
617.557	146.164
622.224	231.996
626.889	411.371
631.551	646.285
636.21	296.731
640.867	495.902
645.521	362.617
650.173	478.836
654.822	618.551
659.468	409.711
664.112	207.516
668.753	42.1055
673.392	62.2891
678.028	206.773
682.661	136.922
687.292	47.1562
691.92	63.1758
696.545	15.9141
701.168	37.8828
705.788	145.879
710.406	124.898
715.021	117.805
719.633	240.66
724.243	141.043
728.85	503.144
733.455	658.106
738.056	1004.42
742.656	1758.27
747.252	1888.16
751.846	1977.15
756.438	1687.54
761.027	1780.64
765.613	1519.84
770.196	1045.17
774.777	816.688
779.356	805.438
783.932	619.945
788.505	736.816
793.075	1253.23
797.643	1290.8
802.208	1294.69
806.771	2091.28
811.331	2591.07
815.888	2125.98
820.443	1069.24
824.995	642.606
829.545	325.059
834.092	174.25
838.636	107.871
843.178	113.981
847.717	254.684
852.254	304.32
856.788	54.332
861.319	203.973
865.848	416.258
870.374	217.203
874.897	144.816
879.418	9.05078
883.936	139.762
888.452	279.969
892.965	1.35938
897.475	279.098
901.983	253.434
906.488	161.488
910.99	26.1406
915.49	112.414
919.988	133.43
924.482	37.0078
928.974	193.387
933.464	129.078
937.951	82.293
942.435	65.5586
946.917	119.832
951.396	216.188
955.872	283.508
960.346	18.4492
964.817	161.176
969.285	297.871
973.751	805.082
978.215	425.164
982.675	513.59
987.134	802.012
991.589	1018.92
996.042	1084.57
1000.49	1095.45
1004.94	740.66
1009.38	789.457
1013.83	707.496
1018.27	844.711
1022.7	614.617
1027.14	749.598
1031.57	665.773
1036	234.484
1040.43	587.625
1044.85	467.602
1049.27	440.445
1053.69	241.047
1058.11	706.973
1062.52	296.727
1066.93	474.348
1071.34	193.426
1075.75	226.602
1080.15	491.707
1084.55	333.691
1088.95	618.211
1093.35	1028.1
1097.74	1089.58
1102.13	873.625
1106.52	1193.92
1110.9	770.133
1115.28	1217.33
1119.66	1541.52
1124.04	1420.12
1128.41	1481.11
1132.79	1578.08
1137.16	1418.82
1141.52	1178.06
1145.89	1049.79
1150.25	821.086
1154.61	496.805
1158.96	528.977
1163.32	274.074
1167.67	62.8633
1172.02	282.609
1176.36	113.789
1180.71	133.262
1185.05	247.606
1189.38	141.644
1193.72	76.4258
1198.05	101.664
1202.38	304.41
1206.71	72.5586
1211.04	116.312
1215.36	317.152
1219.68	314.07
1224	110.703
1228.31	190.176
1232.62	431.977
1236.93	467.707
1241.24	415.371
1245.54	232.902
1249.84	111.66
1254.14	1.10156
1258.44	248.586
1262.73	7.42578
1267.03	33.8594
1271.31	17.3945
1275.6	320.562
1279.88	90.5742
1284.16	364.301
1288.44	324.606
1292.72	87.9688
1296.99	186.633
1301.26	43.7852
1305.53	100.812
1309.79	176.574
1314.06	266.418
1318.32	259.898
1322.57	319.914
1326.83	209.68
1331.08	272.422
1335.33	604.309
1339.58	150.578
1343.82	487.836
1348.06	399.426
1352.3	147.918
1356.54	570.168
1360.77	493.973
1365.01	20.5977
1369.23	50.0078
1373.46	291.844
1377.68	197.629
1381.9	125.852
1386.12	189.445
1390.34	424.906
1394.55	55.5234
1398.76	34.5234
1402.97	194.656
1407.18	393.723
1411.38	252.305
1415.58	290.473
1419.78	187.769
1423.97	212.078
1428.17	62.9688
1432.36	485.047
1436.54	108.363
1440.73	321.648
1444.91	75.0859
1449.09	303.953
1453.27	235.926
1457.44	305.75
1461.61	328.617
1465.78	404.648
1469.95	422.32
1474.11	455.773
1478.27	313.008
1482.43	632.152
1486.59	102.731
1490.74	401.273
1494.89	510.18
1499.04	204.644
1503.19	583.012
1507.33	156.777
1511.47	358.688
1515.61	641.731
1519.75	411.016
1523.88	432.504
1528.01	236.973
1532.14	49.5391
1536.26	300.144
1540.38	13.25
1544.51	141.715
1548.62	236.625
1552.74	313.246
1556.85	47.2422
1560.96	588.246
