Measurement: Raman, 514 nm, depolarized, Raman Data Processed
Mineral: Microcline
Rruff sample: R050054
Ideal chemistry: KAlSi_3_O_8_
Locality: Kenticha, Negele area, Sidamo Province, Ethiopia
Source: Rock Currier
Description: Light blue single crystal
Measured chemistry: (K_0.96_Na_0.04_)Al_1.00_Si_3.00_O_8_
Pin_id: M00460
Orientation: Laser parallel to (0 1 1). Fiducial mark perpendicular to laser is parallel to -a [-1 0 0]
Raman shift (cm-1)	intensity
91.527	0
95.723	11.155
99.917	58.956
104.109	784.139
108.298	3362.3
112.486	4136.97
116.672	1251.56
120.855	1277.17
125.036	4593.12
129.216	7537.2
133.393	4706.35
137.568	3381.91
141.741	6716.33
145.911	6469.82
150.08	8252.2
154.247	13329.4
158.411	20321.4
162.574	16764.7
166.734	8415.25
170.893	4327.86
175.049	3860.65
179.203	6306.86
183.355	6089.14
187.505	3239.36
191.653	1865.76
195.799	2442.91
199.943	4578.38
204.084	3728
208.224	1500.95
212.362	707.045
216.497	159.005
220.631	125.94
224.762	152.886
228.891	196.14
233.018	198.956
237.144	117.898
241.267	10.443
245.388	266.406
249.507	756.122
253.624	2381.31
257.739	6395.06
261.852	8072.14
265.962	8877.18
270.071	8691.38
274.178	5582.61
278.283	5296.82
282.385	10121.1
286.486	18508.7
290.584	15864.8
294.681	7418.71
298.775	3436.18
302.868	2029.54
306.958	1205.09
311.047	669.025
315.133	427.471
319.217	356.442
323.299	423.744
327.38	837.833
331.458	2171.51
335.534	2472.34
339.608	1119.69
343.681	523.677
347.751	315.204
351.819	329.194
355.885	667.64
359.949	818.58
364.011	616.032
368.071	683.896
372.129	1431.04
376.185	1657.66
380.239	675.518
384.291	265.941
388.341	84.52
392.389	49.177
396.435	74.432
400.479	534.47
404.521	1679.88
408.561	1251.59
412.599	999.618
416.636	830.387
420.67	171.989
424.702	80.013
428.732	101.913
432.76	38.796
436.786	99.494
440.81	359.084
444.832	857.377
448.852	2369.98
452.87	6687
456.887	10112.5
460.901	5972.34
464.913	3674.64
468.923	4207.48
472.931	8530.52
476.938	16322.9
480.942	14142.1
484.944	9762.67
488.945	6447.33
492.943	3469.06
496.94	2801.6
500.934	3448.96
504.927	6499.99
508.917	14872.1
512.906	34270.7
516.892	41233.1
520.877	21378.5
524.86	9343.26
528.841	4868.27
532.82	2860.51
536.796	1983.3
540.771	1448.36
544.744	1051.66
548.715	810.624
552.684	642.157
556.652	556.33
560.617	437.737
564.58	382.355
568.541	353.619
572.501	331.639
576.458	376.673
580.414	636.385
584.367	960.951
588.319	840.717
592.268	376.03
596.216	174.549
600.162	59.896
604.106	70.638
608.048	46.359
611.988	51.064
615.926	51.753
619.862	112.619
623.797	230.092
627.729	517.755
631.659	770.436
635.588	792.188
639.515	782.061
643.439	1072.05
647.362	1478.13
651.283	2116.24
655.202	2366.36
659.119	1825.5
663.034	1129.68
666.947	641.958
670.859	350.362
674.768	195.861
678.676	19.403
682.581	26.026
686.485	59.462
690.387	2.098
694.287	53.265
698.185	41.815
702.081	56.191
705.975	58.569
709.868	48.067
713.758	144.711
717.647	105.688
721.533	18.771
725.418	116.216
729.301	223.791
733.182	275.724
737.061	602.484
740.939	997.981
744.814	1993.96
748.688	4033.74
752.559	4947.43
756.429	2917.09
760.297	1583
764.163	1208.47
768.027	1132.69
771.89	945.294
775.75	631.973
779.609	362.558
783.465	327.036
787.32	229.424
791.173	327.719
795.024	387.919
798.873	449.022
802.721	543.026
806.566	937.93
810.41	2088.73
814.252	4265.43
818.092	4039.03
821.93	1802.52
825.766	830.908
829.601	440.635
833.433	321.185
837.264	195.674
841.093	167.042
844.92	77.291
848.745	44.96
852.568	52.442
856.39	17.062
860.209	12.658
864.027	18.522
867.843	4.02
871.657	4.303
875.47	7.095
879.28	29.917
883.089	58.066
886.896	17.865
890.701	19.517
894.504	23.065
898.305	32.48
902.105	21.768
905.902	21.961
909.698	2.933
913.492	18.074
917.285	1.99
921.075	30.816
924.864	91.576
928.65	67.271
932.435	127.902
936.218	96.472
940	119.983
943.779	91.435
947.557	160.834
951.333	168.186
955.107	205.486
958.879	189.736
962.65	179.937
966.418	235.092
970.185	267.22
973.95	352.312
977.714	376.363
981.475	534.378
985.235	577.357
988.993	922.316
992.749	1757.31
996.503	2590.31
1000.26	2335.74
1004.01	2082.66
1007.75	1723.85
1011.5	1123.18
1015.25	793.336
1018.99	613.222
1022.73	528.032
1026.47	585.999
1030.21	612.376
1033.95	720.523
1037.68	822.392
1041.41	1032.67
1045.15	736.239
1048.88	600.455
1052.6	625.5
1056.33	448.334
1060.05	295.364
1063.78	226.219
1067.5	140.304
1071.21	171.437
1074.93	155.74
1078.65	124.032
1082.36	233.472
1086.07	308.875
1089.78	327.307
1093.49	621.768
1097.2	956.867
1100.9	1282.54
1104.6	1173.06
1108.3	927.598
1112	937.27
1115.7	1327.17
1119.4	2134.31
1123.09	3533.14
1126.78	4156.94
1130.47	3386.82
1134.16	2894.72
1137.85	3513.96
1141.54	4016.93
1145.22	2885.46
1148.9	1764.94
1152.58	1137.51
1156.26	731.402
1159.94	476.074
1163.61	390.942
1167.28	306.655
1170.95	189.883
1174.62	210.73
1178.29	210.28
1181.96	197.271
1185.62	172.77
1189.29	50.437
1192.95	67.99
1196.61	11.971
1200.26	110.904
1203.92	5.286
1207.57	117.101
1211.23	113.558
1214.88	62.818
1218.53	44.979
1222.17	47.212
1225.82	5.597
1229.46	89.969
1233.11	97.803
1236.74	38.096
1240.38	64.97
1244.02	73.806
1247.66	64.65
1251.29	61.516
1254.92	64.628
1258.55	34.243
1262.18	12.754
1265.81	129.115
1269.43	94.647
1273.06	69.641
1276.68	58.717
1280.3	21.547
1283.91	13.21
1287.53	16.194
1291.15	41.791
1294.76	15.525
1298.37	42.437
1301.98	52.315
1305.59	28.958
1309.19	0.512
1312.8	15.791
1316.4	2.698
1320	47.309
1323.6	3.17
1327.2	46.891
1330.8	34.468
1334.39	38.89
1337.98	76.163
1341.58	48.041
1345.16	13.703
1348.75	73.166
1352.34	37.868
1355.92	2.669
1359.51	49.764
1363.09	59.016
1366.67	66.155
1370.24	55.54
1373.82	36.311
1377.39	64.28
1380.97	73.854
1384.54	75.778
1388.11	55.647
1391.68	64.423
1395.24	38.71
1398.81	95.763
1402.37	104.745
1405.93	113.06
1409.49	125.353
1413.05	74.186
1416.6	126.875
1420.16	64.126
1423.71	64.222
1427.26	42.718
1430.81	72.17
1434.36	64.99
1437.91	60.931
1441.45	83.619
1444.99	141.971
1448.54	170.44
1452.08	171.889
1455.61	151.58
1459.15	84.617
1462.68	118.711
1466.22	130.248
1469.75	43.111
1473.28	33.326
1476.81	51.396
1480.33	135.061
1483.86	108.905
1487.38	131.38
1490.9	73.693
1494.42	141.411
1497.94	85.517
1501.46	92.589
1504.97	57.606
1508.49	2.92
1512	17.165
1515.51	0
