Measurement: Raman, 514 nm, depolarized, Raman Data Processed
Mineral: Microcline
Rruff sample: R040154
Ideal chemistry: KAlSi_3_O_8_
Locality: Mitchell County, North Carolina, USA
Source: University of Arizona Mineral Museum
Description: White cleavage fragment with some perthitic character
Measured chemistry: (K_0.90_Na_0.09_Ba_0.01_)Al_1.00_(Si_2.99_Al_0.01_)_Î£=3_O_8_
Pin_id: L00168
Orientation: Laser parallel to (0 1 1). Fiducial mark perpendicular to laser is parallel to -a [-1 0 0]
Raman shift (cm-1)	intensity
90.587	0
94.768	0.729
98.947	931.859
103.124	2180.64
107.3	4187.97
111.473	3046.82
115.644	1931.94
119.813	3431.45
123.981	6063.41
128.146	7810.19
132.309	5796.78
136.47	4903.84
140.63	7039.84
144.787	7209.43
148.942	9447.89
153.096	12430.5
157.247	15313.9
161.396	12738.7
165.544	6843.29
169.689	4180.24
173.833	4534.71
177.974	5527.6
182.114	4012.14
186.251	2387.74
190.387	2021.13
194.52	2757.4
198.652	4167.49
202.782	2600.59
206.909	1179.11
211.035	479.877
215.159	45.057
219.281	211.137
223.4	73.121
227.518	132.953
231.634	134.524
235.748	141.644
239.86	193.234
243.97	556.677
248.079	1841.85
252.185	4322.04
256.289	8246.32
260.391	8666.76
264.492	9056.31
268.59	7520.94
272.687	5434.09
276.781	6624.6
280.874	11807
284.964	16181.7
289.053	11377.4
293.14	5229.77
297.225	2407.49
301.308	1131.43
305.389	467.54
309.468	93.778
313.545	70.068
317.62	13.207
321.693	234.397
325.765	1108.59
329.834	2107.59
333.902	1915.4
337.967	512.159
342.031	10.875
346.093	53.439
350.153	110.728
354.21	470.845
358.267	592.891
362.321	239.826
366.373	412.607
370.423	1194.82
374.471	1156.04
378.518	158.428
382.563	23.851
386.605	64.187
390.646	66.221
394.685	197.822
398.722	728.873
402.757	1303.97
406.79	1114.18
410.821	1167.37
414.851	753.391
418.878	122.326
422.904	102.666
426.927	56.93
430.949	56.895
434.969	302.039
438.987	625.02
443.003	1361.8
447.018	3494.82
451.03	7185.39
455.041	8715.17
459.049	5275.52
463.056	4212.77
467.061	5962.9
471.064	11050.5
475.065	16414
479.064	12243.9
483.062	8661.31
487.057	5669.66
491.051	3328.71
495.043	2976.45
499.032	4657.88
503.02	8886.58
507.007	20769.9
510.991	38344.9
514.973	37364.2
518.954	18016.1
522.933	8429.62
526.91	4546.47
530.885	2673.05
534.858	2137
538.829	1547.8
542.799	1016.01
546.766	698.459
550.732	831.635
554.696	470.027
558.658	546.398
562.618	492.811
566.576	244.814
570.533	407.998
574.488	571.494
578.44	772.311
582.391	1127.66
586.341	778.545
590.288	315.043
594.233	173.703
598.177	131.229
602.119	199.76
606.059	70.307
609.997	44.84
613.933	175.018
617.868	336.832
621.801	778.365
625.731	585.625
629.66	701.607
633.588	949.361
637.513	806.07
641.437	1429.61
645.358	1957.88
649.278	2384.87
653.196	2357.61
657.113	1806.07
661.027	937.299
664.94	389.371
668.851	473.393
672.76	281.131
676.667	44.545
680.572	131.316
684.476	85.777
688.378	163.477
692.278	364.152
696.176	269.189
700.072	26.473
703.967	167.521
707.86	40.848
711.751	364.219
715.64	44.721
719.527	154.602
723.413	133.674
727.297	216.672
731.179	358.543
735.059	774.834
738.937	1550.55
742.814	2779.79
746.689	5012.38
750.562	5945.25
754.433	3370.29
758.303	1794.85
762.17	1463.08
766.036	1569.41
769.901	1175.41
773.763	881.674
777.624	653.328
781.482	408.576
785.339	403.627
789.195	387.488
793.048	491.223
796.9	720.707
800.75	729.008
804.598	1428.17
808.445	2564.08
812.289	4561.85
816.132	3861.46
819.973	1638.91
823.813	901.072
827.65	509.006
831.486	136.223
835.32	245.199
839.152	235.84
842.983	104.426
846.812	114.234
850.639	294.633
854.464	73.498
858.288	11.855
862.11	93.885
865.93	71.549
869.748	68.109
873.564	105.135
877.379	115.48
881.192	24.158
885.004	31.896
888.813	40.059
892.621	153.75
896.427	34.434
900.232	154.328
904.034	87.967
907.835	129.639
911.634	204.24
915.432	32.822
919.227	127.367
923.021	345.924
926.813	67.529
930.604	331.115
934.393	543.662
938.18	147.201
941.965	360.727
945.749	448.238
949.53	456.758
953.311	90.332
957.089	274.994
960.866	194.662
964.641	248.375
968.414	314.238
972.185	596.121
975.955	628.057
979.723	774.109
983.49	521.832
987.254	1133.96
991.017	2383.16
994.779	3295.72
998.538	2374.05
1002.3	2606.71
1006.05	1967.62
1009.81	1238.98
1013.56	840.795
1017.31	923.912
1021.06	858.014
1024.81	601.062
1028.55	1209.35
1032.3	967.609
1036.04	1069.06
1039.78	1452.93
1043.52	1109.48
1047.26	750.102
1050.99	834.279
1054.73	635.705
1058.46	524.076
1062.19	558.455
1065.92	180.555
1069.65	139.074
1073.37	259.836
1077.1	137.82
1080.82	439.871
1084.54	444.727
1088.26	560.637
1091.97	455.988
1095.69	835.938
1099.4	1379.6
1103.12	1053.74
1106.83	909.184
1110.54	886.453
1114.24	1168.26
1117.95	1607.91
1121.65	2994.89
1125.35	3234.3
1129.06	2925.62
1132.75	2219.75
1136.45	2646.61
1140.15	2966.78
1143.84	2259.54
1147.53	1499.73
1151.22	728.363
1154.91	498.551
1158.6	206.312
1162.28	201.062
1165.97	408.297
1169.65	325.438
1173.33	114.102
1177.01	80.465
1180.69	38.855
1184.36	169.66
1188.04	94.863
1191.71	313.434
1195.38	203.297
1199.05	397.281
1202.71	19.824
1206.38	473.922
1210.04	196.477
1213.71	25.531
1217.37	245.73
1221.03	118.738
1224.68	578.859
1228.34	410.141
1231.99	269.672
1235.65	355.41
1239.3	309.035
1242.95	65.754
1246.59	384.129
1250.24	193.066
1253.88	212.332
1257.53	450.664
1261.17	323.113
1264.81	268.656
1268.45	489.586
1272.08	100.48
1275.72	218.465
1279.35	484.977
1282.98	54.766
1286.61	47.875
1290.24	386.469
1293.87	293.383
1297.49	32.688
1301.11	219.445
1304.73	12.336
1308.36	320.559
1311.97	88.617
1315.59	88.523
1319.2	110.914
1322.82	215.613
1326.43	279.434
1330.04	337.352
1333.65	493.93
1337.26	414.293
1340.86	189.562
1344.47	454.121
1348.07	428.359
1351.67	331.234
1355.27	289.797
1358.87	496.266
1362.46	607.344
1366.06	698.367
1369.65	603.188
1373.24	742.223
1376.83	227.016
1380.42	599.129
1384	736.789
1387.59	637.27
1391.17	291.148
1394.75	195.098
1398.33	610.445
1401.91	512.621
1405.49	568.516
1409.06	499.234
1412.64	28.289
1416.21	367.035
1419.78	224.07
1423.35	350.262
1426.91	211.898
1430.48	68.137
1434.05	162.891
1437.61	3.848
1441.17	364.316
