Measurement: Raman, 514 nm, depolarized, Raman Data Processed
Mineral: Microcline
Rruff sample: R050054
Ideal chemistry: KAlSi_3_O_8_
Locality: Kenticha, Negele area, Sidamo Province, Ethiopia
Source: Rock Currier
Description: Light blue single crystal
Measured chemistry: (K_0.96_Na_0.04_)Al_1.00_Si_3.00_O_8_
Pin_id: L00301
Orientation: Laser parallel to -c* (0 0 -1). Fiducial mark perpendicular to laser is parallel to a [1 0 0]
Raman shift (cm-1)	intensity
49.365	0
53.566	84.193
57.765	341.475
61.962	633.171
66.157	570.034
70.349	535.096
74.54	633.284
78.729	519.305
82.916	242.195
87.101	87.722
91.284	45.426
95.465	27.7
99.644	77.729
103.82	157.013
107.995	821.231
112.168	1310.47
116.339	1435.87
120.508	1247.74
124.675	2107.95
128.84	2168.1
133.003	1556.77
137.164	1936.17
141.323	2977.84
145.48	4289.64
149.635	5419.58
153.788	6462.78
157.939	7107.95
162.088	6342.01
166.235	4578.81
170.38	3993.32
174.523	4277.56
178.664	5408.5
182.803	6610.01
186.94	6345.27
191.076	4323.06
195.209	3175.53
199.34	2902.31
203.47	3239.64
207.597	4362.92
211.722	3643.16
215.846	1433.94
219.967	536.852
224.087	149.177
228.204	54.064
232.32	50.46
236.434	3.074
240.545	98.524
244.655	452.252
248.763	1370.08
252.869	2244.02
256.973	2564.41
261.075	2612.03
265.175	3205.85
269.273	3119.24
273.369	2300.36
277.463	2712.77
281.556	5092.32
285.646	8956.34
289.734	11746.1
293.821	8425.73
297.905	3670.09
301.988	1513.17
306.069	732.697
310.147	446.53
314.224	292.919
318.299	252.042
322.372	680.926
326.443	2255.61
330.512	2523.09
334.579	1210.38
338.645	411.466
342.708	165.357
346.769	148.014
350.829	147.398
354.887	100.554
358.942	35.495
362.996	84.828
367.048	61.46
371.098	160.922
375.146	88.202
379.192	77.25
383.236	108.156
387.279	69.503
391.319	24.539
395.358	261.233
399.394	684.11
403.429	887.471
407.462	1025.15
411.493	973.809
415.522	1050.39
419.549	535.984
423.575	158.663
427.598	27.616
431.619	2.987
435.639	101.397
439.657	271.668
443.673	585.167
447.687	1513.27
451.699	3414.93
455.709	4309.85
459.717	2900.55
463.724	2007.67
467.728	2569.62
471.731	5320.42
475.732	10502.5
479.731	12248
483.728	7264.82
487.723	3666.02
491.716	2540.07
495.708	2910.97
499.697	5466.73
503.685	13777.2
507.671	22960.7
511.655	20184.1
515.637	12837.5
519.617	6114.62
523.596	3133.33
527.572	1936.25
531.547	1346.59
535.52	1027.67
539.491	745.777
543.46	583.838
547.427	554.447
551.393	552.401
555.356	376.039
559.318	316.831
563.278	265.508
567.236	298.9
571.192	398.294
575.147	631.583
579.099	865.838
583.05	793.451
586.999	485.409
590.946	218.852
594.891	164.668
598.834	130.121
602.776	148.133
606.715	123.061
610.653	57.911
614.589	52.677
618.523	154.364
622.456	228.978
626.386	373.527
630.315	558.006
634.242	681.428
638.167	637.806
642.09	751.132
646.012	1011.39
649.931	1039.59
653.849	821.714
657.765	545.779
661.679	330.797
665.592	142.788
669.502	97.755
673.411	86.697
677.318	35.603
681.223	25.495
685.126	27.581
689.028	65.412
692.927	14.539
696.825	48.251
700.721	11.086
704.616	10.422
708.508	0.15
712.399	43.136
716.288	28.293
720.175	105.952
724.06	121.305
727.944	129.824
731.825	132.656
735.705	173.829
739.584	511.083
743.46	1009.04
747.334	1627.91
751.207	1610
755.078	1398.39
758.947	1956.47
762.815	3273.65
766.68	2515.73
770.544	1259.83
774.406	755.896
778.267	547.417
782.125	414.49
785.982	315.496
789.837	284.436
793.69	335.31
797.542	453.118
801.391	514.863
805.239	1041.54
809.085	2254.16
812.93	4540.71
816.772	4373.21
820.613	2113.64
824.452	939.987
828.29	592.838
832.125	408.312
835.959	269.957
839.791	272.886
843.621	146.454
847.45	75.311
851.277	69.094
855.102	53.282
858.925	49.284
862.746	95.375
866.566	41.477
870.384	42.685
874.2	4.687
878.015	5.856
881.828	10.56
885.639	20.318
889.448	80.956
893.256	0.911
897.061	21.869
900.865	49.041
904.668	53.802
908.468	65.493
912.267	117.159
916.064	76.806
919.86	69.433
923.653	44.042
927.445	54.63
931.236	95.217
935.024	22.798
938.811	71.369
942.596	96.929
946.379	96.476
950.161	123.015
953.94	220.547
957.719	182.072
961.495	184.591
965.27	207.107
969.043	354.62
972.814	646.132
976.583	1118.64
980.351	1118.17
984.117	791.717
987.882	648.28
991.644	799.897
995.405	975.664
999.165	799.653
1002.92	907.658
1006.68	832.87
1010.43	624.895
1014.18	630.137
1017.93	595.581
1021.68	451.921
1025.43	583.128
1029.18	816.81
1032.92	1223.86
1036.66	925
1040.4	696.829
1044.14	544.534
1047.88	505.715
1051.62	458.848
1055.35	267.371
1059.08	202.498
1062.81	191.344
1066.54	163.341
1070.27	202.225
1073.99	223.832
1077.72	292.725
1081.44	333.813
1085.16	415.608
1088.88	623.903
1092.59	1096.93
1096.31	1853.07
1100.02	2375.6
1103.73	1856.71
1107.44	1305.12
1111.15	995.332
1114.86	992.716
1118.57	1118.17
1122.27	1548.82
1125.97	1186.09
1129.67	790.64
1133.37	691.275
1137.07	845.586
1140.76	770.179
1144.45	570.285
1148.15	386.4
1151.84	398.532
1155.53	265.495
1159.21	212.611
1162.9	139.423
1166.58	88.438
1170.26	87.812
1173.94	56.559
1177.62	15.198
1181.3	1.979
1184.97	99.427
1188.65	90.083
1192.32	16.572
1195.99	6.633
1199.66	1.48
1203.33	24.719
1206.99	20.403
1210.65	48.391
1214.32	60.434
1217.98	73.542
1221.64	50.175
1225.29	39.384
1228.95	12.236
1232.6	38.544
1236.26	92.415
1239.91	56.407
1243.56	21.633
1247.2	84.697
1250.85	71.527
1254.49	60.428
1258.13	6.097
1261.78	55.07
1265.41	40.539
1269.05	99.087
1272.69	92.227
1276.32	126.603
1279.95	103.337
1283.59	59.027
1287.21	8.035
1290.84	31.801
1294.47	24.776
1298.09	56.167
1301.72	62.793
1305.34	66.225
1308.96	11.404
1312.58	7.306
1316.19	17.188
1319.81	32.825
1323.42	24.263
1327.03	43.535
1330.64	72.564
1334.25	71.343
1337.86	50.516
1341.46	90.487
1345.07	45.677
1348.67	51.698
1352.27	61.304
1355.87	18.026
1359.46	42.5
1363.06	61.207
1366.65	73.508
1370.25	3.673
1373.84	39.43
1377.43	45.298
1381.02	89.985
1384.6	72.962
1388.18	110.872
1391.77	69.442
1395.35	38.556
1398.93	65.553
1402.51	37.938
1406.08	61.761
1409.66	20.414
1413.23	97.319
1416.8	141.464
1420.37	85.706
1423.94	76.425
1427.51	34.914
1431.08	128.113
1434.64	103.708
1438.2	35.848
1441.76	84.371
1445.32	178.986
1448.88	161.763
1452.43	109.826
1455.99	97.417
1459.54	121.949
1463.09	159.687
1466.64	81.125
1470.19	85.986
1473.74	86.135
1477.28	20.846
1480.83	59.364
1484.37	37.239
1487.91	136.445
1491.45	140.542
1494.98	70.579
1498.52	114.414
1502.05	128.276
1505.59	88.117
1509.12	130.056
1512.65	64.799
1516.17	19.468
1519.7	0.27
