Measurement: Raman, 514 nm, depolarized, Raman Data Processed
Mineral: Microcline
Rruff sample: R050054
Ideal chemistry: KAlSi_3_O_8_
Locality: Kenticha, Negele area, Sidamo Province, Ethiopia
Source: Rock Currier
Description: Light blue single crystal
Measured chemistry: (K_0.96_Na_0.04_)Al_1.00_Si_3.00_O_8_
Pin_id: M00082
Orientation: Laser parallel to b* (0 1 0). Fiducial mark perpendicular to laser is parallel to c [0 0 1]
Raman shift (cm-1)	intensity
102.712	0
106.902	5.498
111.09	465.761
115.277	45.275
119.461	744.256
123.643	3526.11
127.823	4880.41
132.001	2796.04
136.176	3343.91
140.35	7148.81
144.521	8703.1
148.691	14981.4
152.858	19340.9
157.024	21421.4
161.187	15142.2
165.348	7291.59
169.507	3864.31
173.664	2899.8
177.819	3284.38
181.971	3038.16
186.122	1852.81
190.271	1323.38
194.417	1889.02
198.562	3545.11
202.704	2359.22
206.844	848.547
210.983	273.371
215.119	46.368
219.253	147.259
223.385	68.645
227.515	76.185
231.643	131.486
235.769	54.555
239.893	126.43
244.014	355.718
248.134	885.8
252.252	2759.51
256.367	6696.1
260.481	7414.07
264.592	7325.07
268.702	6483.98
272.809	4704.52
276.915	5768.2
281.018	11323.6
285.119	18497.3
289.218	14339.8
293.316	6910.42
297.411	4095.2
301.504	2740.66
305.595	1535.58
309.684	906.312
313.771	489.206
317.856	476.472
321.939	585.045
326.02	1137.97
330.099	2788.97
334.176	3013.14
338.251	1395.03
342.323	699.207
346.394	483.113
350.463	581.725
354.53	1083.03
358.594	1355.04
362.657	934.734
366.718	1142.14
370.777	2432.59
374.833	2485.37
378.888	1049.48
382.941	357.747
386.992	152.885
391.04	104.604
395.087	241.606
399.132	940.758
403.174	2578.56
407.215	1634.61
411.254	1008.7
415.29	614.669
419.325	86.562
423.358	90.648
427.389	118.157
431.417	66.358
435.444	80.675
439.469	284.886
443.492	731.043
447.512	1799.48
451.531	4625.94
455.548	6224.49
459.563	4196.56
463.576	3526.11
467.587	5639.28
471.596	12444.7
475.603	21919.2
479.608	17002.2
483.611	11195.2
487.612	6962.08
491.611	3799.54
495.608	2921.86
499.603	3657.09
503.596	6580.16
507.587	15277.9
511.577	35180.9
515.564	39288.1
519.549	20276
523.533	9004.22
527.514	4700.83
531.493	2787.45
535.471	1901.8
539.447	1399.7
543.42	1052.43
547.392	793.002
551.362	562.65
555.329	500.251
559.295	400.823
563.259	346.771
567.221	303.349
571.181	283.815
575.139	320.194
579.095	497.675
583.049	606.177
587.002	507.23
590.952	226.82
594.9	79.545
598.847	80.317
602.792	3.459
606.734	52.971
610.675	73.397
614.614	50.821
618.55	87.251
622.485	332.699
626.418	745.161
630.349	980.642
634.279	867.185
638.206	878.367
642.131	1011.56
646.055	1298.37
649.976	1813.21
653.896	2006.07
657.814	1625.95
661.729	935.866
665.643	579.842
669.555	331.905
673.465	139.014
677.373	39.142
681.28	78.346
685.184	72.438
689.087	78.121
692.987	73.79
696.886	67.355
700.783	69.267
704.677	22.857
708.57	112.594
712.462	161.522
716.351	139.817
720.238	41.473
724.124	70.553
728.007	162.92
731.889	274.591
735.769	407.892
739.647	752.892
743.523	1387.1
747.397	2657.99
751.269	2923.88
755.139	1756.69
759.008	952.329
762.875	663.327
766.739	726.177
770.602	626.13
774.463	454.133
778.323	302.46
782.18	181.226
786.035	195.878
789.889	195.414
793.741	241.832
797.591	269.131
801.439	245.307
805.285	498.359
809.129	974.287
812.971	1810.09
816.812	1587.76
820.651	673.307
824.488	296.722
828.323	235.004
832.156	159.028
835.987	115.652
839.817	95.87
843.644	64.281
847.47	13.658
851.294	3.118
855.116	19.606
858.936	12.417
862.755	9.936
866.571	14.628
870.386	23.574
874.199	56.351
878.01	42.859
881.82	28.608
885.627	64.325
889.433	18.618
893.236	47.397
897.038	32.054
900.838	35.562
904.637	18.051
908.433	34.809
912.228	29.737
916.021	33.189
919.812	80.026
923.601	84.776
927.388	53.427
931.174	105.988
934.958	102.479
938.739	123.889
942.52	195.22
946.298	129.476
950.074	231.66
953.849	217.774
957.622	169.822
961.393	238.803
965.162	241.719
968.93	267.578
972.696	260.38
976.459	240.13
980.222	325.836
983.982	363.523
987.74	619.774
991.497	1084.57
995.252	1523.51
999.005	1595.6
1002.76	1784.76
1006.51	1467.71
1010.25	1061.67
1014	773.834
1017.74	711.757
1021.49	732.312
1025.23	768.971
1028.96	1030.9
1032.7	1019.97
1036.44	1173.99
1040.17	1416.16
1043.9	1096.23
1047.63	1105.99
1051.36	1357.29
1055.09	1245.84
1058.81	745.386
1062.54	466.459
1066.26	364.012
1069.97	278.746
1073.69	232.411
1077.41	230.731
1081.12	296.579
1084.84	370.431
1088.55	471.396
1092.25	606.406
1095.96	712.47
1099.67	847.825
1103.37	910.873
1107.07	1063.28
1110.77	1556.44
1114.47	2214.78
1118.16	3849.41
1121.86	6443.08
1125.55	7468.73
1129.24	5510.9
1132.93	4383.6
1136.62	4754.02
1140.31	4846.35
1143.99	3668.16
1147.67	2280.82
1151.35	1474.02
1155.03	1004.02
1158.71	718.504
1162.39	481.222
1166.06	384.735
1169.73	328.956
1173.4	328.46
1177.07	277.428
1180.74	196.795
1184.4	164.074
1188.07	125.602
1191.73	90.932
1195.39	90.824
1199.05	73.607
1202.7	80.143
1206.36	114.147
1210.01	90.902
1213.66	9.337
1217.31	11.945
1220.96	35.345
1224.6	56.725
1228.25	59.387
1231.89	114.834
1235.53	139.717
1239.17	90.719
1242.81	24.771
1246.44	49.963
1250.08	8.021
1253.71	26.157
1257.34	36.663
1260.97	4.432
1264.6	59.154
1268.22	86.858
1271.85	62.405
1275.47	2.107
1279.09	26.855
1282.71	10.6
1286.33	25.347
1289.94	2.436
1293.56	72.355
1297.17	49.892
1300.78	82.417
1304.39	61.703
1307.99	13.073
1311.6	34.99
1315.2	28.211
1318.8	7.592
1322.4	20.887
1326	86.361
1329.6	96.58
1333.19	122.879
1336.79	59.932
1340.38	52.72
1343.97	78.366
1347.56	7.896
1351.14	21.362
1354.73	102.634
1358.31	165.614
1361.89	132.403
1365.47	171.108
1369.05	131.554
1372.63	126.979
1376.2	60.939
1379.78	109.732
1383.35	76.091
1386.92	45.365
1390.49	83.405
1394.05	111.12
1397.62	136.365
1401.18	205.105
1404.74	135.677
1408.3	83.746
1411.86	153.4
1415.42	154.527
1418.97	44.674
1422.53	29
1426.08	22.014
1429.63	85.332
1433.18	63.479
1436.72	111.255
1440.27	166.007
1443.81	215.511
1447.36	133.565
1450.89	112.157
1454.43	99.272
1457.97	131.757
1461.51	48.683
1465.04	17.579
1468.57	78.197
1472.1	90.253
1475.63	157.198
1479.16	183.101
1482.68	128.742
1486.21	222.879
1489.73	180.133
1493.25	163.051
1496.77	83.729
1500.29	36.89
1503.8	3.793
1507.32	29.13
1510.83	22.295
1514.34	3.434
