Measurement: Raman, 514 nm, ccw, Raman Data Processed
Mineral: Microcline
Rruff sample: R050193
Ideal chemistry: KAlSi_3_O_8_
Locality: Devil's Head, Douglas County, Colorado, USA
Source: Dave Bunk Minerals
Description: White to colorless heterogeneous mixture of K and Na feldspar in a cluster of crystals. Crystal structure determined, presented below. This sample is known as an intermediate microcline in the literature.
Measured chemistry: (K_0.929_Na_0.071_)(Al_1.005_Si_2.994_Fe_0.001_)O_7.993_F_0.007_  ; Light Band :  (Na_0.973_K_0.007_Ca_0.020_)(Al_1.020_Si_2.980_)O_8_ ; Dark Band
Pin_id: L00937
Orientation: Laser parallel to (1 1 0). Fiducial mark perpendicular to laser is parallel to c [0 0 1]
Raman shift (cm-1)	intensity
136.423	0
141.352	428.469
146.277	1876.63
151.2	5517.47
156.121	5811.32
161.038	3796.47
165.953	2513.44
170.865	1810.94
175.774	2834.36
180.681	4397
185.585	4250.79
190.486	3277.29
195.384	2714.24
200.28	3544.39
205.173	3177.06
210.063	4236
214.95	1348.73
219.835	609.617
224.717	283.727
229.597	167.477
234.473	7.97656
239.347	399.477
244.218	770.062
249.087	2411.33
253.953	4016.7
258.816	5198.11
263.676	8073.55
268.534	10073.8
273.389	11464.2
278.241	15214.4
283.091	19529.1
287.938	18567.6
292.782	14498.6
297.623	6775.73
302.462	2738.33
307.298	1366.62
312.131	784.359
316.962	739.047
321.79	419.43
326.615	1019.39
331.438	1054.02
336.258	538.922
341.075	291.438
345.889	209.727
350.701	170.938
355.51	131.258
360.317	813.195
365.12	1551.38
369.921	2820.95
374.72	2201.5
379.515	724.547
384.309	201.93
389.099	26.2031
393.886	579.945
398.671	1079.02
403.454	3611.08
408.233	4432.14
413.01	3257.58
417.785	1299.66
422.556	628.992
427.325	221.508
432.091	14.1094
436.855	1361.73
441.616	3304.02
446.374	7426.95
451.13	13611.5
455.883	17719.1
460.633	18777
465.38	23976.7
470.125	47073.5
474.868	82494.6
479.607	77513.9
484.344	39941.4
489.078	21439.9
493.81	17320.7
498.539	24367.1
503.265	48569.7
507.989	87478.8
512.71	114312
517.428	80263.9
522.144	33577.9
526.857	15670.8
531.567	8721.69
536.275	5260.48
540.98	3690.16
545.683	2725.41
550.383	1821.31
555.08	1657.44
559.774	1115.81
564.466	1407.87
569.155	1019.59
573.842	1381.06
578.526	1925.16
583.207	1700.12
587.886	1432.87
592.562	958.414
597.235	596.75
601.906	465
606.574	555.078
611.24	755.953
615.903	1047.54
620.563	1326.98
625.221	1428.74
629.876	1362.57
634.528	1203.48
639.178	807.883
643.825	1737.19
648.47	1782.58
653.112	2002.57
657.751	1273.47
662.388	918.219
667.022	696.883
671.653	433.375
676.282	405.578
680.908	39.5234
685.532	379.234
690.153	283.984
694.771	461.992
699.387	248.711
704	128.055
708.61	906.195
713.218	1567.73
717.824	1714.78
722.426	1520.82
727.026	1613.13
731.624	1846.09
736.219	3112.27
740.811	4391.44
745.401	5935.42
749.988	5751.95
754.572	5984.95
759.154	6458.67
763.734	6887.98
768.31	4631.77
772.884	2884.98
777.456	1822.15
782.025	1423.53
786.591	1295.9
791.155	1651.66
795.716	1553.16
800.275	1347.08
804.831	1701.96
809.384	2063.8
813.935	2718.39
818.483	2278.04
823.029	1297.36
827.572	764.031
832.112	503.836
836.65	1069.89
841.186	115.32
845.718	198.086
850.249	687.602
854.776	357.477
859.301	621.938
863.824	334.062
868.344	541.805
872.861	348.047
877.376	369.602
881.888	190.594
886.397	616.922
890.904	169.844
895.409	15.2812
899.911	406.953
904.41	221.219
908.907	44.0312
913.401	87.8125
917.893	420.594
922.382	17.75
926.869	412.375
931.353	364.219
935.834	133.5
940.313	86.75
944.789	94.8594
949.263	196.797
953.734	778.922
958.203	630.719
962.669	834.234
967.133	687.031
971.594	500.625
976.052	1041.59
980.508	1601.36
984.961	1266.86
989.412	1989.97
993.861	2878.17
998.306	3346.09
1002.75	4736.56
1007.19	2873.34
1011.63	1955.05
1016.06	1702.09
1020.5	1721.08
1024.93	1823.89
1029.36	2349.48
1033.78	2009.17
1038.2	2096.23
1042.62	1574.3
1047.04	1932.62
1051.46	2260.72
1055.87	1831.66
1060.28	1474.61
1064.69	1104.62
1069.09	1111.17
1073.5	1193.88
1077.9	1801.22
1082.29	2777.67
1086.69	3871.38
1091.08	5784.22
1095.47	9489.98
1099.86	11615.5
1104.24	11337.7
1108.63	11715
1113.01	14315.8
1117.38	20107
1121.76	22238.2
1126.13	22236.6
1130.5	17164.5
1134.87	15319.1
1139.23	13226.4
1143.6	11309.8
1147.96	7533.8
1152.32	5881.36
1156.67	4295.27
1161.02	2815.31
1165.37	1876.75
1169.72	1842.17
1174.07	975.953
1178.41	1344.55
1182.75	318.766
1187.08	282.859
1191.42	123.078
1195.75	114.125
1200.08	112.109
1204.41	206.203
1208.73	36.7188
1213.06	222.422
1217.38	121.156
1221.69	272.609
1226.01	326.625
1230.32	744.719
1234.63	116.656
1238.94	32.375
1243.24	86.0938
1247.55	352.719
1251.85	239.531
1256.14	99.5938
1260.44	347.5
1264.73	502.094
1269.02	249.047
1273.31	604.938
1277.6	228.375
1281.88	1216.59
1286.16	1503.7
1290.44	2134.58
1294.71	1340.27
1298.98	1225.81
1303.26	1254.2
1307.52	900.391
1311.79	861.234
1316.05	1559.86
1320.31	852.469
1324.57	308.281
1328.83	582.078
1333.08	1109.09
1337.33	205.078
1341.58	268.156
1345.82	918.641
1350.07	966.25
1354.31	1179.31
1358.55	486.953
1362.78	1125.03
1367.02	306.719
1371.25	566.578
1375.48	476.875
1379.7	722.625
1383.92	166.25
1388.15	506.969
1392.37	461.578
1396.58	77.2188
1400.8	671.203
1405.01	776.438
1409.22	396.406
1413.42	417.75
1417.63	1044.55
1421.83	1095.56
1426.03	1387.06
1430.22	1463.44
1434.42	1463.81
1438.61	1690.23
1442.8	1557.45
1446.99	1203.89
1451.17	1422.75
1455.35	877.516
1459.53	1187.33
1463.71	857.031
1467.89	256.453
1472.06	757.016
1476.23	454.328
1480.4	120.891
1484.56	744.172
1488.72	177.969
1492.88	467.266
1497.04	64.625
1501.2	580.062
1505.35	567.125
1509.5	719.828
1513.65	476.328
1517.8	345.5
1521.94	742.516
1526.08	360.094
1530.22	305.359
1534.36	754.141
1538.49	677.344
1542.62	258.328
1546.75	100.422
1550.88	950.141
1555	1058.09
1559.12	37.125
1563.24	639.062
1567.36	668.969
1571.47	302.219
1575.58	231.594
