Measurement: Raman, 514 nm, depolarized, Raman Data Processed
Mineral: Microcline
Rruff sample: R050150
Ideal chemistry: KAlSi_3_O_8_
Locality: Crystal Peak area, Park/Teller Counties, Colorado, USA
Source: Dave Bunk Minerals
Description: Pale blue prismatic crystals
Measured chemistry: (K_0.95_Na_0.05_)_Î£=1_Al_1.00_Si_3.00_O_8_
Pin_id: L00941
Orientation: Laser parallel to (-1 0 -1). Fiducial mark perpendicular to laser is parallel to -b [0 -1 0]
Raman shift (cm-1)	intensity
137.683	0
142.633	1130.8
147.579	4096.15
152.522	8921.04
157.462	9149.4
162.4	11797.3
167.334	10905.1
172.265	7649.29
177.193	9400.14
182.117	11710.4
187.039	14966.6
191.958	12558.3
196.874	7667.58
201.787	7731.06
206.696	8237.14
211.603	10524.9
216.506	5327.97
221.407	1031.59
226.304	155.627
231.199	546.037
236.091	640.606
240.979	433.099
245.864	426.115
250.747	1295.07
255.626	2478.85
260.503	3086.58
265.376	3082.42
270.247	4262.2
275.114	4466.42
279.979	7013.45
284.84	13475.7
289.699	19286.9
294.554	21390.5
299.407	8715.37
304.257	3200.55
309.103	1824.24
313.947	1493.56
318.788	1564.25
323.626	2382.94
328.461	3572.89
333.292	3874.89
338.121	1427.94
342.947	715.727
347.771	871.476
352.591	781.925
357.408	599.038
362.222	405.68
367.034	521.631
371.842	511.246
376.648	312.622
381.45	130.619
386.25	380.262
391.047	124.457
395.841	530.877
400.632	1881.58
405.42	2110.57
410.205	3349.41
414.988	2260.72
419.767	1982.32
424.544	544.173
429.318	1.99609
434.089	98.2793
438.857	133.85
443.622	880.016
448.384	2723.76
453.143	4941.12
457.9	7180.16
462.654	5717.19
467.405	6633.13
472.153	15098.2
476.898	23879.1
481.64	31829.7
486.38	16625.3
491.116	7408.51
495.85	8735.23
500.581	20508.1
505.309	34685.5
510.035	48927.5
514.757	28575.6
519.477	11294.6
524.194	5294.23
528.908	2974.27
533.62	1937.3
538.328	1369.42
543.034	979.206
547.737	717.787
552.437	798.808
557.134	601.333
561.829	537.265
566.521	630.034
571.21	726.366
575.896	1256.19
580.58	1766.98
585.261	1163.6
589.939	329.808
594.614	74.0586
599.286	141.678
603.956	75.3496
608.623	213.584
613.287	355.543
617.949	184.599
622.608	281.91
627.264	494.377
631.917	625.074
636.568	967.043
641.215	1093.23
645.861	1349.7
650.503	1426.47
655.143	950.457
659.78	295.619
664.414	82.1787
669.046	181.266
673.674	24.7822
678.301	170.417
682.924	14.1836
687.545	21.1641
692.163	53.6611
696.778	19.7803
701.391	82.3564
706.001	96.7344
710.609	7.91211
715.213	36.3984
719.815	299.693
724.415	271.006
729.011	198.894
733.606	136.881
738.197	419.442
742.786	917.067
747.372	1577.74
751.955	1928.71
756.536	3581.06
761.114	6255.86
765.69	8245.52
770.262	4702.27
774.833	2348.79
779.4	1775.76
783.965	936.152
788.528	666.515
793.087	756.244
797.645	713.451
802.199	1467.28
806.751	3047.74
811.3	6411.28
815.847	9335.71
820.391	6372.75
824.933	2212.83
829.471	1233.18
834.008	667.369
838.541	438.198
843.073	405.334
847.601	187.676
852.127	137.129
856.65	5
861.171	87.0566
865.69	66.2031
870.205	53.9492
874.718	123.408
879.229	42.4668
883.737	99.9824
888.242	54.3008
892.745	41.166
897.246	195.315
901.743	69.1133
906.239	176.481
910.731	253.422
915.221	21.1211
919.709	0.652344
924.194	119.986
928.677	42.9473
933.157	244.193
937.634	161.131
942.109	136.996
946.582	174.777
951.052	224.789
955.519	214.902
959.984	283.32
964.447	339.789
968.906	611.35
973.364	1223.06
977.819	1755.05
982.271	1646.47
986.721	1003.15
991.169	949.844
995.614	977.939
1000.06	1059.36
1004.5	1435.5
1008.93	1912.15
1013.37	1803.89
1017.8	1412.92
1022.23	949.449
1026.66	1058.1
1031.09	1351.65
1035.51	1544.99
1039.93	936.877
1044.35	796.672
1048.76	733.121
1053.17	275.853
1057.58	426.1
1061.99	419.328
1066.4	289.916
1070.8	484.566
1075.2	483.453
1079.6	800.361
1084	1143.17
1088.39	2173.56
1092.78	4414.64
1097.17	7535.09
1101.56	8301.57
1105.94	5282.4
1110.32	4153.61
1114.7	3764.77
1119.08	3529.71
1123.45	2597.8
1127.82	1669.6
1132.19	1237.26
1136.56	1183
1140.92	1024.96
1145.29	697.541
1149.65	770.158
1154	347.779
1158.36	316.881
1162.71	331.545
1167.06	163.881
1171.41	296.752
1175.76	33.2578
1180.1	75.5957
1184.44	177.365
1188.78	90.1953
1193.11	75.0625
1197.45	131.959
1201.78	233.846
1206.11	183.75
1210.43	112.449
1214.76	236.055
1219.08	29.4961
1223.4	59.8574
1227.72	94.1445
1232.03	231.377
1236.35	37.5605
1240.66	46.6914
1244.96	86.209
1249.27	159.457
1253.57	120.533
1257.88	194.586
1262.17	150.205
1266.47	122.398
1270.76	20.416
1275.06	117.002
1279.35	144.072
1283.63	46.9141
1287.92	123.688
1292.2	174.307
1296.48	296.803
1300.76	134.309
1305.04	35.9062
1309.31	271.565
1313.58	310.449
1317.85	278.228
1322.12	229.002
1326.38	82.5234
1330.64	252.123
1334.9	143.555
1339.16	351.398
1343.41	126.82
1347.67	183.449
1351.92	223.119
1356.17	219.315
1360.41	244.881
1364.66	216.99
1368.9	131.31
1373.14	353.529
1377.38	209.963
1381.61	101.527
1385.84	133.516
1390.08	295.772
1394.3	63.1758
1398.53	49.4355
1402.75	111.232
1406.97	214.334
1411.19	129.893
1415.41	136.529
1419.63	210.051
1423.84	116.85
1428.05	455.9
1432.26	73.2852
1436.46	144.891
1440.67	205.299
1444.87	269.139
1449.07	116.838
1453.27	273.481
1457.46	411.402
1461.66	294.35
1465.85	209.283
1470.04	218.225
1474.22	235.766
1478.41	100.801
1482.59	195.81
1486.77	251.707
1490.95	64.8848
1495.12	146.816
1499.3	220.139
1503.47	226.334
1507.63	121.648
1511.8	72.9668
1515.97	306.254
1520.13	144.709
1524.29	335.356
1528.45	125.33
1532.61	168.191
1536.76	29.5742
1540.91	350.775
1545.06	135.711
1549.21	227.498
1553.35	430.244
1557.5	38.291
1561.64	150.272
