Measurement: Raman, 514 nm, depolarized, Raman Data Processed
Mineral: Microcline
Rruff sample: R050054
Ideal chemistry: KAlSi_3_O_8_
Locality: Kenticha, Negele area, Sidamo Province, Ethiopia
Source: Rock Currier
Description: Light blue single crystal
Measured chemistry: (K_0.96_Na_0.04_)Al_1.00_Si_3.00_O_8_
Pin_id: M00128
Orientation: Laser parallel to (-1 -1 0). Fiducial mark perpendicular to laser is parallel to -c [0 0 -1]
Raman shift (cm-1)	intensity
94.324	0
98.519	8.557
102.712	294.875
106.902	1821.27
111.09	3641.25
115.277	1472.14
119.461	508.496
123.643	1111.67
127.823	2788.47
132.001	2116.01
136.176	607.739
140.35	267.586
144.521	437.921
148.691	1335.39
152.858	1935.32
157.024	1596.77
161.187	1353.45
165.348	792.165
169.507	632.046
173.664	980.044
177.819	2324.78
181.971	3306.28
186.122	1697.32
190.271	748.378
194.417	647.068
198.562	1323.11
202.704	1506.54
206.844	747.391
210.983	452.979
215.119	201.186
219.253	34.812
223.385	30.269
227.515	62.263
231.643	91.147
235.769	93.197
239.893	54.093
244.014	40.392
248.134	126.972
252.252	471.65
256.367	1374.78
260.481	2334.48
264.592	3093.51
268.702	3821.25
272.809	2342.47
276.915	1387.13
281.018	1861.73
285.119	3952.82
289.218	4549.47
293.316	2611.7
297.411	1345.16
301.504	729.653
305.595	461.186
309.684	251.915
313.771	218.876
317.856	167.425
321.939	161.463
326.02	223.468
330.099	514.004
334.176	620.794
338.251	394.696
342.323	183.205
346.394	248.302
350.463	277.97
354.53	394.857
358.594	636.158
362.657	478.605
366.718	472.572
370.777	1019.67
374.833	1590.98
378.888	815.326
382.941	411.06
386.992	320.875
391.04	263.061
395.087	262.04
399.132	367.238
403.174	1134.31
407.215	1178.92
411.254	710.652
415.29	753.868
419.325	380.114
423.358	141.233
427.389	79.838
431.417	130.853
435.444	191.294
439.469	305.377
443.492	554.264
447.512	1163.46
451.531	3337.01
455.548	6236.01
459.563	4496.2
463.576	3046.05
467.587	3412.49
471.596	5393.52
475.603	10868
479.608	11077.5
483.611	6446.36
487.612	3954.79
491.611	2218.21
495.608	1577.97
499.603	1800.04
503.596	2939.93
507.587	6420.43
511.577	15001.3
515.564	22033.8
519.549	13100.9
523.533	5847.16
527.514	2942.94
531.493	1733.51
535.471	1147.49
539.447	774.307
543.42	604.82
547.392	473.95
551.362	363.056
555.329	299.244
559.295	188.507
563.259	247.792
567.221	179.743
571.181	159.823
575.139	106.515
579.095	257.608
583.049	335.253
587.002	357.442
590.952	215.073
594.9	62.794
598.847	67.437
602.792	18.678
606.734	12.88
610.675	37.136
614.614	36.491
618.55	19.915
622.485	38.606
626.418	96.115
630.349	179.682
634.279	169.465
638.206	148.265
642.131	347.123
646.055	705.083
649.976	1104.11
653.896	1382.15
657.814	1071.22
661.729	562.354
665.643	250.566
669.555	114.85
673.465	87.186
677.373	52.529
681.28	19.181
685.184	53.721
689.087	60.361
692.987	53.26
696.886	29.218
700.783	31.821
704.677	22.741
708.57	76.67
712.462	220.121
716.351	183.587
720.238	34.742
724.124	86.85
728.007	15.654
731.889	184.897
735.769	200.771
739.647	352.427
743.523	955.675
747.397	2078.09
751.269	2803.09
755.139	1797.27
759.008	858.06
762.875	605.939
766.739	560.984
770.602	499.504
774.463	345.36
778.323	270.972
782.18	226.151
786.035	126.099
789.889	139.61
793.741	224.704
797.591	227.689
801.439	281.584
805.285	481.456
809.129	801.161
812.971	1835.02
816.812	2154.55
820.651	1126
824.488	462.311
828.323	218.494
832.156	123.435
835.987	94.874
839.817	94.993
843.644	135.691
847.47	29.506
851.294	29.782
855.116	19.417
858.936	81.235
862.755	26.932
866.571	17.661
870.386	21.753
874.199	23.478
878.01	3.697
881.82	42.738
885.627	2.996
889.433	42.743
893.236	11.612
897.038	46.084
900.838	23.738
904.637	59.399
908.433	86.491
912.228	51.558
916.021	14.409
919.812	14.528
923.601	46.409
927.388	73.533
931.174	81.977
934.958	18.336
938.739	17.233
942.52	102.603
946.298	93.982
950.074	85.342
953.849	135.638
957.622	124.868
961.393	45.035
965.162	105.138
968.93	58.195
972.696	114.2
976.459	201.152
980.222	256.052
983.982	170.931
987.74	221.753
991.497	507.436
995.252	816.154
999.005	825.946
1002.76	557.406
1006.51	409.688
1010.25	253.675
1014	194.691
1017.74	195.708
1021.49	170.925
1025.23	243.477
1028.96	318.505
1032.7	365.217
1036.44	314.127
1040.17	363.314
1043.9	317.751
1047.63	407.924
1051.36	563.229
1055.09	583.155
1058.81	341.992
1062.54	194.481
1066.26	91.153
1069.97	218.257
1073.69	237.745
1077.41	230.009
1081.12	196.826
1084.84	217.072
1088.55	242.125
1092.25	393.131
1095.96	581.425
1099.67	854.693
1103.37	873.583
1107.07	736.62
1110.77	794.655
1114.47	1132.68
1118.16	1809.24
1121.86	3093
1125.55	3896.16
1129.24	3317.49
1132.93	2442.23
1136.62	2351.8
1140.31	2359.22
1143.99	1893.2
1147.67	1244.74
1151.35	716.273
1155.03	586.318
1158.71	513.025
1162.39	243.657
1166.06	134.548
1169.73	50.116
1173.4	101.062
1177.07	133.61
1180.74	170.786
1184.4	168.579
1188.07	129.783
1191.73	112.472
1195.39	118.839
1199.05	2.817
1202.7	67.034
1206.36	22.817
1210.01	109.449
1213.66	140.993
1217.31	158.91
1220.96	137.553
1224.6	84.555
1228.25	167.083
1231.89	62.526
1235.53	81.601
1239.17	161.44
1242.81	228.676
1246.44	222.437
1250.08	120.024
1253.71	99.719
1257.34	58.283
1260.97	21.008
1264.6	52.956
1268.22	100.933
1271.85	128.973
1275.47	120.602
1279.09	100.879
1282.71	73.859
1286.33	51.702
1289.94	10.716
1293.56	15.122
1297.17	61.753
1300.78	90.419
1304.39	4.279
1307.99	169.86
1311.6	79.203
1315.2	75.278
1318.8	34.23
1322.4	35.923
1326	33.632
1329.6	12.416
1333.19	87.534
1336.79	124.048
1340.38	169.313
1343.97	118.235
1347.56	132.093
1351.14	140.072
1354.73	97.34
1358.31	50.695
1361.89	66.344
1365.47	142.657
1369.05	128.348
1372.63	116.604
1376.2	57.438
1379.78	236.704
1383.35	238.195
1386.92	121.341
1390.49	112.056
1394.05	63.649
1397.62	105.115
1401.18	87.251
1404.74	90.812
1408.3	261.888
1411.86	271.579
1415.42	276.624
1418.97	232.681
1422.53	313.158
1426.08	86.511
1429.63	168.654
1433.18	14.226
1436.72	20.593
1440.27	66.363
1443.81	173.548
1447.36	164.727
1450.89	282.351
1454.43	266.679
1457.97	215.226
1461.51	252.958
1465.04	177.492
1468.57	163.636
1472.1	236.751
1475.63	160.217
1479.16	115.757
1482.68	27.45
1486.21	260.273
1489.73	247.289
1493.25	310.646
1496.77	334.683
1500.29	265.431
1503.8	210.976
1507.32	93.146
1510.83	221.443
1514.34	2.71
1517.85	35.608
