Measurement: Raman, 514 nm, ccw, Raman Data Processed
Mineral: Microcline
Rruff sample: R050193
Ideal chemistry: KAlSi_3_O_8_
Locality: Devil's Head, Douglas County, Colorado, USA
Source: Dave Bunk Minerals
Description: White to colorless heterogeneous mixture of K and Na feldspar in a cluster of crystals. Crystal structure determined, presented below. This sample is known as an intermediate microcline in the literature.
Measured chemistry: (K_0.929_Na_0.071_)(Al_1.005_Si_2.994_Fe_0.001_)O_7.993_F_0.007_  ; Light Band :  (Na_0.973_K_0.007_Ca_0.020_)(Al_1.020_Si_2.980_)O_8_ ; Dark Band
Pin_id: L00861
Orientation: Laser parallel to (0 1 1). Fiducial mark perpendicular to laser is parallel to -a [-1 0 0]
Raman shift (cm-1)	intensity
99.373	0
104.322	862.812
109.268	2551.77
114.212	3596.46
119.152	2765.03
124.09	664.371
129.026	566.008
133.958	3439.64
138.888	10185.6
143.815	16593
148.739	22120.4
153.661	32179.3
158.58	43619.8
163.496	41136.5
168.409	29274.3
173.32	27492.8
178.228	34131.4
183.133	42343.7
188.035	37230.1
192.935	21714.2
197.832	15308.2
202.727	17884.6
207.618	23079.3
212.507	16730.4
217.393	4676.48
222.277	540.625
227.157	283.234
232.035	715.691
236.911	500.449
241.783	966.656
246.653	4748.79
251.52	8419.16
256.385	7785.93
261.246	6399.37
266.105	7657.31
270.962	11059.9
275.815	17579
280.666	33332.7
285.514	61127
290.36	78758.5
295.203	46493.1
300.043	15273.8
304.88	6549.88
309.715	3821.68
314.547	2895.93
319.376	4600.63
324.203	11169.6
329.027	16527.8
333.848	8416.24
338.667	2564.8
343.482	1105.09
348.296	907.473
353.106	969.043
357.914	746.965
362.719	1.47266
367.521	265.797
372.321	165.746
377.118	432.633
381.912	49.9844
386.704	178.402
391.493	423.789
396.279	1746.53
401.063	3028.89
405.844	3662.85
410.622	2814.19
415.398	1394.33
420.171	206.348
424.941	53.2617
429.709	263.137
434.473	157.289
439.236	467.269
443.995	1407.97
448.752	3284.88
453.506	5319.54
458.258	5749.02
463.007	6552.47
467.753	13091.9
472.497	29863.3
477.238	49493.7
481.976	39825.2
486.712	18020.6
491.445	13065.1
496.175	21350.6
500.902	53479.7
505.627	103387
510.35	96567.2
515.069	46622.7
519.786	20245.7
524.501	9913.33
529.213	6237.62
533.922	3709.98
538.628	2809.7
543.332	2200.41
548.033	1850.02
552.731	1691.93
557.427	1271.08
562.121	1475.91
566.811	1700.06
571.499	2205.53
576.184	3435.22
580.867	3395.27
585.547	2357.16
590.224	1477
594.899	463.59
599.571	454.16
604.241	750.578
608.908	542.562
613.572	806.644
618.233	1527.56
622.892	1879.11
627.549	3660.47
632.202	4292.68
636.853	3543.52
641.502	3808.98
646.148	4381.57
650.791	3330.53
655.432	1719.85
660.069	882.508
664.705	577.734
669.338	529.047
673.968	251.383
678.595	111.004
683.22	101.949
687.842	73.6445
692.462	317.16
697.079	240.473
701.694	206.43
706.305	201.609
710.915	378.527
715.521	726.094
720.125	236.035
724.727	496.109
729.325	368.938
733.922	665.246
738.515	503.375
743.106	1347.01
747.695	1830.24
752.28	2206.4
756.864	3255.14
761.444	5132.68
766.022	4942.42
770.598	3119.57
775.17	2794.86
779.741	2215.2
784.308	1348.21
788.873	1075.67
793.436	1001.89
797.996	1217.41
802.553	1898.77
807.108	4238.09
811.66	8224.34
816.209	9541.19
820.756	4424.03
825.301	2038.42
829.842	1131.98
834.382	1015.81
838.918	670.457
843.452	874.547
847.984	295.168
852.513	495.402
857.039	476.195
861.563	243.176
866.084	271.894
870.603	193.492
875.119	66.2969
879.632	168.594
884.143	437.977
888.651	22.6914
893.157	290.09
897.66	384.731
902.161	438.707
906.659	225.223
911.154	139.668
915.647	34.1055
920.138	602.391
924.626	345.609
929.111	172.117
933.594	307.977
938.074	202.32
942.551	331.859
947.026	132.578
951.499	70.8906
955.969	201.695
960.436	423.312
964.901	449.938
969.363	1827.91
973.823	1944.27
978.28	2614.79
982.735	1835.62
987.187	1318.16
991.637	1864.46
996.084	2330.47
1000.53	3421.52
1004.97	3083.37
1009.41	1610.4
1013.85	1937.58
1018.28	2063.12
1022.71	2764.2
1027.14	4904.18
1031.57	7621.96
1035.99	5726.14
1040.41	2729.58
1044.83	1725.19
1049.25	875.125
1053.66	594.406
1058.08	322.844
1062.48	403.109
1066.89	725.758
1071.3	807.797
1075.7	838.398
1080.1	1281.01
1084.49	1985.14
1088.89	3805.88
1093.28	6508.01
1097.67	10854.3
1102.05	9726.46
1106.44	7466.52
1110.82	7155.38
1115.2	6654.73
1119.57	6142.61
1123.95	4775.24
1128.32	3303.3
1132.69	2521.29
1137.05	1974.95
1141.42	2147.74
1145.78	1405.69
1150.14	1457
1154.49	1415.79
1158.85	352.789
1163.2	481.883
1167.55	450.375
1171.89	473.094
1176.24	37.1406
1180.58	92.8047
1184.92	89.1797
1189.25	529.625
1193.59	370.055
1197.92	74.7344
1202.25	178.133
1206.57	164.852
1210.9	174.414
1215.22	225.734
1219.54	169.859
1223.85	304.945
1228.17	288.227
1232.48	403.164
1236.79	30.9375
1241.09	261.906
1245.4	62.7656
1249.7	154.281
1254	10.4922
1258.29	421.445
1262.59	643.461
1266.88	533.547
1271.17	872.703
1275.45	728.172
1279.74	1376.49
1284.02	1336.88
1288.3	2094.34
1292.58	1911.84
1296.85	1969.41
1301.12	1834.46
1305.39	1982.87
1309.66	1366.62
1313.92	1652.27
1318.18	1736.69
1322.44	1347.52
1326.7	1169.82
1330.95	976.797
1335.2	979.922
1339.45	630.945
1343.7	902.641
1347.95	450.922
1352.19	686.516
1356.43	673.266
1360.66	440.125
1364.9	748.703
1369.13	467.867
1373.36	739.352
1377.59	315.031
1381.81	187.477
1386.04	210.367
1390.26	270.492
1394.47	503.469
1398.69	14.8516
1402.9	119.086
1407.11	416.305
1411.32	256.516
1415.53	487.953
1419.73	333.922
1423.93	549.688
1428.13	705.555
1432.32	651.07
1436.52	1324.33
1440.71	1190.07
1444.89	1032.49
1449.08	1134.16
1453.26	1000.72
1457.44	877.117
1461.62	704.547
1465.8	590.289
1469.97	424.047
1474.14	535.336
1478.31	597.125
1482.48	112.727
1486.64	161.953
1490.81	345.289
1494.96	302.969
1499.12	86.5078
1503.28	427.883
1507.43	89.6484
1511.58	442.641
1515.72	194.664
1519.87	327.602
1524.01	339.078
1528.15	643.32
1532.29	484.883
1536.42	644.742
1540.55	409.859
1544.68	610.633
1548.81	239.562
1552.94	307.547
1557.06	185.438
1561.18	194.055
1565.3	376.086
1569.41	221.641
1573.53	123.195
1577.64	1.1875
