Measurement: Raman, 514 nm, ccw, Raman Data Processed
Mineral: Microcline
Rruff sample: R050193
Ideal chemistry: KAlSi_3_O_8_
Locality: Devil's Head, Douglas County, Colorado, USA
Source: Dave Bunk Minerals
Description: White to colorless heterogeneous mixture of K and Na feldspar in a cluster of crystals. Crystal structure determined, presented below. This sample is known as an intermediate microcline in the literature.
Measured chemistry: (K_0.929_Na_0.071_)(Al_1.005_Si_2.994_Fe_0.001_)O_7.993_F_0.007_  ; Light Band :  (Na_0.973_K_0.007_Ca_0.020_)(Al_1.020_Si_2.980_)O_8_ ; Dark Band
Pin_id: L00861
Orientation: Laser parallel to (0 1 1). Fiducial mark perpendicular to laser is parallel to -a [-1 0 0]
Raman shift (cm-1)	intensity
96.897	0
101.848	831.289
106.795	5275.93
111.74	7218.06
116.682	6180.19
121.622	1581.43
126.558	120.361
131.492	170.799
136.423	2498.73
141.352	7303.84
146.277	12248.6
151.2	16476
156.121	19837.6
161.038	20703.1
165.953	17892.5
170.865	15115.2
175.774	15460.6
180.681	20159.2
185.585	21048.9
190.486	15055.1
195.384	9162.14
200.28	8619.1
205.173	11081.2
210.063	10613.2
214.95	4564.06
219.835	613.496
224.717	255.857
229.597	633.094
234.473	394.316
239.347	503.172
244.218	3151.04
249.087	6913.52
253.953	6939.35
258.816	5202.85
263.676	6714.11
268.534	8561.75
273.389	9358.12
278.241	12177.3
283.091	22383
287.938	33898.3
292.782	29228.9
297.623	12050.5
302.462	4479
307.298	2204.05
312.131	1543.38
316.962	1599.81
321.79	4099.13
326.615	7713.34
331.438	6606.39
336.258	1976.24
341.075	976.766
345.889	1082.23
350.701	690.289
355.51	398.594
360.317	221.191
365.12	116.978
369.921	117.697
374.72	16.6016
379.515	313.356
384.309	47.5703
389.099	416.023
393.886	1679.65
398.671	3553.38
403.454	5226.17
408.233	5587.03
413.01	4329.14
417.785	2611.55
422.556	968.32
427.325	47.7988
432.091	200.473
436.855	421.627
441.616	1130.45
446.374	2574.08
451.13	5752.55
455.883	6737.97
460.633	6033.52
465.38	6967.23
470.125	14226.1
474.868	28202.2
479.607	31546.5
484.344	16823.4
489.078	8873.31
493.81	9449.33
498.539	20737.3
503.265	48372.2
507.989	62902.4
512.71	38554.9
517.428	17487.1
522.144	7829.34
526.857	4183.29
531.567	2742.76
536.275	1621.54
540.98	1453.77
545.683	997.367
550.383	456.961
555.08	679.266
559.774	751.184
564.466	1170.18
569.155	1164.2
573.842	1239.18
578.526	721.879
583.207	1080.46
587.886	490.176
592.562	599.949
597.235	558.344
601.906	382.117
606.574	583.269
611.24	660.324
615.903	530.047
620.563	1030.38
625.221	1424.37
629.876	1952.04
634.528	2395.42
639.178	1782.54
643.825	2481.53
648.47	2170.61
653.112	1298.97
657.751	619.609
662.388	467.344
667.022	73.0469
671.653	17.957
676.282	122.094
680.908	20.4375
685.532	53.5156
690.153	224.336
694.771	196.641
699.387	181.176
704	83.2266
708.61	517.402
713.218	1118
717.824	1242.04
722.426	1289.8
727.026	733.926
731.624	719.43
736.219	1293.09
740.811	1266.09
745.401	1923.45
749.988	2281.53
754.572	3692.68
759.154	6326.86
763.734	8137.95
768.31	4392
772.884	2810.61
777.456	2124.33
782.025	1389.26
786.591	813.961
791.155	1018.74
795.716	1256.19
800.275	1445.22
804.831	2475.75
809.384	5520.13
813.935	8307.88
818.483	5724.4
823.029	2199.42
827.572	1259.47
832.112	654.227
836.65	682.856
841.186	638.449
845.718	592.481
850.249	133.504
854.776	280.137
859.301	503.191
863.824	61.5391
868.344	277.648
872.861	2.51172
877.376	16.3828
881.888	155.266
886.397	41.8867
890.904	104.152
895.409	179.641
899.911	76.332
904.41	214.758
908.907	27.3594
913.401	107.566
917.893	117.926
922.382	67.0977
926.869	56.4688
931.353	187.293
935.834	254.16
940.313	118.918
944.789	69.2852
949.263	66.7031
953.734	94.8281
958.203	567.559
962.669	714.93
967.133	1452.58
971.594	3056.8
976.052	5493.44
980.508	4919.84
984.961	2427.27
989.412	1882.06
993.861	2301.88
998.306	3381.37
1002.75	4457.56
1007.19	2699.54
1011.63	2142.59
1016.06	1741.89
1020.5	1661.26
1024.93	2161.85
1029.36	3870.77
1033.78	4268.41
1038.2	2129.2
1042.62	1314.12
1047.04	916.102
1051.46	518.66
1055.87	397.445
1060.28	22.0898
1064.69	495.422
1069.09	321.09
1073.5	679.09
1077.9	413.121
1082.29	1180.11
1086.69	2021.09
1091.08	3817.77
1095.47	7262.74
1099.86	7778.77
1104.24	5806.84
1108.63	4068.95
1113.01	3887.11
1117.38	3845.95
1121.76	3506.29
1126.13	2722.74
1130.5	1638.32
1134.87	1119.15
1139.23	1184.44
1143.6	1225.59
1147.96	946.66
1152.32	1175.11
1156.67	776.746
1161.02	658.609
1165.37	409.684
1169.72	322.012
1174.07	151.555
1178.41	152.262
1182.75	138.875
1187.08	287.879
1191.42	134.914
1195.75	219.699
1200.08	23.5938
1204.41	198.574
1208.73	172.102
1213.06	117.746
1217.38	116.551
1221.69	287.543
1226.01	444.641
1230.32	666.863
1234.63	696.203
1238.94	322.668
1243.24	156.25
1247.55	151.906
1251.85	254.629
1256.14	537.168
1260.44	464.383
1264.73	809.527
1269.02	1264.33
1273.31	1063.32
1277.6	1509.9
1281.88	2224.54
1286.16	2664.24
1290.44	2615.16
1294.71	2570.14
1298.98	2688.57
1303.26	2629.44
1307.52	2382.38
1311.79	2286.62
1316.05	2121.88
1320.31	2008.62
1324.57	1692.91
1328.83	1445.16
1333.08	1256.22
1337.33	1332.06
1341.58	1338.56
1345.82	1263.56
1350.07	1158.07
1354.31	731.93
1358.55	548.086
1362.78	595.133
1367.02	325.07
1371.25	412.375
1375.48	446
1379.7	12.6484
1383.92	24.2266
1388.15	132.555
1392.37	517.258
1396.58	259.578
1400.8	362.961
1405.01	261.344
1409.22	302.641
1413.42	512.242
1417.63	196.234
1421.83	666.914
1426.03	961.281
1430.22	1348.38
1434.42	2203.33
1438.61	2991.42
1442.8	3089.3
1446.99	2381.08
1451.17	2274.37
1455.35	1989.38
1459.53	1670.95
1463.71	1263.87
1467.89	1192.09
1472.06	797.57
1476.23	729.352
1480.4	698.727
1484.56	768.266
1488.72	11.2422
1492.88	253.562
1497.04	444.07
1501.2	400.68
1505.35	377.484
1509.5	151.578
1513.65	461.883
1517.8	91.75
1521.94	219.023
1526.08	27.5234
1530.22	265.453
1534.36	362.422
1538.49	57.625
1542.62	550.438
1546.75	694.953
1550.88	407.453
1555	530.906
1559.12	308.648
1563.24	258.695
1567.36	497.297
1571.47	814.125
1575.58	306.742
