Measurement: Raman, 514 nm, depolarized, Raman Data Processed
Mineral: Microcline
Rruff sample: R050150
Ideal chemistry: KAlSi_3_O_8_
Locality: Crystal Peak area, Park/Teller Counties, Colorado, USA
Source: Dave Bunk Minerals
Description: Pale blue prismatic crystals
Measured chemistry: (K_0.95_Na_0.05_)_Î£=1_Al_1.00_Si_3.00_O_8_
Pin_id: L01538
Orientation: Laser parallel to c* (0 0 1). Fiducial mark perpendicular to laser is parallel to a [1 0 0]
Raman shift (cm-1)	intensity
135.133	0
140.09	2027.48
145.044	2417.54
149.995	7544.73
154.942	17722
159.887	15945.9
164.828	5842.73
169.765	1644.89
174.7	3017.98
179.631	4710.39
184.56	2873.95
189.484	2319.48
194.406	3846.23
199.325	5416.67
204.24	2500.46
209.153	302.644
214.062	291.406
218.968	319.28
223.87	259.398
228.77	206.685
233.666	52.1553
238.56	95.5859
243.45	838.578
248.337	2780.66
253.221	6918.28
258.102	12042.2
262.979	13506.2
267.854	12585.3
272.726	9366.73
277.594	12795.7
282.459	21850.7
287.321	21122.6
292.18	9341.17
297.036	3537.83
301.889	1988.38
306.739	1103.84
311.586	924.922
316.43	727.638
321.271	1110.44
326.108	1855.41
330.943	2872.13
335.774	2195.68
340.603	1181.47
345.428	834.606
350.251	996.984
355.07	1209.34
359.887	1248.02
364.7	869.071
369.511	1183.81
374.318	1080.3
379.123	214.355
383.924	194.888
388.723	18.9512
393.518	195.402
398.311	727.872
403.1	1864.22
407.887	1370.11
412.671	1345.71
417.451	425.684
422.229	13.0361
427.004	34.8047
431.776	53.4219
436.545	605.38
441.311	1647.23
446.074	4791.11
450.834	11010.5
455.591	13021.8
460.346	7722.21
465.097	6380.03
469.846	11472.2
474.591	19553
479.334	15913.5
484.074	10609.5
488.811	6024.98
493.545	3940.51
498.276	5203.14
503.005	12181.2
507.73	30576.3
512.453	54039.7
517.173	39776.8
521.89	15286
526.604	6592.57
531.315	3460.08
536.024	2172.82
540.729	1454.03
545.432	1166.14
550.132	816.558
554.83	791.045
559.524	585.4
564.216	528.564
568.904	477.496
573.59	607.381
578.274	1019.39
582.954	1282.06
587.632	654.93
592.307	210.153
596.979	24.8633
601.648	56.1455
606.315	50.9268
610.979	87.1367
615.64	133.612
620.298	328.401
624.954	701.548
629.607	1004.13
634.257	984.401
638.904	1322.21
643.549	1734.43
648.191	2545.95
652.83	2773.69
657.467	2099.51
662.101	1300.4
666.732	711.531
671.36	321.22
675.986	311.19
680.609	54.1514
685.23	86.3057
689.847	93.4316
694.462	10.3926
699.075	7.82129
703.685	43.7002
708.292	120.481
712.896	39.7959
717.498	123.465
722.097	269.04
726.694	401.403
731.287	796.548
735.879	1326.2
740.467	2927.88
745.053	5515.18
749.637	7383.86
754.217	4642.27
758.795	2419.7
763.371	1612.18
767.944	1332.31
772.514	983.968
777.082	569.302
781.647	541.119
786.21	614.084
790.77	773.732
795.327	920.567
799.882	1319.98
804.434	2528.26
808.984	5655.01
813.531	7772.25
818.076	4218.7
822.618	1631.56
827.158	880.408
831.695	402.827
836.229	242.35
840.761	247.491
845.291	198.152
849.817	63.0117
854.342	88.5908
858.864	135.864
863.383	47.7881
867.9	79.0361
872.414	84.7773
876.926	80.8848
881.436	7.48047
885.942	62.6455
890.447	19.4072
894.949	2.19824
899.448	134.803
903.945	52.6016
908.44	60.2129
912.932	8.54297
917.421	26.7217
921.909	28.7324
926.393	143.931
930.876	133.025
935.355	200.152
939.833	230.705
944.308	85.126
948.78	190.446
953.25	221.664
957.718	215.972
962.183	321.415
966.646	244.091
971.107	421.054
975.565	402.245
980.02	719.441
984.474	1120.18
988.925	2415.01
993.373	3543.97
997.819	3140.19
1002.26	2542.23
1006.7	1674.17
1011.14	1154.69
1015.58	734.643
1020.01	739.642
1024.45	553.496
1028.88	851.914
1033.3	1024.65
1037.73	1210.96
1042.15	1398.84
1046.57	1700.63
1050.99	625.289
1055.4	395.853
1059.82	296.503
1064.23	130.315
1068.64	59.5059
1073.04	21.2676
1077.45	174.94
1081.85	236.846
1086.25	569.946
1090.64	617.908
1095.04	1298.36
1099.43	1620.85
1103.82	1141.82
1108.21	1233.66
1112.6	1329.35
1116.98	2343.23
1121.36	3804.55
1125.74	4057.69
1130.12	3292.99
1134.49	3870.45
1138.86	4461.23
1143.23	3133.26
1147.6	1761.27
1151.96	990.041
1156.33	789.648
1160.69	625.914
1165.05	397.869
1169.4	238.363
1173.76	261.582
1178.11	217.732
1182.46	140.691
1186.81	14.6934
1191.15	126.781
1195.49	316.635
1199.84	52.209
1204.17	67.8769
1208.51	85.7773
1212.84	179.9
1217.18	115.318
1221.51	133.685
1225.83	199.113
1230.16	143.332
1234.48	103.441
1238.8	88.4707
1243.12	58.457
1247.44	7.77344
1251.76	138.377
1256.07	46.9707
1260.38	232.209
1264.69	1.00977
1268.99	93.6035
1273.3	86.8125
1277.6	162.935
1281.9	51.9102
1286.2	178.781
1290.49	121.363
1294.79	189.91
1299.08	47.7402
1303.37	77.9551
1307.65	450.859
1311.94	112.576
1316.22	305.158
1320.5	128.547
1324.78	154.799
1329.06	239.445
1333.33	222.779
1337.6	19.2695
1341.87	166.236
1346.14	191.859
1350.41	390.223
1354.67	179.777
1358.93	112.938
1363.19	110.693
1367.45	149.35
1371.71	113.91
1375.96	262.152
1380.21	37.5332
1384.46	225.785
1388.71	64.1035
1392.96	276.562
1397.2	145.383
1401.44	115.4
1405.68	217.506
1409.92	93.5019
1414.16	183.51
1418.39	36.6035
1422.62	11.8047
1426.85	228.158
1431.08	147.871
1435.3	203.953
1439.53	337.096
1443.75	237.869
1447.97	151.678
1452.19	175.434
1456.4	200.295
1460.62	126.779
1464.83	256.315
1469.04	260.332
1473.24	208.127
1477.45	131.881
1481.65	86.7852
1485.86	287.551
1490.06	290.623
1494.26	63.9766
1498.45	216.82
1502.64	23.5391
1506.84	342.449
1511.03	80.6719
1515.22	160.254
1519.4	259.127
1523.59	95.9199
1527.77	219.738
1531.95	95.3086
1536.13	210.787
1540.31	117.902
1544.48	186.565
1548.65	145.609
1552.82	199.477
1556.99	198.844
1561.16	321.049
1565.33	0
