Measurement: Raman, 514 nm, depolarized, Raman Data Processed
Mineral: Microcline
Rruff sample: R050193
Ideal chemistry: KAlSi_3_O_8_
Locality: Devil's Head, Douglas County, Colorado, USA
Source: Dave Bunk Minerals
Description: White to colorless heterogeneous mixture of K and Na feldspar in a cluster of crystals. Crystal structure determined, presented below. This sample is known as an intermediate microcline in the literature.
Measured chemistry: (K_0.929_Na_0.071_)(Al_1.005_Si_2.994_Fe_0.001_)O_7.993_F_0.007_  ; Light Band :  (Na_0.973_K_0.007_Ca_0.020_)(Al_1.020_Si_2.980_)O_8_ ; Dark Band
Pin_id: L00422
Orientation: Laser parallel to b* (0 1 0). Fiducial mark perpendicular to laser is parallel to c [0 0 1]
Raman shift (cm-1)	intensity
127.763	0
132.697	149.629
137.628	1063.03
142.556	3023.96
147.482	5059.92
152.405	6836.66
157.326	6329.19
162.244	4564.85
167.159	2624.86
172.072	1767.81
176.982	1635.17
181.89	1469.56
186.795	1259.19
191.697	1034.99
196.597	937.285
201.494	800.523
206.389	666.602
211.281	381.662
216.17	137.07
221.057	2.73047
225.941	130.754
230.823	1.82422
235.702	74.2891
240.578	102.188
245.452	470.023
250.323	980.836
255.192	1650.77
260.058	2821.03
264.921	2784.16
269.782	3266.7
274.64	4009.26
279.495	5031.05
284.348	5506.97
289.198	4708.84
294.046	3186.39
298.891	1428.92
303.733	735.213
308.573	458.027
313.41	477.25
318.245	373.949
323.077	651.621
327.906	785.92
332.733	560.867
337.557	379.133
342.379	69.6035
347.198	86.2188
352.014	149.971
356.828	354.809
361.639	372.685
366.447	311.402
371.253	406.244
376.056	175.654
380.857	164.16
385.655	18.1289
390.451	93.668
395.243	524.193
400.034	769.955
404.821	1253.39
409.606	825.76
414.389	607.16
419.168	174.693
423.945	113.318
428.72	173.055
433.492	80.8477
438.261	164.59
443.028	507.926
447.792	1266.51
452.553	1904.26
457.312	1982.79
462.068	2544.14
466.822	4579.29
471.573	7920.94
476.321	10247.5
481.067	7326.57
485.81	3804.41
490.551	2628.1
495.289	2680.71
500.024	5194.15
504.757	10850.4
509.487	15876.5
514.214	14649.5
518.939	7736.72
523.661	3170.66
528.381	1605.95
533.098	1059.16
537.812	653.982
542.524	734.463
547.233	483.131
551.94	388.481
556.644	300.451
561.345	244.527
566.044	356.76
570.74	354.029
575.433	275.467
580.124	185.32
584.812	64.1582
589.498	123.441
594.181	5.12891
598.861	28.4766
603.539	33.3477
608.214	118.994
612.887	180.482
617.557	193.91
622.224	316.156
626.889	434.357
631.551	464.342
636.21	390.277
640.867	403.994
645.521	317.531
650.173	306.393
654.822	554.934
659.468	80.7832
664.112	383.857
668.753	113.922
673.392	25.8945
678.028	61.6816
682.661	144.928
687.292	9.48242
691.92	46.7773
696.545	292.867
701.168	128.853
705.788	130.566
710.406	131.629
715.021	295.35
719.633	226.039
724.243	58.5312
728.85	472.312
733.455	320.121
738.056	569.191
742.656	699.144
747.252	982.875
751.846	944.035
756.438	937.186
761.027	833.57
765.613	969.861
770.196	651.156
774.777	589.057
779.356	456.35
783.932	184.457
788.505	302.803
793.075	327.435
797.643	684.894
802.208	441.676
806.771	767.566
811.331	929.289
815.888	760.086
820.443	664.758
824.995	486.051
829.545	474.684
834.092	301.863
838.636	210.094
843.178	303.844
847.717	0.523438
852.254	338.852
856.788	121.566
861.319	411.059
865.848	353.836
870.374	186.606
874.897	50.9766
879.418	27.9219
883.936	327.309
888.452	106.984
892.965	175.953
897.475	2.75391
901.983	22.8438
906.488	70.0938
910.99	185.434
915.49	45.1016
919.988	161.367
924.482	255.902
928.974	128.148
933.464	387.394
937.951	190.891
942.435	95.1289
946.917	52.0156
951.396	55.6406
955.872	3.95312
960.346	242.43
964.817	197.695
969.285	10.1289
973.751	283.031
978.215	522.328
982.675	220.305
987.134	478.059
991.589	288.836
996.042	516.586
1000.49	627.856
1004.94	641.414
1009.38	438.305
1013.83	208.359
1018.27	237.894
1022.7	569.469
1027.14	360.328
1031.57	808.574
1036	571.969
1040.43	431.84
1044.85	496.672
1049.27	628.289
1053.69	463.457
1058.11	326.562
1062.52	233.91
1066.93	41.8164
1071.34	139.293
1075.75	375.91
1080.15	381.164
1084.55	553.227
1088.95	931.539
1093.35	1175.72
1097.74	1682.42
1102.13	1503.82
1106.52	1327.98
1110.9	1595
1115.28	1928.93
1119.66	2521.69
1124.04	2555.56
1128.41	1984.92
1132.79	2020.19
1137.16	1743.74
1141.52	1342.16
1145.89	820.594
1150.25	935.773
1154.61	339.102
1158.96	535.465
1163.32	426.137
1167.67	374.285
1172.02	466.129
1176.36	237.535
1180.71	336.352
1185.05	209.559
1189.38	241.766
1193.72	34.2422
1198.05	141.25
1202.38	286.766
1206.71	249.742
1211.04	387.617
1215.36	212.356
1219.68	133.621
1224	156.516
1228.31	138.004
1232.62	115.555
1236.93	68.082
1241.24	297.379
1245.54	39.6055
1249.84	92.4023
1254.14	282.902
1258.44	275.469
1262.73	132.957
1267.03	71.9609
1271.31	106.633
1275.6	284.231
1279.88	183.516
1284.16	244.004
1288.44	290.262
1292.72	261.496
1296.99	168.027
1301.26	358.289
1305.53	316.008
1309.79	469.867
1314.06	293.609
1318.32	370.211
1322.57	421.461
1326.83	415.34
1331.08	410.719
1335.33	310.902
1339.58	569.711
1343.82	585.812
1348.06	183.672
1352.3	326.438
1356.54	410.398
1360.77	10.9844
1365.01	345.016
1369.23	202.293
1373.46	400.871
1377.68	303.57
1381.9	310.379
1386.12	66.9883
1390.34	41.707
1394.55	81.418
1398.76	432.625
1402.97	495.266
1407.18	512.098
1411.38	301.805
1415.58	148.469
1419.78	275.734
1423.97	176.106
1428.17	143.574
1432.36	254.992
1436.54	150.445
1440.73	723.008
1444.91	153.426
1449.09	415
1453.27	546.586
1457.44	310.238
1461.61	251.738
1465.78	376.371
1469.95	554.57
1474.11	104.707
1478.27	663.594
1482.43	420.527
1486.59	107.477
1490.74	560.766
1494.89	352.816
1499.04	428.629
1503.19	293.57
1507.33	226.75
1511.47	326.059
1515.61	448.668
1519.75	215.305
1523.88	469.191
1528.01	559.219
1532.14	341.394
1536.26	44.457
1540.38	116.231
1544.51	439.375
1548.62	78.7617
1552.74	520.141
1556.85	7.05859
1560.96	156.949
