Measurement: Raman, 514 nm, depolarized, Raman Data Processed
Mineral: Microcline
Rruff sample: R050193
Ideal chemistry: KAlSi_3_O_8_
Locality: Devil's Head, Douglas County, Colorado, USA
Source: Dave Bunk Minerals
Description: White to colorless heterogeneous mixture of K and Na feldspar in a cluster of crystals. Crystal structure determined, presented below. This sample is known as an intermediate microcline in the literature.
Measured chemistry: (K_0.929_Na_0.071_)(Al_1.005_Si_2.994_Fe_0.001_)O_7.993_F_0.007_  ; Light Band :  (Na_0.973_K_0.007_Ca_0.020_)(Al_1.020_Si_2.980_)O_8_ ; Dark Band
Pin_id: L01707
Orientation: Laser parallel to (-1 0 -1). Fiducial mark perpendicular to laser is parallel to b [0 1 0]
Raman shift (cm-1)	intensity
132.697	0
137.628	473.327
142.556	1318.85
147.482	2276.09
152.405	3550.94
157.326	3967.98
162.244	3281.17
167.159	1821.73
172.072	1330.47
176.982	1359.31
181.89	1430.91
186.795	1457.73
191.697	1010.1
196.597	873.711
201.494	840.533
206.389	1042.96
211.281	880.027
216.17	89.4277
221.057	34.6113
225.941	22.0508
230.823	101.773
235.702	35.0605
240.578	73.6582
245.452	355.731
250.323	686.682
255.192	982.311
260.058	1405.64
264.921	1985.7
269.782	2330.04
274.64	2762.36
279.495	3440.31
284.348	3511.96
289.198	3471.04
294.046	2162.71
298.891	889.182
303.733	340.799
308.573	201.004
313.41	195.592
318.245	68.5371
323.077	418.725
327.906	493.5
332.733	248.56
337.557	89.6328
342.379	5.89453
347.198	167.211
352.014	191.469
356.828	127.219
361.639	23.9199
366.447	196.457
371.253	307.44
376.056	22.4219
380.857	5.23242
385.655	9.6543
390.451	64.7539
395.243	300.805
400.034	271.859
404.821	496.678
409.606	577.432
414.389	309.291
419.168	75.2031
423.945	132.75
428.72	163.959
433.492	77.6914
438.261	299.19
443.028	797.633
447.792	1624.3
452.553	2438.74
457.312	2293.18
462.068	1859.85
466.822	2493.39
471.573	4348.12
476.321	6157.83
481.067	4673.43
485.81	2402.85
490.551	1798.64
495.289	2118.23
500.024	4012.44
504.757	8743.27
509.487	12380
514.214	10414.4
518.939	5250.07
523.661	2206.71
528.381	1137.28
533.098	714.488
537.812	712.711
542.524	242.945
547.233	202.148
551.94	262.307
556.644	135.297
561.345	350.168
566.044	148.041
570.74	409.482
575.433	422.332
580.124	252.42
584.812	75.6973
589.498	158.508
594.181	211.182
598.861	63.4414
603.539	135.541
608.214	291
612.887	490.457
617.557	137.709
622.224	142.973
626.889	162.6
631.551	498.332
636.21	296.006
640.867	268.537
645.521	231.109
650.173	453.676
654.822	222.922
659.468	157.023
664.112	385.076
668.753	145.908
673.392	122.57
678.028	56.832
682.661	37.0938
687.292	94.6523
691.92	214.875
696.545	165.053
701.168	46.8652
705.788	114.039
710.406	25.5781
715.021	214.596
719.633	376.256
724.243	340.428
728.85	195.072
733.455	304.156
738.056	417.502
742.656	600.953
747.252	624.252
751.846	1104.21
756.438	1214.13
761.027	1326.27
765.613	1348.52
770.196	841.25
774.777	453.312
779.356	465.824
783.932	292.482
788.505	572.354
793.075	609.471
797.643	605.604
802.208	902.502
806.771	933.053
811.331	1621.13
815.888	1673.17
820.443	705.863
824.995	517.732
829.545	342.435
834.092	9.70508
838.636	252.572
843.178	391.08
847.717	496.865
852.254	21.4766
856.788	240.127
861.319	97.6992
865.848	325.797
870.374	81.4648
874.897	16.2617
879.418	56.4883
883.936	134.75
888.452	82.6406
892.965	147.156
897.475	142.664
901.983	27.6289
906.488	49.4961
910.99	347.539
915.49	11.1914
919.988	53.0742
924.482	275.246
928.974	11.5547
933.464	174.856
937.951	380.047
942.435	42.7852
946.917	121.769
951.396	333.957
955.872	78.543
960.346	144.305
964.817	181.098
969.285	161.973
973.751	382.934
978.215	672.945
982.675	286.664
987.134	510.074
991.589	217.363
996.042	396.594
1000.49	599.731
1004.94	698.094
1009.38	450.887
1013.83	207.828
1018.27	268.336
1022.7	587.953
1027.14	255.32
1031.57	420.484
1036	349.648
1040.43	381.445
1044.85	438.664
1049.27	238.938
1053.69	135.121
1058.11	171.273
1062.52	300.402
1066.93	130.34
1071.34	68.2344
1075.75	134.281
1080.15	250.641
1084.55	449.207
1088.95	447.191
1093.35	845.711
1097.74	1145.76
1102.13	977.106
1106.52	947.688
1110.9	735.926
1115.28	977.598
1119.66	1111.51
1124.04	1100.15
1128.41	1083.57
1132.79	889.629
1137.16	1080.79
1141.52	694.555
1145.89	1016.82
1150.25	494.922
1154.61	370.43
1158.96	443.129
1163.32	518.297
1167.67	205.336
1172.02	200.383
1176.36	134.188
1180.71	265.785
1185.05	129.934
1189.38	120.055
1193.72	115.656
1198.05	46.9141
1202.38	140.91
1206.71	209.019
1211.04	116.34
1215.36	243.644
1219.68	18.9141
1224	28.5273
1228.31	96.9062
1232.62	317.375
1236.93	331.539
1241.24	44.6758
1245.54	381.863
1249.84	49.543
1254.14	322.945
1258.44	173.312
1262.73	11.5273
1267.03	18.375
1271.31	179.047
1275.6	51.2578
1279.88	144.062
1284.16	19.4023
1288.44	240.633
1292.72	99.5352
1296.99	82.9844
1301.26	260.988
1305.53	57.2188
1309.79	548.188
1314.06	276.727
1318.32	221.641
1322.57	544.641
1326.83	35.7031
1331.08	321.246
1335.33	421.254
1339.58	104.742
1343.82	475.781
1348.06	347.168
1352.3	291.227
1356.54	211.055
1360.77	364.766
1365.01	223.352
1369.23	23.7422
1373.46	156.344
1377.68	80.3711
1381.9	400.019
1386.12	439.766
1390.34	159.426
1394.55	102.008
1398.76	245.34
1402.97	372.297
1407.18	197.969
1411.38	176.723
1415.58	282.598
1419.78	375.598
1423.97	103.695
1428.17	107.059
1432.36	273.82
1436.54	462.957
1440.73	170.859
1444.91	180.531
1449.09	375.91
1453.27	252.621
1457.44	509.324
1461.61	284.074
1465.78	229.312
1469.95	173.465
1474.11	281.57
1478.27	409.375
1482.43	390.551
1486.59	625.586
1490.74	120.258
1494.89	437.082
1499.04	356
1503.19	373.039
1507.33	144.148
1511.47	235.273
1515.61	266.887
1519.75	517.387
1523.88	240.344
1528.01	275.492
1532.14	441.812
1536.26	489.711
1540.38	158.699
1544.51	191.266
1548.62	360.246
1552.74	178.465
1556.85	100.606
1560.96	149.949
