Measurement: Raman, 514 nm, depolarized, Raman Data Processed
Mineral: Microcline
Rruff sample: R050193
Ideal chemistry: KAlSi_3_O_8_
Locality: Devil's Head, Douglas County, Colorado, USA
Source: Dave Bunk Minerals
Description: White to colorless heterogeneous mixture of K and Na feldspar in a cluster of crystals. Crystal structure determined, presented below. This sample is known as an intermediate microcline in the literature.
Measured chemistry: (K_0.929_Na_0.071_)(Al_1.005_Si_2.994_Fe_0.001_)O_7.993_F_0.007_  ; Light Band :  (Na_0.973_K_0.007_Ca_0.020_)(Al_1.020_Si_2.980_)O_8_ ; Dark Band
Pin_id: L01042
Orientation: Laser parallel to a* (1 0 0). Fiducial mark perpendicular to laser is parallel to -b [0 -1 0]
Raman shift (cm-1)	intensity
142.556	0
147.482	343.766
152.405	917.75
157.326	678.521
162.244	291.941
167.159	276.701
172.072	471.619
176.982	504.981
181.89	369.748
186.795	49.8496
191.697	327.221
196.597	294.33
201.494	382.531
206.389	136.869
211.281	56.7871
216.17	85.0039
221.057	2.99609
225.941	51.7246
230.823	77.7266
235.702	112.603
240.578	36.5527
245.452	110.629
250.323	354.213
255.192	1036.96
260.058	1564.67
264.921	1635.98
269.782	1799.81
274.64	1801.43
279.495	2064.64
284.348	2047.81
289.198	1363.17
294.046	911.973
298.891	458.981
303.733	339.059
308.573	74.0547
313.41	273.449
318.245	185.182
323.077	145.023
327.906	321.283
332.733	166.676
337.557	171.795
342.379	94.8242
347.198	14.168
352.014	52.8242
356.828	150.809
361.639	445.488
366.447	231.043
371.253	248.088
376.056	154.6
380.857	46.0176
385.655	46.1699
390.451	24.4766
395.243	287.256
400.034	279.352
404.821	467.732
409.606	481.332
414.389	323.965
419.168	170.871
423.945	3.00781
428.72	199.359
433.492	58.8379
438.261	417.715
443.028	671.572
447.792	1413.38
452.553	2340.75
457.312	1963.27
462.068	1987.57
466.822	2815.17
471.573	4728.12
476.321	5217.22
481.067	3276.17
485.81	2088.56
490.551	1489.61
495.289	1260.26
500.024	2533.04
504.757	5874.01
509.487	9731.27
514.214	10022.8
518.939	5347.44
523.661	2323.25
528.381	1214.07
533.098	742.191
537.812	241.619
542.524	398.336
547.233	118.627
551.94	280.012
556.644	100.494
561.345	268.022
566.044	130.998
570.74	174.113
575.433	12.6152
580.124	144.631
584.812	40.041
589.498	2.74023
594.181	38.3711
598.861	3.11914
603.539	36.9863
608.214	90.8418
612.887	125.772
617.557	145.26
622.224	397.393
626.889	339.066
631.551	174.836
636.21	143.594
640.867	250.766
645.521	356.625
650.173	321.406
654.822	188.348
659.468	325.162
664.112	213.897
668.753	178.57
673.392	225.254
678.028	46.7344
682.661	217.023
687.292	3.49609
691.92	159.797
696.545	27.2461
701.168	169.004
705.788	110.266
710.406	334.734
715.021	36.8477
719.633	346.422
724.243	28.7266
728.85	156.703
733.455	419.836
738.056	904.328
742.656	780.715
747.252	959.633
751.846	1004.36
756.438	669.727
761.027	934.644
765.613	718.199
770.196	416.102
774.777	286.297
779.356	446.731
783.932	467.008
788.505	393.988
793.075	579.727
797.643	448.852
802.208	333.894
806.771	698
811.331	935.375
815.888	681.586
820.443	316.93
824.995	289.531
829.545	157.594
834.092	318.918
838.636	74.6055
843.178	342.168
847.717	200.941
852.254	219.203
856.788	61.5664
861.319	342.938
865.848	275.484
870.374	308.695
874.897	225.457
879.418	135.965
883.936	100.981
888.452	221.727
892.965	43.5352
897.475	64.3438
901.983	141.398
906.488	101.859
910.99	139.465
915.49	237.867
919.988	237.906
924.482	61.8125
928.974	92.2227
933.464	270.562
937.951	70.1016
942.435	173.094
946.917	69.8203
951.396	77.9648
955.872	296.793
960.346	127.008
964.817	423.25
969.285	176.992
973.751	241.383
978.215	268.852
982.675	404.231
987.134	458.598
991.589	646.062
996.042	427.019
1000.49	426.773
1004.94	335.719
1009.38	304.703
1013.83	272.883
1018.27	368
1022.7	157.668
1027.14	218.094
1031.57	438.031
1036	205.957
1040.43	162.012
1044.85	273.742
1049.27	2.87109
1053.69	373.66
1058.11	201.641
1062.52	159.602
1066.93	196.492
1071.34	145.746
1075.75	141.961
1080.15	161.629
1084.55	94.6328
1088.95	504.152
1093.35	549.367
1097.74	723.859
1102.13	469.473
1106.52	754.098
1110.9	893.629
1115.28	1132.13
1119.66	1685.63
1124.04	1630.16
1128.41	1592.32
1132.79	1271.7
1137.16	1136.6
1141.52	986
1145.89	861.492
1150.25	396.219
1154.61	439.16
1158.96	133.422
1163.32	287.496
1167.67	336.863
1172.02	312.688
1176.36	268.242
1180.71	189.176
1185.05	88.7344
1189.38	95.6406
1193.72	293.402
1198.05	28.1406
1202.38	204.289
1206.71	272.758
1211.04	363.82
1215.36	26.2969
1219.68	55.043
1224	170.656
1228.31	303.09
1232.62	137.434
1236.93	313.488
1241.24	226.356
1245.54	96.8867
1249.84	342.215
1254.14	69.5742
1258.44	348.523
1262.73	168.266
1267.03	283.844
1271.31	113.981
1275.6	407.539
1279.88	7.58203
1284.16	338.625
1288.44	74.4375
1292.72	238.805
1296.99	32.6016
1301.26	511.465
1305.53	264.508
1309.79	303.988
1314.06	227.008
1318.32	384.894
1322.57	209.293
1326.83	240.367
1331.08	218.969
1335.33	410.875
1339.58	447.543
1343.82	443.945
1348.06	374.516
1352.3	204.516
1356.54	462.504
1360.77	340.137
1365.01	362.356
1369.23	146.992
1373.46	300.801
1377.68	218.789
1381.9	325.93
1386.12	204.465
1390.34	170.75
1394.55	234.266
1398.76	328.09
1402.97	231.602
1407.18	132.144
1411.38	335.43
1415.58	67.957
1419.78	370.727
1423.97	52.168
1428.17	92.6172
1432.36	268.984
1436.54	247.703
1440.73	66.2812
1444.91	432.453
1449.09	344.738
1453.27	281.133
1457.44	495.891
1461.61	545.141
1465.78	3.48438
1469.95	390.695
1474.11	309.172
1478.27	778.84
1482.43	182.102
1486.59	189.441
1490.74	441.418
1494.89	224.559
1499.04	237.789
1503.19	377.055
1507.33	270.801
1511.47	506.019
1515.61	492.164
1519.75	340.703
1523.88	433.336
1528.01	195
1532.14	321.047
1536.26	44.1719
1540.38	115.387
1544.51	49.9258
1548.62	240.219
1552.74	148.617
1556.85	270.68
1560.96	0.90625
