Measurement: Raman, 514 nm, depolarized, Raman Data Processed
Mineral: Microcline
Rruff sample: R050193
Ideal chemistry: KAlSi_3_O_8_
Locality: Devil's Head, Douglas County, Colorado, USA
Source: Dave Bunk Minerals
Description: White to colorless heterogeneous mixture of K and Na feldspar in a cluster of crystals. Crystal structure determined, presented below. This sample is known as an intermediate microcline in the literature.
Measured chemistry: (K_0.929_Na_0.071_)(Al_1.005_Si_2.994_Fe_0.001_)O_7.993_F_0.007_  ; Light Band :  (Na_0.973_K_0.007_Ca_0.020_)(Al_1.020_Si_2.980_)O_8_ ; Dark Band
Pin_id: L00861
Orientation: Laser parallel to (0 1 1). Fiducial mark perpendicular to laser is parallel to -a [-1 0 0]
Raman shift (cm-1)	intensity
96.897	0
101.848	1216.05
106.795	5258.26
111.74	7327.94
116.682	5924.51
121.622	3346.07
126.558	1397.94
131.492	1235.84
136.423	4180.27
141.352	9711.65
146.277	15593.6
151.2	21103.1
156.121	23279.5
161.038	21385.8
165.953	16809.8
170.865	14201.9
175.774	14688.6
180.681	17638.3
185.585	18056.2
190.486	12998
195.384	8556.23
200.28	8710.76
205.173	10795.8
210.063	10672.8
214.95	4367.38
219.835	669.43
224.717	618.875
229.597	764.383
234.473	883.016
239.347	120.746
244.218	1832.22
249.087	5005.14
253.953	7078.03
258.816	7339.62
263.676	9337.56
268.534	11206.7
273.389	12318.4
278.241	16369.6
283.091	25244.3
287.938	32543.1
292.782	27267.2
297.623	11531.6
302.462	4573.96
307.298	2097.73
312.131	1328.16
316.962	1234.73
321.79	3014.07
326.615	6248.38
331.438	5817.58
336.258	2192.59
341.075	970.332
345.889	624.731
350.701	873.664
355.51	468.098
360.317	501.879
365.12	228.883
369.921	397.059
374.72	47.4375
379.515	333.195
384.309	112.152
389.099	86.4453
393.886	1291.63
398.671	2592.77
403.454	4263.67
408.233	5081.15
413.01	4554.16
417.785	3015.24
422.556	912.191
427.325	64.6016
432.091	296.051
436.855	830.066
441.616	2212.57
446.374	5034.6
451.13	9714.72
455.883	11876
460.633	9054.73
465.38	10015.8
470.125	19674.5
474.868	36639.1
479.607	39957.7
484.344	21703.4
489.078	11290.6
493.81	11191.9
498.539	22787.3
503.265	51386
507.989	75717.5
512.71	58949.9
517.428	30765.9
522.144	13454.7
526.857	6970.84
531.567	4072.91
536.275	2307.75
540.98	1734.98
545.683	1250.24
550.383	915.75
555.08	623.809
559.774	770.691
564.466	851.438
569.155	913.004
573.842	2048.59
578.526	2972.83
583.207	1826.46
587.886	884.441
592.562	533.562
597.235	461.406
601.906	319.094
606.574	503.223
611.24	485.301
615.903	757.508
620.563	893.875
625.221	1001.44
629.876	1776.17
634.528	1973.79
639.178	1526.31
643.825	1903.91
648.47	2274.84
653.112	1663
657.751	904.773
662.388	502.551
667.022	502.731
671.653	40.9727
676.282	61.0508
680.908	13.293
685.532	25.1719
690.153	137.523
694.771	233.543
699.387	315.195
704	74.9531
708.61	18.1875
713.218	600.016
717.824	503.137
722.426	494.832
727.026	530.457
731.624	853.789
736.219	1322.21
740.811	2110.62
745.401	3317.99
749.988	3813.64
754.572	4663.16
759.154	8199.4
763.734	10541.5
768.31	6152.79
772.884	3237.07
777.456	1914.69
782.025	1479.36
786.591	1238.19
791.155	1759.93
795.716	1791.65
800.275	2086.76
804.831	3781.81
809.384	7940.32
813.935	11750.5
818.483	7675.42
823.029	3127.14
827.572	1781.69
832.112	1245.56
836.65	729.617
841.186	564.898
845.718	440.734
850.249	317.07
854.776	117.332
859.301	404.285
863.824	22.4609
868.344	258.18
872.861	258.766
877.376	141.285
881.888	56.2578
886.397	2.79297
890.904	132.949
895.409	46.6836
899.911	73.3281
904.41	220.387
908.907	214.062
913.401	239.738
917.893	197.387
922.382	98.9492
926.869	27.1523
931.353	142.394
935.834	20.3984
940.313	289.453
944.789	288.273
949.263	252.336
953.734	404.914
958.203	314.113
962.669	536.859
967.133	1137.2
971.594	2010.15
976.052	3454.45
980.508	3120.65
984.961	2176.89
989.412	1987.39
993.861	2274.25
998.306	3163.33
1002.75	3431.77
1007.19	2940.61
1011.63	2416.27
1016.06	2237.39
1020.5	2070.66
1024.93	2317.69
1029.36	3045.8
1033.78	3217.78
1038.2	2261.7
1042.62	1344.79
1047.04	735.098
1051.46	786.238
1055.87	393.394
1060.28	621.348
1064.69	571.512
1069.09	622.402
1073.5	489.703
1077.9	1335.56
1082.29	1299.71
1086.69	2019.07
1091.08	3679.49
1095.47	6845.59
1099.86	7749.34
1104.24	5940.96
1108.63	4269.12
1113.01	4167.83
1117.38	4962.1
1121.76	4961.38
1126.13	4253.81
1130.5	3125.88
1134.87	2951.31
1139.23	2356.38
1143.6	2441.55
1147.96	1526.87
1152.32	1513.41
1156.67	1173.39
1161.02	174.875
1165.37	168.836
1169.72	211.016
1174.07	179.266
1178.41	3.47656
1182.75	99.6562
1187.08	25.1719
1191.42	91.2188
1195.75	206.141
1200.08	42.6094
1204.41	61.4609
1208.73	4.28906
1213.06	192.852
1217.38	140.93
1221.69	52.2188
1226.01	200.32
1230.32	280.867
1234.63	69.4531
1238.94	507
1243.24	192.445
1247.55	55.6641
1251.85	148.164
1256.14	240.727
1260.44	188.656
1264.73	211.641
1269.02	500.117
1273.31	364.406
1277.6	970.992
1281.88	1075.65
1286.16	1187.94
1290.44	1428.68
1294.71	970.461
1298.98	1387.28
1303.26	1437.58
1307.52	1144
1311.79	1216.97
1316.05	1172.41
1320.31	1397.13
1324.57	1205.96
1328.83	1286.19
1333.08	1010.01
1337.33	1197.86
1341.58	788.938
1345.82	1166.58
1350.07	519.523
1354.31	781.789
1358.55	212.422
1362.78	606.094
1367.02	781.672
1371.25	622.383
1375.48	596.781
1379.7	328.82
1383.92	475.773
1388.15	245.164
1392.37	466.984
1396.58	166.805
1400.8	274.578
1405.01	336.703
1409.22	246.672
1413.42	447.719
1417.63	538.789
1421.83	648.273
1426.03	287.031
1430.22	946.414
1434.42	617.312
1438.61	957.406
1442.8	1104.62
1446.99	939.492
1451.17	1183.69
1455.35	1035.14
1459.53	610.297
1463.71	754.344
1467.89	228.453
1472.06	251.852
1476.23	790.68
1480.4	435.406
1484.56	560.891
1488.72	235.078
1492.88	520.961
1497.04	469.672
1501.2	437.602
1505.35	652.82
1509.5	403.492
1513.65	278.734
1517.8	52.7891
1521.94	379.125
1526.08	231.156
1530.22	489.32
1534.36	623.109
1538.49	830.312
1542.62	645.875
1546.75	418.359
1550.88	466.914
1555	863.625
1559.12	2.27344
1563.24	299.742
1567.36	11.6172
1571.47	18.9062
1575.58	250.922
