Measurement: Raman, 514 nm, depolarized, Raman Data Processed
Mineral: Microcline
Rruff sample: R040154
Ideal chemistry: KAlSi_3_O_8_
Locality: Mitchell County, North Carolina, USA
Source: University of Arizona Mineral Museum
Description: White cleavage fragment with some perthitic character
Measured chemistry: (K_0.90_Na_0.09_Ba_0.01_)Al_1.00_(Si_2.99_Al_0.01_)_Î£=3_O_8_
Pin_id: L00534
Orientation: Laser parallel to (1 1 0). Fiducial mark perpendicular to laser is parallel to c [0 0 1]
Raman shift (cm-1)	intensity
99.453	0
103.636	205.541
107.817	2710.73
111.996	3113.9
116.172	1706.73
120.347	1861.09
124.519	4486.29
128.69	6161.39
132.858	4538.46
137.025	4404.35
141.189	6670.28
145.352	7975.59
149.512	10200.9
153.67	13206.4
157.827	15393.3
161.981	12538.8
166.133	6659.83
170.283	3889.44
174.431	4377.88
178.577	5766.01
182.721	4345.41
186.863	2517.11
191.003	1759.81
195.141	2503.27
199.277	3467.65
203.411	2432.93
207.543	1147.03
211.673	463.581
215.801	79.477
219.927	149.357
224.051	218.038
228.173	267.14
232.292	163.051
236.41	201.871
240.526	102.625
244.64	266.497
248.752	1040.55
252.861	3237.74
256.969	6258.7
261.075	6851.31
265.179	7578.84
269.281	6543.08
273.38	4181.38
277.478	4856.63
281.574	10284.1
285.668	15203.7
289.76	11164.6
293.85	5176.43
297.937	2678.78
302.023	1381.14
306.107	627.394
310.189	351.55
314.269	131.603
318.347	32.525
322.423	112.233
326.497	841.97
330.569	2040.76
334.639	1727.87
338.707	564.602
342.773	146.287
346.837	91.856
350.899	166.24
354.96	470.467
359.018	620.268
363.074	382.5
367.128	508.323
371.181	1604.03
375.231	1539.54
379.28	574.971
383.326	35.974
387.37	196.981
391.413	16.102
395.454	159.869
399.492	716.686
403.529	1705.85
407.564	1306.92
411.596	1008.69
415.627	650.129
419.656	71.445
423.683	27.472
427.708	107.249
431.731	77.774
435.752	111.024
439.772	440.249
443.789	929.781
447.804	2328.54
451.817	6166.92
455.829	7865.55
459.838	4823.68
463.846	3450.77
467.852	4827.25
471.855	10793.4
475.857	17129.2
479.857	13330.7
483.855	8732.57
487.851	5667.45
491.845	3132.03
495.837	2816.35
499.828	3610.4
503.816	6773.51
507.802	16010.9
511.787	33449.7
515.77	34392.7
519.75	16975.5
523.729	7730.74
527.706	4195.86
531.681	2633.11
535.654	1738.94
539.625	1215.24
543.595	1036.84
547.562	868.219
551.527	656.455
555.491	437.535
559.453	379.783
563.412	393.254
567.37	269.643
571.326	391.981
575.28	353.695
579.233	583.767
583.183	887.028
587.131	682.168
591.078	239.34
595.022	79.25
598.965	59.938
602.906	140.427
606.845	110.705
610.782	100.781
614.718	50.64
618.651	100.283
622.582	249.736
626.512	529.014
630.44	768.117
634.366	677.051
638.29	705.852
642.212	1174.56
646.132	1483.12
650.05	2101.52
653.967	2289.76
657.882	1447.85
661.794	935.783
665.705	463.645
669.614	251.438
673.522	169.096
677.427	108.357
681.331	33.94
685.232	48.447
689.132	101.527
693.03	155.088
696.926	27.34
700.82	38.422
704.713	154.493
708.603	54.427
712.492	218.623
716.379	179.336
720.264	385.21
724.147	104.927
728.028	203.228
731.908	270.046
735.785	559.838
739.661	972.687
743.535	1787.59
747.407	3595.06
751.278	4159.97
755.146	2537.55
759.013	1612.16
762.878	1296.06
766.741	1069.93
770.602	772.674
774.461	496.516
778.319	550.574
782.174	284.603
786.028	188.494
789.88	392.253
793.73	335.879
797.579	259.377
801.425	392.745
805.27	865.987
809.113	1569.11
812.954	2882.1
816.794	2334.98
820.631	1397.75
824.467	540.396
828.301	452.932
832.133	205.228
835.963	34.186
839.792	122.488
843.618	133.818
847.443	98.375
851.266	26.569
855.088	103.611
858.907	60.237
862.725	9.956
866.541	240.173
870.355	180.679
874.167	70.111
877.978	185.652
881.787	145.662
885.594	84.262
889.399	135.623
893.202	75.336
897.004	45.066
900.803	4.443
904.601	66.084
908.398	6.711
912.192	162.656
915.985	262.037
919.776	11.416
923.565	0.799
927.352	210.174
931.138	289.539
934.922	248.896
938.704	248.248
942.484	297.598
946.262	66.953
950.039	256.32
953.814	385.691
957.587	365.082
961.359	319.652
965.128	323.926
968.896	203.389
972.662	362.881
976.427	412.412
980.189	621.98
983.95	831.594
987.709	810.795
991.467	1490.57
995.222	2150.39
998.976	2020.59
1002.73	1936.76
1006.48	1539.59
1010.23	1073.53
1013.97	656.883
1017.72	659.936
1021.46	516.283
1025.2	692.867
1028.94	725.453
1032.68	873.979
1036.42	998.814
1040.15	1060.83
1043.89	804.781
1047.62	676.199
1051.35	889.053
1055.07	887.955
1058.8	873.285
1062.52	575.963
1066.25	242.004
1069.97	344.91
1073.69	470.398
1077.4	421.092
1081.12	514.422
1084.83	567.902
1088.55	561.533
1092.26	675.324
1095.96	919.275
1099.67	1293.39
1103.38	1247.68
1107.08	1192.13
1110.78	1426.76
1114.48	1861.54
1118.18	2556.48
1121.88	4071.6
1125.57	4846.86
1129.27	4172.26
1132.96	3227.75
1136.65	3753.41
1140.34	3809.53
1144.02	2676.88
1147.71	1791.19
1151.39	1007.71
1155.07	564.996
1158.75	502.68
1162.43	405.746
1166.11	273.271
1169.78	351.826
1173.45	39.949
1177.12	178.383
1180.79	5.727
1184.46	172.402
1188.13	148.229
1191.79	213.459
1195.45	198.502
1199.11	282.238
1202.77	39.779
1206.43	1.572
1210.09	73.139
1213.74	285.584
1217.39	174.6
1221.05	263.906
1224.69	453.518
1228.34	194.68
1231.99	163.658
1235.63	164.201
1239.27	435.074
1242.91	336.287
1246.55	267.58
1250.19	388.707
1253.83	520.084
1257.46	441.547
1261.09	341.691
1264.72	484.518
1268.35	344.436
1271.98	284.291
1275.61	270.754
1279.23	116.822
1282.85	290.176
1286.47	263.889
1290.09	307.957
1293.71	462.346
1297.33	87.051
1300.94	92.129
1304.55	197.748
1308.16	134.055
1311.77	712.059
1315.38	590.045
1318.99	647.424
1322.59	473.158
1326.19	235.236
1329.79	167.727
1333.39	143.447
1336.99	4.625
1340.59	80.453
