Measurement: Raman, 514 nm, depolarized, Raman Data Processed
Mineral: Microcline
Rruff sample: R040154
Ideal chemistry: KAlSi_3_O_8_
Locality: Mitchell County, North Carolina, USA
Source: University of Arizona Mineral Museum
Description: White cleavage fragment with some perthitic character
Measured chemistry: (K_0.90_Na_0.09_Ba_0.01_)Al_1.00_(Si_2.99_Al_0.01_)_Î£=3_O_8_
Pin_id: L00521
Orientation: Laser parallel to -c* (0 0 -1). Fiducial mark perpendicular to laser is parallel to a [1 0 0]
Raman shift (cm-1)	intensity
87.798	0
91.981	114.403
96.161	13.258
100.34	398.724
104.516	1329.8
108.691	1641.08
112.864	1270.54
117.034	2849.83
121.203	5457.48
125.369	8060.85
129.534	7648.57
133.696	5576.84
137.857	6738.88
142.016	7021.96
146.172	7418.28
150.327	10139.2
154.48	14856.8
158.63	15753.2
162.779	10725.7
166.926	6009.9
171.07	5190.17
175.213	6296.35
179.354	6210.32
183.493	4321.96
187.63	2891.13
191.765	3164.87
195.898	4699.11
200.029	4425.45
204.158	2837.57
208.285	1753.24
212.41	645.801
216.533	155.599
220.654	101.598
224.773	234.688
228.891	203.73
233.006	167.216
237.119	65.842
241.231	306.344
245.34	994.438
249.448	2666.55
253.553	5915.42
257.657	8500.69
261.758	9802.43
265.858	10055
269.956	7488.3
274.052	6138.49
278.146	9932.81
282.237	16579.9
286.327	16079.5
290.416	9514.23
294.502	4130.95
298.586	2092.52
302.668	1018.91
306.749	398.104
310.827	89.091
314.903	15.208
318.978	19.146
323.051	365.021
327.121	1309.32
331.19	1783.03
335.257	706.542
339.322	187.852
343.385	62.913
347.446	24.462
351.505	250.487
355.563	350.247
359.618	137.768
363.672	182.021
367.723	715.648
371.773	853.782
375.821	370.842
379.866	76.641
383.91	20.927
387.952	191.024
391.992	9.697
396.031	705.53
400.067	1408.64
404.101	1739.55
408.134	1369.97
412.165	1329.24
416.193	840.372
420.22	204.48
424.245	10.635
428.268	66.691
432.289	257.512
436.309	470.238
440.326	1095.72
444.342	2828.4
448.355	7200.99
452.367	12263.4
456.377	9819.38
460.385	5861.96
464.391	4929.02
468.395	8443.63
472.398	15368.4
476.398	16527.4
480.397	11944
484.394	8030.49
488.389	4850.32
492.382	3590.84
496.373	4190.06
500.362	7359.97
504.349	16312.9
508.335	33905.7
512.319	45926.8
516.3	31566.9
520.28	14302.8
524.259	6738.81
528.235	3933.34
532.209	2554.26
536.182	1892.77
540.152	1359.7
544.121	1096.97
548.088	803.646
552.053	615.241
556.017	473.059
559.978	298.686
563.938	377.777
567.895	472.269
571.851	447.392
575.805	790.168
579.758	1242.74
583.708	997.689
587.657	760.978
591.603	183.335
595.548	236.116
599.491	168.656
603.432	246.908
607.372	467.863
611.309	33.469
615.245	168.762
619.179	281.758
623.111	390.535
627.041	953.094
630.97	977.447
634.896	781.656
638.821	1196.95
642.744	1715.1
646.665	2311.18
650.584	2566.99
654.502	2447.61
658.418	1598.03
662.331	787.357
666.244	652.867
670.154	239.365
674.062	13.676
677.969	106.75
681.874	155.623
685.777	22.51
689.678	68.822
693.577	26.15
697.475	147.586
701.371	50.807
705.265	259.867
709.157	224.926
713.047	20.248
716.936	26.902
720.823	113.41
724.708	319.385
728.591	490.93
732.472	572.516
736.352	1268.88
740.23	2043.97
744.106	4353.32
747.98	6830.22
751.853	5469.96
755.723	3229.09
759.592	2295.27
763.459	2228.86
767.325	1601.09
771.188	1091.86
775.05	920.717
778.91	611.297
782.768	389.793
786.625	502.004
790.479	687.199
794.332	762.24
798.183	819.131
802.033	1336.87
805.88	2882.47
809.726	5656.92
813.57	7919.23
817.413	4508.4
821.253	1808.43
825.092	928.33
828.929	661.428
832.764	445.389
836.598	363.893
840.429	298.92
844.259	429.912
848.088	65.656
851.914	198.166
855.739	299.049
859.562	0.65
863.383	34.832
867.203	37.314
871.02	88.326
874.836	28.061
878.65	40.869
882.463	123.406
886.274	7.373
890.083	89.139
893.89	40.914
897.695	126.824
901.499	137.607
905.301	137.361
909.102	8.143
912.9	1.027
916.697	44.812
920.492	36.287
924.285	342.637
928.077	180.6
931.867	112.562
935.655	21.486
939.442	172.418
943.226	375.299
947.009	206.17
950.791	268.031
954.57	366.877
958.348	376.734
962.124	148.623
965.899	518.564
969.671	348.559
973.442	662.561
977.211	784.619
980.979	804.74
984.745	1132.9
988.509	1762.08
992.271	2787.09
996.032	3107.08
999.791	2495.07
1003.55	1731.53
1007.3	1442.99
1011.06	974.91
1014.81	773.895
1018.56	728.293
1022.31	629.232
1026.06	933.719
1029.8	829.613
1033.55	1055.88
1037.29	1143.98
1041.03	1294.8
1044.77	821.762
1048.5	1231.82
1052.24	883.049
1055.97	723.367
1059.7	567.967
1063.43	487.676
1067.16	588.766
1070.89	679.213
1074.61	538.715
1078.34	265.588
1082.06	470.08
1085.78	589.123
1089.5	853.246
1093.21	1208.02
1096.93	1907.24
1100.64	1689.23
1104.35	1546.59
1108.06	1046.01
1111.77	1252.48
1115.48	1420.43
1119.18	1933.02
1122.89	3698.84
1126.59	3142.59
1130.29	2605.46
1133.99	2505.21
1137.68	3552.8
1141.38	2810.52
1145.07	1965.52
1148.76	1182.9
1152.45	856.422
1156.14	436.887
1159.83	427.186
1163.51	190.584
1167.19	268.076
1170.88	41.223
1174.56	321.254
1178.23	27.869
1181.91	228.039
1185.59	49.924
1189.26	181.576
1192.93	229.744
1196.6	302.922
1200.27	210.809
1203.94	274.705
1207.6	60.117
1211.27	306.248
1214.93	318.873
1218.59	184.75
1222.25	47.871
1225.9	249.994
1229.56	358.764
1233.21	315.994
1236.86	323.068
1240.51	240.07
1244.16	291.398
1247.81	98.486
1251.45	186.037
1255.1	166.672
1258.74	224.887
1262.38	258.273
1266.02	324.143
1269.66	73.098
1273.29	106.711
1276.93	65.451
1280.56	265.699
1284.19	245.355
1287.82	97.146
1291.45	129.193
1295.07	221.926
1298.7	49.705
1302.32	163.578
1305.94	2.588
1309.56	200.439
1313.18	187.328
1316.8	3.893
1320.41	143.777
1324.02	81.096
1327.63	255.383
1331.24	106.672
1334.85	78.441
1338.46	46.65
1342.06	89.299
1345.67	138.57
1349.27	70.857
1352.87	340.516
1356.47	332.117
1360.07	638.385
1363.66	559.029
1367.25	559.545
1370.85	574.383
1374.44	450.594
1378.03	250.898
1381.61	495.449
1385.2	435.473
1388.78	231.105
1392.37	387.48
1395.95	576.594
1399.53	108.406
1403.1	420.195
1406.68	270.191
1410.26	159.07
1413.83	322.98
1417.4	66.363
1420.97	373.594
1424.54	395.18
1428.1	119.484
1431.67	317.719
1435.23	668.398
1438.8	376.734
1442.36	270.938
1445.91	320.027
1449.47	361.223
1453.03	309.789
1456.58	438.855
1460.13	510.164
1463.68	592.93
1467.23	116.566
1470.78	276.629
1474.33	201.949
1477.87	220.426
1481.42	0
