Measurement: Raman, 514 nm, ccw, Raman Data Processed
Mineral: Microcline
Rruff sample: R050193
Ideal chemistry: KAlSi_3_O_8_
Locality: Devil's Head, Douglas County, Colorado, USA
Source: Dave Bunk Minerals
Description: White to colorless heterogeneous mixture of K and Na feldspar in a cluster of crystals. Crystal structure determined, presented below. This sample is known as an intermediate microcline in the literature.
Measured chemistry: (K_0.929_Na_0.071_)(Al_1.005_Si_2.994_Fe_0.001_)O_7.993_F_0.007_  ; Light Band :  (Na_0.973_K_0.007_Ca_0.020_)(Al_1.020_Si_2.980_)O_8_ ; Dark Band
Pin_id: L00861
Orientation: Laser parallel to (0 1 1). Fiducial mark perpendicular to laser is parallel to -a [-1 0 0]
Raman shift (cm-1)	intensity
91.944	0
96.897	218.303
101.848	4104.33
106.795	12257.7
111.74	14305.5
116.682	10166.6
121.622	4317.18
126.558	2116.63
131.492	1171.6
136.423	2303.82
141.352	8564.91
146.277	17014.6
151.2	17440
156.121	7967.04
161.038	4420.23
165.953	6955.78
170.865	10666.3
175.774	13057.2
180.681	15971.1
185.585	16666.8
190.486	11728.3
195.384	7774.31
200.28	8860.7
205.173	13198.9
210.063	13651.8
214.95	5626.35
219.835	1037.8
224.717	24.8613
229.597	449.873
234.473	620.432
239.347	154.803
244.218	2074.24
249.087	4301.31
253.953	6348.92
258.816	7923.07
263.676	12199.3
268.534	14309.1
273.389	11312.6
278.241	10273.6
283.091	16258.5
287.938	23476.1
292.782	20547.5
297.623	8664.56
302.462	3065.24
307.298	1041.53
312.131	325.039
316.962	340.891
321.79	1433.18
326.615	3374.94
331.438	2969.17
336.258	629.836
341.075	136.9
345.889	26.0371
350.701	206.674
355.51	39.6406
360.317	91.3809
365.12	11.0059
369.921	184.719
374.72	137.035
379.515	108.49
384.309	24.6172
389.099	346.951
393.886	1569.31
398.671	3554.45
403.454	6315.52
408.233	8739.06
413.01	9004
417.785	7391.42
422.556	2367.7
427.325	878.709
432.091	1278.34
436.855	2106.42
441.616	3997.97
446.374	9372.99
451.13	18764.5
455.883	23091.8
460.633	16798.9
465.38	15960.9
470.125	30512.2
474.868	61293.4
479.607	68242.3
484.344	34115.5
489.078	16677.5
493.81	16425.6
498.539	32532.4
503.265	74176.6
507.989	101579
512.71	69625
517.428	33497.4
522.144	15304
526.857	8174.87
531.567	5970.15
536.275	3564.76
540.98	2562.75
545.683	1854.42
550.383	1644.05
555.08	1511.11
559.774	1389.69
564.466	1290.82
569.155	1453.76
573.842	2773.39
578.526	4260.66
583.207	2264.64
587.886	1082.37
592.562	593.92
597.235	625.254
601.906	441.562
606.574	581.195
611.24	649.209
615.903	437.178
620.563	700.268
625.221	723.988
629.876	1148.94
634.528	1189.39
639.178	1563.24
643.825	2292.11
648.47	2588.57
653.112	1806.82
657.751	1296.06
662.388	788.908
667.022	407.824
671.653	139.963
676.282	181.859
680.908	190.67
685.532	165.584
690.153	247.666
694.771	63.2949
699.387	88.1367
704	51.5977
708.61	337.732
713.218	554.586
717.824	683.721
722.426	841.231
727.026	1064.86
731.624	1264.15
736.219	2063.73
740.811	3701.73
745.401	5352.54
749.988	6980.03
754.572	10021.3
759.154	19508.3
763.734	24917.5
768.31	12808.4
772.884	5863.91
777.456	3502.16
782.025	2446.48
786.591	2372.99
791.155	2374.85
795.716	3103.31
800.275	3702.67
804.831	6889.31
809.384	14753.6
813.935	22413.8
818.483	14902.1
823.029	5528.52
827.572	2363.19
832.112	1746.15
836.65	1235.39
841.186	861.039
845.718	391.566
850.249	356.566
854.776	285.922
859.301	355.582
863.824	213.434
868.344	203.785
872.861	97.8047
877.376	76.9648
881.888	178.383
886.397	27.207
890.904	91.9102
895.409	24.4688
899.911	231.531
904.41	118.566
908.907	216.734
913.401	48.2461
917.893	210.07
922.382	60.3477
926.869	79.5977
931.353	89.4453
935.834	193.984
940.313	101.098
944.789	235.828
949.263	530.269
953.734	459.664
958.203	899.481
962.669	656.824
967.133	1182.99
971.594	1784.34
976.052	3314.75
980.508	3166.05
984.961	2135.95
989.412	2081.61
993.861	2833.66
998.306	2967.13
1002.75	3496.73
1007.19	3691.95
1011.63	3145.53
1016.06	3066.9
1020.5	1802.18
1024.93	1418.78
1029.36	1738.66
1033.78	1422.85
1038.2	1727.51
1042.62	2171.11
1047.04	1845.14
1051.46	1517.04
1055.87	1244.21
1060.28	1092.98
1064.69	638.824
1069.09	945.414
1073.5	1246.7
1077.9	1521.64
1082.29	2387.69
1086.69	3521.94
1091.08	6376.37
1095.47	11353.5
1099.86	12732.6
1104.24	8377.63
1108.63	5477.95
1113.01	4146.85
1117.38	4040.68
1121.76	4321.43
1126.13	3839.14
1130.5	2593.09
1134.87	1929.95
1139.23	1936.85
1143.6	1741.04
1147.96	1129.88
1152.32	1290.02
1156.67	768.316
1161.02	190.129
1165.37	336.258
1169.72	355.606
1174.07	404.953
1178.41	81.3359
1182.75	94.625
1187.08	234.648
1191.42	185.18
1195.75	135.18
1200.08	56.5078
1204.41	212.441
1208.73	2.14062
1213.06	102.684
1217.38	80.9531
1221.69	23.6094
1226.01	232.738
1230.32	97.1133
1234.63	293.652
1238.94	209.188
1243.24	146.734
1247.55	313.316
1251.85	407.719
1256.14	246.441
1260.44	554.371
1264.73	611.356
1269.02	595.019
1273.31	835.086
1277.6	753.184
1281.88	1044.32
1286.16	1170.47
1290.44	1219.5
1294.71	1143.68
1298.98	1733.32
1303.26	1649.49
1307.52	1759.65
1311.79	1692.48
1316.05	1814.76
1320.31	1888.27
1324.57	1611.71
1328.83	1548.41
1333.08	1175.46
1337.33	1457.02
1341.58	1104.02
1345.82	996.988
1350.07	822.555
1354.31	826.059
1358.55	453.715
1362.78	686.582
1367.02	594.516
1371.25	190.805
1375.48	476.539
1379.7	565.578
1383.92	187.273
1388.15	186.262
1392.37	149.117
1396.58	118.152
1400.8	233.375
1405.01	484.781
1409.22	208.098
1413.42	113.856
1417.63	422.082
1421.83	281.797
1426.03	450.324
1430.22	452.922
1434.42	736.496
1438.61	700.156
1442.8	656.32
1446.99	654.707
1451.17	640.281
1455.35	346.594
1459.53	369.648
1463.71	480.027
1467.89	250.125
1472.06	277.34
1476.23	205.754
1480.4	378.781
1484.56	156.684
1488.72	122.949
1492.88	179.852
1497.04	350.109
1501.2	122.125
1505.35	178.285
1509.5	60.3516
1513.65	407.691
1517.8	413.277
1521.94	452.594
1526.08	493.438
1530.22	441.871
1534.36	621.699
1538.49	494.75
1542.62	413.492
1546.75	500.488
1550.88	281.133
1555	969.324
1559.12	551.703
1563.24	490.606
1567.36	595.742
1571.47	10.1641
1575.58	508.281
