Measurement: Raman, 514 nm, depolarized, Raman Data Processed
Mineral: Microcline
Rruff sample: R050054
Ideal chemistry: KAlSi_3_O_8_
Locality: Kenticha, Negele area, Sidamo Province, Ethiopia
Source: Rock Currier
Description: Light blue single crystal
Measured chemistry: (K_0.96_Na_0.04_)Al_1.00_Si_3.00_O_8_
Pin_id: M00118
Orientation: Laser parallel to (1 0 1). Fiducial mark perpendicular to laser is parallel to b [0 1 0]
Raman shift (cm-1)	intensity
90.128	0
94.324	247.142
98.519	300.521
102.712	682.375
106.902	2634.09
111.09	4240.19
115.277	1965.63
119.461	460.029
123.643	810.565
127.823	1678.76
132.001	1215.45
136.176	210.692
140.35	91.448
144.521	637.942
148.691	2414.31
152.858	3560.99
157.024	2302.59
161.187	1164
165.348	655.801
169.507	586.136
173.664	960.085
177.819	2222.17
181.971	2635.26
186.122	1345.83
190.271	593.279
194.417	537.187
198.562	893.079
202.704	944.067
206.844	350.893
210.983	6.412
215.119	20.55
219.253	79.018
223.385	106.092
227.515	77.847
231.643	114.325
235.769	75.379
239.893	1.67
244.014	75.865
248.134	199.521
252.252	624.824
256.367	1668.91
260.481	2783.95
264.592	3368.35
268.702	3770.29
272.809	2461.66
276.915	1644.36
281.018	1908.85
285.119	3242.46
289.218	3414.31
293.316	2227.05
297.411	1448.37
301.504	1022.73
305.595	648.271
309.684	438.756
313.771	302.386
317.856	260.603
321.939	282.921
326.02	291.17
330.099	470.277
334.176	497.875
338.251	427.399
342.323	342.676
346.394	331.51
350.463	321.873
354.53	486.976
358.594	700.477
362.657	531.137
366.718	434.579
370.777	612.273
374.833	674.557
378.888	468.525
382.941	234.076
386.992	207.423
391.04	170.764
395.087	199.531
399.132	496.565
403.174	1397.93
407.215	1520.42
411.254	1038.6
415.29	855.327
419.325	445.155
423.358	151.451
427.389	124.105
431.417	78.101
435.444	140.606
439.469	286.104
443.492	533.021
447.512	1120.92
451.531	2730.19
455.548	4700.02
459.563	3678.91
463.576	2218.08
467.587	2304.17
471.596	4171.76
475.603	8274.94
479.608	8357.58
483.611	5177.02
487.612	3267.75
491.611	1930.82
495.608	1445.53
499.603	1445.65
503.596	2427.59
507.587	5038.6
511.577	12349.1
515.564	18443.7
519.549	11810.5
523.533	5432.56
527.514	2714.32
531.493	1513.69
535.471	919.863
539.447	696.549
543.42	554.246
547.392	461.363
551.362	318.042
555.329	252.618
559.295	199.265
563.259	199
567.221	140.037
571.181	86.186
575.139	123.586
579.095	140.771
583.049	227.641
587.002	206.334
590.952	110.554
594.9	8.526
598.847	14.799
602.792	16.196
606.734	27.748
610.675	49.354
614.614	12.517
618.55	15.319
622.485	39.139
626.418	100.964
630.349	174.821
634.279	206.744
638.206	235.751
642.131	371.849
646.055	514.029
649.976	824.279
653.896	943.577
657.814	840.922
661.729	476.326
665.643	249.801
669.555	105.344
673.465	107.944
677.373	55.574
681.28	2.681
685.184	12.882
689.087	99.178
692.987	14.224
696.886	62.618
700.783	42.397
704.677	3.82
708.57	92.03
712.462	75.594
716.351	179.027
720.238	89.718
724.124	65.616
728.007	57.435
731.889	185.047
735.769	307.758
739.647	594.79
743.523	1030.17
747.397	2105.99
751.269	2799
755.139	1969.96
759.008	1085.17
762.875	515.569
766.739	389.432
770.602	265.455
774.463	219.403
778.323	185.065
782.18	154.788
786.035	134.923
789.889	170.363
793.741	280.841
797.591	257.267
801.439	312.45
805.285	414.709
809.129	760.714
812.971	1434.72
816.812	1548.54
820.651	802.263
824.488	403.893
828.323	175.314
832.156	135.645
835.987	127.147
839.817	124.256
843.644	105.5
847.47	19.794
851.294	20.937
855.116	33.976
858.936	49.475
862.755	83.382
866.571	53.687
870.386	71.882
874.199	74.955
878.01	27.851
881.82	39.617
885.627	1.967
889.433	57.43
893.236	3.681
897.038	1.802
900.838	53.189
904.637	59.667
908.433	64.474
912.228	90.218
916.021	9.917
919.812	14.582
923.601	26.876
927.388	120.521
931.174	86.839
934.958	27.075
938.739	102.232
942.52	71.321
946.298	30.344
950.074	97.306
953.849	26.223
957.622	165.08
961.393	81.875
965.162	76.613
968.93	66.31
972.696	131.958
976.459	175.932
980.222	214.092
983.982	226.585
987.74	438.923
991.497	717.164
995.252	1108.42
999.005	1052.1
1002.76	739.864
1006.51	626.5
1010.25	397.472
1014	264.177
1017.74	296.982
1021.49	184.102
1025.23	341.947
1028.96	379.344
1032.7	334.789
1036.44	255.809
1040.17	342.443
1043.9	266.083
1047.63	376.87
1051.36	531.817
1055.09	636.808
1058.81	422.065
1062.54	282.841
1066.26	197.436
1069.97	125.617
1073.69	162.187
1077.41	147.813
1081.12	497.628
1084.84	526.409
1088.55	199.717
1092.25	252.356
1095.96	455.023
1099.67	579.329
1103.37	565.96
1107.07	562.888
1110.77	564.281
1114.47	668.989
1118.16	1008.47
1121.86	1764.28
1125.55	2157.61
1129.24	1908.29
1132.93	1588.22
1136.62	1479.85
1140.31	1521.74
1143.99	1324.84
1147.67	827.492
1151.35	533.931
1155.03	394.751
1158.71	307.498
1162.39	176.936
1166.06	142.749
1169.73	36.931
1173.4	60.14
1177.07	29.502
1180.74	46.645
1184.4	63.714
1188.07	170.657
1191.73	73.958
1195.39	60.037
1199.05	73.125
1202.7	7.225
1206.36	62.664
1210.01	59.339
1213.66	111.579
1217.31	95.051
1220.96	66.44
1224.6	105.624
1228.25	12.244
1231.89	67.007
1235.53	69.54
1239.17	62.231
1242.81	101.758
1246.44	97.386
1250.08	28.07
1253.71	103.263
1257.34	27.53
1260.97	25.414
1264.6	48.335
1268.22	104.604
1271.85	134.191
1275.47	31.591
1279.09	131.966
1282.71	69.892
1286.33	48.691
1289.94	50.305
1293.56	35.066
1297.17	12.461
1300.78	27.688
1304.39	47.732
1307.99	139.629
1311.6	100.612
1315.2	67.937
1318.8	28.182
1322.4	8.005
1326	6.705
1329.6	26.704
1333.19	64.605
1336.79	122.573
1340.38	101.526
1343.97	78.109
1347.56	84.874
1351.14	142.514
1354.73	91.68
1358.31	52.658
1361.89	36.793
1365.47	79.587
1369.05	16.583
1372.63	110.428
1376.2	65.338
1379.78	194.235
1383.35	190.067
1386.92	150.017
1390.49	178.859
1394.05	132.713
1397.62	83.041
1401.18	112.898
1404.74	6.508
1408.3	74.372
1411.86	149.456
1415.42	128.684
1418.97	182.686
1422.53	204.063
1426.08	69.315
1429.63	118.93
1433.18	25.56
1436.72	80.674
1440.27	87.808
1443.81	122.532
1447.36	132.767
1450.89	232.332
1454.43	100.704
1457.97	139.927
1461.51	193.895
1465.04	104.933
1468.57	203.371
1472.1	189.698
1475.63	170.64
1479.16	35.984
1482.68	11.657
1486.21	91.781
1489.73	164.854
1493.25	194.1
1496.77	206.161
1500.29	150.805
1503.8	158.928
1507.32	196.262
1510.83	136.807
1514.34	0.697
