Measurement: Raman, 514 nm, depolarized, Raman Data Processed
Mineral: Microcline
Rruff sample: R050054
Ideal chemistry: KAlSi_3_O_8_
Locality: Kenticha, Negele area, Sidamo Province, Ethiopia
Source: Rock Currier
Description: Light blue single crystal
Measured chemistry: (K_0.96_Na_0.04_)Al_1.00_Si_3.00_O_8_
Pin_id: M00161
Orientation: Laser parallel to a* (1 0 0). Fiducial mark perpendicular to laser is parallel to -b [0 -1 0]
Raman shift (cm-1)	intensity
98.519	0
102.712	62.2
106.902	1499.17
111.09	5490.63
115.277	1875.98
119.461	269.281
123.643	865.552
127.823	1587.32
132.001	680.28
136.176	8.173
140.35	10.766
144.521	359.695
148.691	1525.51
152.858	1575.26
157.024	953.151
161.187	621.428
165.348	390.987
169.507	414.32
173.664	639.214
177.819	1384.9
181.971	1379.05
186.122	610.451
190.271	306.638
194.417	322.972
198.562	726.967
202.704	547.132
206.844	262.088
210.983	97.385
215.119	61.908
219.253	56.524
223.385	44.881
227.515	63.467
231.643	66.756
235.769	80.837
239.893	1.333
244.014	17.761
248.134	150.467
252.252	495.221
256.367	1384.08
260.481	1887.68
264.592	2539.03
268.702	2616.3
272.809	1464.67
276.915	1052.35
281.018	1531.44
285.119	2750.38
289.218	2473.03
293.316	1440.95
297.411	848.977
301.504	564.942
305.595	388.87
309.684	235.734
313.771	212.68
317.856	188.176
321.939	193.733
326.02	315.419
330.099	521.012
334.176	578.41
338.251	340.639
342.323	219.134
346.394	206.226
350.463	311.34
354.53	450.543
358.594	507.238
362.657	372.95
366.718	453.221
370.777	1011.66
374.833	970.414
378.888	467.792
382.941	257.147
386.992	209.996
391.04	172.115
395.087	210.539
399.132	363.888
403.174	1010.55
407.215	733.358
411.254	650.413
415.29	621.212
419.325	218.458
423.358	88.571
427.389	73.456
431.417	96.751
435.444	186.713
439.469	275.356
443.492	470.678
447.512	945.585
451.531	2735.37
455.548	4333.06
459.563	2469.48
463.576	1494.48
467.587	1824.03
471.596	3602.36
475.603	7260.27
479.608	5993.32
483.611	3719.54
487.612	2297.61
491.611	1241.96
495.608	1020.35
499.603	1193.26
503.596	2286.13
507.587	5054.69
511.577	11267.8
515.564	13567.3
519.549	6681.88
523.533	3113.82
527.514	1631.31
531.493	975.622
535.471	648.952
539.447	531.696
543.42	432.429
547.392	260.849
551.362	184.603
555.329	159.29
559.295	185.902
563.259	101.073
567.221	99.775
571.181	108.479
575.139	121.159
579.095	177.364
583.049	271.041
587.002	200.956
590.952	92.062
594.9	51.82
598.847	48.699
602.792	1.067
606.734	1.102
610.675	14.219
614.614	15.288
618.55	34.315
622.485	47.318
626.418	87.344
630.349	111.417
634.279	204.56
638.206	205.782
642.131	305.097
646.055	450.49
649.976	659.934
653.896	750.395
657.814	923.886
661.729	319.44
665.643	142.062
669.555	93.752
673.465	31.492
677.373	12.256
681.28	5.981
685.184	23.367
689.087	46.119
692.987	41.409
696.886	24.629
700.783	23.336
704.677	6.016
708.57	74.551
712.462	69.017
716.351	104.463
720.238	11.116
724.124	48.279
728.007	44.675
731.889	174.56
735.769	228.477
739.647	497.775
743.523	864.033
747.397	1786.23
751.269	2135.95
755.139	1264.47
759.008	655.482
762.875	493.842
766.739	491.49
770.602	290.672
774.463	236.558
778.323	151.916
782.18	139.486
786.035	126.012
789.889	153.492
793.741	152.288
797.591	184.312
801.439	253.649
805.285	366.936
809.129	678.172
812.971	1431.36
816.812	1442.49
820.651	654.568
824.488	317.592
828.323	181.497
832.156	140.586
835.987	120.009
839.817	5.682
843.644	103.374
847.47	10.836
851.294	32.196
855.116	24.324
858.936	61.681
862.755	47.536
866.571	46.736
870.386	40.162
874.199	11.519
878.01	66.266
881.82	53.872
885.627	7.53
889.433	18.901
893.236	5.539
897.038	12.92
900.838	29.26
904.637	6.574
908.433	40.856
912.228	10.853
916.021	9.374
919.812	45.579
923.601	80.762
927.388	102.926
931.174	47.049
934.958	60.138
938.739	55.203
942.52	87.246
946.298	79.267
950.074	161.273
953.849	83.274
957.622	140.259
961.393	73.223
965.162	114.167
968.93	107.093
972.696	127.002
976.459	171.894
980.222	191.789
983.982	198.682
987.74	359.587
991.497	531.947
995.252	742.045
999.005	673.44
1002.76	527.548
1006.51	399.623
1010.25	280.908
1014	214.843
1017.74	253.336
1021.49	227.987
1025.23	213.701
1028.96	251.294
1032.7	285.816
1036.44	258.052
1040.17	326.244
1043.9	265.849
1047.63	368.195
1051.36	362.775
1055.09	340.914
1058.81	277.507
1062.54	172.965
1066.26	138.036
1069.97	166.809
1073.69	147.403
1077.41	168.147
1081.12	103.035
1084.84	104.922
1088.55	201.986
1092.25	337.055
1095.96	475.154
1099.67	678.155
1103.37	570.792
1107.07	495.654
1110.77	522.559
1114.47	675.428
1118.16	1089.39
1121.86	1854.27
1125.55	2335.56
1129.24	1608.72
1132.93	1233.14
1136.62	1259.3
1140.31	1276.52
1143.99	1030.73
1147.67	625.178
1151.35	388.229
1155.03	321.791
1158.71	181.92
1162.39	97.834
1166.06	86.154
1169.73	86.235
1173.4	53.716
1177.07	80.805
1180.74	84.479
1184.4	99.039
1188.07	96.102
1191.73	69.4
1195.39	85.698
1199.05	20.591
1202.7	3.694
1206.36	37.704
1210.01	103.475
1213.66	73.467
1217.31	43.226
1220.96	89.86
1224.6	9.842
1228.25	21.717
1231.89	4.321
1235.53	35.877
1239.17	69.305
1242.81	136.872
1246.44	7.762
1250.08	49.661
1253.71	50.09
1257.34	71.589
1260.97	46.849
1264.6	103.397
1268.22	95.278
1271.85	83.052
1275.47	44.917
1279.09	41.533
1282.71	36.962
1286.33	46.168
1289.94	35.928
1293.56	25.105
1297.17	12.106
1300.78	11.479
1304.39	8.929
1307.99	74.729
1311.6	8.193
1315.2	62.533
1318.8	5.233
1322.4	8.192
1326	27.314
1329.6	45.9
1333.19	31.707
1336.79	72.279
1340.38	7.643
1343.97	58.006
1347.56	32.045
1351.14	5.74
1354.73	29.219
1358.31	36.903
1361.89	68.829
1365.47	79.695
1369.05	56.282
1372.63	92.89
1376.2	128.74
1379.78	139.29
1383.35	99.108
1386.92	1.147
1390.49	88.445
1394.05	108.377
1397.62	30.74
1401.18	56.348
1404.74	22.372
1408.3	111.26
1411.86	162.036
1415.42	63.925
1418.97	109.2
1422.53	82.016
1426.08	1.507
1429.63	56.753
1433.18	47.113
1436.72	88.115
1440.27	96.448
1443.81	144.366
1447.36	136.801
1450.89	136.99
1454.43	99.149
1457.97	101.111
1461.51	93.711
1465.04	62.127
1468.57	66.601
1472.1	45.577
1475.63	77.401
1479.16	54.257
1482.68	91.862
1486.21	137.948
1489.73	141.221
1493.25	193.241
1496.77	149.025
1500.29	70.134
1503.8	91.744
1507.32	64.497
1510.83	0.695
