Measurement: Raman, 514 nm, depolarized, Raman Data Processed
Mineral: Microcline
Rruff sample: R050150
Ideal chemistry: KAlSi_3_O_8_
Locality: Crystal Peak area, Park/Teller Counties, Colorado, USA
Source: Dave Bunk Minerals
Description: Pale blue prismatic crystals
Measured chemistry: (K_0.95_Na_0.05_)_Î£=1_Al_1.00_Si_3.00_O_8_
Pin_id: L00945
Orientation: Laser parallel to a* (1 0 0). Fiducial mark perpendicular to laser is parallel to b [0 1 0]
Raman shift (cm-1)	intensity
137.683	0
142.633	371.416
147.579	1686.84
152.522	3143.96
157.462	1014.58
162.4	89.6328
167.334	458.805
172.265	1447.83
177.193	3282.98
182.117	4191.61
187.039	1879.22
191.958	1366.66
196.874	1662.92
201.787	1960.24
206.696	672.768
211.603	52.2881
216.506	96.3203
221.407	206.38
226.304	53.7754
231.199	46.5303
236.091	96.2227
240.979	216.685
245.864	726.963
250.747	1993.11
255.626	4504.59
260.503	7342.54
265.376	8034.75
270.247	7272.71
275.114	4891.89
279.979	5328.31
284.84	7289.83
289.699	6325.18
294.554	3008.96
299.407	1639.11
304.257	857.976
309.103	337.853
313.947	49.4795
318.788	92.957
323.626	228.013
328.461	251.027
333.292	550.42
338.121	296.682
342.947	256.794
347.771	321.826
352.591	460.805
357.408	788.017
362.222	599.344
367.034	540.075
371.842	974.464
376.648	710.883
381.45	157.972
386.25	34.5195
391.047	88.1318
395.841	891.364
400.632	2071.71
405.42	3594.32
410.205	2136.16
414.988	1563.36
419.767	258.829
424.544	39.6855
429.318	101.641
434.089	266.312
438.857	868.644
443.622	2726.66
448.384	6607.4
453.143	10450.4
457.9	10409.2
462.654	6750.96
467.405	10319.4
472.153	17408.5
476.898	25082.6
481.64	15771.9
486.38	8276.97
491.116	4358.48
495.85	3533.41
500.581	6357.66
505.309	16835.6
510.035	31696.5
514.757	43809.3
519.477	24971
524.194	9169.06
528.908	4442.18
533.62	2542.82
538.328	1418.87
543.034	1030.86
547.737	696.894
552.437	514.467
557.134	419.459
561.829	338.136
566.521	306.147
571.21	383.345
575.896	388.121
580.58	427.758
585.261	492.85
589.939	177.14
594.614	46.3916
599.286	97.6904
603.956	36.3008
608.623	35.333
613.287	104.314
617.949	233.36
622.608	270.627
627.264	531.247
631.917	724.381
636.568	1046.76
641.215	1285.35
645.861	1714.17
650.503	2110.17
655.143	2110.13
659.78	1691.49
664.414	988.75
669.046	547.132
673.674	117.648
678.301	159.197
682.924	44.6982
687.545	119.001
692.163	17.2148
696.778	6.75
701.391	11.9971
706.001	315.928
710.609	455.41
715.213	383.607
719.815	256.894
724.415	359.766
729.011	369.188
733.606	1075.52
738.197	1741.96
742.786	3614.73
747.372	5764.46
751.955	5858.97
756.536	3221.17
761.114	1732.29
765.69	1048.2
770.262	827.331
774.833	556.789
779.4	317.296
783.965	377.501
788.528	372.905
793.087	619.618
797.645	660.106
802.199	1012.37
806.751	2344.39
811.3	3864.19
815.847	3508.74
820.391	1367.34
824.933	577.018
829.471	348.174
834.008	275.234
838.541	198.84
843.073	279.711
847.601	55.5605
852.127	111.182
856.65	172.594
861.171	17.8047
865.69	55.748
870.205	73.4492
874.718	76.9981
879.229	29.2285
883.737	17.1992
888.242	57.3887
892.745	87.4746
897.246	30.8652
901.743	16.9258
906.239	41.5996
910.731	181.414
915.221	103.127
919.709	44.5645
924.194	59.7559
928.677	202.785
933.157	205.707
937.634	118.529
942.109	254.277
946.582	271.967
951.052	149.609
955.519	256.24
959.984	177.039
964.447	224.106
968.906	328.242
973.364	230.978
977.819	488.289
982.271	375.981
986.721	918.15
991.169	1937.19
995.614	2156.78
1000.06	1580.33
1004.5	1205.79
1008.93	783.232
1013.37	530.551
1017.8	543.879
1022.23	597.096
1026.66	905.797
1031.09	834.557
1035.51	770.771
1039.93	641.492
1044.35	895.814
1048.76	1164.69
1053.17	1323.82
1057.58	838.713
1061.99	390.244
1066.4	358.949
1070.8	295.996
1075.2	306.065
1079.6	141.637
1084	476.785
1088.39	585.617
1092.78	1061.84
1097.17	1233.94
1101.56	1401.45
1105.94	1467.98
1110.32	1814.68
1114.7	3322.91
1119.08	5880.33
1123.45	8001.62
1127.82	6612.13
1132.19	4699.85
1136.56	4424.97
1140.92	4020.17
1145.29	2646.65
1149.65	1396.42
1154	832.635
1158.36	683.811
1162.71	244.889
1167.06	404.881
1171.41	199.781
1175.76	336.272
1180.1	118.037
1184.44	127.379
1188.78	194.693
1193.11	177.133
1197.45	77.6856
1201.78	67.334
1206.11	110.055
1210.43	301.787
1214.76	132.633
1219.08	58.4336
1223.4	252.934
1227.72	9.26367
1232.03	295.598
1236.35	243.525
1240.66	150.518
1244.96	155.525
1249.27	22.457
1253.57	5.30078
1257.88	30.0488
1262.17	12.0195
1266.47	93.9023
1270.76	124.848
1275.06	21.8203
1279.35	123.816
1283.63	32.8281
1287.92	204.853
1292.2	149.775
1296.48	93.7891
1300.76	250.315
1305.04	1.76758
1309.31	12.9648
1313.58	262.678
1317.85	275.352
1322.12	86
1326.38	269.617
1330.64	77.0312
1334.9	93.4883
1339.16	53.7363
1343.41	268.082
1347.67	191.119
1351.92	425.24
1356.17	269.029
1360.41	223.043
1364.66	89.0098
1368.9	264.926
1373.14	197.498
1377.38	324.059
1381.61	35.0859
1385.84	213.713
1390.08	311.641
1394.3	165.1
1398.53	247.625
1402.75	240.309
1406.97	352.018
1411.19	270.994
1415.41	169.107
1419.63	248.34
1423.84	153.916
1428.05	165.473
1432.26	273.941
1436.46	250.801
1440.67	196.238
1444.87	70.9512
1449.07	324.57
1453.27	121.16
1457.46	274.664
1461.66	52.5703
1465.85	164.912
1470.04	146.217
1474.22	183.799
1478.41	354.1
1482.59	308.359
1486.77	103.506
1490.95	192.492
1495.12	172.287
1499.3	214.928
1503.47	100.916
1507.63	59.043
1511.8	181.385
1515.97	228.295
1520.13	136.084
1524.29	109.568
1528.45	95.6699
1532.61	36.4727
1536.76	105.908
1540.91	109.703
1545.06	123.873
1549.21	60.8398
1553.35	138.252
1557.5	201.107
1561.64	0.761719
