Measurement: Raman, 514 nm, depolarized, Raman Data Processed
Mineral: Microcline
Rruff sample: R050193
Ideal chemistry: KAlSi_3_O_8_
Locality: Devil's Head, Douglas County, Colorado, USA
Source: Dave Bunk Minerals
Description: White to colorless heterogeneous mixture of K and Na feldspar in a cluster of crystals. Crystal structure determined, presented below. This sample is known as an intermediate microcline in the literature.
Measured chemistry: (K_0.929_Na_0.071_)(Al_1.005_Si_2.994_Fe_0.001_)O_7.993_F_0.007_  ; Light Band :  (Na_0.973_K_0.007_Ca_0.020_)(Al_1.020_Si_2.980_)O_8_ ; Dark Band
Pin_id: L00937
Orientation: Laser parallel to (1 1 0). Fiducial mark perpendicular to laser is parallel to c [0 0 1]
Raman shift (cm-1)	intensity
138.888	0
143.815	1321.08
148.739	5736.85
153.661	10913.2
158.58	6931.05
163.496	4217.66
168.409	2301.28
173.32	3076.8
178.228	4664.89
183.133	4478.66
188.035	3469.24
192.935	2537.27
197.832	2976.4
202.727	3029.54
207.618	2052.66
212.507	1536.16
217.393	84.9609
222.277	560.969
227.157	157.625
232.035	342.914
236.911	38.6875
241.783	825.992
246.653	1511.99
251.52	3900.57
256.385	6569.73
261.246	9492.19
266.105	13353.2
270.962	13755.3
275.815	14149.3
280.666	18295.8
285.514	18202.8
290.36	14144.5
295.203	8416.85
300.043	3410.59
304.88	1684.23
309.715	696.5
314.547	166.562
319.376	286.992
324.203	1193.87
329.027	1508.25
333.848	1288.77
338.667	445.266
343.482	445.5
348.296	134.836
353.106	60.7109
357.914	335.133
362.719	1146.94
367.521	1314.36
372.321	1740.86
377.118	386.133
381.912	40.5234
386.704	256.016
391.493	15.9297
396.279	962.383
401.063	2415.69
405.844	4733.77
410.622	5265.81
415.398	2575.91
420.171	1095.19
424.941	237.125
429.709	48.1797
434.473	678.516
439.236	1603.11
443.995	4252.56
448.752	9408.85
453.506	16116.2
458.258	16094.7
463.007	14274.9
467.753	19672.5
472.497	37947.4
477.238	52833.1
481.976	34724.3
486.712	18812.8
491.445	12706.1
496.175	11968.2
500.902	21218
505.627	44025.8
510.35	79257.8
515.069	91692.1
519.786	46931
524.501	19092.6
529.213	9614.81
533.922	6583.22
538.628	3351.03
543.332	2705.02
548.033	2173.99
552.731	1332.15
557.427	888.336
562.121	1392.67
566.811	838.148
571.499	1194.68
576.184	1423.81
580.867	1513.35
585.547	1370.48
590.224	980.219
594.899	674.523
599.571	658.523
604.241	804.609
608.908	880.5
613.572	642.094
618.233	857.281
622.892	1069.16
627.549	1516.6
632.202	1394.59
636.853	1770.92
641.502	1477.54
646.148	1761.52
650.791	1666.73
655.432	1787.31
660.069	1326.18
664.705	872.5
669.338	279.898
673.968	311.703
678.595	58.0859
683.22	410.148
687.842	296.711
692.462	522.305
697.079	79.6875
701.694	12.1484
706.305	163.281
710.915	648.328
715.521	1206.18
720.125	1432
724.727	1646.66
729.325	1552.65
733.922	2754.83
738.515	3705.97
743.106	5801.77
747.695	7379.51
752.28	7143.64
756.864	6787
761.444	6954.33
766.022	6151.48
770.598	3442.24
775.17	2977.22
779.741	1925.09
784.308	1807.77
788.873	2337.73
793.436	2410.08
797.996	2239.67
802.553	3134.72
807.108	3606.05
811.66	5465.03
816.209	5771.41
820.756	3164.8
825.301	1632.18
829.842	983.664
834.382	734.562
838.918	733.562
843.452	616.234
847.984	770
852.513	532.031
857.039	263.133
861.563	529.102
866.084	408.984
870.603	409.766
875.119	335.562
879.632	86.0938
884.143	113.562
888.651	271.664
893.157	26.5312
897.66	57.0547
902.161	109.414
906.659	127.594
911.154	37.4453
915.647	328.281
920.138	609.922
924.626	258.547
929.111	326.336
933.594	117.469
938.074	223.367
942.551	150.891
947.026	56.4297
951.499	223.945
955.969	348.344
960.436	720.969
964.901	670.148
969.363	859.469
973.823	1215.77
978.28	1811.88
982.735	1679.23
987.187	2574.64
991.637	2938.47
996.084	3649.05
1000.53	4371.29
1004.97	4053.67
1009.41	2230.3
1013.85	2269.07
1018.28	1750.58
1022.71	1614.66
1027.14	1516.56
1031.57	1940.81
1035.99	1359.31
1040.41	1467.22
1044.83	1006.81
1049.25	1412.78
1053.66	1116.48
1058.08	1025.98
1062.48	723.766
1066.89	244.672
1071.3	1132.92
1075.7	1213.8
1080.1	1241.22
1084.49	1728.83
1088.89	2605.39
1093.28	4283.23
1097.67	6344.39
1102.05	6778.06
1106.44	5753.77
1110.82	6848.28
1115.2	8527.69
1119.57	11085
1123.95	12663.5
1128.32	10670.5
1132.69	9325.31
1137.05	7636.86
1141.42	6990.3
1145.78	5554.52
1150.14	3993.48
1154.49	2843.97
1158.85	1398.11
1163.2	1628.91
1167.55	1297.31
1171.89	874.5
1176.24	1070.66
1180.58	152.5
1184.92	552.984
1189.25	374.141
1193.59	110.844
1197.92	34.5781
1202.25	144.547
1206.57	674.328
1210.9	959.766
1215.22	219.641
1219.54	224.719
1223.85	303.625
1228.17	644.828
1232.48	403.484
1236.79	442.953
1241.09	286.578
1245.4	29.7031
1249.7	543.406
1254	225.266
1258.29	97.0781
1262.59	342.719
1266.88	430.984
1271.17	1088.81
1275.45	368.453
1279.74	759.812
1284.02	1000.38
1288.3	1431.52
1292.58	1179.36
1296.85	1235.8
1301.12	1076.86
1305.39	1006.55
1309.66	1194.39
1313.92	793.891
1318.18	424.5
1322.44	1693.62
1326.7	432.859
1330.95	882.234
1335.2	476.578
1339.45	853.609
1343.7	698.781
1347.95	851.562
1352.19	746.719
1356.43	455.875
1360.66	169.047
1364.9	38.1719
1369.13	439.172
1373.36	451.797
1377.59	46.9062
1381.81	984.688
1386.04	386.375
1390.26	748.766
1394.47	375.688
1398.69	889.938
1402.9	447.859
1407.11	569.609
1411.32	464.203
1415.53	988.594
1419.73	1092.59
1423.93	1078.97
1428.13	853
1432.32	1125.09
1436.52	1122.25
1440.71	1648.31
1444.89	1507.94
1449.08	1014.22
1453.26	889.828
1457.44	435.016
1461.62	1199.2
1465.8	774.625
1469.97	490.422
1474.14	447.578
1478.31	776.547
1482.48	470.984
1486.64	506.469
1490.81	276.641
1494.96	341.234
1499.12	508.953
1503.28	488.703
1507.43	694.297
1511.58	832.766
1515.72	266.062
1519.87	448.391
1524.01	36.9844
1528.15	235.359
1532.29	325.672
1536.42	1748.59
1540.55	605.047
1544.68	1094.8
1548.81	578.625
1552.94	804.078
1557.06	498.406
1561.18	363.078
1565.3	1230.14
1569.41	71.5469
1573.53	1119.34
1577.64	159.25
