Measurement: Raman, 514 nm, depolarized, Raman Data Processed
Mineral: Microcline
Rruff sample: R040154
Ideal chemistry: KAlSi_3_O_8_
Locality: Mitchell County, North Carolina, USA
Source: University of Arizona Mineral Museum
Description: White cleavage fragment with some perthitic character
Measured chemistry: (K_0.90_Na_0.09_Ba_0.01_)Al_1.00_(Si_2.99_Al_0.01_)_Î£=3_O_8_
Pin_id: L00158
Orientation: Laser parallel to b* (0 1 0). Fiducial mark perpendicular to laser is parallel to c [0 0 1]
Raman shift (cm-1)	intensity
112.864	0
117.034	308.101
121.203	1892.74
125.369	3942.5
129.534	3895.67
133.696	3399.58
137.857	6203.34
142.016	10000.1
146.172	15036.3
150.327	19240.6
154.48	20767.9
158.63	18597.5
162.779	11725.5
166.926	6120.3
171.07	4195.39
175.213	4627.04
179.354	4440.84
183.493	3084.93
187.63	2075.99
191.765	2354.47
195.898	3875.8
200.029	3799.81
204.158	1912.8
208.285	662.712
212.41	140.07
216.533	235.082
220.654	334.805
224.773	263.74
228.891	316.727
233.006	218.833
237.119	244.761
241.231	256.045
245.34	862.586
249.448	2882.82
253.553	6755.19
257.657	9032.34
261.758	8445.65
265.858	7997.38
269.956	6182.71
274.052	5860.44
278.146	10458.7
282.237	18587.5
286.327	18929
290.416	11245.1
294.502	5986.55
298.586	3803.78
302.668	2094.26
306.749	1070.32
310.827	583.901
314.903	463.149
318.978	598.532
323.051	1134.41
327.121	3468.98
331.19	3696.14
335.257	2094.85
339.322	767.295
343.385	413.814
347.446	373.423
351.505	979.093
355.563	1275.84
359.618	1112.61
363.672	1189.43
367.723	2361.32
371.773	3233.27
375.821	1960.84
379.866	786.848
383.91	291.648
387.952	22.89
391.992	181.354
396.031	1323.89
400.067	2675.99
404.101	3085.53
408.134	1515.92
412.165	971.863
416.193	320.601
420.22	166.728
424.245	151.344
428.268	224.348
432.289	37.09
436.309	153.628
440.326	510.822
444.342	1450.52
448.355	3667.17
452.367	6960.83
456.377	6147.22
460.385	4761.65
464.391	6040.63
468.395	12711.2
472.398	24748.3
476.398	25564.9
480.397	16428.8
484.394	10591.9
488.389	5798.58
492.382	3725.01
496.373	4013.23
500.362	6573.33
504.349	14664.9
508.335	33070.9
512.319	48863.4
516.3	34772.4
520.28	15889.9
524.259	7277.67
528.235	4196.05
532.209	2586.17
536.182	1785.15
540.152	1262.65
544.121	904.143
548.088	799.71
552.053	593.493
556.017	506.66
559.978	347.835
563.938	249.604
567.895	381.255
571.851	357.466
575.805	493.916
579.758	1153.05
583.708	649.399
587.657	219.222
591.603	87.138
595.548	91.776
599.491	15.273
603.432	36.485
607.372	6.947
611.309	148.443
615.245	157.653
619.179	356.756
623.111	609.76
627.041	1292.67
630.97	1286.59
634.896	958.977
638.821	1194.85
642.744	1701.57
646.665	2474.07
650.584	2866.49
654.502	2610.82
658.418	1715.07
662.331	822.237
666.244	472.349
670.154	149.389
674.062	186.332
677.969	53.156
681.874	22.866
685.777	104.513
689.678	145.949
693.577	122.087
697.475	103.412
701.371	65.294
705.265	310.812
709.157	451.342
713.047	287.74
716.936	245.768
720.823	230.368
724.708	199.909
728.591	330.983
732.472	383.257
736.352	662.952
740.23	1141.5
744.106	2596.35
747.98	3917.6
751.853	3139.53
755.723	1703.4
759.592	1248.08
763.459	1103.92
767.325	1073.47
771.188	702.896
775.05	524.303
778.91	321.497
782.768	276.483
786.625	107.257
790.479	235.806
794.332	216.14
798.183	265.26
802.033	418.274
805.88	966.977
809.726	1646.47
813.57	2298.76
817.413	1259.84
821.253	619.718
825.092	291.36
828.929	287.638
832.764	131.553
836.598	326.294
840.429	240.022
844.259	159.244
848.088	51.301
851.914	17.882
855.739	110.528
859.562	84.526
863.383	52.389
867.203	31.816
871.02	34.33
874.836	6.276
878.65	69.541
882.463	61.404
886.274	40.759
890.083	93.888
893.89	16.161
897.695	45.393
901.499	21.938
905.301	47.239
909.102	47.495
912.9	75.689
916.697	64.805
920.492	244.87
924.285	255.866
928.077	229.786
931.867	132.635
935.655	101.421
939.442	198.506
943.226	97.017
947.009	171.316
950.791	177.74
954.57	320.169
958.348	168.541
962.124	317.895
965.899	380.276
969.671	376.644
973.442	399.007
977.211	471.39
980.979	386.784
984.745	850.812
988.509	1241.4
992.271	1769.02
996.032	2173.08
999.791	2294.09
1003.55	2142.54
1007.3	1762.91
1011.06	1157.82
1014.81	966.807
1018.56	713.365
1022.31	893.58
1026.06	1256.94
1029.8	1565.12
1033.55	1486.32
1037.29	1656.22
1041.03	1734.92
1044.77	1573.11
1048.5	1876.93
1052.24	1924.5
1055.97	1531.04
1059.7	1041.6
1063.43	607.816
1067.16	377.531
1070.89	382.158
1074.61	438.549
1078.34	399.09
1082.06	389.457
1085.78	493.52
1089.5	627.324
1093.21	875.184
1096.93	1193.43
1100.64	1171.64
1104.35	1474.62
1108.06	1667.86
1111.77	2285.03
1115.48	3454.45
1119.18	5906.34
1122.89	9681.18
1126.59	9039.57
1130.29	6838.45
1133.99	5601.27
1137.68	6527.66
1141.38	5423.32
1145.07	3648.23
1148.76	2145.12
1152.45	1407.86
1156.14	794.926
1159.83	698.016
1163.51	597.174
1167.19	357.871
1170.88	133.518
1174.56	287.43
1178.23	248.5
1181.91	190.191
1185.59	135.75
1189.26	246.85
1192.93	64.189
1196.6	60.547
1200.27	66.074
1203.94	168.027
1207.6	290.355
1211.27	281.906
1214.93	197.18
1218.59	109.459
1222.25	92.336
1225.9	99.41
1229.56	265.395
1233.21	92.75
1236.86	260.111
1240.51	231.387
1244.16	171.176
1247.81	112.123
1251.45	245.76
1255.1	90.5
1258.74	190.752
1262.38	272.754
1266.02	114.133
1269.66	36.826
1273.29	52.547
1276.93	46.018
1280.56	88.109
1284.19	146.004
1287.82	40.76
1291.45	21.795
1295.07	105.307
1298.7	127.385
1302.32	50.012
1305.94	61.158
1309.56	144.775
1313.18	85.086
1316.8	18.512
1320.41	54.479
1324.02	59.566
1327.63	81.494
1331.24	192.734
1334.85	5.395
1338.46	112.406
1342.06	7.465
1345.67	65.113
1349.27	82.311
1352.87	308.037
1356.47	282.445
1360.07	192.979
1363.66	326.977
1367.25	488.986
1370.85	383.527
1374.44	255.012
1378.03	177.887
1381.61	206.344
1385.2	299.986
1388.78	246.832
1392.37	184.779
1395.95	400.428
1399.53	338.002
1403.1	500.248
1406.68	271.52
1410.26	169.148
1413.83	371.713
1417.4	285.713
1420.97	327.305
1424.54	360.719
1428.1	346.191
1431.67	359.102
1435.23	431.119
1438.8	274.344
1442.36	392.68
1445.91	378.631
1449.47	419.658
1453.03	415.834
1456.58	549.418
1460.13	633.461
1463.68	522.064
1467.23	275.043
1470.78	577.135
1474.33	549.553
1477.87	423.055
1481.42	151.404
1484.96	244.502
1488.5	238.951
1492.04	408.988
1495.57	329.1
1499.11	99.59
1502.64	204.285
1506.17	33.568
1509.71	57.428
1513.23	228.564
1516.76	4.545
1520.29	249.727
