Measurement: Raman, 514 nm, ccw, Raman Data Processed
Mineral: Microcline
Rruff sample: R050193
Ideal chemistry: KAlSi_3_O_8_
Locality: Devil's Head, Douglas County, Colorado, USA
Source: Dave Bunk Minerals
Description: White to colorless heterogeneous mixture of K and Na feldspar in a cluster of crystals. Crystal structure determined, presented below. This sample is known as an intermediate microcline in the literature.
Measured chemistry: (K_0.929_Na_0.071_)(Al_1.005_Si_2.994_Fe_0.001_)O_7.993_F_0.007_  ; Light Band :  (Na_0.973_K_0.007_Ca_0.020_)(Al_1.020_Si_2.980_)O_8_ ; Dark Band
Pin_id: L00937
Orientation: Laser parallel to (1 1 0). Fiducial mark perpendicular to laser is parallel to c [0 0 1]
Raman shift (cm-1)	intensity
136.423	0
141.352	542.031
146.277	2301.89
151.2	4999.57
156.121	6737.99
161.038	6668.78
165.953	4092.29
170.865	2121.48
175.774	1831.06
180.681	2892.12
185.585	3329.59
190.486	2803.48
195.384	2711.1
200.28	3740.87
205.173	3379.73
210.063	2521.56
214.95	880.555
219.835	47.5469
224.717	154.633
229.597	385.938
234.473	357.352
239.347	52.4766
244.218	858.891
249.087	2152.72
253.953	3554.34
258.816	5401.39
263.676	8125.26
268.534	10671.8
273.389	11033.8
278.241	13808.3
283.091	17204.8
287.938	15100.9
292.782	10976.9
297.623	5362.74
302.462	1694.29
307.298	1093.13
312.131	540.398
316.962	716.852
321.79	944.484
326.615	1441.95
331.438	1585.32
336.258	838.711
341.075	365.695
345.889	440.477
350.701	164.555
355.51	201.094
360.317	106.125
365.12	1070.01
369.921	1142.17
374.72	527.141
379.515	197.781
384.309	365.562
389.099	58.5078
393.886	441.297
398.671	1299
403.454	2207.86
408.233	3243
413.01	1999.88
417.785	1787.45
422.556	476.133
427.325	260.531
432.091	117.055
436.855	1335.71
441.616	2914.59
446.374	6365.7
451.13	12592.1
455.883	16265.3
460.633	14028.6
465.38	15676.9
470.125	25274
474.868	46292.6
479.607	45602
484.344	25474.2
489.078	13532.3
493.81	10984.9
498.539	14821.5
503.265	29782.6
507.989	59068.5
512.71	83687.6
517.428	59549.2
522.144	24483.2
526.857	11887.7
531.567	6297.57
536.275	4221.27
540.98	2990.26
545.683	2181.14
550.383	1379.95
555.08	1473.16
559.774	754.078
564.466	912.602
569.155	933.703
573.842	1381.55
578.526	1197.81
583.207	1963.59
587.886	1188.58
592.562	867.328
597.235	821.773
601.906	785.875
606.574	429.539
611.24	916.281
615.903	273.594
620.563	817.82
625.221	391.938
629.876	1509.88
634.528	1519.44
639.178	1202.25
643.825	1378.75
648.47	1451.73
653.112	1497.02
657.751	875.555
662.388	770.258
667.022	556.742
671.653	104.875
676.282	69.9219
680.908	157.383
685.532	123.836
690.153	146.094
694.771	614.594
699.387	124.5
704	180.156
708.61	388.102
713.218	684.117
717.824	738.328
722.426	1472.55
727.026	1430.98
731.624	1607.63
736.219	2461.84
740.811	3327.84
745.401	4594.98
749.988	5032.24
754.572	5383.96
759.154	5505.89
763.734	4611.96
768.31	3482.08
772.884	3070.23
777.456	2573.58
782.025	1748.26
786.591	1677.38
791.155	1946.89
795.716	1732.58
800.275	1790.27
804.831	2401.94
809.384	3914.66
813.935	5120
818.483	3637.14
823.029	1937.19
827.572	1272.94
832.112	672.859
836.65	704.758
841.186	533.273
845.718	551.836
850.249	589.109
854.776	508.266
859.301	711.68
863.824	119.891
868.344	587.055
872.861	342.93
877.376	516.688
881.888	199.164
886.397	115.82
890.904	138.195
895.409	28.2578
899.911	177.695
904.41	311.773
908.907	399.031
913.401	234.273
917.893	68.6172
922.382	217.023
926.869	227.57
931.353	217.883
935.834	300.031
940.313	108.625
944.789	39.9688
949.263	148.281
953.734	289.266
958.203	627.406
962.669	869.203
967.133	643.812
971.594	430
976.052	1882.66
980.508	1278.34
984.961	1548.65
989.412	1868.13
993.861	2392.2
998.306	3204.92
1002.75	4120.73
1007.19	2106.11
1011.63	1551.41
1016.06	1108.8
1020.5	1418.75
1024.93	1099.91
1029.36	1175.66
1033.78	1511.64
1038.2	981.828
1042.62	550.766
1047.04	773.266
1051.46	698.094
1055.87	1000.92
1060.28	180.781
1064.69	857.375
1069.09	193.766
1073.5	1084.16
1077.9	1066.55
1082.29	1803.38
1086.69	1902.91
1091.08	4383.31
1095.47	6645.8
1099.86	8084.27
1104.24	7097.66
1108.63	7040.58
1113.01	8155.36
1117.38	10618.8
1121.76	12036.2
1126.13	11243.3
1130.5	9380.42
1134.87	8374.3
1139.23	7865.58
1143.6	6270.59
1147.96	4225.42
1152.32	3454.75
1156.67	2466.92
1161.02	1390.06
1165.37	2171.02
1169.72	1114.97
1174.07	958.406
1178.41	134.609
1182.75	554.406
1187.08	46.375
1191.42	676.766
1195.75	510.312
1200.08	562.625
1204.41	368
1208.73	108.594
1213.06	143.828
1217.38	173.125
1221.69	709.422
1226.01	57.625
1230.32	472.719
1234.63	137.484
1238.94	828.062
1243.24	321.797
1247.55	375.859
1251.85	704.281
1256.14	400.438
1260.44	105.422
1264.73	329.781
1269.02	303.641
1273.31	637.297
1277.6	1032.45
1281.88	1148.28
1286.16	961.797
1290.44	1590.05
1294.71	582.172
1298.98	1361.03
1303.26	1111.62
1307.52	1345.81
1311.79	975.875
1316.05	606.203
1320.31	1201.67
1324.57	732.672
1328.83	1090.56
1333.08	1029.81
1337.33	1470.62
1341.58	633.625
1345.82	1754.73
1350.07	427.438
1354.31	740.344
1358.55	365.547
1362.78	401.844
1367.02	806.297
1371.25	218.203
1375.48	1135.66
1379.7	495.625
1383.92	657.656
1388.15	555.672
1392.37	438.047
1396.58	61.9375
1400.8	437.469
1405.01	716.984
1409.22	732.188
1413.42	822.766
1417.63	414.578
1421.83	734.062
1426.03	900.141
1430.22	698.906
1434.42	1395.44
1438.61	807.156
1442.8	1983.55
1446.99	1121.33
1451.17	735.281
1455.35	1067.25
1459.53	602.391
1463.71	618.766
1467.89	347.312
1472.06	551.578
1476.23	603.688
1480.4	1022.84
1484.56	887.078
1488.72	0.875
1492.88	200.594
1497.04	39.8438
1501.2	520.109
1505.35	485.594
1509.5	441.922
1513.65	291.938
1517.8	266.766
1521.94	845.125
1526.08	839.047
1530.22	597.516
1534.36	972.25
1538.49	938.609
1542.62	680.328
1546.75	251.562
1550.88	999.625
1555	925.469
1559.12	795.188
1563.24	370
1567.36	920.797
1571.47	699.344
1575.58	451.625
