Measurement: Raman, 514 nm, ccw, Raman Data Processed
Mineral: Microcline
Rruff sample: R050193
Ideal chemistry: KAlSi_3_O_8_
Locality: Devil's Head, Douglas County, Colorado, USA
Source: Dave Bunk Minerals
Description: White to colorless heterogeneous mixture of K and Na feldspar in a cluster of crystals. Crystal structure determined, presented below. This sample is known as an intermediate microcline in the literature.
Measured chemistry: (K_0.929_Na_0.071_)(Al_1.005_Si_2.994_Fe_0.001_)O_7.993_F_0.007_  ; Light Band :  (Na_0.973_K_0.007_Ca_0.020_)(Al_1.020_Si_2.980_)O_8_ ; Dark Band
Pin_id: L00937
Orientation: Laser parallel to (1 1 0). Fiducial mark perpendicular to laser is parallel to c [0 0 1]
Raman shift (cm-1)	intensity
135.191	0
140.12	989.82
145.046	5839.44
149.97	15888.5
154.891	16909
159.809	10937.9
164.724	7175.17
169.637	6023.97
174.547	8144.94
179.454	10801
184.359	9057.81
189.261	5891.74
194.16	4538.82
199.056	4588.59
203.95	3792.44
208.841	3275.2
213.729	1205.4
218.614	6.62891
223.497	288.426
228.377	349.184
233.254	227.652
238.129	231.133
243.001	1487.89
247.87	4424.23
252.737	7858.12
257.6	10071.9
262.461	13784.2
267.32	17704.9
272.175	17483
277.028	18562.3
281.879	22030.6
286.726	19793.1
291.571	15061.7
296.413	7145.57
301.252	3002.18
306.089	1392.48
310.923	570.711
315.755	408.098
320.583	666.856
325.409	1986.81
330.232	3430.15
335.053	1556.6
339.871	40.3008
344.686	44.9727
349.498	40.8008
354.308	569.738
359.115	1081.42
363.92	1366.12
368.721	1486.33
373.52	1732.73
378.317	368.371
383.111	185.996
387.902	172.914
392.69	539.547
397.475	1880.69
402.258	4048.05
407.039	6083.12
411.816	5562.34
416.591	3534.78
421.364	790.195
426.133	118.961
430.9	186.891
435.664	405.375
440.426	1918.43
445.185	4847.09
449.941	10857.4
454.695	15599.3
459.445	13477.9
464.194	10929.5
468.939	15910.1
473.682	29269.2
478.423	35935.5
483.16	23979.4
487.895	13374.2
492.627	10210.3
497.357	13620.6
502.084	29690.3
506.808	59326.5
511.53	84999.2
516.249	68116.2
520.965	29695.5
525.679	13220.5
530.39	7123.8
535.098	4028.77
539.804	2735.4
544.507	2169.74
549.208	1215.05
553.906	1086.02
558.601	679.453
563.293	599.383
567.983	785.57
572.671	1069.25
577.355	1815.16
582.037	1647.22
586.717	1225.8
591.393	920.68
596.067	472.422
600.739	631.648
605.408	627.141
610.074	291.281
614.737	505.898
619.398	763.062
624.057	1196.94
628.712	1052.44
633.365	1552.59
638.016	1331.08
642.664	1556.17
647.309	1400.64
651.951	1157.43
656.591	1064.43
661.229	1007.77
665.863	699.336
670.495	361.102
675.125	278.664
679.752	150.484
684.376	245.305
688.998	320.453
693.617	103.414
698.233	279.82
702.847	15.1562
707.458	437.375
712.066	1028
716.672	933.258
721.276	1667.16
725.877	1502.91
730.475	2002.48
735.07	3644.18
739.663	5006.64
744.254	6795.97
748.841	7823.5
753.426	7904.59
758.009	8932.21
762.589	10264.6
767.166	7233.55
771.741	4569.39
776.313	3184.11
780.883	3324.85
785.45	3116.98
790.014	3521.72
794.576	4187.41
799.135	4710.02
803.692	5147.84
808.246	7385.7
812.797	10881.1
817.346	8117.41
821.893	3609.12
826.436	2014.49
830.977	1361.34
835.516	298.906
840.052	651.406
844.585	140.633
849.116	757.406
853.645	512.078
858.17	475.242
862.693	593.617
867.214	868.352
871.732	76.9062
876.247	102.641
880.76	51.0703
885.27	126.93
889.778	290.977
894.283	35.1016
898.786	0.984375
903.286	110.117
907.783	187.242
912.278	214.523
916.77	487.188
921.26	483.211
925.747	190.812
930.232	331.297
934.714	213.328
939.193	493.031
943.67	212.289
948.145	164.391
952.617	557.875
957.086	303.891
961.553	841.391
966.017	1329.09
970.479	1851.43
974.938	3377.85
979.394	4564.62
983.848	3207.84
988.3	4000
992.749	3994.31
997.195	4025.66
1001.64	4444.34
1006.08	3585.27
1010.52	2979.26
1014.96	2104.07
1019.39	1756.68
1023.82	1944.31
1028.25	1391.52
1032.67	1821
1037.1	1092.48
1041.52	1502.79
1045.94	1074.89
1050.35	872.664
1054.77	747.812
1059.18	1121.63
1063.59	132.781
1067.99	352.242
1072.4	514.586
1076.8	830.727
1081.19	1428.92
1085.59	1574.32
1089.98	2766.62
1094.38	4233.96
1098.76	5789.15
1103.15	4758.34
1107.53	4508.17
1111.91	4227.87
1116.29	4493.43
1120.67	5449.38
1125.04	5595.34
1129.41	4488.31
1133.78	4015.53
1138.14	3776.05
1142.51	3028.38
1146.87	2879.91
1151.23	2197.08
1155.58	1610.51
1159.93	1382.69
1164.29	811.008
1168.63	789.438
1172.98	769.703
1177.32	601.719
1181.66	524.477
1186	29.0938
1190.34	353.688
1194.67	18.7344
1199	546.641
1203.33	69.5
1207.65	348.625
1211.98	158.914
1216.3	381.562
1220.62	690.188
1224.93	547.828
1229.24	402.039
1233.56	428.852
1237.86	26.4531
1242.17	228.562
1246.47	302.672
1250.77	875.109
1255.07	407.367
1259.37	341.477
1263.66	6.20312
1267.95	481.906
1272.24	268.086
1276.53	246.875
1280.81	673.789
1285.09	862.359
1289.37	1443.6
1293.64	1137.51
1297.92	1108.1
1302.19	901.992
1306.46	1025.18
1310.72	1164.73
1314.99	1011.26
1319.25	979.797
1323.51	786.406
1327.76	588.969
1332.02	615.078
1336.27	657.625
1340.52	702.578
1344.76	818.766
1349.01	658.078
1353.25	921.906
1357.49	695.188
1361.72	646.594
1365.96	355.094
1370.19	610.969
1374.42	783.781
1378.64	630.609
1382.87	659.938
1387.09	331.078
1391.31	571.016
1395.53	624.297
1399.74	132.219
1403.95	540
1408.16	464.422
1412.37	68.7812
1416.58	549.734
1420.78	683.031
1424.98	854.234
1429.18	166.922
1433.37	903.062
1437.56	403.297
1441.75	597.656
1445.94	613.297
1450.13	124.047
1454.31	148.875
1458.49	769.844
1462.67	933.359
1466.84	738.859
1471.02	205.062
1475.19	562.219
1479.36	782.219
1483.52	276.875
1487.68	180.828
1491.85	661.766
1496	844.922
1500.16	285.891
1504.31	301.453
1508.46	201.422
1512.61	646.766
1516.76	143.5
1520.9	255.219
1525.05	388.109
1529.18	143
1533.32	805.641
1537.45	826.078
1541.59	495.609
1545.72	711.719
1549.84	664.25
1553.97	662.578
1558.09	692.156
1562.21	826.625
1566.33	382.797
1570.44	599.969
1574.56	6.0625
1578.67	0
