Measurement: Raman, 514 nm, depolarized, Raman Data Processed
Mineral: Microcline
Rruff sample: R050150
Ideal chemistry: KAlSi_3_O_8_
Locality: Crystal Peak area, Park/Teller Counties, Colorado, USA
Source: Dave Bunk Minerals
Description: Pale blue prismatic crystals
Measured chemistry: (K_0.95_Na_0.05_)_Î£=1_Al_1.00_Si_3.00_O_8_
Pin_id: L00961
Orientation: Laser parallel to b* (0 1 0). Fiducial mark perpendicular to laser is parallel to c [0 0 1]
Raman shift (cm-1)	intensity
131.492	0
136.445	1047.99
141.395	5665.6
146.343	9908.72
151.287	16008
156.228	16323.8
161.166	11057.7
166.1	4025.49
171.032	1964.49
175.961	2764.77
180.887	3072.86
185.809	1700.23
190.729	1529.36
195.645	2665.56
200.559	3277.35
205.469	995.203
210.376	62.3213
215.281	249.889
220.182	252.254
225.08	31.0449
229.976	11.1836
234.868	205.541
239.757	8.27539
244.643	773.498
249.527	2396.78
254.407	5872.4
259.284	9234.6
264.158	7888.63
269.029	6612.49
273.898	5605.02
278.763	9188.48
283.625	15853.1
288.485	13779.5
293.341	6135.94
298.194	3427.63
303.045	1868.42
307.892	1060.94
312.736	428.303
317.578	617.643
322.417	934.482
327.252	1931.14
332.085	3280.95
336.914	1662.54
341.741	742.393
346.565	596.475
351.386	860.752
356.204	1291.54
361.019	1208.11
365.831	1373.27
370.64	2576.11
375.447	1864.84
380.25	386.551
385.05	148.852
389.848	215.269
394.643	599.644
399.434	1498.18
404.223	2808.96
409.009	1426.85
413.792	931.062
418.573	126.682
423.35	282.56
428.124	139.262
432.896	81.8184
437.665	189.328
442.431	829.844
447.194	2571.83
451.954	5421.32
456.711	5931.74
461.465	4032.41
466.217	6679.19
470.966	13894.3
475.712	22210.8
480.455	14483.5
485.195	8569.26
489.932	4214.6
494.667	3096.55
499.399	4708.84
504.128	11259.3
508.854	25746.6
513.577	41021.5
518.297	23975.5
523.015	9092.38
527.73	3939.38
532.442	2310.05
537.151	1405.92
541.858	722.758
546.561	562.795
551.262	499.81
555.96	471.135
560.656	279.682
565.348	242
570.038	12.9199
574.725	154.4
579.409	496.111
584.091	562.639
588.769	309.338
593.445	61.4219
598.119	143.121
602.789	108.938
607.457	31.7617
612.122	139.697
616.784	98.584
621.443	352.08
626.1	883.875
630.754	878.939
635.405	902.219
640.054	918.725
644.7	1397.43
649.343	2133.46
653.983	2355.42
658.621	1572.43
663.256	929.479
667.888	338.559
672.518	233.736
677.144	362.935
681.769	13.9727
686.39	244.938
691.009	10.5762
695.625	52.2383
700.238	44.5254
704.849	256.432
709.457	277.266
714.062	378.027
718.665	33.3496
723.265	178.795
727.863	145.697
732.457	254.398
737.049	689.777
741.639	1651.21
746.225	3115.88
750.81	2986.29
755.391	1740.32
759.97	988.705
764.546	468.195
769.12	760.312
773.69	279.6
778.259	306.773
782.824	185.348
787.387	126.65
791.948	334.67
796.506	316.414
801.061	622.354
805.613	1030.05
810.163	1681.94
814.711	1783.55
819.255	999.242
823.797	271.289
828.337	4.25977
832.874	187.166
837.408	46.2148
841.94	157.486
846.469	259.494
850.996	262.008
855.52	38.1758
860.041	207.705
864.56	171.988
869.077	253.49
873.59	97.4922
878.101	205.16
882.61	121.549
887.116	231.26
891.62	26.5957
896.121	62.0645
900.619	71.8164
905.115	280.435
909.608	235.842
914.099	58.9453
918.587	140.836
923.073	340.361
927.556	79.9375
932.037	321.373
936.515	157.547
940.991	304.867
945.464	43.9551
949.934	432.154
954.403	539.561
958.868	105.906
963.331	407.478
967.792	195.363
972.25	500.711
976.705	423.303
981.158	473.826
985.609	835.996
990.057	1574.03
994.503	2227.69
998.946	1967.07
1003.39	2177.63
1007.83	1527.95
1012.26	960.879
1016.69	675.356
1021.12	803.314
1025.55	851.051
1029.98	1266.05
1034.4	1192.9
1038.82	1290.8
1043.24	1151.5
1047.66	1125.27
1052.07	1472.62
1056.48	861.207
1060.89	496.043
1065.3	246.143
1069.7	441.887
1074.1	208.609
1078.5	378.266
1082.9	415.24
1087.29	521.172
1091.68	526.316
1096.07	816.33
1100.46	957.883
1104.84	1132.8
1109.23	1549.93
1113.61	2646.61
1117.98	5157.83
1122.36	7968.93
1126.73	6745.56
1131.1	4997.06
1135.47	5013.09
1139.83	5018.2
1144.19	2774.56
1148.56	1588.29
1152.91	1096.95
1157.27	575.844
1161.62	356.065
1165.97	279.66
1170.32	293.625
1174.67	240.875
1179.01	227.438
1183.35	251.293
1187.69	149.43
1192.03	108.793
1196.36	88.3711
1200.7	80.1562
1205.03	398.133
1209.35	169.519
1213.68	92.0273
1218	106.773
1222.32	211.652
1226.64	38.6953
1230.95	163.91
1235.27	156.18
1239.58	175.586
1243.89	95.9531
1248.19	119.699
1252.5	255.141
1256.8	14.4766
1261.1	37.6953
1265.4	79.9648
1269.69	75.1289
1273.98	102.738
1278.27	392.301
1282.56	384.918
1286.85	371.492
1291.13	59.1328
1295.41	371.859
1299.69	321.707
1303.97	181.539
1308.24	189.41
1312.51	432.535
1316.78	420.5
1321.05	247.496
1325.31	410.531
1329.58	390.211
1333.84	480.027
1338.1	494.074
1342.35	135.953
1346.61	438.109
1350.86	462.375
1355.11	297.652
1359.35	264.891
1363.6	268.059
1367.84	40.3008
1372.08	280.457
1376.32	222.113
1380.55	396.582
1384.79	477.43
1389.02	130.75
1393.25	94.9648
1397.47	149.875
1401.7	266.953
1405.92	203.965
1410.14	215.441
1414.36	271.406
1418.57	84.125
1422.79	136.035
1427	102.715
1431.21	84.4141
1435.41	283.309
1439.62	282.633
1443.82	371.953
1448.02	144.234
1452.22	141.57
1456.41	362.668
1460.61	310.203
1464.8	285.293
1468.99	61.8086
1473.17	410.348
1477.36	241.832
1481.54	202.707
1485.72	267.238
1489.9	62.1367
1494.08	185.496
1498.25	187.84
1502.42	527.887
1506.59	190.547
1510.76	158.262
1514.93	107.902
1519.09	377.82
1523.25	24.5508
1527.41	155.715
1531.57	202.004
1535.72	410.047
1539.87	10.3594
1544.02	80.3555
1548.17	213.41
1552.32	157.965
1556.46	170.117
1560.6	3.16797
