Measurement: Raman, 514 nm, depolarized, Raman Data Processed
Mineral: Microcline
Rruff sample: R050150
Ideal chemistry: KAlSi_3_O_8_
Locality: Crystal Peak area, Park/Teller Counties, Colorado, USA
Source: Dave Bunk Minerals
Description: Pale blue prismatic crystals
Measured chemistry: (K_0.95_Na_0.05_)_Î£=1_Al_1.00_Si_3.00_O_8_
Pin_id: L00915
Orientation: Laser parallel to (1 1 0). Fiducial mark perpendicular to laser is parallel to c [0 0 1]
Raman shift (cm-1)	intensity
137.683	0
142.633	581.43
147.579	2298.53
152.522	3517.93
157.462	2688.36
162.4	1257.95
167.334	455.959
172.265	1144.29
177.193	2636.1
182.117	2091.59
187.039	767.938
191.958	677.443
196.874	1556.93
201.787	1585.29
206.696	433.102
211.603	83.8633
216.506	52.3359
221.407	26.293
226.304	61.3828
231.199	58.2422
236.091	90.2559
240.979	30.7695
245.864	516.055
250.747	745.131
255.626	2529.53
260.503	4156.82
265.376	5297.65
270.247	3677.99
275.114	2643.93
279.979	3736.45
284.84	6658.92
289.699	4909.4
294.554	1848.56
299.407	893.377
304.257	494.713
309.103	285.938
313.947	63.668
318.788	240.188
323.626	339.324
328.461	561.049
333.292	963.752
338.121	293.627
342.947	107.875
347.771	377.496
352.591	384.461
357.408	437.744
362.222	593.396
367.034	830.545
371.842	2220.53
376.648	1406.97
381.45	314.754
386.25	7.6582
391.047	23.6348
395.841	446.254
400.632	945.344
405.42	1281.74
410.205	942.41
414.988	554.076
419.767	12.4199
424.544	111.121
429.318	124.478
434.089	91.5078
438.857	285.625
443.622	1263.84
448.384	2928.12
453.143	7362.13
457.9	5764.41
462.654	3730.18
467.405	5491.9
472.153	10964.5
476.898	16673.1
481.64	8847.97
486.38	4725.97
491.116	2537.16
495.85	1949.48
500.581	3181.93
505.309	8173.63
510.035	19214.6
514.757	29168.2
519.477	13241.2
524.194	5335.64
528.908	2574.46
533.62	1542.54
538.328	860.607
543.034	729.045
547.737	520.822
552.437	484.953
557.134	289.574
561.829	176.484
566.521	279.486
571.21	151.498
575.896	490.168
580.58	576.553
585.261	543.633
589.939	138.08
594.614	167.092
599.286	7.83984
603.956	127.272
608.623	399.562
613.287	22.7129
617.949	90.8691
622.608	186.065
627.264	161.529
631.917	323.152
636.568	421.809
641.215	790.926
645.861	1033.67
650.503	1500.69
655.143	1595.75
659.78	876.586
664.414	629.406
669.046	141.133
673.674	94.7539
678.301	148.281
682.924	75.3359
687.545	146.754
692.163	0.214844
696.778	96.1211
701.391	65.8828
706.001	167.391
710.609	291.625
715.213	205.965
719.815	308.059
724.415	398.441
729.011	183.051
733.606	351.172
738.197	610.652
742.786	1604.24
747.372	3098.51
751.955	3122.87
756.536	1407.25
761.114	673.691
765.69	647.359
770.262	404.481
774.833	390.797
779.4	369.156
783.965	80.0625
788.528	295.41
793.087	253.348
797.645	487.836
802.199	575.742
806.751	985.016
811.3	2089.17
815.847	1970.03
820.391	768.797
824.933	300.316
829.471	38.2812
834.008	342.066
838.541	411.324
843.073	183.602
847.601	244.773
852.127	218.559
856.65	76.6211
861.171	267.031
865.69	348.012
870.205	112.094
874.718	120.992
879.229	153.656
883.737	196.043
888.242	25.9414
892.745	166.406
897.246	88.6875
901.743	139.336
906.239	116.793
910.731	207.871
915.221	39.0742
919.709	278.656
924.194	96.4844
928.677	303.441
933.157	301.481
937.634	19.8672
942.109	222.984
946.582	161.832
951.052	144.438
955.519	317.981
959.984	109.227
964.447	435.617
968.906	201.914
973.364	308.566
977.819	452.012
982.271	476.18
986.721	633.039
991.169	1100.64
995.614	1382.93
1000.06	887.852
1004.5	859.039
1008.93	538.559
1013.37	369.715
1017.8	317.961
1022.23	389.731
1026.66	804.844
1031.09	599.453
1035.51	776.918
1039.93	551.906
1044.35	436.617
1048.76	686.856
1053.17	758.941
1057.58	669.484
1061.99	386.414
1066.4	239.356
1070.8	505.887
1075.2	163.215
1079.6	283.688
1084	358.277
1088.39	544.828
1092.78	170.188
1097.17	555.711
1101.56	1206.64
1105.94	1119.84
1110.32	1261.43
1114.7	2214.12
1119.08	4455.78
1123.45	6747.05
1127.82	5413.8
1132.19	3403.12
1136.56	3868.34
1140.92	3512.99
1145.29	1591.97
1149.65	1137
1154	347.598
1158.36	871.125
1162.71	372.016
1167.06	199.629
1171.41	430.207
1175.76	199.086
1180.1	559.117
1184.44	129.492
1188.78	249.164
1193.11	395.031
1197.45	90.8945
1201.78	223.258
1206.11	83.8203
1210.43	165.598
1214.76	283.481
1219.08	269.336
1223.4	219.5
1227.72	82.0625
1232.03	345.812
1236.35	16.7188
1240.66	20.1914
1244.96	233.035
1249.27	141.531
1253.57	22.8555
1257.88	198.418
1262.17	118.953
1266.47	31.1641
1270.76	37.7461
1275.06	100.777
1279.35	72.1094
1283.63	369.641
1287.92	248.918
1292.2	64.2148
1296.48	26.3477
1300.76	376.738
1305.04	177.375
1309.31	255.66
1313.58	166.879
1317.85	322.269
1322.12	283.828
1326.38	171.574
1330.64	332.508
1334.9	134.625
1339.16	756.328
1343.41	595.734
1347.67	284.418
1351.92	492.316
1356.17	335.438
1360.41	247.609
1364.66	717.375
1368.9	292.809
1373.14	150.961
1377.38	369.957
1381.61	226.664
1385.84	249.93
1390.08	48.1055
1394.3	367.5
1398.53	467.106
1402.75	408.438
1406.97	488.602
1411.19	412.273
1415.41	209.402
1419.63	147.93
1423.84	566.336
1428.05	405.363
1432.26	167.812
1436.46	719.723
1440.67	343.246
1444.87	353.363
1449.07	414.785
1453.27	372.488
1457.46	507.828
1461.66	33.4648
1465.85	361.727
1470.04	487.359
1474.22	337.641
1478.41	243.766
1482.59	349.394
1486.77	16.9453
1490.95	195.406
1495.12	308.262
1499.3	414.492
1503.47	552.879
1507.63	76.3203
1511.8	299.012
1515.97	322.051
1520.13	859.656
1524.29	58.8477
1528.45	285.606
1532.61	284.742
1536.76	94.5938
1540.91	276.43
1545.06	353.867
1549.21	466.137
1553.35	788.637
1557.5	16.8125
1561.64	275.227
