Measurement: Raman, 514 nm, depolarized, Raman Data Processed
Mineral: Mimetite
Rruff sample: R050007
Ideal chemistry: Pb^2+^_5_(As^5+^O_4_)_3_Cl
Locality: Pingtouling, Guangdong, China
Source: Eugene Schlepp
Description: Reddish orange colored hexagonal prisms
Measured chemistry: Pb_5.00_((As_0.99_P_0.01_)O_4_)_3_Cl_1.00_
Pin_id: L00370
Orientation: Laser parallel to a* (1 0 0). Fiducial mark perpendicular to laser is parallel to c [0 0 1]
Raman shift (cm-1)	intensity
48.666	0
52.873	87.875
57.079	167.118
61.283	288.614
65.484	289.697
69.684	80.031
73.881	23.254
78.076	8.821
82.27	51.353
86.461	544.475
90.65	1321.93
94.838	2161.55
99.023	4135.14
103.206	5447.54
107.387	4965.05
111.566	4397.14
115.744	4080.72
119.919	3615.76
124.092	3346.26
128.263	3078.22
132.432	2935.62
136.599	2920.61
140.764	3064.9
144.927	3042.24
149.088	3184.34
153.247	3230.75
157.404	3382.56
161.559	3546.53
165.711	3868.47
169.862	3984.57
174.011	3796.92
178.158	3284.51
182.303	2953.32
186.446	2545.38
190.587	2082.68
194.726	1802.22
198.862	1447.09
202.997	1161.25
207.13	998.708
211.261	814.599
215.39	684.646
219.517	537.239
223.642	430.765
227.765	350.39
231.886	231.504
236.005	217.339
240.122	144.324
244.237	87.891
248.35	69.596
252.461	62.177
256.57	3.007
260.677	5.001
264.782	52.849
268.885	26.585
272.986	29.784
277.085	6.756
281.182	88.79
285.278	143.412
289.371	251.097
293.462	548.836
297.552	987.619
301.639	1797.49
305.724	2575.53
309.808	3062.72
313.889	3319.18
317.969	2960.05
322.046	2669.88
326.122	2723.55
330.196	3142.5
334.267	3673.07
338.337	3830.34
342.405	3515.11
346.471	2799.81
350.535	2128.53
354.597	1542.39
358.657	1168.91
362.715	1001.51
366.771	1111.1
370.825	1335.55
374.877	1322.52
378.928	1089.63
382.976	1002.14
387.023	1152.5
391.067	1248.38
395.11	1160.19
399.15	1283.45
403.189	1685.09
407.226	2242.72
411.261	2200.47
415.294	1772.15
419.325	1531.59
423.354	1523.53
427.381	1300.04
431.406	969.181
435.43	779.402
439.451	612.294
443.471	462.079
447.488	347.31
451.504	262.329
455.518	172.078
459.53	141.624
463.54	93.982
467.548	87.163
471.554	86.128
475.558	53.888
479.561	43.575
483.561	45.937
487.559	31.034
491.556	30.904
495.551	16.537
499.544	6.112
503.535	18.928
507.524	5.286
511.511	15.199
515.496	0.388
519.48	8.274
523.461	46.167
527.441	18.031
531.418	26.276
535.394	16.914
539.368	13.929
543.34	19.322
547.311	17.004
551.279	12.279
555.245	1.194
559.21	28.66
563.173	7.866
567.133	3.414
571.092	13.275
575.049	21.445
579.005	5.066
582.958	5.34
586.909	18.409
590.859	4.72
594.807	14.945
598.753	12.422
602.697	44.714
606.639	24.831
610.579	64.732
614.518	56.566
618.454	40.196
622.389	27.527
626.322	49.628
630.253	30.477
634.182	1.806
638.109	2.516
642.035	11.56
645.958	30.297
649.88	11.694
653.8	16.189
657.718	16.645
661.634	26.287
665.549	20.313
669.461	18.386
673.372	59.456
677.281	85.858
681.188	50.285
685.093	25.708
688.997	59.867
692.898	85.48
696.798	78.432
700.696	97.303
704.592	126.68
708.486	177.572
712.378	195.003
716.269	232.46
720.158	280.137
724.045	345.063
727.93	402.941
731.813	516.908
735.694	585.029
739.574	687.987
743.452	865.919
747.328	1057.71
751.202	1478.11
755.075	2059.79
758.945	3172.74
762.814	4691.94
766.681	5262.43
770.546	4529
774.409	3977.68
778.271	3943.45
782.131	4666.39
785.989	5551.52
789.845	6333.75
793.699	7476.07
797.552	10296.6
801.402	18112.4
805.251	35968.2
809.098	43804.2
812.944	46740.4
816.787	39676.8
820.629	24193.3
824.469	14910
828.307	11076.8
832.144	8953.86
835.978	7479.1
839.811	6294.59
843.642	5109.29
847.472	4397.3
851.299	3894.45
855.125	3323.82
858.949	2735.46
862.771	2076.49
866.591	1688.37
870.41	1454.71
874.227	1305.37
878.042	1256.41
881.855	1184.33
885.667	985.22
889.476	886.968
893.284	747.683
897.09	627.021
900.895	572.021
904.698	455.767
908.499	406.958
912.298	389.056
916.095	322.199
919.891	396.586
923.685	332.119
927.477	232.988
931.267	200.52
935.056	188.279
938.843	144.977
942.628	109.194
946.411	116.384
950.193	104.852
953.973	108.997
957.751	93.802
961.527	118.125
965.302	70.474
969.075	64.453
972.846	35.979
976.615	43.519
980.383	36.229
984.149	69.859
987.913	22.843
991.675	18.788
995.436	31.541
999.195	11.385
1002.95	39.344
1006.71	23.213
1010.46	10.901
1014.21	9.02
1017.96	4.063
1021.71	17.82
1025.46	28.706
1029.2	13.379
1032.95	13.523
1036.69	10.643
1040.43	8.865
1044.17	8.891
1047.9	13.604
1051.64	19.247
1055.37	38.195
1059.1	16.778
1062.83	17.536
1066.56	6.185
1070.29	25.038
1074.01	3.209
1077.73	3.324
1081.46	1.36
1085.17	45.761
1088.89	32.133
1092.61	3.341
1096.32	21.73
1100.04	5.033
1103.75	24.216
1107.46	27.307
1111.16	5.328
1114.87	18.258
1118.57	33.479
1122.28	55.874
1125.98	41.573
1129.67	63.194
1133.37	38.736
1137.07	35.217
1140.76	61.586
1144.45	49.877
1148.14	43.143
1151.83	99.409
1155.52	109.829
1159.21	72.771
1162.89	112.859
1166.57	74.231
1170.25	126.087
1173.93	67.788
1177.61	133.174
1181.28	133.528
1184.96	136.541
1188.63	141.795
1192.3	133.804
1195.97	111.539
1199.64	143.62
1203.3	159.78
1206.97	147.947
1210.63	133.107
1214.29	161.599
1217.95	137.106
1221.6	168.444
1225.26	161.488
1228.91	140.817
1232.57	133.019
1236.21	149.134
1239.86	148.188
1243.51	111.502
1247.16	129.373
1250.8	146.854
1254.44	102.917
1258.08	116.975
1261.72	113.129
1265.36	79.353
1268.99	98.842
1272.63	105.082
1276.26	74.219
1279.89	99.025
1283.52	88.905
1287.15	58.768
1290.77	61.585
1294.4	45.057
1298.02	25.597
1301.64	29.107
1305.26	93.736
1308.88	40.95
1312.49	43.021
1316.11	42.121
1319.72	31.72
1323.33	21.9
1326.94	23.667
1330.55	11.342
1334.15	4.948
1337.76	35.501
1341.36	52.957
1344.96	31.292
1348.56	56.511
1352.16	46.675
1355.75	3.703
1359.35	6.619
1362.94	28.427
1366.53	4.131
1370.12	24.739
1373.71	13.362
1377.3	32.882
1380.88	56.321
1384.46	39.959
1388.05	30.238
1391.63	31.492
1395.2	27.698
1398.78	2.836
1402.36	18.905
1405.93	63.865
1409.5	33.598
1413.07	52.761
1416.64	59.672
1420.21	87.562
1423.78	15.655
1427.34	89.807
1430.9	34.954
1434.46	57.97
1438.02	44.04
1441.58	29.118
1445.13	34.194
1448.69	65.031
1452.24	61.359
1455.79	85.577
1459.34	77.598
1462.89	84.142
1466.44	61.743
1469.98	29.105
1473.53	47.014
1477.07	25.604
1480.61	52.952
1484.14	48.28
1487.68	38.987
1491.22	65.505
1494.75	25.159
1498.28	32.98
1501.81	30.323
1505.34	42.6
1508.87	40.322
1512.4	1.308
1515.92	0.425
1519.44	0.114
1522.96	0
