Measurement: Raman, 514 nm, depolarized, Raman Data Processed
Mineral: Mimetite
Rruff sample: R050527
Ideal chemistry: Pb^2+^_5_(As^5+^O_4_)_3_Cl
Locality: Tsumeb mine, Tsumeb, Otavi District, Oshikoto, Namibia
Source: University of Arizona Mineral Museum
Description: Yellow hexagonal prisms, monoclinic polytype
Measured chemistry: Pb_5.00_(As_1.00_O_4_)_3_Cl_1.00_
Pin_id: M01947
Orientation: Laser parallel to -c* (0 0 -1). Fiducial mark perpendicular to laser is parallel to a [1 0 0]
Raman shift (cm-1)	intensity
61.079	0
66.041	18.0178
71.001	174.956
75.957	685.746
80.912	1949.01
85.863	3624.28
90.812	5741.55
95.759	6022.72
100.703	7206.16
105.644	6463.3
110.583	4463.14
115.52	3369.05
120.453	2710.48
125.385	2176.75
130.313	1914.62
135.239	1859.95
140.163	1813.53
145.084	1918.54
150.002	1912.81
154.918	1887.68
159.832	1771.97
164.742	1713.63
169.651	1763.21
174.556	1816.72
179.459	1755.01
184.36	1614.49
189.258	1524.42
194.153	1257.89
199.046	1102.7
203.936	993.053
208.824	852.928
213.709	665.727
218.592	488.014
223.472	382.09
228.349	269.51
233.224	260.539
238.096	146.777
242.966	99.8
247.833	30.3804
252.698	24.6924
257.56	18.3796
262.419	61.5193
267.276	68.6294
272.13	41.1096
276.982	65.03
281.831	104.515
286.677	71.6038
291.521	0.277344
296.363	135.571
301.202	398.948
306.038	767.811
310.872	1094.4
315.703	1259.69
320.531	1067.33
325.357	896.27
330.181	879.362
335.001	1130.67
339.82	1290.96
344.635	1309.67
349.448	956.171
354.259	657.727
359.067	483.614
363.872	508.65
368.675	959.562
373.475	1440.2
378.272	846.005
383.067	473.141
387.86	286.572
392.649	343.371
397.437	323.464
402.221	337.079
407.003	478.695
411.783	568.478
416.56	694.316
421.334	820.238
426.106	925.22
430.875	642.184
435.641	386.592
440.405	233.605
445.167	214.088
449.925	36.8772
454.681	49.0344
459.435	60.0435
464.186	21.3027
468.934	55.3503
473.68	5.81274
478.423	48.708
483.164	39.0283
487.902	8.81274
492.637	44.6035
497.37	44.3687
502.1	2.86768
506.828	49.5681
511.553	24.0564
516.276	64.5547
520.995	48.3142
525.713	39.1904
530.427	7.99487
535.139	5.03076
539.849	76.2981
544.556	28.4922
549.26	84.9019
553.962	33.3352
558.661	79.9126
563.357	46.5913
568.051	58.0981
572.742	39.4917
577.431	70.6934
582.117	72.6038
586.801	103.207
591.481	109.472
596.16	156.173
600.835	125.882
605.508	90.3716
610.179	144.369
614.847	98.9102
619.512	72.0381
624.175	68.2104
628.835	121.125
633.492	60.1721
638.147	71.5562
642.799	86.21
647.449	54.1645
652.096	91.1675
656.74	39.2087
661.382	8.26709
666.021	28.4936
670.658	23.0566
675.292	31.7512
679.923	32.0657
684.552	60.1182
689.178	36.5815
693.802	6.90796
698.423	110.565
703.041	18.6558
707.657	60.3516
712.27	70.7009
716.881	54.4419
721.489	188.261
726.094	169.04
730.697	167.061
735.297	266.893
739.894	308.562
744.489	377.781
749.081	553.111
753.671	755.471
758.258	1331.83
762.842	2533.27
767.424	3540.04
772.003	3171.74
776.58	2625.82
781.154	2866.16
785.725	3626.62
790.294	4261.95
794.86	4520.62
799.424	6548.32
803.985	12850.6
808.543	25935.3
813.099	24715.6
817.652	18008.9
822.202	8725.55
826.75	4325.4
831.295	2724.18
835.838	1907.71
840.378	1459.06
844.915	1212.37
849.45	992.129
853.982	835.013
858.512	721.859
863.039	603.629
867.563	465.156
872.085	488.289
876.604	346.518
881.12	352.801
885.634	252.851
890.145	300.329
894.654	235.884
899.16	178.397
903.663	240.413
908.164	101.012
912.662	135.85
917.158	172.709
921.651	250.638
926.141	106.539
930.628	107.726
935.113	103.296
939.596	29.5957
944.076	28.4849
948.553	71.7593
953.027	112.47
957.499	28.1973
961.969	52.3374
966.435	7.44165
970.899	58.7683
975.361	6.87085
979.82	10.8906
984.276	92.8618
988.73	41.179
993.181	2.93286
997.629	5.08765
1002.08	74.0051
1006.52	69.6885
1010.96	39.3391
1015.4	78.2051
1019.83	106.688
1024.26	78.1311
1028.69	75.5483
1033.12	114.916
1037.55	63.1694
1041.97	48.2168
1046.39	46.1743
1050.81	77.0203
1055.22	31.7893
1059.63	60.4285
1064.04	12.0322
1068.45	96.364
1072.85	15.6252
1077.25	69.8501
1081.65	0.786133
1086.05	62.26
1090.44	73.2229
1094.83	50.2231
1099.22	82.0691
1103.6	89.8313
1107.99	102.995
1112.37	106.343
1116.74	13.0449
1121.12	27.3032
1125.49	8.46533
1129.86	1.13672
1134.23	73.22
1138.59	24.5352
1142.95	116.81
1147.31	49.4221
1151.67	75.6086
1156.02	101.816
1160.38	58.7139
1164.72	86.3247
1169.07	23.2124
1173.41	31.5561
1177.75	100.698
1182.09	118.851
1186.43	52.9648
1190.76	0.861816
1195.09	38.5391
1199.42	151.79
1203.74	63.8589
1208.07	41.7559
1212.39	12.5649
1216.7	38.5869
1221.02	62.1973
1225.33	50.5454
1229.64	70.0469
1233.95	56.0605
1238.25	165.307
1242.55	8.36963
1246.85	59.6938
1251.15	21.6694
1255.44	43.3672
1259.73	60.1631
1264.02	47.6768
1268.31	90.2114
1272.59	66.7666
1276.87	76.0772
1281.15	50.7393
1285.42	63.2515
1289.69	30.4873
1293.96	79.1797
1298.23	14.9429
1302.5	145.803
1306.76	117.758
1311.02	48.7095
1315.27	114.694
1319.53	30.749
1323.78	5.12988
1328.03	82.0557
1332.28	155.282
1336.52	35.5527
1340.76	101.473
1345	77.8325
1349.23	53.2559
1353.47	93.7144
1357.7	43.2266
1361.93	134.757
1366.15	56.5107
1370.37	99.1885
1374.59	131.656
1378.81	71.9097
1383.03	85.4951
1387.24	66.0727
1391.45	70.6245
1395.65	25.2202
1399.86	77.8252
1404.06	39.459
1408.26	16.126
1412.46	100.046
1416.65	62.8774
1420.84	61.085
1425.03	35.5796
1429.22	69.1025
1433.4	70.5869
1437.58	149.025
1441.76	109.848
1445.93	145.455
1450.11	205.832
1454.28	230.218
1458.44	153.326
1462.61	162.497
1466.77	137.562
1470.93	65.501
1475.09	99.7769
1479.24	24.1997
1483.39	140.451
1487.54	57.7822
1491.69	93.1689
1495.84	61.8203
1499.98	44.8496
1504.12	10.3491
1508.25	137.612
1512.38	74.5684
1516.52	34.5371
1520.64	50.5127
1524.77	103.418
1528.89	38.1899
1533.01	6.98731
1537.13	87.3799
1541.25	133.016
1545.36	119.891
1549.47	84.0093
1553.58	136.071
1557.68	88.436
1561.78	100.137
1565.88	67.626
1569.98	119.717
1574.07	117.828
