Measurement: Raman, 514 nm, depolarized, Raman Data Processed
Mineral: Mimetite
Rruff sample: R060920
Ideal chemistry: Pb^2+^_5_(As^5+^O_4_)_3_Cl
Locality: Tsumeb mine, Tsumeb, Otavi District, Oshikoto, Namibia
Source: Marcus Origlieri
Description: Yellow to brownish hexagonal prism, monoclinic polytype
Pin_id: L01429
Orientation: Laser parallel to a* (1 0 0). Fiducial mark perpendicular to laser is parallel to c [0 0 1]
Raman shift (cm-1)	intensity
42.248	0
47.226	19.5948
52.202	33.9385
57.176	68.3587
62.146	52.786
67.115	9.64621
72.08	10.0444
77.043	12.6881
82.003	119.438
86.961	670.907
91.916	1379.26
96.869	3013.29
101.819	4302.92
106.766	3925.12
111.711	3321.83
116.653	2978.02
121.592	2558.18
126.529	2315.94
131.464	2342.15
136.395	2308.75
141.324	2450.16
146.251	2539.44
151.175	2631.62
156.096	2665.72
161.015	2824.73
165.931	2927.66
170.844	2958.48
175.755	2846.2
180.663	2433.78
185.569	2224.21
190.472	1916.46
195.373	1637.81
200.27	1411.96
205.166	1105.88
210.058	946.478
214.948	817.344
219.836	656.671
224.721	511.155
229.603	412.517
234.482	383.791
239.359	286.835
244.234	221.144
249.106	170.051
253.975	198.17
258.841	152.954
263.705	140.353
268.567	56.3619
273.425	49.981
278.281	116.183
283.135	127.939
287.986	262.21
292.834	510.002
297.68	1084.33
302.523	1671.4
307.363	1975.43
312.201	2112.15
317.037	1861.28
321.869	1484.8
326.699	1670.53
331.527	2221.86
336.351	2630.02
341.174	2506.79
345.993	1875.51
350.81	1298.75
355.625	770.779
360.436	736.141
365.245	838.624
370.052	1025.2
374.856	885.841
379.657	621.906
384.456	543.563
389.252	599.334
394.045	580.464
398.836	743.251
403.625	1119.58
408.41	1485.24
413.193	1330.41
417.974	1212.06
422.751	1289.27
427.527	984.833
432.299	566.76
437.069	398.972
441.836	268.336
446.601	176.99
451.363	69.5211
456.123	38.2134
460.88	18.0793
465.634	43.6276
470.386	2.86365
475.135	8.59369
479.881	9.99274
484.625	10.6973
489.366	4.5647
494.105	17.8536
498.84	10.8612
503.574	2.75037
508.305	17.6672
513.033	35.4464
517.758	3.9411
522.481	6.4585
527.201	3.93402
531.919	5.05341
536.634	6.04144
541.346	13.5712
546.056	3.41089
550.763	11.9016
555.468	16.2257
560.17	12.2047
564.869	2.87323
569.566	39.2723
574.26	3.4538
578.952	15.3372
583.641	27.9089
588.327	41.2077
593.011	48.2435
597.692	27.0512
602.37	90.6386
607.046	60.0212
611.719	81.3247
616.39	73.2504
621.058	61.2231
625.723	56.1603
630.386	15.2972
635.046	46.2952
639.703	30.198
644.358	23.2386
649.01	8.3562
653.66	33.5131
658.307	6.33331
662.951	19.5205
667.593	8.2052
672.232	27.7429
676.869	5.72479
681.503	4.12286
686.134	23.57
690.763	24.3972
695.389	38.35
700.013	27.5901
704.633	52.0179
709.252	113.618
713.867	144.044
718.48	134.772
723.091	130.261
727.698	219.318
732.304	256.396
736.906	324.506
741.506	440.108
746.103	565.245
750.698	879.439
755.29	1506.7
759.88	2747.04
764.467	4195.52
769.051	3774.56
773.632	2924.19
778.211	2901.18
782.788	3833.96
787.362	4840.86
791.933	5382.34
796.501	8568.65
801.067	18473
805.631	34439.6
810.191	32847.8
814.749	31858.9
819.305	18094.2
823.858	8124.38
828.408	4503.39
832.956	3050.62
837.501	2318.03
842.043	1734.7
846.583	1436.67
851.12	1159.56
855.654	931.623
860.186	778.407
864.716	642.522
869.242	555.763
873.766	459.454
878.288	460.659
882.807	396.588
887.323	370.62
891.837	328.86
896.348	246.101
900.856	212.189
905.362	187.471
909.865	134.594
914.366	121.304
918.864	126.545
923.359	99.913
927.852	60.8756
932.342	22.9125
936.829	5.20227
941.314	15.493
945.796	45.0557
950.276	15.2495
954.753	35.21
959.228	17.0182
963.699	9.37793
968.169	38.092
972.635	32.7412
977.099	9.81702
981.56	6.76904
986.019	9.50024
990.475	50.0617
994.929	8.39343
999.38	17.8497
1003.83	30.6289
1008.27	25.9102
1012.72	13.5717
1017.16	17.9419
1021.6	15.7543
1026.03	1.45606
1030.46	37.5855
1034.89	8.42468
1039.32	1.45654
1043.74	7.23816
1048.17	21.8501
1052.59	9.31677
1057	14.7108
1061.42	25.0487
1065.83	46.3394
1070.24	30.554
1074.65	24.3654
1079.05	5.56946
1083.45	16.3049
1087.85	1.04761
1092.25	4.66956
1096.64	39.1804
1101.03	15.6144
1105.42	5.98731
1109.8	66.9573
1114.19	14.1554
1118.57	59.2783
1122.95	34.3293
1127.32	26.4996
1131.69	23.1857
1136.06	25.0846
1140.43	68.4193
1144.8	72.1172
1149.16	58.7293
1153.52	54.3002
1157.87	67.6442
1162.23	36.5725
1166.58	57.4984
1170.93	60.5574
1175.28	49.42
1179.62	74.5947
1183.96	70.3655
1188.3	19.9724
1192.64	45.9111
1196.97	91.1945
1201.3	48.724
1205.63	95.4758
1209.95	46.9992
1214.28	76.3279
1218.6	116.37
1222.92	56.6375
1227.23	87.2044
1231.55	29.6984
1235.86	47.9695
1240.16	62.2388
1244.47	67.025
1248.77	77.7631
1253.07	33.4482
1257.37	59.3475
1261.66	76.9773
1265.95	40.6094
1270.24	38.3357
1274.53	27.0789
1278.81	38.672
1283.09	23.313
1287.37	13.0156
1291.65	33.6938
1295.92	16.8711
1300.19	41.7018
1304.46	67.5138
1308.73	20.4441
1312.99	10.3118
1317.25	9.16443
1321.51	56.9843
1325.77	60.7966
1330.02	35.4626
1334.27	10.3269
1338.52	1.29248
1342.76	29.2206
1347	27.0933
1351.24	31.0596
1355.48	5.14551
1359.72	26.4382
1363.95	36.4292
1368.18	11.4327
1372.4	2.67822
1376.63	6.7063
1380.85	17.7223
1385.07	17.7664
1389.29	42.7924
1393.5	38.7466
1397.71	3.34253
1401.92	43.5486
1406.13	16.4487
1410.33	9.38306
1414.53	63.2439
1418.73	2.61121
1422.92	67.4821
1427.12	48.2776
1431.31	10.906
1435.5	20.3724
1439.68	24.4491
1443.87	54.7772
1448.05	56.0139
1452.22	10.9117
1456.4	69.3044
1460.57	21.1939
1464.74	57.3679
1468.91	26.9144
1473.07	74.172
1477.23	12.8854
1481.39	62.5347
1485.55	80.6555
1489.7	44.6765
1493.86	28.974
1498.01	24.7236
1502.15	27.6466
1506.3	41.8013
1510.44	72.0839
1514.58	48.0112
1518.71	40.769
1522.85	52.9977
1526.98	65.3538
1531.11	10.4635
1535.23	66.2664
1539.35	71.4416
1543.47	12.3445
1547.59	24.9788
1551.71	14.2108
1555.82	17.4886
1559.93	0.677368
