Measurement: Raman, 514 nm, depolarized, Raman Data Processed
Mineral: Mimetite
Rruff sample: R060920
Ideal chemistry: Pb^2+^_5_(As^5+^O_4_)_3_Cl
Locality: Tsumeb mine, Tsumeb, Otavi District, Oshikoto, Namibia
Source: Marcus Origlieri
Description: Yellow to brownish hexagonal prism, monoclinic polytype
Pin_id: L01165
Orientation: Laser parallel to -c* (0 0 -1). Fiducial mark perpendicular to laser is parallel to b [0 1 0]
Raman shift (cm-1)	intensity
91.916	0
96.869	1305.13
101.819	2273.12
106.766	2277.9
111.711	1937.9
116.653	1825.04
121.592	1635.72
126.529	1448.06
131.464	1511.72
136.395	1932.35
141.324	2238.47
146.251	2423.67
151.175	2230.73
156.096	2214.63
161.015	2174.87
165.931	2408.08
170.844	2425.68
175.755	2406.9
180.663	2314.69
185.569	2231.77
190.472	2123.31
195.373	1899.79
200.27	1583.78
205.166	1107.03
210.058	912.734
214.948	777.343
219.836	590.381
224.721	409.711
229.603	207.973
234.482	108.14
239.359	111.96
244.234	46.1611
249.106	143.369
253.975	164.214
258.841	83.9839
263.705	52.5288
268.567	201.968
273.425	170.162
278.281	98.7427
283.135	94.2647
287.986	39.9009
292.834	476.842
297.68	912.699
302.523	1566.46
307.363	1967.12
312.201	1921.91
317.037	1799.19
321.869	1617.22
326.699	1770.34
331.527	2053.86
336.351	2435.52
341.174	2496.34
345.993	1946.2
350.81	1468.78
355.625	1325.08
360.436	1570.94
365.245	2112.92
370.052	2506.11
374.856	2209.34
379.657	1231.61
384.456	1049.2
389.252	888.2
394.045	930.231
398.836	962.276
403.625	1053.06
408.41	1268.96
413.193	1600.91
417.974	1931.05
422.751	1990.29
427.527	1493.29
432.299	785.27
437.069	546.398
441.836	415.548
446.601	171.034
451.363	219.821
456.123	179.313
460.88	0.859375
465.634	129.202
470.386	49.8281
475.135	89.4258
479.881	88.4126
484.625	35.5781
489.366	129.853
494.105	34.3262
498.84	54.1929
503.574	60.355
508.305	92.8257
513.033	70.7051
517.758	97.4985
522.481	130.034
527.201	112.272
531.919	218.261
536.634	107.291
541.346	79.5312
546.056	123.902
550.763	77.3799
555.468	36.1035
560.17	84.4853
564.869	142.977
569.566	153.613
574.26	84.1665
578.952	113.319
583.641	206.006
588.327	110.24
593.011	61.0278
597.692	229.087
602.37	240.192
607.046	186.746
611.719	194.805
616.39	205.631
621.058	143.941
625.723	96.9062
630.386	120.044
635.046	113.311
639.703	11.0391
644.358	87.2412
649.01	3.0625
653.66	10.7227
658.307	63.4658
662.951	39.5449
667.593	55.29
672.232	56.4414
676.869	106.177
681.503	50.1553
686.134	89.8672
690.763	0.44043
695.389	87.3652
700.013	0.571289
704.633	45.6465
709.252	157.93
713.867	202.106
718.48	283.17
723.091	350.069
727.698	406.466
732.304	507.705
736.906	690.237
741.506	919.255
746.103	1145.75
750.698	1684.46
755.29	2925.43
759.88	5318.53
764.467	7258.95
769.051	7071.63
773.632	6224.61
778.211	6365.36
782.788	8416.03
787.362	9930.36
791.933	10914.4
796.501	16846.8
801.067	33123.6
805.631	48065.1
810.191	43772.2
814.749	31145.7
819.305	17235.7
823.858	8237.7
828.408	4904.45
832.956	3507.36
837.501	2667.15
842.043	2156.24
846.583	1895.26
851.12	1506.4
855.654	1079.08
860.186	1094.3
864.716	809.342
869.242	794.699
873.766	759.133
878.288	550.597
882.807	552.901
887.323	564.456
891.837	540.232
896.348	356.479
900.856	165.987
905.362	282.168
909.865	256.987
914.366	268.906
918.864	257.78
923.359	222.857
927.852	91.0371
932.342	194.719
936.829	58.8906
941.314	57.4785
945.796	37.4199
950.276	101
954.753	65.8037
959.228	128.57
963.699	71.7178
968.169	131.286
972.635	19.5996
977.099	47.8613
981.56	86.3731
986.019	160.731
990.475	35.6885
994.929	58.666
999.38	62.0117
1003.83	53.1475
1008.27	4.39062
1012.72	62.3525
1017.16	21.2705
1021.6	112.495
1026.03	129.226
1030.46	15.8643
1034.89	76.8408
1039.32	86.3486
1043.74	7.69531
1048.17	92.8311
1052.59	75.0713
1057	93.5654
1061.42	137.107
1065.83	119.622
1070.24	69.8252
1074.65	83.8711
1079.05	29.4531
1083.45	218.727
1087.85	132.653
1092.25	28.957
1096.64	123.826
1101.03	71.1904
1105.42	219.139
1109.8	45.8555
1114.19	255.071
1118.57	129.625
1122.95	213.847
1127.32	91.1348
1131.69	203.292
1136.06	109.145
1140.43	39.0645
1144.8	7.24902
1149.16	77.6426
1153.52	248.143
1157.87	171.523
1162.23	254.673
1166.58	88.168
1170.93	251.899
1175.28	189.248
1179.62	107.454
1183.96	213.637
1188.3	96.7022
1192.64	140.705
1196.97	33.7695
1201.3	94.665
1205.63	194.501
1209.95	127.769
1214.28	182.785
1218.6	111.664
1222.92	169.778
1227.23	14.9072
1231.55	0.088867
1235.86	171.325
1240.16	149.809
1244.47	248.794
1248.77	74.7793
1253.07	218.756
1257.37	140.851
1261.66	71.7852
1265.95	116.264
1270.24	135.174
1274.53	11.0332
1278.81	166.175
1283.09	33.2324
1287.37	3.72852
1291.65	218.312
1295.92	88.9766
1300.19	235.083
1304.46	110.264
1308.73	158.514
1312.99	158.914
1317.25	99.4639
1321.51	13.959
1325.77	162.58
1330.02	16.3174
1334.27	65.0303
1338.52	103.057
1342.76	122.988
1347	176.86
1351.24	236.805
1355.48	205.996
1359.72	178.026
1363.95	62.2207
1368.18	106.497
1372.4	62.1504
1376.63	86.2041
1380.85	125.627
1385.07	166.133
1389.29	98.582
1393.5	76.291
1397.71	10.2568
1401.92	109.459
1406.13	131.804
1410.33	221.951
1414.53	82.9971
1418.73	172.881
1422.92	171.553
1427.12	150.285
1431.31	200.798
1435.5	83.3272
1439.68	125.233
1443.87	205.278
1448.05	277.211
1452.22	221.882
1456.4	5.9375
1460.57	63.251
1464.74	200.747
1468.91	234.025
1473.07	172.732
1477.23	157.822
1481.39	100.474
1485.55	188.955
1489.7	142.781
1493.86	158.871
1498.01	212.113
1502.15	169.462
1506.3	344.052
1510.44	387.891
1514.58	325.592
1518.71	190.219
1522.85	298.532
1526.98	312.408
1531.11	224.688
1535.23	273.431
1539.35	20.8389
1543.47	42.1826
1547.59	368.685
1551.71	283.265
1555.82	101.641
1559.93	350.666
