Measurement: Raman, 514 nm, depolarized, Raman Data Processed
Mineral: Mimetite
Rruff sample: R050007
Ideal chemistry: Pb^2+^_5_(As^5+^O_4_)_3_Cl
Locality: Pingtouling, Guangdong, China
Source: Eugene Schlepp
Description: Reddish orange colored hexagonal prisms
Measured chemistry: Pb_5.00_((As_0.99_P_0.01_)O_4_)_3_Cl_1.00_
Pin_id: L00097
Orientation: Laser parallel to c* (0 0 1). Fiducial mark perpendicular to laser is parallel to -a [-1 0 0]
Raman shift (cm-1)	intensity
49.365	0
53.566	228.329
57.765	554.184
61.962	651.864
66.157	502.974
70.349	281.18
74.54	46.899
78.729	48.193
82.916	119.919
87.101	696.809
91.284	1586.37
95.465	3350.31
99.644	6262.27
103.82	6484.81
107.995	5949.75
112.168	5370.97
116.339	4918.38
120.508	4495.91
124.675	4368.53
128.84	4209.24
133.003	4177.07
137.164	4151.01
141.323	4194.67
145.48	4265.61
149.635	4112.1
153.788	3887.78
157.939	3706.01
162.088	3751.79
166.235	3765.12
170.38	3667.96
174.523	3635.3
178.664	3351.15
182.803	3117.49
186.94	2927.36
191.076	2606.78
195.209	2341.84
199.34	2049.61
203.47	1839.18
207.597	1555.52
211.722	1417.73
215.846	1267.69
219.967	1070.89
224.087	900.187
228.204	786.492
232.32	696.5
236.434	593.054
240.545	520.992
244.655	492.153
248.763	300.716
252.869	281.072
256.973	218.854
261.075	128.045
265.175	100.575
269.273	83.398
273.369	67.496
277.463	3.833
281.556	9.389
285.646	72.141
289.734	175.07
293.821	287.186
297.905	523.916
301.988	768.778
306.069	1030.92
310.147	1145.44
314.224	1258.36
318.299	1220.27
322.372	1230.59
326.443	1398.3
330.512	1633.91
334.579	1887.94
338.645	1935.65
342.708	1729.94
346.769	1430.72
350.829	1150.53
354.887	1047.88
358.942	1127.48
362.996	1708.55
367.048	2479.94
371.098	2681.55
375.146	2195.14
379.192	1548.3
383.236	1305.19
387.279	1183.18
391.319	1015.51
395.358	1012.22
399.394	966.51
403.429	980.633
407.462	1205.23
411.493	1382.56
415.522	1737.67
419.549	2076.84
423.575	1934.56
427.598	1441.06
431.619	997.625
435.639	686.143
439.657	515.67
443.673	322.661
447.687	215.418
451.699	126.935
455.709	75.206
459.717	102.216
463.724	63.96
467.728	56.428
471.731	30.61
475.732	26.493
479.731	20.061
483.728	17.298
487.723	15.751
491.716	4.258
495.708	27.809
499.697	35.516
503.685	8.665
507.671	0.639
511.655	14.486
515.637	8.088
519.617	10.862
523.596	55.419
527.572	12.645
531.547	59.458
535.52	40.912
539.491	15.906
543.46	29.366
547.427	3.274
551.393	10.403
555.356	7.697
559.318	16.398
563.278	20.909
567.236	37.853
571.192	23.259
575.147	5.057
579.099	42.201
583.05	3.282
586.999	21.498
590.946	34.456
594.891	30.164
598.834	77.64
602.776	64.895
606.715	31.941
610.653	65.785
614.589	87.192
618.523	61.254
622.456	38.85
626.386	47.229
630.315	38.062
634.242	37.52
638.167	32.9
642.09	28.827
646.012	16.599
649.931	46.835
653.849	42.109
657.765	45.186
661.679	100.549
665.592	75.098
669.502	111.219
673.411	158.965
677.318	153.706
681.223	200.582
685.126	220.384
689.028	219.254
692.927	258.163
696.825	353.802
700.721	357.185
704.616	426.855
708.508	555.262
712.399	620.361
716.288	735.542
720.175	825.102
724.06	921.553
727.944	1086.43
731.825	1228.75
735.705	1412.58
739.584	1675.7
743.46	2038.45
747.334	2528.09
751.207	3393.75
755.078	4549.43
758.947	6744.7
762.815	8720.24
766.68	9355.06
770.544	8740.19
774.406	8305.63
778.267	9131.36
782.125	10987.4
785.982	12973.8
789.837	14960.4
793.69	18607.5
797.542	26084.8
801.391	44812.5
805.239	62560.5
809.085	57958.9
812.93	44387.6
816.772	27986.8
820.613	18486.3
824.452	14356.2
828.29	12126.5
832.125	10647.2
835.959	8968.36
839.791	7701.98
843.621	6511.05
847.45	5825.56
851.277	5009.46
855.102	4173.73
858.925	3272.36
862.746	2441.35
866.566	2021.65
870.384	1827.67
874.2	1662.7
878.015	1433.19
881.828	1385.52
885.639	1188.16
889.448	1113.8
893.256	987.322
897.061	839.44
900.865	741.709
904.668	672.716
908.468	745.84
912.267	783.721
916.064	1001.53
919.86	1033.59
923.653	672.612
927.445	441.561
931.236	353.404
935.024	265.67
938.811	255.312
942.596	219.605
946.379	185.795
950.161	151.668
953.94	153.986
957.719	133.216
961.495	114.222
965.27	97.076
969.043	44.124
972.814	70.808
976.583	92.35
980.351	40.416
984.117	97.525
987.882	59.475
991.644	40.427
995.405	40.919
999.165	48.158
1002.92	41.238
1006.68	14.417
1010.43	2.537
1014.18	32.662
1017.93	31.812
1021.68	15.988
1025.43	22.064
1029.18	7.885
1032.92	22.866
1036.66	6.991
1040.4	41.851
1044.14	10.624
1047.88	20.285
1051.62	57.163
1055.35	40.825
1059.08	26.697
1062.81	6.793
1066.54	28.079
1070.27	33.61
1073.99	4.432
1077.72	3.473
1081.44	39.731
1085.16	19.266
1088.88	21.021
1092.59	3.016
1096.31	30.718
1100.02	37.232
1103.73	19.569
1107.44	6.73
1111.15	75.706
1114.86	43.518
1118.57	59.157
1122.27	117.645
1125.97	68.982
1129.67	89.156
1133.37	113.166
1137.07	118.05
1140.76	84.728
1144.45	93.223
1148.15	112.662
1151.84	122.241
1155.53	146.645
1159.21	113.03
1162.9	145.174
1166.58	129.588
1170.26	153.027
1173.94	192.799
1177.62	206.925
1181.3	168.077
1184.97	210.109
1188.65	177.703
1192.32	180.657
1195.99	197.161
1199.66	205.946
1203.33	219.742
1206.99	205.31
1210.65	222.924
1214.32	231.103
1217.98	213.51
1221.64	204.21
1225.29	199.918
1228.95	215.552
1232.6	215.384
1236.26	202.389
1239.91	192.814
1243.56	199.854
1247.2	199.648
1250.85	186.21
1254.49	184.559
1258.13	163.42
1261.78	185.244
1265.41	181.147
1269.05	192.271
1272.69	155.595
1276.32	210.241
1279.95	103.525
1283.59	132.576
1287.21	113.199
1290.84	93.282
1294.47	75.737
1298.09	88.226
1301.72	58.204
1305.34	57.13
1308.96	23.638
1312.58	39.932
1316.19	51.285
1319.81	52.087
1323.42	48.497
1327.03	72.029
1330.64	56.204
1334.25	30.085
1337.86	60.958
1341.46	83.361
1345.07	49.241
1348.67	31.258
1352.27	1.906
1355.87	44.763
1359.46	40.258
1363.06	46.522
1366.65	46.52
1370.25	42.434
1373.84	10.379
1377.43	25.643
1381.02	7.664
1384.6	8.067
1388.18	15.146
1391.77	42.248
1395.35	15.219
1398.93	3.02
1402.51	36.652
1406.08	44.068
1409.66	11.237
1413.23	56.276
1416.8	42.698
1420.37	14.296
1423.94	28.053
1427.51	42.33
1431.08	38.657
1434.64	33.337
1438.2	28.515
1441.76	56.58
1445.32	56.182
1448.88	55.114
1452.43	53.242
1455.99	3.24
1459.54	31.088
1463.09	48.212
1466.64	4.588
1470.19	14.137
1473.74	62.116
1477.28	32.138
1480.83	56.506
1484.37	63.309
1487.91	61.066
1491.45	51.301
1494.98	48.719
1498.52	15.711
1502.05	21.979
1505.59	26.042
1509.12	15.519
1512.65	24.501
1516.17	59.247
1519.7	39.587
1523.23	0
