Measurement: Raman, 514 nm, depolarized, Raman Data Processed
Mineral: Mimetite
Rruff sample: R050527
Ideal chemistry: Pb^2+^_5_(As^5+^O_4_)_3_Cl
Locality: Tsumeb mine, Tsumeb, Otavi District, Oshikoto, Namibia
Source: University of Arizona Mineral Museum
Description: Yellow hexagonal prisms, monoclinic polytype
Measured chemistry: Pb_5.00_(As_1.00_O_4_)_3_Cl_1.00_
Pin_id: M00655
Orientation: Laser parallel to a* (1 0 0). Fiducial mark perpendicular to laser is parallel to c [0 0 1]
Raman shift (cm-1)	intensity
43.476	0
48.456	18.8188
53.434	27.6821
58.408	50.935
63.38	50.0015
68.349	13.557
73.316	14.8355
78.279	7.56891
83.24	126.094
88.199	576.779
93.154	1209.08
98.107	2343.81
103.057	3213.91
108.004	3195.34
112.949	2728.07
117.891	2485.05
122.83	2205.87
127.767	2072.2
132.7	2025.92
137.631	1950.93
142.56	2121.61
147.485	2278.03
152.408	2537.23
157.328	2707.2
162.246	2849.96
167.16	2933.5
172.073	3012.8
176.982	2687.87
181.888	2287.68
186.792	1871.21
191.694	1605.61
196.592	1338.69
201.488	1124.44
206.381	919.052
211.271	736.395
216.159	636.851
221.044	508.15
225.926	369.13
230.806	364.626
235.683	265.816
240.557	189.671
245.429	154.153
250.298	148.245
255.164	132.918
260.027	79.1509
264.888	5.93726
269.746	25.2257
274.601	57.0058
279.454	53.2952
284.304	102.094
289.151	170.385
293.996	470.109
298.838	906.259
303.677	1512.83
308.514	1806.78
313.348	1862.09
318.179	1774.74
323.008	1711.72
327.834	1970.01
332.657	2446.6
337.478	2676.8
342.295	2431.84
347.111	1825.15
351.923	1225.75
356.733	849.826
361.54	647.277
366.345	607.293
371.147	686.963
375.946	621.355
380.743	521.32
385.537	613.268
390.328	763.111
395.116	821.933
399.902	891.104
404.686	1282.17
409.466	1553.51
414.244	1397.05
419.019	1007.51
423.792	941.166
428.562	822.651
433.329	651.447
438.094	444.791
442.856	346.061
447.616	263.27
452.372	176.048
457.126	136.943
461.878	30.7808
466.627	52.6266
471.373	13.3737
476.116	20.0947
480.857	15.7737
485.596	11.614
490.331	22.1014
495.064	8.37634
499.795	2.33563
504.522	14.0298
509.247	9.94586
513.97	8.05041
518.69	32.0457
523.407	3.94519
528.121	14.4619
532.833	1.98694
537.543	20.78
542.249	21.3032
546.953	5.4314
551.655	4.26215
556.354	0.197083
561.05	0.438843
565.743	0.985657
570.434	6.12781
575.123	12.9649
579.808	47.5784
584.491	28.9621
589.172	49.0973
593.85	31.0369
598.525	38.7918
603.197	73.3655
607.868	79.7571
612.535	74.9702
617.2	74.0066
621.862	62.0044
626.522	65.0532
631.178	49.2801
635.833	45.7734
640.485	28.2117
645.134	20.6432
649.78	36.3876
654.424	8.27698
659.066	18.8811
663.704	6.74109
668.341	17.4214
672.974	12.3048
677.605	21.1379
682.234	3.48731
686.859	2.7428
691.483	36.5242
696.103	30.117
700.721	44.5454
705.337	43.8336
709.949	30.7993
714.56	57.4151
719.167	108.798
723.772	147.625
728.375	178.779
732.975	198.167
737.572	276.648
742.167	352.144
746.759	521.629
751.349	781.222
755.936	1379.85
760.52	2393.52
765.102	3396.26
769.681	2947.06
774.258	2170.87
778.832	2039.77
783.404	2545.65
787.973	3023.81
792.539	3500.99
797.103	5515.01
801.665	12448.8
806.223	26117.3
810.779	33321
815.333	32308.4
819.884	19656
824.433	9333.74
828.979	5090.33
833.522	3434.45
838.063	2438.74
842.601	1892.21
847.137	1548.89
851.67	1233.92
856.2	1014.97
860.729	809.062
865.254	660.338
869.777	522.667
874.297	449.447
878.815	366.131
883.33	336.261
887.843	278.993
892.353	262.685
896.861	197.923
901.366	161.987
905.869	111.484
910.369	106.135
914.866	82.3442
919.361	82.0078
923.854	80.5497
928.344	20.1556
932.831	42.9471
937.316	9.45715
941.798	33.9145
946.278	2.86273
950.755	13.9853
955.23	0.743103
959.702	12.8864
964.171	1.90027
968.638	18.119
973.103	24.9244
977.565	10.0087
982.025	5.93054
986.482	25.2707
990.936	17.333
995.388	2.60535
999.837	19.4504
1004.28	7.53888
1008.73	4.42859
1013.17	8.42047
1017.61	29.5561
1022.05	2.48779
1026.48	14.428
1030.91	12.3044
1035.34	20.1431
1039.77	21.9486
1044.19	10.7043
1048.62	27.3962
1053.03	4.98602
1057.45	6.48395
1061.87	8.13428
1066.28	1.08948
1070.69	3.03247
1075.09	3.06494
1079.5	9.9621
1083.9	33.7382
1088.3	27.4277
1092.69	25.7051
1097.09	38.9872
1101.48	21.3458
1105.87	4.25336
1110.26	34.0374
1114.64	13.1402
1119.02	38.215
1123.4	39.2255
1127.78	48.1963
1132.15	26.182
1136.53	62.0988
1140.89	57.4529
1145.26	50.8981
1149.63	31.5269
1153.99	58.0746
1158.35	66.0073
1162.7	53.1613
1167.06	62.7719
1171.41	45.1899
1175.76	50.1998
1180.11	63.6547
1184.45	59.0588
1188.79	72.1072
1193.13	56.1563
1197.47	57.7137
1201.81	55.1682
1206.14	59.1227
1210.47	76.8845
1214.79	53.7592
1219.12	71.9087
1223.44	45.529
1227.76	46.5996
1232.08	45.5087
1236.39	54.689
1240.7	43.4215
1245.02	57.1045
1249.32	72.5841
1253.63	34.3928
1257.93	69.2043
1262.23	37.9346
1266.53	17.6285
1270.82	12.9083
1275.12	59.7937
1279.41	46.5491
1283.69	7.22247
1287.98	59.0732
1292.26	44.3403
1296.54	33.5245
1300.82	21.1899
1305.1	12.8384
1309.37	20.4936
1313.64	25.1661
1317.91	35.9213
1322.17	25.6645
1326.44	24.4938
1330.7	28.3195
1334.96	15.1322
1339.21	32.5054
1343.47	16.9419
1347.72	7.88678
1351.97	1.85986
1356.21	30.0554
1360.46	14.0381
1364.7	15.9464
1368.94	22.5238
1373.17	11.9672
1377.41	9.8924
1381.64	7.78052
1385.87	17.6689
1390.1	19.5593
1394.32	4.54889
1398.54	0.32196
1402.76	15.1837
1406.98	29.0696
1411.19	32.0266
1415.41	19.9388
1419.62	8.03955
1423.82	10.8306
1428.03	11.4338
1432.23	20.6761
1436.43	11.5217
1440.63	9.8136
1444.82	13.8522
1449.02	4.79913
1453.21	25.8016
1457.4	24.9056
1461.58	44.7571
1465.77	6.82208
1469.95	44.9329
1474.12	23.0762
1478.3	16.1042
1482.47	11.28
1486.64	32.0087
1490.81	36.7685
1494.98	11.813
1499.14	8.71936
1503.31	41.6141
1507.47	56.3866
1511.62	40.2268
1515.78	71.0321
1519.93	36.6902
1524.08	37.4426
1528.23	68.028
1532.37	14.0814
1536.51	10.9574
1540.65	4.84644
1544.79	16.8643
1548.93	34.8616
1553.06	19.1783
1557.19	36.3241
1561.32	25.2191
