Measurement: Raman, , ccw, Raman Data Processed
Mineral: Minium
Rruff sample: P001241
Ideal chemistry: Pb^2+^_2_Pb^4+^O_4_
Locality: Virtual
Source: ScottLab
Description: PURPLE OpenSource 20190319
Raman shift (cm-1)	intensity
24.7421	0
30.0454	2.16331
35.3486	6.92258
40.6519	11.6819
45.9552	19.8308
51.2585	224.665
56.5618	71.8657
61.8651	326.336
67.1684	117.012
72.4716	56.3541
77.7749	20.7341
83.0782	29.1527
88.3815	44.6983
93.6848	32.0774
98.9881	45.5439
104.291	75.8356
109.595	156.064
114.898	494.616
120.201	3025.03
125.504	1023.34
130.808	238.163
136.111	114.546
141.414	164.191
146.718	192.494
152.021	568.826
157.324	100.424
162.627	35.4702
167.931	20.5289
173.234	14.136
178.537	10.9473
183.841	10.0109
189.144	9.07443
194.447	8.67968
199.75	9.72938
205.054	10.7791
210.357	15.0998
215.66	42.9511
220.964	123.133
226.267	141.897
231.57	122.699
236.874	101.349
242.177	60.0303
247.48	30.1652
252.783	16.61
258.087	10.9655
263.39	8.49335
268.693	7.54138
273.997	7.7241
279.3	9.62385
284.603	15.8681
289.906	30.0866
295.21	45.208
300.513	61.5164
305.816	122.465
311.119	209.738
316.423	199.565
321.726	102.114
327.029	35.4824
332.333	14.5573
337.636	9.38889
342.939	8.08389
348.242	8.0808
353.546	8.92007
358.849	10.719
364.152	14.0503
369.456	20.4256
374.759	34.2691
380.062	72.6238
385.365	220.276
390.669	470.245
395.972	219.06
401.275	72.426
406.579	34.3503
411.882	20.6252
417.185	14.3346
422.488	11.0869
427.792	9.40441
433.095	8.82252
438.398	9.71191
443.702	14.6537
449.005	29.3552
454.308	46.1411
459.611	40.8244
464.915	25.7485
470.218	28.7408
475.521	39.0326
480.825	27.0496
486.128	14.6807
491.431	12.2921
496.734	13.3652
502.038	16.136
507.341	21.1674
512.644	30.4077
517.948	47.3571
523.251	75.662
528.554	116.396
533.857	173.69
539.161	293.285
544.464	649.756
549.767	977.2
555.071	532.712
560.374	201.925
565.677	95.3008
570.98	54.9618
576.284	35.7904
581.587	25.2079
586.89	18.7493
592.193	14.5147
597.497	11.5854
602.8	9.47293
608.103	7.8983
613.407	6.6924
618.71	5.74783
624.013	4.99378
629.317	4.38193
634.62	3.87841
639.923	3.49618
645.226	3.31128
650.53	3.12639
655.833	2.9415
661.136	2.7566
666.439	2.57827
671.743	2.46556
677.046	2.35285
682.349	2.24013
687.653	2.12742
692.956	2.01471
698.259	1.90856
703.562	1.86803
708.866	1.8275
714.169	1.78697
719.472	1.74645
724.776	1.70592
730.079	1.66539
735.382	1.62486
740.686	1.58433
745.989	1.5438
751.292	1.50327
756.595	1.46274
761.899	1.42221
767.202	1.38168
772.505	1.34115
777.808	1.30062
783.112	1.26009
788.415	1.21956
793.718	1.17904
799.022	1.13851
804.325	1.09798
809.628	1.05745
814.932	1.01692
820.235	0.976388
825.538	0.935858
830.841	0.895329
836.145	0.8548
841.448	0.814271
846.751	0.773741
852.054	0.733212
857.358	0.692683
862.661	0.652153
867.964	0.611624
873.268	0.571095
878.571	0.530565
883.874	0.490036
889.178	0.449507
894.481	0.408977
899.784	0.368448
905.087	0.327919
910.391	0.28739
915.694	0.24686
920.997	0.206331
926.301	0.165802
931.604	0.125272
936.907	0.0847431
942.21	0.0442138
947.514	0.00368448
952.817	0
958.12	0
963.423	0
968.727	0
974.03	0
979.333	0
984.637	0
989.94	0
995.243	0
1000.55	0
1005.85	0
1011.15	0
1016.46	0
1021.76	0
1027.06	0
1032.37	0
1037.67	0
1042.97	0
1048.28	0
1053.58	0
1058.88	0
1064.19	0
1069.49	0
1074.79	0
1080.1	0
1085.4	0
1090.7	0
1096.01	0
1101.31	0
1106.61	0
1111.91	0
1117.22	0
1122.52	0
1127.83	0
1133.13	0
1138.43	0
1143.73	0
1149.04	0
1154.34	0
1159.64	0
1164.95	0
1170.25	0
1175.56	0
1180.86	0
1186.16	0
1191.46	0
1196.77	0
1202.07	0
1207.38	0
1212.68	0
1217.98	0
1223.28	0
1228.59	0
1233.89	0
1239.19	0
1244.5	0
1249.8	0
1255.1	0
1260.41	0
1265.71	0
1271.01	0
1276.32	0
1281.62	0
1286.92	0
1292.23	0
1297.53	0
1302.83	0
1308.14	0
1313.44	0
1318.74	0
1324.05	0
1329.35	0
1334.65	0
1339.96	0
1345.26	0
1350.56	0
1355.87	0
1361.17	0
1366.47	0
1371.78	0
1377.08	0
1382.38	0
1387.69	0
1392.99	0
1398.29	0
1403.6	0
1408.9	0
1414.2	0
1419.51	0
1424.81	0
1430.11	0
1435.42	0
1440.72	0
1446.02	0
1451.33	0
1456.63	0
1461.93	0
1467.23	0
1472.54	0
1477.84	0
1483.14	0
1488.45	0
1493.75	0
1499.06	0
1504.36	0
1509.66	0
1514.96	0
1520.27	0
1525.57	0
1530.88	0
1536.18	0
1541.48	0
1546.79	0
1552.09	0
1557.39	0
1562.69	0
1568	0
1573.3	0
1578.6	0
1583.91	0
1589.21	0
1594.51	0
1599.82	0
1605.12	0
1610.42	0
1615.73	0
1621.03	0
1626.33	0
1631.64	0
1636.94	0
1642.24	0
1647.55	0
1652.85	0
1658.15	0
1663.46	0
1668.76	0
1674.06	0
1679.37	0
1684.67	0
1689.97	0
1695.28	0
1700.58	0
1705.88	0
1711.19	0
1716.49	0
1721.79	0
1727.1	0
1732.4	0
1737.7	0
1743.01	0
1748.31	0
1753.61	0
1758.92	0
1764.22	0
1769.52	0
1774.83	0
1780.13	0
1785.43	0
1790.74	0
1796.04	0
1801.34	0
1806.65	0
1811.95	0
1817.25	0
1822.56	0
1827.86	0
1833.16	0
1838.46	0
1843.77	0
1849.07	0
1854.38	0
1859.68	0
1864.98	0
1870.29	0
1875.59	0
1880.89	0
1886.19	0
1891.5	0
1896.8	0
1902.11	0
1907.41	0
1912.71	0
1918.02	0
1923.32	0
1928.62	0
1933.92	0
1939.23	0
1944.53	0
1949.83	0
1955.14	0
1960.44	0
1965.74	0
1971.05	0
1976.35	0
1981.65	0
1986.96	0
1992.26	0
1997.56	0
2002.87	0
2008.17	0
