Measurement: Raman, 514 nm, depolarized, Raman Data Processed
Mineral: Monazite-(Ce)
Rruff sample: R040106
Ideal chemistry: CePO_4_
Locality: Angola
Source: University of Arizona Mineral Museum
Description: Brown massive fragment
Measured chemistry: (Ce_0.41_La_0.17_Nd_0.17_Th_0.14_Ca_0.06_Y_0.04_)(P_0.95_Si_0.05_)O_4_
Pin_id: M00299
Orientation: Laser parallel to c* (0 0 1). Fiducial mark perpendicular to laser is parallel to a [1 0 0]
Raman shift (cm-1)	intensity
90.446	0
94.639	142.952
98.831	619.989
103.02	807.183
107.207	833.96
111.393	715.483
115.576	742.494
119.757	602.143
123.936	542.258
128.112	475.249
132.287	476.915
136.46	436.411
140.63	485.115
144.799	464.879
148.965	460.124
153.13	428.775
157.292	186.047
161.452	162.166
165.611	50.166
169.767	17.157
173.921	1.551
178.073	31.017
182.222	3.578
186.37	24.322
190.516	56.942
194.66	23.881
198.801	7.829
202.941	37.808
207.079	26.247
211.214	61.108
215.348	177.303
219.479	294.821
223.608	401.732
227.736	515.162
231.861	474.477
235.984	522.02
240.105	609.557
244.224	696.132
248.342	863.715
252.457	1083.29
256.57	1376.49
260.681	1456.44
264.79	1456.33
268.896	1499.03
273.001	1432.16
277.104	1432.6
281.205	1514.14
285.304	1538.68
289.401	1464.42
293.495	1424.04
297.588	1296.18
301.679	1139.48
305.767	1087.73
309.854	900.391
313.939	808.334
318.021	692.877
322.102	529.021
326.181	422.038
330.257	285.058
334.332	203.537
338.405	247.338
342.475	260.899
346.544	209.123
350.61	364.75
354.675	458.002
358.738	696.894
362.798	845.382
366.857	1035.16
370.913	1252.21
374.968	1494.85
379.021	1813.84
383.071	2121.58
387.12	2551.63
391.166	2856.8
395.211	3263.86
399.254	3268.94
403.294	3316.52
407.333	3690.86
411.37	4248.01
415.405	5005.81
419.437	5464.58
423.468	4534.07
427.497	3155.32
431.524	2262.4
435.549	1671.28
439.572	1529.01
443.593	1754.65
447.611	1995.23
451.628	2500.71
455.644	3130.14
459.657	3987.52
463.668	4525.77
467.677	4515.02
471.684	4695.25
475.689	3406.4
479.692	2839.46
483.694	2171.42
487.693	1658.78
491.691	1272.01
495.686	922.727
499.68	598.398
503.671	451.027
507.661	313.611
511.648	237.133
515.634	1.341
519.618	113.689
523.6	69.736
527.58	100.328
531.558	70.911
535.534	42.161
539.508	113.097
543.48	50.645
547.45	54.785
551.418	30.471
555.385	0.718
559.349	33.522
563.312	134.888
567.272	96.805
571.231	232.796
575.187	384.397
579.142	446.955
583.095	501.404
587.046	610.974
590.995	702.425
594.942	901.732
598.888	1142.82
602.831	1265.33
606.772	1449.99
610.712	1980.75
614.649	2810.61
618.585	3778.9
622.519	3779.26
626.45	3242
630.38	2533.34
634.308	2023.44
638.235	1659.42
642.159	1476.8
646.081	1410.78
650.002	1421.7
653.92	1420.26
657.837	1271.98
661.752	1273.83
665.664	1274.82
669.575	1307.93
673.484	1382.04
677.392	1366.47
681.297	1344.22
685.2	1277.62
689.102	1171.02
693.002	1161.4
696.899	1099.14
700.795	908.951
704.689	769.475
708.581	662.334
712.472	578.08
716.36	393.145
720.247	263.263
724.131	96.429
728.014	38.364
731.895	9.704
735.774	2.886
739.651	62.652
743.526	79.793
747.4	45.479
751.271	3.618
755.141	25.771
759.009	48.286
762.875	36.833
766.739	55.334
770.601	36.515
774.462	67.829
778.32	24.391
782.177	69.418
786.032	25.762
789.885	28.247
793.736	76.113
797.585	31.593
801.433	30.297
805.279	113.033
809.122	130.452
812.964	298.961
816.804	295.568
820.643	384.274
824.479	431.087
828.314	468.01
832.147	593.108
835.977	674.535
839.807	758.262
843.634	732.298
847.459	890.614
851.283	936.075
855.105	1064.71
858.925	1065.54
862.743	1192.6
866.559	1245.88
870.373	1173.42
874.186	1202.76
877.997	1119.35
881.806	1116.36
885.613	867.308
889.419	709.667
893.222	607.34
897.024	383.979
900.824	424.45
904.622	259.598
908.418	201.242
912.213	89.089
916.005	111.785
919.796	138.47
923.585	362.331
927.373	505.189
931.158	829.386
934.942	1265.74
938.724	1906.33
942.504	2949.68
946.282	4177.68
950.059	5972.31
953.833	8412.97
957.606	11405.6
961.377	16108.7
965.147	22412.2
968.914	31296.1
972.68	39660.4
976.444	38055.1
980.206	28760.2
983.967	19125.7
987.725	12351.6
991.482	8587.92
995.237	6205.96
998.99	4495.31
1002.74	3276.75
1006.49	2415.89
1010.24	1971.73
1013.99	1689.22
1017.73	1734.57
1021.47	1576.7
1025.21	1460.54
1028.95	1422.31
1032.69	1369.62
1036.42	1512.23
1040.16	1649.06
1043.89	1916.26
1047.62	2124.82
1051.35	2664.12
1055.08	3138.31
1058.8	3928.92
1062.53	4410.45
1066.25	4615.98
1069.97	4625.47
1073.68	4132.43
1077.4	3719.68
1081.11	3119.59
1084.83	2519.08
1088.54	2050.19
1092.25	1762.36
1095.95	1402.74
1099.66	1167.06
1103.36	939.228
1107.07	667.563
1110.77	552.475
1114.47	523.239
1118.16	380.504
1121.86	328.883
1125.55	293.622
1129.24	203.04
1132.93	39.215
1136.62	63.205
1140.31	6.947
1143.99	10.491
1147.68	79.677
1151.36	31.492
1155.04	30.15
1158.71	18.055
1162.39	67.076
1166.07	47.784
1169.74	20.75
1173.41	27.327
1177.08	15.18
1180.75	44.785
1184.41	13.204
1188.08	33.113
1191.74	8.135
1195.4	52.167
1199.06	3.826
1202.71	1.233
1206.37	19.423
1210.02	13.855
1213.68	30.509
1217.33	18.665
1220.98	32.307
1224.62	32.535
1228.27	24.486
1231.91	42.525
1235.55	40.173
1239.19	132.219
1242.83	90.588
1246.47	93.275
1250.1	85.517
1253.74	121.773
1257.37	178.892
1261	175.571
1264.63	171.744
1268.25	262.082
1271.88	307.096
1275.5	252.213
1279.12	278.313
1282.74	215.817
1286.36	272.239
1289.98	299.91
1293.59	338.954
1297.21	392.806
1300.82	394.333
1304.43	429.748
1308.04	315.086
1311.64	293.47
1315.25	338.594
1318.85	312.988
1322.45	304.322
1326.05	360.206
1329.65	339.699
1333.24	373.537
1336.84	370.882
1340.43	330.207
1344.03	311.687
1347.61	259.179
1351.2	215.2
1354.79	217.272
1358.37	212.15
1361.96	212.229
1365.54	214.656
1369.12	213.405
1372.69	207.725
1376.27	139.582
1379.85	83.878
1383.42	109.486
1386.99	114.718
1390.56	66.748
1394.13	82.389
1397.7	92.724
1401.26	153.188
1404.82	104.159
1408.38	136.395
1411.94	57.22
1415.5	104.799
1419.06	91.958
1422.62	35.212
1426.17	42.113
1429.72	22.192
1433.27	49.245
1436.82	57.399
1440.37	59.249
1443.91	94.662
1447.45	87.599
1450.99	70.665
1454.54	46.755
1458.07	3.829
1461.61	42.777
1465.15	56.034
1468.68	37.011
1472.21	77.41
1475.74	52.349
1479.27	68.981
1482.8	58.543
1486.32	93.503
1489.85	60.471
1493.37	17.744
1496.89	20.89
1500.41	51.87
1503.93	43.352
1507.44	8.06
1510.96	27.307
1514.47	12.538
1517.98	20.119
1521.49	32.127
1525	0
