Measurement: Raman, 514 nm, depolarized, Raman Data Processed
Mineral: Monazite-(Ce)
Rruff sample: R040106
Ideal chemistry: CePO_4_
Locality: Angola
Source: University of Arizona Mineral Museum
Description: Brown massive fragment
Measured chemistry: (Ce_0.41_La_0.17_Nd_0.17_Th_0.14_Ca_0.06_Y_0.04_)(P_0.95_Si_0.05_)O_4_
Pin_id: M00371
Orientation: Laser parallel to (1 0 1). Fiducial mark perpendicular to laser is parallel to b [0 1 0]
Raman shift (cm-1)	intensity
87.649	0
91.844	316.68
96.037	772.671
100.227	1341.25
104.416	1613.14
108.603	1586.54
112.787	1762.49
116.97	1833.65
121.15	1684.5
125.328	1652.14
129.504	1440.97
133.678	1037.46
137.85	594.259
142.02	506.323
146.188	495.1
150.354	425.896
154.517	428.123
158.679	302.925
162.839	191.886
166.996	165.042
171.152	413.486
175.305	445.804
179.456	399.266
183.605	136.635
187.752	73.615
191.898	169.094
196.041	205.704
200.182	252.458
204.321	74.704
208.457	77.491
212.592	340.032
216.725	315.261
220.856	532.175
224.984	545.117
229.111	495.207
233.236	369.738
237.358	457.441
241.479	292.296
245.597	447.311
249.713	813.49
253.828	1006.24
257.94	1317.21
262.05	1668.4
266.159	1850.24
270.265	2002.18
274.369	2273.86
278.471	2535.26
282.572	2736.14
286.67	2626.21
290.766	2465.58
294.86	2194.39
298.952	1933.23
303.042	1502.15
307.13	1398.78
311.216	1452.46
315.3	1115.86
319.382	920.314
323.462	691.743
327.54	483.443
331.616	336.742
335.69	246.617
339.762	241.33
343.832	186.861
347.9	478.194
351.965	570.728
356.029	680.178
360.091	853.691
364.151	1115.26
368.209	1495.12
372.265	1782.17
376.319	2188.1
380.371	2704.78
384.421	2862.28
388.469	3260.6
392.515	3919.76
396.559	4429.79
400.601	4880.68
404.641	5282.41
408.679	6304.99
412.715	7828.4
416.749	9612.62
420.781	9487.59
424.811	7283.37
428.839	5100.08
432.866	3447.92
436.89	2746.79
440.912	2366.79
444.932	2487.91
448.951	2820.15
452.967	3389.91
456.981	3967.96
460.994	4733.52
465.004	5040.16
469.013	4847.82
473.019	4136.59
477.024	3396.28
481.026	2779.47
485.027	2008.38
489.026	1580.79
493.023	1064.09
497.017	688.209
501.01	533.111
505.001	448.792
508.99	205.239
512.977	92.5
516.962	40.9
520.945	39.333
524.927	56.216
528.906	169.967
532.883	56.967
536.858	200.56
540.832	384.835
544.803	169.783
548.773	355.392
552.741	651.65
556.706	858.546
560.67	1246.07
564.632	1544.2
568.592	2412.93
572.55	3072.25
576.506	2562.14
580.46	1857.75
584.412	1560.94
588.363	1684.81
592.311	1642.93
596.258	1475.58
600.202	1246.55
604.145	1483.96
608.086	1790.7
612.024	2443.79
615.961	3154.07
619.896	3592.23
623.829	3774.73
627.761	3091.13
631.69	2465.49
635.617	1955.45
639.543	1895.98
643.466	1815.86
647.388	1832.49
651.308	1749.04
655.226	1725.74
659.142	1762.58
663.056	1659.54
666.968	2006.62
670.879	2053.8
674.787	1850.97
678.694	2097.84
682.598	2173.73
686.501	2193
690.402	2027.9
694.301	2005.35
698.198	1972.85
702.093	1860.35
705.987	1697.84
709.878	1287.31
713.768	1149.77
717.656	870.186
721.542	603.565
725.426	447.898
729.308	298.176
733.188	89.391
737.067	13.455
740.943	80.85
744.818	75.916
748.691	55.894
752.562	122.676
756.431	139.377
760.298	36.039
764.163	90.481
768.027	47.799
771.888	35.919
775.748	94.771
779.606	92.286
783.462	89.394
787.317	127.971
791.169	44.164
795.019	24.142
798.868	229.92
802.715	260.606
806.56	191.229
810.403	336.802
814.245	326.329
818.084	572.814
821.922	505.262
825.758	621.676
829.592	736.062
833.424	766.431
837.254	843.8
841.082	918.247
844.909	1098.74
848.734	1115.24
852.557	1190.74
856.378	1315.24
860.197	1292.76
864.015	1447.99
867.831	1451.83
871.645	1496.41
875.457	1444.01
879.267	1239.65
883.075	1076.34
886.882	1002.07
890.687	834.626
894.49	891.853
898.291	711.631
902.09	488.82
905.888	488.104
909.683	291.766
913.477	379.82
917.269	459.041
921.06	504.459
924.848	526.734
928.635	896.863
932.42	1335.08
936.203	2253.27
939.984	3204.13
943.764	4501.11
947.541	6328.5
951.317	9159.09
955.091	12662.2
958.864	17786
962.634	24870.2
966.403	34114.8
970.17	45699.8
973.935	53145.1
977.698	47820.9
981.46	35067
985.22	23413.4
988.978	15940.2
992.734	11177.3
996.488	8034.8
1000.24	6102.6
1003.99	5000.73
1007.74	4189.19
1011.49	3607.98
1015.23	3257.11
1018.98	2728.55
1022.72	2538.3
1026.46	2493.37
1030.2	2548.74
1033.93	2605.41
1037.67	2683.38
1041.4	2694.21
1045.13	3063.52
1048.86	3473.01
1052.59	4434.65
1056.32	5424.53
1060.04	6332.54
1063.77	7095.46
1067.49	6739.82
1071.2	6375.29
1074.92	5524.57
1078.64	4650.88
1082.35	4191.19
1086.06	3615.2
1089.78	2951.01
1093.48	2336.02
1097.19	1882.36
1100.89	1470.2
1104.6	1320.24
1108.3	1229.78
1112	1080.87
1115.7	864.199
1119.39	711.554
1123.09	679.254
1126.78	603.342
1130.47	474.395
1134.16	449.23
1137.85	416.959
1141.54	423.053
1145.22	362.323
1148.9	319.478
1152.58	264.578
1156.26	195.146
1159.94	298.577
1163.62	320.284
1167.29	346.18
1170.96	297.417
1174.63	165.206
1178.3	84.323
1181.97	95.146
1185.63	9.489
1189.3	49.824
1192.96	13.914
1196.62	55.93
1200.28	17.7
1203.93	24.994
1207.59	40.264
1211.24	79.482
1214.89	82.741
1218.54	68.443
1222.19	50.412
1225.84	61.062
1229.48	1.431
1233.13	40.933
1236.77	34.585
1240.41	91.367
1244.05	102.985
1247.68	10.579
1251.32	20.615
1254.95	101.936
1258.58	184.767
1262.21	203.591
1265.84	166.382
1269.46	129.382
1273.09	144.612
1276.71	135.271
1280.33	182.368
1283.95	235.47
1287.57	358.139
1291.18	300.759
1294.8	320.61
1298.41	298.086
1302.02	202.642
1305.63	228.824
1309.24	284.397
1312.84	283.17
1316.45	284.478
1320.05	358.805
1323.65	428.477
1327.25	406.809
1330.85	314.851
1334.44	343.422
1338.04	340.128
1341.63	308.717
1345.22	303.899
1348.81	351.559
1352.4	325.466
1355.98	431.001
1359.57	361.391
1363.15	330.685
1366.73	259.452
1370.31	168.152
1373.89	192.143
1377.46	93.053
1381.04	143.504
1384.61	238.491
1388.18	170.002
1391.75	173.565
1395.32	215.348
1398.88	239.67
1402.45	195.544
1406.01	55.861
1409.57	99.167
1413.13	98.132
1416.69	107.497
1420.24	105.056
1423.8	171.681
1427.35	163.932
1430.9	214.223
1434.45	242.795
1438	211.771
1441.55	148.512
1445.09	83.899
1448.63	66.023
1452.18	71.844
1455.71	55.65
1459.25	85.842
1462.79	111.101
1466.32	177.576
1469.86	155.814
1473.39	191.094
1476.92	148.86
1480.45	215.411
1483.97	106.228
1487.5	112.427
1491.02	31.438
1494.54	34.293
1498.06	10.22
1501.58	12.823
1505.1	119.671
1508.62	168.417
1512.13	185.893
1515.64	163.736
1519.15	159.412
1522.66	0
