Measurement: Raman, 514 nm, depolarized, Raman Data Processed
Mineral: Monazite-(Ce)
Rruff sample: R040106
Ideal chemistry: CePO_4_
Locality: Angola
Source: University of Arizona Mineral Museum
Description: Brown massive fragment
Measured chemistry: (Ce_0.41_La_0.17_Nd_0.17_Th_0.14_Ca_0.06_Y_0.04_)(P_0.95_Si_0.05_)O_4_
Pin_id: L00169
Orientation: Laser parallel to b* (0 1 0). Fiducial mark perpendicular to laser is parallel to c [0 0 1]
Raman shift (cm-1)	intensity
91.284	0
95.465	31.82
99.644	91.357
103.82	241.712
107.995	524.397
112.168	960.191
116.339	1182.01
120.508	1007.28
124.675	850.191
128.84	735.199
133.003	705.582
137.164	544.394
141.323	487.937
145.48	438.178
149.635	587.236
153.788	887.501
157.939	1077.36
162.088	1211.53
166.235	1356.72
170.38	1565.29
174.523	1619.99
178.664	1432.93
182.803	1000.88
186.94	543.931
191.076	283.476
195.209	106.886
199.34	60.231
203.47	27.439
207.597	37.102
211.722	7.173
215.846	108.915
219.967	261.19
224.087	176.604
228.204	131.543
232.32	152.589
236.434	16.559
240.545	17.007
244.655	75.413
248.763	147.956
252.869	128.58
256.973	243.07
261.075	371.121
265.175	528.434
269.273	770.958
273.369	945.291
277.463	1123.18
281.556	1346.46
285.646	1380.01
289.734	1327.72
293.821	1138.52
297.905	952.367
301.988	889.213
306.069	806.037
310.147	617.81
314.224	485.405
318.299	371.806
322.372	210.087
326.443	93.215
330.512	55.159
334.579	77.158
338.645	218.784
342.708	139.835
346.769	163.286
350.829	19.917
354.887	264.922
358.942	432.77
362.996	711.685
367.048	958.185
371.098	1269.88
375.146	1526.1
379.192	1891.85
383.236	2250.79
387.279	2680.28
391.319	2970.62
395.358	3441.78
399.394	3763.48
403.429	4635.19
407.462	5787.42
411.493	7441.85
415.522	8557.07
419.549	8813.13
423.575	7210.3
427.598	5188.69
431.619	4418.31
435.639	4359.26
439.657	4791.57
443.673	5685.12
447.687	7130.01
451.699	8836.31
455.709	10923.9
459.717	12922.7
463.724	14022.7
467.728	13353.7
471.731	11515.7
475.732	8988.69
479.731	6822.49
483.728	4977.07
487.723	3772.41
491.716	3008.49
495.708	2228.23
499.697	1548.14
503.685	1221.21
507.671	888.156
511.655	429.934
515.637	219.193
519.617	113.24
523.596	118.497
527.572	69.372
531.547	420.47
535.52	1058.23
539.491	1000.63
543.46	667.648
547.427	526.282
551.393	354.521
555.356	490.35
559.318	595.764
563.278	841.749
567.236	1528.31
571.192	2125.42
575.147	1728.06
579.099	1207.37
583.05	938.256
586.999	765.524
590.946	781.647
594.891	886.823
598.834	893.178
602.776	887.109
606.715	1158.58
610.653	1583.64
614.589	2172.2
618.523	2760.38
622.456	2781.05
626.386	2491.63
630.315	2061.54
634.242	1758.55
638.167	1675.57
642.09	1476.47
646.012	1454.11
649.931	1321.8
653.849	1423.61
657.765	1367.66
661.679	1430.99
665.592	1395.58
669.502	1391.32
673.411	1518.94
677.318	1693.81
681.223	1789.52
685.126	1760.2
689.028	1884.83
692.927	1851.4
696.825	1826.9
700.721	1677.33
704.616	1624.67
708.508	1383.92
712.399	1167.07
716.288	803.104
720.175	762.021
724.06	425.809
727.944	267.462
731.825	25.972
735.705	108.753
739.584	80.057
743.46	100.088
747.334	127.956
751.207	102.934
755.078	80.703
758.947	178.9
762.815	191.079
766.68	150.569
770.544	79.124
774.406	117.458
778.267	9.63
782.125	20.486
785.982	40.064
789.837	43.264
793.69	106.198
797.542	192.961
801.391	283.586
805.239	375.081
809.085	494.449
812.93	615.695
816.772	741.819
820.613	830.824
824.452	870.712
828.29	955.196
832.125	1025.16
835.959	1065.72
839.791	1212.2
843.621	1293.58
847.45	1319.88
851.277	1482.1
855.102	1401.25
858.925	1589.34
862.746	1427.36
866.566	1438.34
870.384	1398.27
874.2	1289.16
878.015	1132.01
881.828	1023.85
885.639	939.382
889.448	833.109
893.256	670.339
897.061	521.785
900.865	431.457
904.668	333.765
908.468	415.392
912.267	338.041
916.064	254.853
919.86	290.864
923.653	455.792
927.445	684.339
931.236	1044.57
935.024	1575.55
938.811	2387.16
942.596	3299.54
946.379	4593.39
950.161	6501.92
953.94	8963.29
957.719	11918.9
961.495	16504.9
965.27	22361.3
969.043	30138.1
972.814	37245.2
976.583	35782.7
980.351	26590.5
984.117	18498.6
987.882	12707.2
991.644	9576.02
995.405	7415.23
999.165	6064.79
1002.92	5174.69
1006.68	4284.93
1010.43	3885.53
1014.18	3562.45
1017.93	3375.72
1021.68	3174.31
1025.43	3219.25
1029.18	3180.53
1032.92	3138.14
1036.66	3175.09
1040.4	3681.46
1044.14	3958.54
1047.88	4672.45
1051.62	5549.82
1055.35	6667.74
1059.08	7717.85
1062.81	8337.53
1066.54	7900.59
1070.27	7241.94
1073.99	5976.07
1077.72	4957.26
1081.44	3899.95
1085.16	3114.16
1088.88	2482.72
1092.59	2024.18
1096.31	1689.76
1100.02	1442.06
1103.73	1154.97
1107.44	1035.17
1111.15	845.797
1114.86	735.275
1118.57	752.347
1122.27	646.73
1125.97	626.449
1129.67	511.601
1133.37	482.863
1137.07	434.357
1140.76	387.137
1144.45	324.936
1148.15	328.726
1151.84	359.514
1155.53	375.078
1159.21	355.551
1162.9	337.598
1166.58	215.48
1170.26	296.97
1173.94	152.369
1177.62	79.202
1181.3	89.934
1184.97	72.484
1188.65	43.931
1192.32	28.409
1195.99	49.543
1199.66	94.771
1203.33	101.976
1206.99	81.309
1210.65	51.519
1214.32	94.331
1217.98	12.105
1221.64	88.348
1225.29	95.091
1228.95	92.526
1232.6	78.994
1236.26	102.6
1239.91	23.831
1243.56	6.062
1247.2	35.148
1250.85	31.52
1254.49	27.642
1258.13	40.99
1261.78	96.814
1265.41	118.052
1269.05	100.9
1272.69	148.812
1276.32	168.449
1279.95	185.707
1283.59	122.092
1287.21	106.01
1290.84	186.035
1294.47	215.126
1298.09	199.065
1301.72	204.728
1305.34	237.461
1308.96	260.343
1312.58	232.788
1316.19	198.94
1319.81	219.561
1323.42	186.67
1327.03	256.145
1330.64	224.019
1334.25	227.279
1337.86	231.423
1341.46	250.26
1345.07	266.573
1348.67	234.034
1352.27	245.405
1355.87	190.883
1359.46	225.66
1363.06	177.331
1366.65	188.333
1370.25	144.579
1373.84	169.035
1377.43	193.358
1381.02	155.913
1384.6	136.964
1388.18	161.297
1391.77	119.872
1395.35	80.024
1398.93	84.712
1402.51	102.051
1406.08	153.502
1409.66	107.465
1413.23	151.268
1416.8	118.849
1420.37	112.931
1423.94	105.293
1427.51	117.873
1431.08	148.329
1434.64	92.646
1438.2	59.258
1441.76	44.636
1445.32	144.365
1448.88	146.848
1452.43	105.219
1455.99	186.307
1459.54	96.439
1463.09	141.077
1466.64	78.755
1470.19	59.237
1473.74	94.343
1477.28	6.026
1480.83	55.444
1484.37	55.828
1487.91	68.509
1491.45	88.477
1494.98	59.04
1498.52	73.185
1502.05	89.248
1505.59	43.177
1509.12	26.365
1512.65	0.157
1516.17	31.834
1519.7	0.674
1523.23	0
