Measurement: Raman, 514 nm, depolarized, Raman Data Processed
Mineral: Monazite-(Ce)
Rruff sample: R040106
Ideal chemistry: CePO_4_
Locality: Angola
Source: University of Arizona Mineral Museum
Description: Brown massive fragment
Measured chemistry: (Ce_0.41_La_0.17_Nd_0.17_Th_0.14_Ca_0.06_Y_0.04_)(P_0.95_Si_0.05_)O_4_
Pin_id: M00462
Orientation: Laser parallel to -a* (-1 0 0). Fiducial mark perpendicular to laser is parallel to b [0 1 0]
Raman shift (cm-1)	intensity
54.966	0
59.164	519.795
63.36	469.2
67.554	5.363
71.747	197.716
75.937	823.4
80.125	1537.88
84.311	2247.16
88.496	2658.36
92.678	3065.44
96.858	3294.38
101.036	3239.15
105.212	2970.36
109.387	2777.81
113.559	2624.11
117.729	2808.49
121.897	2775.27
126.063	2692.53
130.228	2430.87
134.39	1987
138.55	1339.37
142.709	891.641
146.865	638.536
151.019	386.315
155.171	281.236
159.322	92.398
163.47	81.871
167.617	58.703
171.761	5.086
175.904	4.505
180.044	145.49
184.183	8.956
188.319	11.133
192.454	97.265
196.586	385.317
200.717	558.152
204.846	930.967
208.972	1469.05
213.097	1720.95
217.22	2037.53
221.341	2349.93
225.46	2535.68
229.577	2556.6
233.692	2317.01
237.805	2129.89
241.916	1985.27
246.025	1821.23
250.132	1735.69
254.237	1999.53
258.34	2107.66
262.442	2093.06
266.541	2312.7
270.639	2383.57
274.734	2427.66
278.828	2478.91
282.919	2354.03
287.009	2060.95
291.097	2090.09
295.183	1905.43
299.266	1720.96
303.348	1517.66
307.428	1331.53
311.507	1071.58
315.583	790.822
319.657	624.256
323.729	469.881
327.8	239.698
331.868	105.702
335.935	106.841
339.999	34.984
344.062	97.251
348.123	3.775
352.182	81.085
356.239	193.77
360.294	376.133
364.347	718.408
368.398	853.468
372.448	1113.43
376.495	1298.41
380.54	1760.52
384.584	2049.75
388.626	2108.24
392.666	2733.03
396.704	2978.46
400.74	3076.59
404.774	3691.29
408.806	4467.25
412.836	5665.45
416.865	6009.12
420.891	5656.58
424.916	4352.65
428.939	3490.07
432.959	3029
436.978	3292.43
440.996	4194.38
445.011	5088.88
449.024	6522.89
453.036	8291.41
457.045	10152.4
461.053	11775.9
465.059	12210.8
469.063	11281.1
473.065	9231.86
477.065	7284.91
481.063	5467.15
485.06	4166.61
489.054	2860.22
493.047	2082.94
497.038	1572.12
501.027	1108.49
505.014	807.812
508.999	392.013
512.982	168.523
516.964	104.631
520.944	19.651
524.921	58.552
528.897	6.983
532.871	291.166
536.844	726.717
540.814	755.846
544.783	516.807
548.749	474.289
552.714	436.145
556.677	659.481
560.638	594.572
564.597	686.394
568.555	738.929
572.511	888.196
576.464	1086.26
580.416	1033.17
584.366	1388.71
588.315	1751.2
592.261	1911.65
596.206	1524.51
600.148	1364.51
604.089	1477.61
608.028	1919.36
611.965	2609.39
615.901	3444.36
619.834	4111.59
623.766	3637.8
627.696	3194.13
631.624	2257.01
635.551	1949.62
639.475	1683.31
643.398	1583.18
647.318	1507.09
651.237	1594.6
655.155	1554.09
659.07	1329.66
662.984	1475.05
666.895	1563.56
670.805	1631.09
674.713	1536.63
678.62	1710.6
682.524	1597.66
686.427	1732.64
690.328	1543.99
694.227	1640.25
698.124	1428.42
702.02	1298.47
705.913	1094.39
709.805	999.169
713.695	795.792
717.584	705.244
721.47	581.514
725.355	313.586
729.238	268.447
733.119	161.058
736.998	26.682
740.876	20.043
744.752	119.003
748.626	84.922
752.498	62.763
756.368	40.582
760.237	18.424
764.104	85.217
767.969	173.054
771.832	14.917
775.693	12.318
779.553	148.348
783.411	51.98
787.267	67.52
791.122	68.332
794.974	9.434
798.825	52.166
802.674	74.297
806.522	134.901
810.367	184.956
814.211	150.653
818.053	248.026
821.893	390.088
825.732	488.851
829.568	366.318
833.403	574.506
837.236	480.508
841.068	653.254
844.898	614.726
848.726	673.92
852.552	780.841
856.376	805.49
860.199	925.874
864.02	1172
867.839	1078.86
871.656	1187.47
875.472	1016.84
879.286	1051.96
883.098	997.812
886.909	838.306
890.717	787.798
894.524	745.556
898.33	629.951
902.133	635.659
905.935	608.752
909.735	608.271
913.533	539.214
917.33	664.823
921.124	672.444
924.918	909.973
928.709	1059.18
932.499	1508.9
936.286	2106.96
940.073	3035.63
943.857	4140.47
947.64	5795.69
951.421	7957.25
955.2	10865.2
958.978	15141.3
962.753	21062.2
966.527	29034.6
970.3	38259.1
974.071	43073.3
977.84	38330.8
981.607	27754.3
985.372	19297.1
989.136	13266.9
992.898	9635.94
996.659	7258.08
1000.42	5712.36
1004.17	4385.78
1007.93	3712.35
1011.68	3178.07
1015.43	2979.94
1019.18	2675.96
1022.93	2535.14
1026.68	2498.46
1030.42	2333.93
1034.17	2247.67
1037.91	2215.49
1041.65	2268.23
1045.39	2375.25
1049.12	2531.16
1052.86	2903.1
1056.59	3465.26
1060.33	3818.6
1064.06	4105.71
1067.78	3835.63
1071.51	3415.08
1075.23	2972.17
1078.96	2491.97
1082.68	2076.43
1086.4	1773.97
1090.12	1524.98
1093.83	1205.68
1097.55	1187.4
1101.26	865.364
1104.97	880.28
1108.68	694.66
1112.39	753.799
1116.1	660.249
1119.8	592.306
1123.5	715.937
1127.2	461.051
1130.9	462.227
1134.6	429.639
1138.3	366.072
1141.99	393.135
1145.69	333.204
1149.38	352.507
1153.07	253.076
1156.76	218.818
1160.44	340.513
1164.13	240.405
1167.81	309.66
1171.49	232.28
1175.17	145.518
1178.85	152.444
1182.52	102.456
1186.2	97.176
1189.87	28.718
1193.54	8.097
1197.21	36.091
1200.88	124.357
1204.55	1.045
1208.21	93.724
1211.88	109.522
1215.54	75.529
1219.2	51.417
1222.86	75.504
1226.51	49.661
1230.17	18.815
1233.82	43.593
1237.47	24.23
1241.12	63.726
1244.77	49.08
1248.42	6.701
1252.06	69.035
1255.71	18.425
1259.35	27.578
1262.99	69
1266.63	110.11
1270.26	54.839
1273.9	38.673
1277.53	48.019
1281.16	96.257
1284.8	150.253
1288.42	142.564
1292.05	126.171
1295.68	144.107
1299.3	65.475
1302.92	237.249
1306.55	113.45
1310.16	170.108
1313.78	93.127
1317.4	184.562
1321.01	168.597
1324.62	152.942
1328.24	281.588
1331.85	158.762
1335.45	97.675
1339.06	154.885
1342.66	245.02
1346.27	220.746
1349.87	260.97
1353.47	220.681
1357.07	160.527
1360.66	202.663
1364.26	143.186
1367.85	57.48
1371.44	128.167
1375.04	114.247
1378.62	90.531
1382.21	123.757
1385.8	67.485
1389.38	102.17
1392.96	81.039
1396.54	129.976
1400.12	55.363
1403.7	128.319
1407.28	85.02
1410.85	66.313
1414.42	71.78
1417.99	184.087
1421.56	131.077
1425.13	48.409
1428.7	154.013
1432.26	87.137
1435.83	113.315
1439.39	145.151
1442.95	158.876
1446.51	166.995
1450.06	112.992
1453.62	138.779
1457.17	149.017
1460.73	135.95
1464.28	89.734
1467.83	152.244
1471.37	97.504
1474.92	26.058
1478.46	106.239
1482.01	35.668
1485.55	171.424
1489.09	8.148
1492.63	6.462
1496.16	114.156
1499.7	45.933
1503.23	15.312
1506.76	36.668
1510.29	20.403
1513.82	376.875
1517.35	0.267
1520.88	20.258
1524.4	0
