Measurement: Raman, 514 nm, depolarized, Raman Data Processed
Mineral: Montebrasite
Rruff sample: R040062
Ideal chemistry: LiAlPO_4_(OH)
Locality: Hebron, Maine, USA
Source: University of Arizona Mineral Museum
Description: White massive
Measured chemistry: LiAl(PO_4_)((OH)_0.62_F_0.38_)
Pin_id: L00090
Orientation: Laser parallel to -b* (0 -1 0). Fiducial mark perpendicular to laser is parallel to c [0 0 1]
Raman shift (cm-1)	intensity
125.892	0
130.075	685.052
134.256	834.967
138.435	399.284
142.611	82.667
146.786	24.276
150.958	94.203
155.128	278.177
159.296	421.293
163.462	830.124
167.625	987.203
171.786	653.203
175.946	592.113
180.103	353.824
184.258	225.797
188.41	273.701
192.561	16.301
196.709	155.957
200.856	146.369
205	47.445
209.142	119.086
213.281	81.064
217.419	253.451
221.554	186.271
225.688	69.498
229.819	36.904
233.948	237.023
238.075	28.771
242.2	34.361
246.322	90.25
250.443	84.6
254.561	40.84
258.677	46.836
262.791	280.713
266.903	610.146
271.013	1097.07
275.121	1364.1
279.226	1151.21
283.33	1038.39
287.431	1035.63
291.53	2131.58
295.627	4516.9
299.722	6583.53
303.815	5060.78
307.906	3498.64
311.995	2405.93
316.081	1584
320.166	1162.16
324.248	720.297
328.328	898.395
332.406	536.5
336.482	364.627
340.556	452.664
344.628	320.607
348.697	218.223
352.765	295.359
356.83	392.045
360.894	169.838
364.955	260.93
369.014	384.502
373.071	303.855
377.126	343.295
381.179	295.883
385.23	394.723
389.279	420.936
393.325	227.223
397.37	272.945
401.413	286.635
405.453	245.471
409.491	321.461
413.528	181.365
417.562	271.484
421.594	878.896
425.624	1588.05
429.652	926.516
433.678	494.947
437.702	270.363
441.724	381.648
445.743	269.922
449.761	398.139
453.777	216.295
457.79	184.416
461.802	322.488
465.811	540.482
469.819	588.381
473.824	786.191
477.827	1213.9
481.829	1541.49
485.828	1368.96
489.825	1316.31
493.82	1213.54
497.813	1020.64
501.804	687.605
505.793	674.438
509.78	561.137
513.765	277.699
517.748	395.617
521.729	212.52
525.708	71.182
529.685	4.592
533.659	21.246
537.632	277.707
541.603	46.002
545.571	110.619
549.538	436.578
553.503	145.568
557.465	160.686
561.426	39.156
565.385	63.49
569.341	330.865
573.296	260.764
577.248	437.145
581.199	102.154
585.147	494.678
589.094	499.127
593.038	491.797
596.981	1494.57
600.922	2386.29
604.86	1949.21
608.797	1141.62
612.731	872.797
616.664	725.078
620.594	1025.76
624.523	1105.95
628.449	1956.35
632.374	2235.72
636.296	1984.82
640.217	3223.64
644.135	6502.18
648.052	5530.44
651.967	2448.42
655.879	1306.12
659.79	653.529
663.698	660.656
667.605	567.498
671.51	234.053
675.413	161.631
679.313	265.893
683.212	394.49
687.109	289.707
691.004	214.047
694.897	175.854
698.788	231.986
702.677	100.033
706.564	168.562
710.449	350.748
714.332	25.74
718.213	89.518
722.092	406.221
725.969	256.945
729.844	217.439
733.718	133.732
737.589	104.832
741.458	64.719
745.326	233.969
749.191	212.926
753.055	421.609
756.916	20.203
760.776	48.32
764.634	366.164
768.489	434.715
772.343	362.027
776.195	199.078
780.045	305.945
783.893	562.52
787.739	368.922
791.583	665.043
795.425	581.031
799.266	816.719
803.104	812.234
806.94	1157.52
810.775	1122.61
814.608	1067.5
818.438	822.199
822.267	256.738
826.094	480.77
829.919	533.148
833.742	386.973
837.563	120.816
841.382	234.477
845.199	46.648
849.014	288.742
852.828	480.836
856.639	271.246
860.449	342.949
864.257	91.426
868.062	137.172
871.866	559.602
875.668	199.027
879.468	99.766
883.267	235.562
887.063	182.77
890.857	324.438
894.65	315.266
898.44	415.902
902.229	577.117
906.016	28.297
909.801	278.211
913.584	449.234
917.365	200.789
921.144	422.125
924.922	562.086
928.697	33.117
932.471	224.902
936.242	25.957
940.012	327.781
943.78	449.637
947.546	501.523
951.311	23.473
955.073	255.477
958.834	337.516
962.592	859.566
966.349	341.652
970.104	13.801
973.857	225.988
977.608	568.25
981.357	620.594
985.105	1392.79
988.85	1442.07
992.594	1933.68
996.336	2205.36
1000.08	3440.86
1003.81	5832.4
1007.55	7774.89
1011.28	8341.15
1015.02	6874.05
1018.75	4690.22
1022.48	3063.2
1026.2	2218.82
1029.93	2098.45
1033.65	2803.24
1037.37	3138.45
1041.09	4404.02
1044.81	4790.46
1048.53	5216.62
1052.24	5763.05
1055.95	7579.84
1059.66	9647.32
1063.37	7613.94
1067.08	3840.54
1070.79	2445.36
1074.49	1391.32
1078.19	1087.31
1081.89	993.406
1085.59	929.98
1089.28	747.426
1092.98	722.125
1096.67	800.273
1100.36	700.586
1104.05	1456.66
1107.73	1861.21
1111.42	2098.07
1115.1	2085.16
1118.78	2082.54
1122.46	1380.29
1126.14	718.41
1129.82	1017.43
1133.49	717.246
1137.16	1027.29
1140.83	687.68
1144.5	348.207
1148.17	538.777
1151.83	430.348
1155.5	151.887
1159.16	196.27
1162.82	276.27
1166.47	239.469
1170.13	823.211
1173.79	497.488
1177.44	472.277
1181.09	317.77
1184.74	594.18
1188.38	651.531
1192.03	1029.88
1195.67	929.199
1199.31	1169
1202.95	1310.57
1206.59	697.777
1210.23	216.652
1213.86	332.691
1217.5	222.848
1221.13	641.066
1224.76	423.16
1228.38	657.762
1232.01	1044.38
1235.63	407.547
1239.26	352.508
1242.88	22.145
1246.49	318.625
1250.11	0.035
