Measurement: Raman, 514 nm, depolarized, Raman Data Processed
Mineral: Monticellite
Rruff sample: R040115
Ideal chemistry: CaMgSiO_4_
Locality: Magnet Cove, Arkansas, USA
Source: University of Arizona Mineral Museum
Description: Brown blebs in matrix
Measured chemistry: Ca_0.99_(Mg_0.85_ Fe_0.12_Mn_0.03_)Si_1.00_O_4_
Pin_id: M00492
Orientation: Laser parallel to b* (0 1 0). Fiducial mark perpendicular to laser is parallel to -c [0 0 -1]
Raman shift (cm-1)	intensity
96.858	0
101.036	36.559
105.212	106.778
109.387	205.547
113.559	126.067
117.729	260.354
121.897	88.963
126.063	126.953
130.228	69.064
134.39	149.318
138.55	399.071
142.709	199.327
146.865	9.281
151.019	24.967
155.171	38.942
159.322	109.606
163.47	379.236
167.617	965.267
171.761	973.136
175.904	201.454
180.044	0.723
184.183	20.194
188.319	29.821
192.454	10.567
196.586	90.83
200.717	166.927
204.846	151.947
208.972	168.058
213.097	50.406
217.22	25.016
221.341	20.516
225.46	53.222
229.577	128.6
233.692	229.961
237.805	352.265
241.916	559.924
246.025	855.728
250.132	1976.37
254.237	5319.86
258.34	4982.17
262.442	1711.18
266.541	751.618
270.639	613.402
274.734	579.438
278.828	313.377
282.919	151.911
287.009	81.918
291.097	198.002
295.183	195.196
299.266	597.849
303.348	1426.46
307.428	1045.46
311.507	302.964
315.583	88.54
319.657	46.87
323.729	53.364
327.8	60.368
331.868	59.023
335.935	24.216
339.999	23.045
344.062	20.319
348.123	5.537
352.182	2.317
356.239	17.261
360.294	17.848
364.347	25.16
368.398	51.37
372.448	2.744
376.495	57.851
380.54	113.724
384.584	216.006
388.626	369.246
392.666	695.463
396.704	1210.38
400.74	1548.05
404.774	2047.58
408.806	2620.02
412.836	2002.35
416.865	1015.55
420.891	486.624
424.916	254.575
428.939	215.38
432.959	78.03
436.978	146.513
440.996	82.834
445.011	73.979
449.024	87.87
453.036	96.598
457.045	12.47
461.053	38.961
465.059	31.584
469.063	77.796
473.065	47.258
477.065	6.061
481.063	46.344
485.06	47.401
489.054	53.923
493.047	49.127
497.038	84.604
501.027	102.822
505.014	126.572
508.999	119.821
512.982	218.359
516.964	306.233
520.944	443.261
524.921	931.315
528.897	2326.6
532.871	2907.1
536.844	1406.78
540.814	659.282
544.783	474.122
548.749	381.895
552.714	326.538
556.677	367.522
560.638	370.911
564.597	563.689
568.555	730.831
572.511	959.852
576.464	1233.75
580.416	1599.53
584.366	1922.2
588.315	1863.75
592.261	1296.94
596.206	729.239
600.148	371.048
604.089	251.23
608.028	164.818
611.965	126.017
615.901	42.058
619.834	80.616
623.766	56.485
627.696	94.045
631.624	21.291
635.551	30.018
639.475	49.351
643.398	43.124
647.318	61.229
651.237	5.62
655.155	8.56
659.07	3.24
662.984	38.493
666.895	0.97
670.805	23.5
674.713	25.118
678.62	26.206
682.524	30.563
686.427	92.823
690.328	21.065
694.227	30.307
698.124	45.541
702.02	40.765
705.913	35.978
709.805	68.184
713.695	2.359
717.584	62.519
721.47	159.65
725.355	82.726
729.238	150.811
733.119	139.909
736.998	156.022
740.876	179.155
744.752	97.31
748.626	129.656
752.498	186.71
756.368	154.967
760.237	260.269
764.104	282.618
767.969	276.021
771.832	472.139
775.693	436.684
779.553	563.307
783.411	680.39
787.267	789.417
791.122	969.637
794.974	1239.59
798.825	1627.28
802.674	2652.52
806.522	4326.02
810.367	8712.5
814.211	19262.5
818.053	27473.9
821.893	17815.5
825.732	9549.55
829.568	5944.56
833.403	5172.22
837.236	5482.96
841.068	9044.54
844.898	20659.9
848.726	42137.5
852.552	33443.2
856.376	14219
860.199	6829.95
864.02	3966.99
867.839	2459.66
871.656	1776.9
875.472	1477.78
879.286	1259.28
883.098	924.909
886.909	658.665
890.717	551.5
894.524	646.529
898.33	843.638
902.133	620.075
905.935	392.748
909.735	327.209
913.533	295.789
917.33	299.505
921.124	291.993
924.918	299.936
928.709	321.326
932.499	515.552
936.286	761.902
940.073	1994.46
943.857	5716.73
947.64	10159.6
951.421	4665.66
955.2	1749.67
958.978	815.852
962.753	427.436
966.527	304.522
970.3	178.169
974.071	118.059
977.84	152.086
981.607	90.244
985.372	166.074
989.136	35.416
992.898	6.391
996.659	36.984
1000.42	202.66
1004.17	108.409
1007.93	125.245
1011.68	112.445
1015.43	48.43
1019.18	138.509
1022.93	113.652
1026.68	137.281
1030.42	65.587
1034.17	42.477
1037.91	105.89
1041.65	115.351
1045.39	92.858
1049.12	17.411
1052.86	52.005
1056.59	33.634
1060.33	9.324
1064.06	8.079
1067.78	17.193
1071.51	23.543
1075.23	28.694
1078.96	41.613
1082.68	22.658
1086.4	5.49
1090.12	60.328
1093.83	20.72
1097.55	81.292
1101.26	64.366
1104.97	40.197
1108.68	34.179
1112.39	90.422
1116.1	98.062
1119.8	97.448
1123.5	68.752
1127.2	97.131
1130.9	12.334
1134.6	37.322
1138.3	133.394
1141.99	54.669
1145.69	24.065
1149.38	86.943
1153.07	180.785
1156.76	15.517
1160.44	129.267
1164.13	92.996
1167.81	140.657
1171.49	90.271
1175.17	145.823
1178.85	161.297
1182.52	54.692
1186.2	178.02
1189.87	175.293
1193.54	80.51
1197.21	92.017
1200.88	191.909
1204.55	160.997
1208.21	150.983
1211.88	148.909
1215.54	179.081
1219.2	116.893
1222.86	114.336
1226.51	154.977
1230.17	58.52
1233.82	57.671
1237.47	37.355
1241.12	31.129
1244.77	50.216
1248.42	94.184
1252.06	81.231
1255.71	138.758
1259.35	46.493
1262.99	5.536
1266.63	82.912
1270.26	89.26
1273.9	68.525
1277.53	20.142
1281.16	148.287
1284.8	13.38
1288.42	37.649
1292.05	103.448
1295.68	61.783
1299.3	20.381
1302.92	84.087
1306.55	67.786
1310.16	64.423
1313.78	99.996
1317.4	92.185
1321.01	74.594
1324.62	101.024
1328.24	146.888
1331.85	137.249
1335.45	43.58
1339.06	68.886
1342.66	191.166
1346.27	87.431
1349.87	125.686
1353.47	155.909
1357.07	164.109
1360.66	129.388
1364.26	126.367
1367.85	146.728
1371.44	181.646
1375.04	94.87
1378.62	166.87
1382.21	129.9
1385.8	183.801
1389.38	201.689
1392.96	40.141
1396.54	94.469
1400.12	162.167
1403.7	179.709
1407.28	194.735
1410.85	92.851
1414.42	247.494
1417.99	197.129
1421.56	249.011
1425.13	140.87
1428.7	172.742
1432.26	211.572
1435.83	193.801
1439.39	269.887
1442.95	362.493
1446.51	292.993
1450.06	351.525
1453.62	275.969
1457.17	459.421
1460.73	365.047
1464.28	186.252
1467.83	211.701
1471.37	199.366
1474.92	157.269
1478.46	198.292
1482.01	185.53
1485.55	175.066
1489.09	143.951
1492.63	72.31
1496.16	131.211
1499.7	103.685
1503.23	14.143
1506.76	136.943
1510.29	108.212
1513.82	105.04
1517.35	3.797
1520.88	170.156
1524.4	0
