Measurement: Raman, 514 nm, depolarized, Raman Data Processed
Mineral: Montebrasite
Rruff sample: R040062
Ideal chemistry: LiAlPO_4_(OH)
Locality: Hebron, Maine, USA
Source: University of Arizona Mineral Museum
Description: White massive
Measured chemistry: LiAl(PO_4_)((OH)_0.62_F_0.38_)
Pin_id: L00408
Orientation: Laser parallel to c* (0 0 1). Fiducial mark perpendicular to laser is parallel to a [1 0 0]
Raman shift (cm-1)	intensity
114.726	0
118.915	25.354
123.102	355.547
127.286	1526.45
131.469	2697.6
135.649	2659.58
139.827	1102.29
144.003	279.458
148.177	137.957
152.348	222.4
156.517	440.396
160.685	842.008
164.85	1116.05
169.012	1017.68
173.173	782.024
177.332	641.977
181.488	900.21
185.642	1418.12
189.794	1734.51
193.944	1881.74
198.092	1523.9
202.237	813.889
206.38	326.062
210.522	90.217
214.661	30.073
218.798	22.414
222.932	9.948
227.065	110.813
231.196	141.743
235.324	72.312
239.45	114.171
243.574	71.683
247.696	166.72
251.816	74.425
255.933	20.46
260.049	69.014
264.162	208.479
268.274	744.132
272.383	1320.86
276.49	1544.44
280.595	1439.94
284.697	1674.11
288.798	3009.49
292.896	7315.34
296.993	16711.2
301.087	21965.7
305.179	13909.1
309.269	8761.79
313.357	6623.67
317.443	4874.6
321.527	3474.62
325.608	2353.88
329.688	1552.22
333.765	1169.46
337.84	953.839
341.913	597.442
345.984	383.635
350.053	521.818
354.12	360.104
358.185	403.147
362.248	391.498
366.308	434.391
370.367	482.439
374.423	741.578
378.478	590.029
382.53	593.481
386.58	691.989
390.628	689.201
394.674	667.043
398.718	700.252
402.76	766.941
406.799	902.691
410.837	969.192
414.873	1508.53
418.906	3415.8
422.938	11214.3
426.967	18440.3
430.994	7779.88
435.02	2389.47
439.043	1129.08
443.064	618.641
447.083	447.992
451.1	197.097
455.115	275.917
459.128	247.611
463.139	392.651
467.147	520.567
471.154	1038.15
475.159	1695.41
479.161	2812.35
483.162	3308.98
487.161	3255.3
491.157	2971.32
495.151	2577.04
499.144	1952.48
503.134	1377.64
507.123	932.392
511.109	526.988
515.093	220.656
519.075	144.517
523.055	168.167
527.034	171.512
531.01	5.516
534.984	97.576
538.956	32.715
542.926	64.201
546.894	50.288
550.86	3.969
554.824	217.885
558.786	92.533
562.746	207.315
566.704	158.061
570.66	250.652
574.614	296.354
578.565	343.965
582.515	626.619
586.463	713.947
590.409	1035
594.353	1822.47
598.295	4191.83
602.235	6278.6
606.172	3749.34
610.108	2133.24
614.042	1585.1
617.974	1724.16
621.904	2046.47
625.832	3002.97
629.758	4599.04
633.681	5574.74
637.603	8560.08
641.523	19445
645.441	33579.6
649.357	21923.9
653.271	9127.72
657.183	4381.21
661.093	2524.34
665.001	1477.11
668.907	1089.52
672.811	811.206
676.713	541.687
680.613	510.951
684.511	428.235
688.407	228.73
692.302	223.326
696.194	188.348
700.084	215.521
703.972	102.623
707.859	57.47
711.743	43.728
715.626	79.37
719.506	135.031
723.384	39.671
727.261	15.709
731.136	99.199
735.008	145.86
738.879	0.328
742.748	15.851
746.614	17.426
750.479	19.853
754.342	27.737
758.203	163.871
762.062	64.915
765.919	24.174
769.774	13.187
773.627	53.174
777.479	116.438
781.328	155.914
785.175	395.086
789.021	553.968
792.864	842.627
796.706	1231.08
800.545	1389.32
804.383	1477.36
808.219	1335.22
812.053	1062.9
815.885	720.401
819.715	817.747
823.543	504.94
827.369	341.994
831.193	238.927
835.016	25.759
838.836	12.619
842.654	9.136
846.471	14.73
850.286	131.213
854.099	45.941
857.909	53.025
861.718	90.262
865.525	343.336
869.331	366.576
873.134	408.979
876.935	719.424
880.735	786.982
884.532	541.083
888.328	559.562
892.122	700.962
895.913	719.35
899.703	906.757
903.491	723.329
907.278	479.499
911.062	322.66
914.844	161.064
918.625	35.524
922.404	88.073
926.18	110.181
929.955	96.031
933.728	185.572
937.499	163.869
941.269	232.412
945.036	211.245
948.801	340.324
952.565	399.66
956.327	429.266
960.087	619.15
963.845	439.326
967.601	809.799
971.355	1150.61
975.107	1261.76
978.858	1703.24
982.607	2415.05
986.353	2967.2
990.098	4549.35
993.841	7240.5
997.583	11480.9
1001.32	18046.9
1005.06	26431.1
1008.79	33743.5
1012.53	32990.9
1016.26	24885.7
1019.99	16832.9
1023.72	11698.5
1027.45	8964.66
1031.17	8721.32
1034.89	10178.5
1038.61	13116.2
1042.33	16404.5
1046.05	18343.4
1049.77	18672.8
1053.48	21682.8
1057.19	28803.3
1060.9	29664.4
1064.61	18966.1
1068.32	10047.7
1072.02	5760.21
1075.72	3793.29
1079.42	2597.55
1083.12	1821.48
1086.82	1461.4
1090.51	1100.74
1094.21	996.445
1097.9	1202.74
1101.59	1669.65
1105.28	2027.21
1108.96	2405.43
1112.65	2403.82
1116.33	1842.64
1120.01	1976.33
1123.69	1476.52
1127.37	1246.9
1131.04	597.441
1134.71	456.74
1138.39	372.285
1142.06	28.756
1145.72	196.299
1149.39	204.549
1153.05	193.5
1156.72	153.219
1160.38	203.711
1164.04	85.037
1167.69	176.98
1171.35	139.744
1175	433.264
1178.65	677.553
1182.31	1042.53
1185.95	1288.02
1189.6	1514.11
1193.24	1390.88
1196.89	1198.3
1200.53	766.248
1204.17	644.734
1207.81	493.895
1211.44	504.268
1215.07	369.619
1218.71	239.441
1222.34	140.365
1225.97	154.766
1229.59	109.506
1233.22	37.613
1236.84	206.252
1240.46	316.574
1244.08	208.838
1247.7	223.684
1251.32	168.908
1254.93	188.934
1258.54	99.984
1262.15	52.105
1265.76	195.148
1269.37	303.939
1272.98	371.695
1276.58	133.387
