Measurement: Raman, 514 nm, depolarized, Raman Data Processed
Mineral: Montebrasite
Rruff sample: R040060
Ideal chemistry: LiAlPO_4_(OH)
Locality: Oxford County, Maine, USA
Source: University of Arizona Mineral Museum
Description: White massive
Measured chemistry: LiAl(PO_4_)((OH)_0.79_F_0.21_)
Pin_id: L00218
Orientation: Laser parallel to -c* (0 0 -1). Fiducial mark perpendicular to laser is parallel to a [1 0 0]
Raman shift (cm-1)	intensity
109.998	0
114.182	1286.38
118.363	2271.85
122.543	623.648
126.72	640.121
130.896	2111.47
135.069	3929.49
139.24	3541.19
143.41	1407.2
147.577	288.925
151.742	54.387
155.905	143.097
160.066	458.005
164.225	1222.72
168.381	1890.43
172.536	1972.25
176.689	1413.64
180.839	1209.69
184.988	1423.09
189.134	1619.27
193.279	1904.42
197.421	1806.07
201.561	1145.81
205.7	424.589
209.836	60.238
213.97	7.44
218.102	147.313
222.232	373.382
226.36	331.642
230.486	308.48
234.61	189.01
238.732	24.78
242.852	80.856
246.969	88.76
251.085	218.765
255.199	152.969
259.31	45.662
263.42	164.016
267.528	793.602
271.633	2087.31
275.737	3871.84
279.838	3486.74
283.938	2589.6
288.035	2863.58
292.131	6361.91
296.224	14275.2
300.315	17848.1
304.405	12180.6
308.492	7742.57
312.578	5963.92
316.661	4473.57
320.742	3808.87
324.821	3137.94
328.899	1947.06
332.974	1090.62
337.047	660.763
341.119	419.058
345.188	249.314
349.255	143.171
353.32	57.069
357.384	160.125
361.445	179.96
365.504	230.268
369.561	318.012
373.617	334.062
377.67	517.278
381.721	648.359
385.77	724.231
389.818	835.687
393.863	943.53
397.906	1140.24
401.948	1057.09
405.987	1066.1
410.025	1264.24
414.06	1558.12
418.093	2120.88
422.125	5207.45
426.154	12418.5
430.182	10167.6
434.207	4106.65
438.231	1684.69
442.252	998.611
446.272	583.298
450.29	544.721
454.305	487.85
458.319	308.666
462.331	547.159
466.341	649.328
470.348	1175.17
474.354	1731.7
478.358	3191.91
482.36	4247.82
486.36	4383.43
490.358	4058.74
494.354	3693.74
498.349	3238.45
502.341	2286.86
506.331	1432.39
510.319	865.799
514.306	377.263
518.29	263.695
522.273	51.861
526.253	82.639
530.232	48.556
534.208	3.894
538.183	31.99
542.156	78.247
546.127	139.579
550.096	415.659
554.063	253.572
558.028	216.974
561.991	218.02
565.952	277.922
569.911	263.937
573.869	389.006
577.824	518.237
581.778	607.124
585.729	753.552
589.679	1139.14
593.627	1867.06
597.573	3655.16
601.517	6166.55
605.459	4828.62
609.399	2829.01
613.337	1919.81
617.273	1949.75
621.208	2683.05
625.14	4489.85
629.071	6656.27
632.999	6202.28
636.926	5557.9
640.851	9033.11
644.774	18307.9
648.695	17292.3
652.614	8356.34
656.531	3729.94
660.447	1933.14
664.36	1147.93
668.272	778.346
672.182	518.431
676.089	381.872
679.995	268.154
683.899	154.413
687.802	209.751
691.702	123.92
695.6	29.887
699.497	29.262
703.391	59.176
707.284	6.26
711.175	5.59
715.064	89.234
718.951	48.933
722.837	16.975
726.72	51.116
730.601	10.109
734.481	30.867
738.359	73.166
742.235	90.729
746.109	131.991
749.981	9.032
753.851	108.562
757.72	58.271
761.587	118.236
765.451	185.762
769.314	232.469
773.175	301.069
777.034	409.027
780.892	636.761
784.747	862.913
788.601	1448.67
792.453	2224.04
796.303	3269.03
800.151	4013.64
803.997	3907.88
807.841	3101.76
811.684	2505.28
815.525	1828.45
819.363	1511.27
823.201	953.753
827.036	725.907
830.869	507.74
834.701	248.599
838.53	177.812
842.358	96.921
846.184	82.391
850.008	188.808
853.831	11.173
857.651	75.838
861.47	10.993
865.287	77.963
869.102	54.877
872.915	19.072
876.727	120.816
880.536	52.002
884.344	106.817
888.15	298.049
891.954	1.651
895.757	4.991
899.557	28.752
903.356	59.887
907.153	21.59
910.948	12.13
914.741	5.919
918.533	130.609
922.323	16.331
926.111	132.597
929.897	51.204
933.681	15.053
937.463	61.316
941.244	197.593
945.023	53.896
948.8	310.23
952.575	266.605
956.349	463.031
960.121	579.518
963.891	1576.11
967.659	1902.77
971.425	999.527
975.19	1226.43
978.952	1633.51
982.713	1970.7
986.473	2428.04
990.23	3075.58
993.986	4452.69
997.739	6500.21
1001.49	10076.7
1005.24	16150.8
1008.99	24403
1012.74	29351.1
1016.48	23702.9
1020.23	15293.6
1023.97	10089.6
1027.71	7863.43
1031.44	7339.88
1035.18	8675.56
1038.91	11678
1042.65	17480.8
1046.38	22123.8
1050.11	20157.2
1053.84	19930.4
1057.56	25131.3
1061.28	27535.7
1065.01	19308.1
1068.73	10592.8
1072.44	5964.99
1076.16	3950.11
1079.88	2814.5
1083.59	2380.28
1087.3	1906.42
1091.01	1672.63
1094.72	1769.52
1098.42	1946.3
1102.13	2663.32
1105.83	4750.7
1109.53	6391.07
1113.23	5539.18
1116.93	4137.08
1120.63	3306.78
1124.32	2704.68
1128.01	1793.8
1131.7	1254.07
1135.39	936.229
1139.08	669.9
1142.77	576.773
1146.45	363.755
1150.13	230.322
1153.81	321.927
1157.49	236.871
1161.17	133.097
1164.84	402.453
1168.51	506.833
1172.18	466.061
1175.86	674.432
1179.52	994.066
1183.19	1367.34
1186.86	2040.86
1190.52	2460.32
1194.18	2242.91
1197.84	1903.71
1201.5	1555.12
1205.15	1205.64
1208.81	727.917
1212.46	511.193
1216.11	251.807
1219.76	322.508
1223.41	282.602
1227.05	133.158
1230.7	193.566
1234.34	274.705
1237.98	54.572
1241.62	113.854
1245.26	72.543
1248.89	70.994
1252.53	0.307
1256.16	87.814
1259.79	165.094
1263.42	242.328
1267.05	68.879
1270.67	54.375
1274.3	39.842
1277.92	5.545
1281.54	51.912
1285.16	21.604
1288.77	124.193
1292.39	136.295
1296	147.684
1299.61	31.436
1303.22	29.094
1306.83	109.004
1310.44	190.039
1314.05	1.674
1317.65	16.186
1321.25	3.295
1324.85	9.811
1328.45	235.57
1332.05	40.666
1335.64	104.83
1339.24	79.055
1342.83	93.547
1346.42	105.969
1350.01	42.389
1353.59	38.422
1357.18	144.129
1360.76	329.486
1364.34	304.186
1367.92	358.01
1371.5	230.973
1375.08	100.48
1378.65	210.312
1382.23	228.041
1385.8	316.262
1389.37	364.08
1392.94	220.598
1396.51	415.365
1400.07	534.59
1403.64	250.369
1407.2	281.5
1410.76	204.398
1414.32	22.707
1417.87	134.703
1421.43	199.764
1424.98	77.02
1428.54	253.662
1432.09	342.66
1435.63	303.525
1439.18	306.289
1442.73	265.072
1446.27	313.166
1449.82	219.842
1453.36	97.729
1456.89	77.383
1460.43	279.961
1463.97	321.904
1467.5	173.188
1471.04	379.082
1474.57	329.922
1478.1	201.617
1481.62	360.662
1485.15	279.934
