Measurement: Raman, 514 nm, depolarized, Raman Data Processed
Mineral: Montebrasite
Rruff sample: R040060
Ideal chemistry: LiAlPO_4_(OH)
Locality: Oxford County, Maine, USA
Source: University of Arizona Mineral Museum
Description: White massive
Measured chemistry: LiAl(PO_4_)((OH)_0.79_F_0.21_)
Pin_id: L00548
Orientation: Laser parallel to b* (0 1 0). Fiducial mark perpendicular to laser is parallel to -c [0 0 -1]
Raman shift (cm-1)	intensity
123.936	0
128.112	116.67
132.287	627.238
136.46	1121.21
140.63	827.814
144.799	255.796
148.965	18.47
153.13	27.373
157.292	76.7
161.452	181.779
165.611	406.411
169.767	641.686
173.921	445.967
178.073	318.819
182.222	286.842
186.37	374.63
190.516	460.225
194.66	622.319
198.801	502.026
202.941	324.106
207.079	111.586
211.214	76.759
215.348	82.778
219.479	9.64
223.608	150.316
227.736	139.814
231.861	176.922
235.984	107.567
240.105	38.127
244.224	70.795
248.342	51.715
252.457	50.05
256.57	22.696
260.681	5.406
264.79	124.819
268.896	383.639
273.001	911.452
277.104	1034.06
281.205	826.295
285.304	668.191
289.401	1161.31
293.495	2876.8
297.588	4662.51
301.679	3617.81
305.767	2083.58
309.854	1498.61
313.939	1183.55
318.021	897.949
322.102	1012.58
326.181	776.984
330.257	361.148
334.332	205.064
338.405	68.723
342.475	37.878
346.544	4.72
350.61	8.912
354.675	26.592
358.738	147.825
362.798	43.286
366.857	58.595
370.913	42.035
374.968	175.639
379.021	171.704
383.071	137.428
387.12	182.491
391.166	254.787
395.211	317.243
399.254	300.463
403.294	354.682
407.333	366.157
411.37	356.46
415.405	605.552
419.437	879.107
423.468	2500.64
427.497	4225.59
431.524	2241.72
435.549	917.573
439.572	493.174
443.593	338.536
447.611	263.649
451.628	228.486
455.644	242.993
459.657	267.151
463.668	240.973
467.677	344.433
471.684	487.524
475.689	610.249
479.692	1132.6
483.694	1384.57
487.693	1276.16
491.691	1147.36
495.686	928.164
499.68	698.051
503.671	411.252
507.661	297.774
511.648	153.03
515.634	128.635
519.618	2.076
523.6	119.233
527.58	74.234
531.558	35.618
535.534	25.598
539.508	51.425
543.48	98.519
547.45	178.256
551.418	174.923
555.385	31.643
559.349	147.713
563.312	75.367
567.272	20.309
571.231	117.551
575.187	122.967
579.142	311.951
583.095	255.281
587.046	330.248
590.995	503.338
594.942	676.607
598.888	1219.74
602.831	1342.67
606.772	803.113
610.712	513.404
614.649	370.17
618.585	509.074
622.519	796.877
626.45	1412.74
630.38	1688.91
634.308	1214.07
638.235	1608.73
642.159	3542.89
646.081	5286.56
650.002	3129.72
653.92	1552.38
657.837	594.537
661.752	426.248
665.664	207.307
669.575	246.729
673.484	26.643
677.392	203.58
681.297	102.707
685.2	159.018
689.102	13.166
693.002	91.883
696.899	111.477
700.795	22.42
704.689	158.17
708.581	151.176
712.472	134.607
716.36	14.555
720.247	124.072
724.131	2.406
728.014	45.555
731.895	39.02
735.774	305.607
739.651	128.168
743.526	101.521
747.4	60.428
751.271	190.457
755.141	221.945
759.009	191.33
762.875	110.182
766.739	237.438
770.601	184.545
774.462	280.449
778.32	325.541
782.177	320.07
786.032	434.268
789.885	637.842
793.736	840.611
797.585	1232.9
801.433	1324.7
805.279	926.025
809.122	556.879
812.964	407.268
816.804	467.188
820.643	446.037
824.479	313.295
828.314	129.049
832.147	94.836
835.977	160.459
839.807	115.891
843.634	37.975
847.459	241.504
851.283	115.289
855.105	23.908
858.925	75.73
862.743	147.346
866.559	168.602
870.373	58.611
874.186	118.738
877.997	226.498
881.806	284.195
885.613	108.225
889.419	86.102
893.222	16.645
897.024	111.205
900.824	35.068
904.622	28.615
908.418	156.49
912.213	140.764
916.005	126.371
919.796	162.322
923.585	258.199
927.373	273.162
931.158	368.637
934.942	254.988
938.724	250.826
942.504	336.791
946.282	389.844
950.059	387.957
953.833	513.195
957.606	588.234
961.377	1223.09
965.147	3677.79
968.914	1712.33
972.68	766.734
976.444	990.826
980.206	852.393
983.967	955.305
987.725	687.203
991.482	1095.39
995.237	1466.95
998.99	1910.17
1002.74	3049.73
1006.49	4840.24
1010.24	6901.98
1013.99	6847.8
1017.73	4669.42
1021.47	2862.05
1025.21	2039.74
1028.95	1888.88
1032.69	1944.49
1036.42	2514.92
1040.16	3963.67
1043.89	6132.36
1047.62	6263.3
1051.35	5404.92
1055.08	5866.55
1058.8	6728.44
1062.53	5390.52
1066.25	3162.39
1069.97	1844.05
1073.68	1205.49
1077.4	1186.82
1081.11	1027.97
1084.83	638.84
1088.54	390.012
1092.25	331.391
1095.95	463.078
1099.66	665.816
1103.36	1059.88
1107.07	1914.94
1110.77	1600.61
1114.47	1036.79
1118.16	503.535
1121.86	770.992
1125.55	369.383
1129.24	529.035
1132.93	340.258
1136.62	373.297
1140.31	58.23
1143.99	115.426
1147.68	225.539
1151.36	339.398
1155.04	262.457
1158.71	131.527
1162.39	173.535
1166.07	40.551
