Measurement: Raman, 514 nm, depolarized, Raman Data Processed
Mineral: Montebrasite
Rruff sample: R060890
Ideal chemistry: LiAlPO_4_(OH)
Locality: Mount Marie, Paris, Maine, USA
Source: Bob Jenkins
Description: Colorless massive
Measured chemistry: Li_1.00_Al_1.00_(P_1.00_O_4_)(OH)_0.63_F_0.37_)_Î£=1_ ; Li not measured but estimated by stoichiometry
Pin_id: M01084
Orientation: Laser parallel to -a* (-1 0 0). Fiducial mark perpendicular to laser is parallel to b [0 1 0]
Raman shift (cm-1)	intensity
90.678	0
95.631	209.467
100.581	84.6562
105.529	172.914
110.475	584.328
115.417	1059.07
120.358	1679.59
125.295	3066.38
130.23	3914.25
135.163	2831.32
140.092	1073.6
145.019	397.156
149.944	264.691
154.866	248.707
159.785	539.836
164.702	943.295
169.616	964.019
174.528	895.35
179.437	779.121
184.343	955.527
189.247	645.477
194.148	633.775
199.046	464.248
203.942	244.721
208.835	62.0215
213.726	14.9902
218.614	101.709
223.5	73.8848
228.382	40.1406
233.263	141.797
238.14	100.768
243.015	5.8125
247.888	113.309
252.758	106.986
257.625	132.512
262.49	293.856
267.352	631.834
272.211	710.269
277.068	1219.04
281.922	1572.07
286.773	2690.56
291.622	5591.42
296.469	10279.7
301.312	15722
306.154	13105.3
310.992	7969.96
315.828	5179.75
320.661	3385.16
325.492	2490.05
330.32	1691.85
335.145	1115.54
339.968	909.113
344.789	784.57
349.606	700.809
354.421	526.197
359.234	774.074
364.043	735.894
368.851	730.275
373.655	872.981
378.457	532.008
383.256	393.238
388.053	320.381
392.847	134.246
397.639	191.701
402.428	200.223
407.214	340.518
411.998	900.041
416.779	2994.59
421.557	6636.82
426.333	11163.5
431.106	4735.84
435.877	1440.69
440.645	589.754
445.41	382.836
450.173	156.555
454.933	241.602
459.691	84.4961
464.446	388.641
469.198	445.715
473.948	885.721
478.695	1152.72
483.439	1581.65
488.181	1860.42
492.92	1572.06
497.657	1460.55
502.391	1101.98
507.122	618.369
511.851	350.65
516.577	47.9395
521.301	352.15
526.022	70.4023
530.74	5.60742
535.456	96.0957
540.169	7.83008
544.879	6.27344
549.587	50.5703
554.292	46.4844
558.995	151.656
563.695	106.453
568.392	137.875
573.087	317.629
577.779	123.922
582.469	440.621
587.156	505.961
591.84	604.885
596.522	1115.3
601.201	1966.59
605.877	1927.27
610.551	1406.16
615.222	1307.41
619.891	1855.83
624.557	2618.99
629.22	4229.24
633.881	5825.4
638.539	8819.08
643.195	15239.6
647.848	17260.8
652.498	7622.78
657.145	3230.85
661.791	1850.25
666.433	1003.15
671.073	764.107
675.71	530.729
680.345	238.543
684.977	333.691
689.606	198.914
694.233	317.287
698.857	245.475
703.478	46.2832
708.097	91.0527
712.714	119.066
717.327	135.715
721.938	19.9707
726.547	101.863
731.153	102.416
735.756	36.0215
740.356	113.955
744.954	288.174
749.55	124.408
754.142	106.814
758.733	68.2578
763.32	169.379
767.905	53.8887
772.487	176.125
777.067	269.787
781.644	331.49
786.218	312.26
790.79	713.723
795.359	716.004
799.926	937.816
804.49	1143.69
809.051	1356.44
813.61	1233.25
818.166	1108.02
822.72	1005.79
827.271	562.469
831.819	590.689
836.365	444.172
840.908	271.873
845.448	367.566
849.986	345.135
854.521	375.758
859.054	256.01
863.584	401.232
868.111	8
872.636	5.01367
877.158	206.82
881.677	329.102
886.194	151.688
890.709	79.8008
895.22	6.08203
899.729	68.5156
904.236	107.447
908.74	8.70703
913.241	33.873
917.739	41.375
922.235	140.984
926.729	192.602
931.219	73.8008
935.708	288.643
940.193	192.18
944.676	208.856
949.156	254.717
953.634	263.772
958.109	359.031
962.582	434.502
967.051	410.211
971.519	521.144
975.983	738.363
980.445	1145.94
984.905	1626.9
989.362	2844.18
993.816	5211.82
998.267	8624.81
1002.72	13422.9
1007.16	18579.5
1011.61	19704
1016.05	16064
1020.49	10459.4
1024.92	7094.04
1029.36	6064.8
1033.79	6538.75
1038.21	8486.44
1042.64	9611.93
1047.06	10842.7
1051.48	11407.1
1055.9	13631.9
1060.32	16467.6
1064.73	15355.6
1069.14	9094.27
1073.55	4497.93
1077.95	2708.93
1082.35	2120.26
1086.75	1609.96
1091.15	1005.29
1095.54	762.633
1099.93	747.398
1104.32	676.484
1108.71	480.781
1113.09	790.613
1117.47	849.031
1121.85	1327.16
1126.23	866.758
1130.6	956.418
1134.97	730.59
1139.34	564.801
1143.7	322.551
1148.07	58.625
1152.43	164.777
1156.79	17.1562
1161.14	190.016
1165.49	198.633
1169.84	187.211
1174.19	223.664
1178.54	118.914
1182.88	390.07
1187.22	279.391
1191.55	164.934
1195.89	396.773
1200.22	89.918
1204.55	259.016
1208.87	163.828
1213.2	455.871
1217.52	0.707031
1221.84	13.6719
1226.15	231.797
1230.47	107.066
1234.78	188.434
1239.09	13.8711
1243.39	47.6016
1247.69	242.906
1251.99	475.394
1256.29	251.93
1260.59	86.4648
1264.88	82.1211
1269.17	301.215
1273.46	407.676
1277.74	175.519
1282.02	80.8711
1286.3	231.504
1290.58	377.211
1294.86	225.559
1299.13	47.5586
1303.39	7.05469
1307.66	210.758
1311.93	248.59
1316.19	600.168
1320.45	215.106
1324.7	488.102
1328.96	255.141
1333.21	242.223
1337.45	466.289
1341.7	473.344
1345.94	276.012
1350.18	373.019
1354.42	480.039
1358.66	234.019
1362.89	334.043
1367.12	174.981
1371.35	264.523
1375.57	503.481
1379.8	235.734
1384.02	520.434
1388.23	121.887
1392.45	247.082
1396.66	89.5156
1400.87	93.2656
1405.08	177.711
1409.28	406.023
1413.48	67.4961
1417.68	185.133
1421.88	13.6289
1426.07	446.004
1430.26	377.309
1434.45	216.676
1438.64	717.887
1442.82	558.148
1447	743.32
1451.18	613.93
1455.35	715.934
1459.53	535.668
1463.7	754.863
1467.87	646.246
1472.03	552.805
1476.19	410.406
1480.35	436.852
1484.51	200.621
1488.67	465.731
1492.82	378.625
1496.97	182.438
1501.12	119.129
1505.26	215.949
1509.4	161.508
1513.54	199.176
1517.68	51.1367
1521.81	30.2539
1525.94	191.207
1530.07	11.7383
1534.2	194.422
1538.32	290.926
1542.44	192.535
1546.56	496.734
1550.68	355.301
1554.79	5.20703
1558.9	89.1641
1563.01	170.484
1567.12	4.64453
1571.22	40.8086
1575.32	10.6328
