Measurement: Raman, 514 nm, depolarized, Raman Data Processed
Mineral: Montebrasite
Rruff sample: R040060
Ideal chemistry: LiAlPO_4_(OH)
Locality: Oxford County, Maine, USA
Source: University of Arizona Mineral Museum
Description: White massive
Measured chemistry: LiAl(PO_4_)((OH)_0.79_F_0.21_)
Pin_id: L00171
Orientation: Laser parallel to (-1 -1 0). Fiducial mark perpendicular to laser is parallel to c [0 0 1]
Raman shift (cm-1)	intensity
123.936	0
128.112	471.502
132.287	1579.23
136.46	2496.6
140.63	1620.79
144.799	380.625
148.965	88.652
153.13	36.28
157.292	90.372
161.452	446.519
165.611	727.511
169.767	1055.52
173.921	838.289
178.073	658.923
182.222	590.586
186.37	829.59
190.516	1007.43
194.66	1352.05
198.801	982.538
202.941	532.955
207.079	143.288
211.214	3.828
215.348	4.806
219.479	76.137
223.608	177.732
227.736	259.518
231.861	261.408
235.984	39.125
240.105	116.622
244.224	46.335
248.342	19.61
252.457	147.74
256.57	26.524
260.681	184.866
264.79	226.262
268.896	747.276
273.001	1487.49
277.104	1987.24
281.205	1586.87
285.304	1356.4
289.401	2487.82
293.495	6051.42
297.588	11127.5
301.679	9872.65
305.767	5828.03
309.854	3983.09
313.939	2997.94
318.021	2372.25
322.102	2306.52
326.181	1470.38
330.257	763.901
334.332	586.832
338.405	269.259
342.475	151.474
346.544	16.523
350.61	65.271
354.675	65.154
358.738	135.775
362.798	7.354
366.857	72.301
370.913	139.437
374.968	333.349
379.021	248.786
383.071	350.671
387.12	513.755
391.166	457.763
395.211	488.218
399.254	607.781
403.294	461.778
407.333	773.798
411.37	762.129
415.405	1114.96
419.437	2061.2
423.468	6008.13
427.497	9745.83
431.524	4973.54
435.549	1621.15
439.572	778.7
443.593	576.177
447.611	243.52
451.628	240.715
455.644	307.719
459.657	314.476
463.668	180.981
467.677	277.234
471.684	793.235
475.689	1248.98
479.692	2024.47
483.694	2489.71
487.693	2484.69
491.691	2269.41
495.686	1883.87
499.68	1458.09
503.671	1021.86
507.661	661.801
511.648	388.377
515.634	157.281
519.618	78.76
523.6	32.629
527.58	29.07
531.558	88.625
535.534	136.443
539.508	26.449
543.48	56.377
547.45	150.041
551.418	212.258
555.385	155.539
559.349	60.537
563.312	87.525
567.272	79.57
571.231	137.303
575.187	157.955
579.142	197.18
583.095	414.834
587.046	278.18
590.995	453.367
594.942	1202.6
598.888	2711.25
602.831	3220.32
606.772	1888.96
610.712	1166.52
614.649	1053.09
618.585	1198.21
622.519	1873.83
626.45	3309.07
630.38	4153.97
634.308	3428.53
638.235	4382.77
642.159	9686.66
646.081	14700.2
650.002	9473.43
653.92	4026.31
657.837	1978.86
661.752	1131.06
665.664	672.961
669.575	534.586
673.484	305.43
677.392	305.227
681.297	241.66
685.2	259.139
689.102	165.029
693.002	197.936
696.899	172.305
700.795	121.381
704.689	209.699
708.581	89.865
712.472	86.943
716.36	18.883
720.247	248.189
724.131	18.297
728.014	83.061
731.895	83.064
735.774	110.969
739.651	236.238
743.526	100.223
747.4	143.594
751.271	33.387
755.141	69.018
759.009	113.391
762.875	105.07
766.739	176.428
770.601	237.578
774.462	158.354
778.32	258.844
782.177	469.066
786.032	569.021
789.885	948.723
793.736	1508.17
797.585	1887.37
801.433	2086.32
805.279	1925.04
809.122	1333.53
812.964	1191.79
816.804	779.842
820.643	677.68
824.479	325.312
828.314	312.748
832.147	20.008
835.977	116.176
839.807	47.654
843.634	37.424
847.459	90.061
851.283	39.916
855.105	56.1
858.925	123.111
862.743	139.869
866.559	101.91
870.373	88.809
874.186	50.006
877.997	119.305
881.806	37.469
885.613	162.285
889.419	194.906
893.222	81.012
897.024	90.021
900.824	2.371
904.622	135.607
908.418	53.75
912.213	126.543
916.005	109.266
919.796	7.293
923.585	146.887
927.373	150.838
931.158	265.504
934.942	250.246
938.724	315.059
942.504	239.955
946.282	184.934
950.059	350.02
953.833	435.209
957.606	600.518
961.377	555.945
965.147	1271.49
968.914	907.166
972.68	883.039
976.444	929.096
980.206	1255.31
983.967	1381.28
987.725	1687.9
991.482	2311.08
995.237	3242
998.99	5215.12
1002.74	7999.29
1006.49	12755.8
1010.24	17937.1
1013.99	17507.4
1017.73	12175.5
1021.47	7532.01
1025.21	5340.64
1028.95	4575.8
1032.69	4597.13
1036.42	6208.94
1040.16	8681.1
1043.89	12492.4
1047.62	13595.3
1051.35	11978.5
1055.08	12932.1
1058.8	16355.9
1062.53	14177.6
1066.25	8151.89
1069.97	4406.23
1073.68	2600.91
1077.4	2045.62
1081.11	1410.47
1084.83	1185.67
1088.54	1050.92
1092.25	856.295
1095.95	972.492
1099.66	1118.66
1103.36	1935.89
1107.07	3032.4
1110.77	3119.08
1114.47	2365.54
1118.16	1612.58
1121.86	1748.2
1125.55	1117.98
1129.24	857.646
1132.93	546.16
1136.62	572.348
1140.31	184.055
1143.99	41.133
1147.68	293.316
1151.36	22.238
1155.04	125.453
1158.71	242.895
1162.39	233.543
1166.07	224.742
1169.74	56.352
1173.41	92.645
1177.08	356.473
1180.75	665.691
1184.41	1232.55
1188.08	1555.46
1191.74	1375.98
1195.4	1386.43
1199.06	1162.65
1202.71	578.41
1206.37	664.496
1210.02	394.918
1213.68	458.633
1217.33	712.312
1220.98	606.141
1224.62	558.707
1228.27	232.258
1231.91	316.285
1235.55	359.004
1239.19	301.535
1242.83	522.234
1246.47	553.125
1250.1	513.328
1253.74	373.176
1257.37	393.074
1261	121.73
1264.63	89.773
1268.25	68.371
1271.88	305.805
1275.5	270.488
1279.12	4.867
1282.74	398.023
1286.36	20.273
1289.98	109.668
1293.59	99.816
1297.21	21.16
1300.82	62.77
1304.43	344.523
1308.04	59.641
1311.64	105.191
1315.25	249.758
1318.85	303.355
1322.45	245.832
1326.05	92.672
1329.65	12.145
1333.24	72.395
1336.84	216.559
1340.43	234.82
1344.03	382.469
1347.61	459.637
1351.2	376.301
1354.79	522.66
1358.37	268.637
1361.96	154.535
1365.54	430.516
1369.12	309.922
1372.69	213.957
1376.27	384.523
1379.85	443.043
1383.42	739.73
1386.99	736.656
1390.56	672.027
1394.13	510.059
1397.7	300.512
1401.26	404.484
1404.82	217.316
1408.38	314.516
1411.94	569.086
1415.5	718.785
1419.06	561.043
1422.62	407.285
1426.17	471.824
1429.72	303.117
1433.27	392.504
1436.82	283.953
1440.37	203.109
1443.91	294.25
1447.45	374.258
1450.99	706.238
1454.54	805.242
1458.07	780.5
1461.61	812.102
1465.15	816.812
1468.68	895.605
1472.21	569.258
1475.74	493.844
1479.27	558.91
1482.8	376.289
1486.32	436.359
1489.85	631.492
1493.37	621.887
1496.89	929.105
1500.41	776.148
1503.93	957.184
1507.44	836.891
1510.96	0
