Measurement: Raman, 514 nm, depolarized, Raman Data Processed
Mineral: Montebrasite
Rruff sample: R040062
Ideal chemistry: LiAlPO_4_(OH)
Locality: Hebron, Maine, USA
Source: University of Arizona Mineral Museum
Description: White massive
Measured chemistry: LiAl(PO_4_)((OH)_0.62_F_0.38_)
Pin_id: M00438
Orientation: Laser parallel to a* (1 0 0). Fiducial mark perpendicular to laser is parallel to b [0 1 0]
Raman shift (cm-1)	intensity
123.079	0
127.265	680.967
131.449	1848.22
135.631	1993.18
139.81	1146.99
143.988	359.872
148.163	120.646
152.336	56.857
156.507	13.595
160.675	104.368
164.842	460.031
169.006	677.001
173.168	730.842
177.328	905.009
181.485	809.532
185.641	751.216
189.794	514.062
193.945	325.938
198.094	78.608
202.241	8.083
206.385	4.243
210.528	29.96
214.668	94.99
218.806	200.518
222.942	216.515
227.076	282.854
231.207	199.453
235.337	146.26
239.464	83.469
243.589	10.893
247.712	131.725
251.833	25.811
255.951	4.368
260.068	313.368
264.182	422.564
268.294	731.664
272.404	1340.4
276.512	1589.14
280.618	1377.89
284.721	1316.61
288.823	2054.2
292.922	4043.17
297.019	8504.8
301.114	10656.2
305.207	7627.64
309.298	4819
313.387	3300.22
317.473	2381.3
321.558	1861.37
325.64	1341.46
329.72	751.448
333.798	610.703
337.874	359.938
341.948	379.191
346.019	128.453
350.089	97.318
354.156	86.478
358.222	146.296
362.285	261.826
366.346	129.996
370.405	207.765
374.462	374.654
378.516	370.061
382.569	394.419
386.62	363.56
390.668	464.124
394.714	485.605
398.759	358.115
402.801	410.274
406.841	595.235
410.879	506.015
414.915	718.71
418.949	1627.94
422.98	5177.42
427.01	8085.99
431.037	4434.23
435.063	1632.44
439.086	730.594
443.108	458.614
447.127	266.494
451.144	94.221
455.159	251.782
459.172	219.135
463.183	346.245
467.192	243.125
471.198	529.76
475.203	766.143
479.206	1452.27
483.206	1698.14
487.205	1923.75
491.201	1739.1
495.196	1564.19
499.188	1229.01
503.178	843.57
507.166	557.853
511.153	371.694
515.137	225.41
519.119	78.781
523.099	212.307
527.077	235.986
531.053	20.791
535.027	72.57
538.998	173.389
542.968	0.441
546.936	138.586
550.902	60.059
554.865	98.211
558.827	12.561
562.786	75.855
566.744	21.623
570.7	161.447
574.653	130.312
578.604	213.123
582.554	448.439
586.501	457.598
590.447	674.648
594.39	1068.01
598.331	1816.39
602.271	2904.92
606.208	2171.51
610.143	1606.2
614.077	1380.59
618.008	1503.27
621.937	1827.08
625.865	2809.3
629.79	4391.23
633.713	4282.13
637.634	4512.58
641.553	8572.58
645.471	14182.1
649.386	10601.3
653.299	5009.91
657.21	2518.12
661.12	1495.88
665.027	1043.18
668.932	740.023
672.835	695.457
676.737	269.484
680.636	339.166
684.533	368.9
688.428	211.73
692.322	243.035
696.213	271.744
700.102	38.979
703.99	257
707.875	58.27
711.758	97.314
715.64	193.047
719.519	200.641
723.397	103.713
727.272	76.852
731.146	21.162
735.017	235.416
738.887	171.779
742.755	87.801
746.62	113.463
750.484	8.484
754.346	2.963
758.206	236.971
762.063	190.551
765.919	173.721
769.773	117.49
773.625	70.23
777.475	205.445
781.323	227.162
785.169	750.461
789.013	661.453
792.856	862.125
796.696	1092.63
800.534	1274.2
804.371	1683.93
808.205	1383.37
812.037	1282.5
815.868	1242.59
819.697	849.92
823.523	668.211
827.348	286.242
831.171	403.445
834.992	0.707
838.811	207.174
842.628	22.854
846.443	158.52
850.256	37.045
854.067	45.818
857.876	25.104
861.684	178.193
865.489	305.902
869.293	246.979
873.095	48.08
876.894	347.055
880.692	522.373
884.488	290.162
888.282	313.982
892.074	420.502
895.864	192.572
899.652	166.756
903.439	122.688
907.223	344.207
911.006	287.453
914.786	129.914
918.565	36.619
922.342	116.963
926.117	79.209
929.89	354.611
933.661	149.287
937.43	173.906
941.198	138.816
944.963	6.309
948.727	148.518
952.488	303.303
956.248	418.062
960.006	702.828
963.762	1197.61
967.516	1092.41
971.269	717.24
975.019	692.107
978.767	827.021
982.514	1181.81
986.259	1385.12
990.002	2149.93
993.743	3272.01
997.482	5116.49
1001.22	7565.94
1004.95	10474.1
1008.69	13304.4
1012.42	12788.8
1016.15	10207.5
1019.88	6824.4
1023.6	5131.77
1027.33	4388.48
1031.05	4905.63
1034.77	6090.17
1038.49	8437.79
1042.21	10515.7
1045.92	11643.9
1049.63	11512.3
1053.35	11111
1057.05	12010.1
1060.76	11865.4
1064.47	7904.43
1068.17	4541.81
1071.87	2810.26
1075.57	2025.9
1079.27	1665.66
1082.97	1373.29
1086.66	1329.68
1090.36	917
1094.05	1112.62
1097.73	1088.79
1101.42	1325.84
1105.11	2014.62
1108.79	2313.63
1112.47	2432.86
1116.15	1992.37
1119.83	1732.23
1123.51	1322.57
1127.18	1273.58
1130.86	994.719
1134.53	816.027
1138.19	287.559
1141.86	199.133
1145.53	460.941
1149.19	182.965
1152.85	154.996
1156.51	87.168
1160.17	4.301
1163.83	72.566
1167.48	175.93
1171.13	212.398
1174.78	64.613
1178.43	90.16
1182.08	125.652
1185.73	222.043
1189.37	459.012
1193.01	566.621
1196.65	691.793
1200.29	99.844
1203.93	65.188
1207.56	100.598
1211.19	230.438
1214.83	309.727
1218.45	395.898
1222.08	605.891
1225.71	389.023
1229.33	9.488
1232.95	33.598
1236.57	113.555
1240.19	34.836
