Measurement: Raman, 514 nm, depolarized, Raman Data Processed
Mineral: Monticellite
Rruff sample: R040115
Ideal chemistry: CaMgSiO_4_
Locality: Magnet Cove, Arkansas, USA
Source: University of Arizona Mineral Museum
Description: Brown blebs in matrix
Measured chemistry: Ca_0.99_(Mg_0.85_ Fe_0.12_Mn_0.03_)Si_1.00_O_4_
Pin_id: M00321
Orientation: Laser parallel to a* (1 0 0). Fiducial mark perpendicular to laser is parallel to -b [0 -1 0]
Raman shift (cm-1)	intensity
103.82	0
107.995	59.091
112.168	12.433
116.339	97.809
120.508	72.817
124.675	118.646
128.84	81.584
133.003	318.86
137.164	758.63
141.323	1687.5
145.48	1454.68
149.635	714.238
153.788	351.522
157.939	356.125
162.088	822.044
166.235	1930.3
170.38	2696.29
174.523	1287.07
178.664	303.381
182.803	33.232
186.94	2.344
191.076	62.034
195.209	25.617
199.34	79.979
203.47	222.838
207.597	353.795
211.722	422.792
215.846	507.736
219.967	257.623
224.087	129.786
228.204	109.834
232.32	213.256
236.434	307.292
240.545	490.682
244.655	915.424
248.763	1977.8
252.869	4453.99
256.973	5656.96
261.075	2916.71
265.175	1325.24
269.273	1183.72
273.369	1254.47
277.463	844.628
281.556	432.44
285.646	312.952
289.734	290.505
293.821	389.681
297.905	822.731
301.988	1971.08
306.069	2066.4
310.147	972.057
314.224	393.546
318.299	244.836
322.372	381.917
326.443	787.468
330.512	1095.6
334.579	779.822
338.645	271.412
342.708	173.138
346.769	145.438
350.829	1.092
354.887	11.247
358.942	36.672
362.996	27.179
367.048	5.587
371.098	115.096
375.146	119.38
379.192	232.447
383.236	524.304
387.279	912.949
391.319	1960.35
395.358	3519.35
399.394	4425.89
403.429	3348.15
407.462	1992.21
411.493	1069.08
415.522	550.773
419.549	353.282
423.575	250.609
427.598	210.754
431.619	115.712
435.639	162.434
439.657	73.903
443.673	43.103
447.687	34.271
451.699	43.036
455.709	2.105
459.717	14.731
463.724	59.347
467.728	37.347
471.731	19.719
475.732	99.953
479.731	13.642
483.728	70.528
487.723	86.495
491.716	132.277
495.708	62.038
499.697	102.501
503.685	171.892
507.671	263.123
511.655	264.029
515.637	349.699
519.617	587.442
523.596	1272.23
527.572	3106.62
531.547	5019.45
535.52	3186.97
539.491	1471.64
543.46	834.275
547.427	502.573
551.393	454.928
555.356	443.993
559.318	490.833
563.278	420.488
567.236	693.961
571.192	891.255
575.147	1106.38
579.099	976.321
583.05	755.1
586.999	420.64
590.946	444.732
594.891	235.265
598.834	117.277
602.776	66.253
606.715	62.867
610.653	36.121
614.589	3.775
618.523	12.342
622.456	12.953
626.386	33.381
630.315	126.811
634.242	50.706
638.167	107.995
642.09	129.35
646.012	56.241
649.931	2.378
653.849	92.341
657.765	87.618
661.679	90.351
665.592	22.866
669.502	19.61
673.411	2.613
677.318	3.84
681.223	49.04
685.126	69.166
689.028	86.354
692.927	90.575
696.825	36.252
700.721	59.07
704.616	129.336
708.508	128.622
712.399	138.933
716.288	53.273
720.175	27.649
724.06	125.066
727.944	136.532
731.825	252.051
735.705	170.628
739.584	326.269
743.46	325.979
747.334	461.766
751.207	318.642
755.078	381.616
758.947	448.663
762.815	612.627
766.68	570.718
770.544	776.051
774.406	669.014
778.267	925.46
782.125	1015.63
785.982	1123.85
789.837	1387.18
793.69	1824.02
797.542	2731.4
801.391	4064.29
805.239	6671.07
809.085	13193.3
812.93	29459.6
816.772	49420.8
820.613	39477.6
824.452	20301.6
828.29	11522.3
832.125	7848.81
835.959	7190.12
839.791	9766.91
843.621	20592.7
847.45	44626.7
851.277	49056.7
855.102	23935.9
858.925	11603.3
862.746	6262.92
866.566	4085.72
870.384	2930.77
874.2	2291.04
878.015	1862.53
881.828	1749.24
885.639	1824.17
889.448	2310.33
893.256	4220.71
897.061	10061.3
900.865	9231.15
904.668	3723.22
908.468	1670.5
912.267	1061.02
916.064	681.063
919.86	550.037
923.653	574.271
927.445	563.777
931.236	768.542
935.024	884.576
938.811	1740.78
942.596	5062.09
946.379	10578
950.161	7130.01
953.94	2629.6
957.719	1064.65
961.495	462.397
965.27	174.83
969.043	67.594
972.814	57.632
976.583	32.07
980.351	2.606
984.117	102.045
987.882	30.136
991.644	34.646
995.405	75.584
999.165	72.806
1002.92	194.104
1006.68	76.58
1010.43	193.25
1014.18	224.074
1017.93	117.055
1021.68	128.184
1025.43	166.458
1029.18	266.874
1032.92	303.427
1036.66	297.025
1040.4	382.935
1044.14	377.883
1047.88	272.955
1051.62	226.15
1055.35	252.461
1059.08	156.886
1062.81	3.58
1066.54	142.049
1070.27	230.779
1073.99	237.666
1077.72	108.369
1081.44	283.756
1085.16	36.933
1088.88	115.197
1092.59	33.187
1096.31	80.783
1100.02	18.084
1103.73	71.827
1107.44	85.556
1111.15	36.567
1114.86	204.725
1118.57	73.72
1122.27	28.974
1125.97	185.154
1129.67	184.664
1133.37	131.088
1137.07	79.183
1140.76	246.954
1144.45	33.028
1148.15	179.267
1151.84	215.162
1155.53	199.09
1159.21	98.983
1162.9	253.18
1166.58	345.058
1170.26	220.923
1173.94	207.774
1177.62	260.608
1181.3	210.424
1184.97	114.218
1188.65	79.987
1192.32	218.873
1195.99	157.592
1199.66	363.28
1203.33	359.941
1206.99	350.571
1210.65	65.868
1214.32	140.434
1217.98	48.969
1221.64	46.504
1225.29	32.997
1228.95	50.436
1232.6	179.843
1236.26	128.301
1239.91	178.916
1243.56	179.312
1247.2	56.45
1250.85	19.188
1254.49	48.088
1258.13	77.907
1261.78	150.324
1265.41	206.552
1269.05	12.649
1272.69	56.626
1276.32	74.396
1279.95	16.315
1283.59	112.459
1287.21	40.353
1290.84	65.272
1294.47	114.837
1298.09	57.656
1301.72	109.159
1305.34	138.717
1308.96	133.225
1312.58	219.68
1316.19	218.088
1319.81	275.456
1323.42	377.8
1327.03	225.104
1330.64	59.407
1334.25	131.705
1337.86	262.004
1341.46	109.306
1345.07	313.621
1348.67	205.966
1352.27	71.35
1355.87	166.796
1359.46	283.323
1363.06	298.57
1366.65	264.266
1370.25	234.149
1373.84	318.081
1377.43	222.256
1381.02	128.547
1384.6	165.028
1388.18	251.477
1391.77	228.003
1395.35	265.895
1398.93	263.297
1402.51	252.364
1406.08	249.606
1409.66	136.621
1413.23	114.886
1416.8	369.684
1420.37	230.829
1423.94	299.931
1427.51	265.988
1431.08	264.789
1434.64	222.352
1438.2	298.632
1441.76	303.447
1445.32	360.097
1448.88	347.574
1452.43	392.898
1455.99	412.25
1459.54	376.016
1463.09	537.205
1466.64	369.231
1470.19	178.127
1473.74	350.436
1477.28	337.026
1480.83	318.007
1484.37	241.481
1487.91	206.652
1491.45	123.793
1494.98	304.114
1498.52	322.693
1502.05	69.745
1505.59	73.782
1509.12	124.489
1512.65	127.809
1516.17	84.961
1519.7	136.263
1523.23	0
