Measurement: Raman, 514 nm, depolarized, Raman Data Processed
Mineral: Montebrasite
Rruff sample: R040062
Ideal chemistry: LiAlPO_4_(OH)
Locality: Hebron, Maine, USA
Source: University of Arizona Mineral Museum
Description: White massive
Measured chemistry: LiAl(PO_4_)((OH)_0.62_F_0.38_)
Pin_id: L00144
Orientation: Laser parallel to (1 1 0). Fiducial mark perpendicular to laser is parallel to -c [0 0 -1]
Raman shift (cm-1)	intensity
111.932	0
116.123	30.318
120.311	151.73
124.497	872.649
128.681	2161.39
132.862	3739.18
137.042	2577.81
141.219	849.075
145.394	256.021
149.567	202.91
153.738	225.569
157.907	226.091
162.073	627.204
166.237	1011.3
170.4	1172.31
174.559	834.603
178.717	872.695
182.873	879.93
187.026	1011.23
191.178	819.306
195.327	567.596
199.474	166.41
203.618	16.125
207.761	56.742
211.902	308.126
216.04	330.072
220.176	192.423
224.31	315.058
228.442	148.9
232.572	203.767
236.7	40.646
240.825	156.343
244.948	273.376
249.07	149.652
253.189	105.672
257.306	61.654
261.42	101.488
265.533	733.062
269.643	1603.46
273.752	2463.64
277.858	2364.7
281.962	2000.9
286.064	2389.18
290.164	4018.6
294.262	9168.41
298.358	16018.6
302.451	12868.5
306.543	7428.43
310.632	5217.04
314.719	3815.09
318.804	3092.51
322.887	2319.38
326.968	1445.7
331.047	1001.63
335.124	627.233
339.198	362.41
343.271	186.259
347.341	348.247
351.409	298.997
355.475	310.834
359.539	192.763
363.601	199.353
367.661	321.829
371.719	535.244
375.775	541.854
379.828	639.248
383.88	504.801
387.929	708.335
391.977	540.01
396.022	632.432
400.065	757.776
404.106	731.7
408.146	895.36
412.182	797.045
416.217	1490
420.25	3867.37
424.281	11091.5
428.31	9940.75
432.336	3159.92
436.361	1218.95
440.383	794.414
444.404	466.51
448.422	294.965
452.438	363.125
456.453	190.973
460.465	258.486
464.475	145.667
468.483	552.494
472.489	1088.98
476.493	1455.13
480.495	2260.95
484.495	2456.45
488.493	2261.61
492.489	1866.45
496.482	1650.97
500.474	1405.15
504.464	978.299
508.451	580.91
512.437	213.609
516.421	235.242
520.402	76.982
524.382	91.836
528.359	70.592
532.335	134.299
536.308	173.455
540.279	178.893
544.249	51.342
548.216	76.885
552.181	108.885
556.145	191.678
560.106	402.787
564.065	280.57
568.023	198.166
571.978	85.424
575.931	392.35
579.882	608.068
583.831	540.699
587.779	620.18
591.724	1013.36
595.667	1950.88
599.608	3618.52
603.547	3408.32
607.485	2064.55
611.42	1579.76
615.353	1563.94
619.284	1827.84
623.213	3129.89
627.141	5172.07
631.066	6204.21
634.989	5065.93
638.91	7107.25
642.829	14608.2
646.747	17118.7
650.662	8318.78
654.575	3508.49
658.486	1977.8
662.396	1146.71
666.303	855.252
670.209	742.955
674.112	439.555
678.013	524.721
681.913	328.355
685.81	208.619
689.706	221.43
693.599	308.174
697.491	97.824
701.38	358.141
705.268	271.438
709.154	129.916
713.037	270.912
716.919	299.547
720.799	60.771
724.677	168.082
728.553	166.949
732.427	326.865
736.299	116.381
740.169	44.938
744.037	46.746
747.903	111.076
751.767	58.555
755.629	5.68
759.49	132.398
763.348	178.766
767.204	284.826
771.059	350.594
774.911	477.529
778.762	293.523
782.611	448.498
786.457	843.229
790.302	1107.72
794.145	1891.99
797.986	2566.03
801.825	2639.85
805.662	2283.46
809.497	1966.88
813.33	1720.1
817.162	1543.12
820.991	725.975
824.818	588.652
828.644	461.182
832.468	203.564
836.289	335.744
840.109	56.623
843.927	36.428
847.743	132.371
851.557	163.488
855.369	63.492
859.179	115.293
862.988	320.174
866.794	136.969
870.599	255.621
874.401	589.875
878.202	368.611
882.001	130.914
885.798	434.002
889.593	166.926
893.386	443.027
897.177	427.703
900.966	558.18
904.754	628.588
908.539	137.51
912.323	96.805
916.105	347.92
919.885	159.445
923.663	39.117
927.439	82.557
931.213	75.107
934.985	178.006
938.756	131.006
942.525	224.119
946.291	397.328
950.056	670.641
953.819	324.068
957.58	437.623
961.339	201.307
965.097	495.137
968.852	709.113
972.606	703.254
976.358	807.574
980.108	1192.08
983.856	1196.79
987.602	2301.58
991.346	3326.4
995.089	5161.53
998.829	7499.87
1002.57	11835.9
1006.3	16716.4
1010.04	19497
1013.77	16916.9
1017.5	11446.5
1021.23	7644.1
1024.96	6154.16
1028.69	5695.18
1032.41	6694
1036.13	9283.26
1039.85	12023.1
1043.57	15463.5
1047.29	15524.3
1051	14495.6
1054.72	14646.7
1058.43	16347.5
1062.14	13487.5
1065.84	8057.62
1069.55	4717.78
1073.25	3057.75
1076.95	2096.93
1080.66	1346.39
1084.35	1256.86
1088.05	1468.58
1091.74	1168.49
1095.44	1399.37
1099.13	1870.66
1102.82	2232.37
1106.51	3454.52
1110.19	3587.11
1113.87	3050.18
1117.56	3013.74
1121.24	3078.22
1124.91	2213.72
1128.59	1259.39
1132.27	875.096
1135.94	520.766
1139.61	386.854
1143.28	703.316
1146.95	430.135
1150.61	227.426
1154.28	195.248
1157.94	183.754
1161.6	197.018
1165.26	172.943
1168.91	13.791
1172.57	315.566
1176.22	418.316
1179.87	462.059
1183.52	576.758
1187.17	782.588
1190.81	259.715
1194.46	446.199
1198.1	453.758
1201.74	1070.09
1205.38	815.672
1209.02	734.59
1212.65	347.328
1216.29	689.637
1219.92	430.961
1223.55	79.09
1227.17	234.273
1230.8	98.18
1234.42	0
