Measurement: Raman, 514 nm, depolarized, Raman Data Processed
Mineral: Monticellite
Rruff sample: R040115
Ideal chemistry: CaMgSiO_4_
Locality: Magnet Cove, Arkansas, USA
Source: University of Arizona Mineral Museum
Description: Brown blebs in matrix
Measured chemistry: Ca_0.99_(Mg_0.85_ Fe_0.12_Mn_0.03_)Si_1.00_O_4_
Pin_id: M00451
Orientation: Laser parallel to c* (0 0 1). Fiducial mark perpendicular to laser is parallel to -a [-1 0 0]
Raman shift (cm-1)	intensity
120.508	0
124.675	157.225
128.84	115.952
133.003	372.872
137.164	516.614
141.323	1045.89
145.48	1148.27
149.635	730.313
153.788	587.493
157.939	816.908
162.088	1411.19
166.235	1601.16
170.38	1332.63
174.523	963.88
178.664	338.265
182.803	118.545
186.94	45.772
191.076	90.766
195.209	18.409
199.34	117.611
203.47	131.273
207.597	115.917
211.722	130.242
215.846	164.288
219.967	102.114
224.087	2.049
228.204	62.642
232.32	38.783
236.434	90.977
240.545	181.938
244.655	328.075
248.763	815.527
252.869	1866.06
256.973	2864.61
261.075	2099.22
265.175	954.873
269.273	582.565
273.369	532.281
277.463	212.007
281.556	72.726
285.646	284.312
289.734	191.18
293.821	436.713
297.905	486.494
301.988	689.167
306.069	587.228
310.147	183.508
314.224	33.799
318.299	5.274
322.372	115.189
326.443	108.455
330.512	90.902
334.579	201.842
338.645	40.289
342.708	62.503
346.769	110.693
350.829	86.6
354.887	45.674
358.942	6.338
362.996	1.464
367.048	49.039
371.098	217.518
375.146	56.965
379.192	153.383
383.236	308.509
387.279	556.802
391.319	1027.04
395.358	2087.32
399.394	3590.56
403.429	4677.62
407.462	4636.61
411.493	2837.5
415.522	1428.26
419.549	653.017
423.575	425.641
427.598	450.116
431.619	233.44
435.639	204.604
439.657	115.603
443.673	65.434
447.687	80.253
451.699	53.831
455.709	204.8
459.717	65.725
463.724	16.846
467.728	211.539
471.731	55.791
475.732	188.385
479.731	23.452
483.728	17.827
487.723	180.087
491.716	119.957
495.708	20.988
499.697	0.973
503.685	118.365
507.671	159.377
511.655	85.609
515.637	79.281
519.617	357.059
523.596	496.164
527.572	1058
531.547	1811.83
535.52	1341.51
539.491	796.223
543.46	449.562
547.427	463.316
551.393	425.783
555.356	903.148
559.318	918.717
563.278	389.119
567.236	415.988
571.192	761.206
575.147	806.361
579.099	1146
583.05	1696.02
586.999	1667.95
590.946	1617.73
594.891	901.008
598.834	848.964
602.776	505.633
606.715	411.825
610.653	203.582
614.589	304.089
618.523	183.896
622.456	116.7
626.386	167.021
630.315	215.818
634.242	283.698
638.167	17.327
642.09	60.965
646.012	37.645
649.931	73.807
653.849	95.324
657.765	129.206
661.679	22.013
665.592	195.586
669.502	238.104
673.411	118.088
677.318	71.445
681.223	131.453
685.126	250.301
689.028	59.91
692.927	116.23
696.825	233.279
700.721	242.336
704.616	43.871
708.508	267.031
712.399	393.783
716.288	136.127
720.175	25.812
724.06	68.936
727.944	96.467
731.825	354.707
735.705	40.586
739.584	178.273
743.46	112.791
747.334	339.145
751.207	325.344
755.078	122.395
758.947	273.297
762.815	454.908
766.68	553.158
770.544	403.537
774.406	606.822
778.267	719.117
782.125	754.088
785.982	898.184
789.837	1167.6
793.69	1429.38
797.542	2238.67
801.391	3116.91
805.239	5039.81
809.085	10289.5
812.93	22515.8
816.772	40479.5
820.613	36237.7
824.452	19014.9
828.29	10273.7
832.125	6404.38
835.959	4655.1
839.791	5019.81
843.621	8917.45
847.45	18396
851.277	22547
855.102	12051.2
858.925	5908.05
862.746	2982.23
866.566	1990.65
870.384	1221.96
874.2	1090.36
878.015	1017.77
881.828	563.453
885.639	677.146
889.448	426.281
893.256	653.766
897.061	1313.38
900.865	1427.21
904.668	566.102
908.468	302.957
912.267	161.99
916.064	240.107
919.86	99.623
923.653	134.869
927.445	285.217
931.236	275.004
935.024	239.391
938.811	714.002
942.596	2247.9
946.379	5340.09
950.161	4704.85
953.94	2117.38
957.719	1023.03
961.495	474.508
965.27	89.461
969.043	69.625
972.814	98.371
976.583	2.205
980.351	20.033
984.117	47.834
987.882	151.6
991.644	335.086
995.405	209.346
999.165	155.045
1002.92	529.518
1006.68	312.152
1010.43	217.447
1014.18	380.512
1017.93	14.721
1021.68	95.041
1025.43	413.547
1029.18	499.357
1032.92	547.506
1036.66	560.119
1040.4	527.293
1044.14	299.09
1047.88	345.701
1051.62	686.68
1055.35	441.025
1059.08	246.031
1062.81	334.133
1066.54	169.584
1070.27	518.842
1073.99	511.65
1077.72	345.564
1081.44	395.908
1085.16	207.887
1088.88	181.742
1092.59	85.045
1096.31	92.748
1100.02	69.068
1103.73	131.377
1107.44	232.061
1111.15	43.879
1114.86	112.756
1118.57	198.387
1122.27	93.617
1125.97	317.758
1129.67	335.855
1133.37	233.443
1137.07	12.967
1140.76	243.309
1144.45	125.766
1148.15	211.092
1151.84	193.541
1155.53	352.846
1159.21	32.895
1162.9	220.582
1166.58	101.105
1170.26	463.863
1173.94	128.566
1177.62	391.424
1181.3	260.707
1184.97	311.246
1188.65	393.133
1192.32	408.699
1195.99	230.828
1199.66	559.564
1203.33	281.992
1206.99	462.805
1210.65	5.703
1214.32	248.613
1217.98	264.295
1221.64	277.088
1225.29	263.131
1228.95	346.076
1232.6	288.369
1236.26	577.201
1239.91	413.088
1243.56	347.82
1247.2	157.477
1250.85	107.701
1254.49	32.682
1258.13	202.996
1261.78	247.412
1265.41	235.385
1269.05	318.02
1272.69	265.221
1276.32	239.713
1279.95	247.959
1283.59	200.645
1287.21	43.906
1290.84	128.283
1294.47	123.682
1298.09	66.666
1301.72	277.387
1305.34	231.268
1308.96	89.098
1312.58	370.123
1316.19	112.154
1319.81	189.73
1323.42	85.984
1327.03	29.73
1330.64	63.863
1334.25	397.543
1337.86	91.098
1341.46	92.262
1345.07	166.445
1348.67	169.621
1352.27	90.117
1355.87	378.844
1359.46	501.883
1363.06	474.938
1366.65	487.461
1370.25	375.984
1373.84	530.746
1377.43	429.688
1381.02	208.664
1384.6	262.008
1388.18	451.223
1391.77	271.625
1395.35	207.586
1398.93	615.004
1402.51	440.418
1406.08	455.012
1409.66	333.133
1413.23	286.723
1416.8	572.867
1420.37	679.312
1423.94	495.469
1427.51	617.457
1431.08	624.301
1434.64	644.035
1438.2	694.133
1441.76	588.715
1445.32	527.66
1448.88	606.137
1452.43	461.98
1455.99	648.738
1459.54	466.289
1463.09	927.766
1466.64	834.336
1470.19	598.012
1473.74	922.688
1477.28	677.719
1480.83	601.629
1484.37	534.699
1487.91	549.418
1491.45	326.426
1494.98	514.375
1498.52	600.934
1502.05	101.891
1505.59	259.977
1509.12	28.836
1512.65	134.332
1516.17	571.477
1519.7	0
