Measurement: Raman, 514 nm, depolarized, Raman Data Processed
Mineral: Montebrasite
Rruff sample: R060890
Ideal chemistry: LiAlPO_4_(OH)
Locality: Mount Marie, Paris, Maine, USA
Source: Bob Jenkins
Description: Colorless massive
Measured chemistry: Li_1.00_Al_1.00_(P_1.00_O_4_)(OH)_0.63_F_0.37_)_Î£=1_ ; Li not measured but estimated by stoichiometry
Pin_id: M01503
Orientation: Laser parallel to (-1 0 -1). Fiducial mark perpendicular to laser is parallel to b [0 1 0]
Raman shift (cm-1)	intensity
90.678	0
95.631	108.342
100.581	40.5488
105.529	310.239
110.475	617.685
115.417	958.542
120.358	1275.61
125.295	2295.67
130.23	3507.3
135.163	2822.27
140.092	1555.39
145.019	980.689
149.944	984.553
154.866	1144.68
159.785	1134.09
164.702	1250.83
169.616	1030.56
174.528	914.223
179.437	700.553
184.343	956.747
189.247	943.592
194.148	1016.9
199.046	916.504
203.942	132.259
208.835	37.7578
213.726	22.793
218.614	141.824
223.5	127.056
228.382	72.29
233.263	150.139
238.14	33.0059
243.015	139.26
247.888	87.9277
252.758	14.4854
257.625	302.298
262.49	721.333
267.352	1616.57
272.211	2156.62
277.068	2155.28
281.922	2191.32
286.773	3417.79
291.622	7345.8
296.469	14470.4
301.312	22212
306.154	16926.5
310.992	10615.1
315.828	7051.36
320.661	4262.74
325.492	2704.99
330.32	1787.25
335.145	1181.49
339.968	970.701
344.789	835.875
349.606	641.762
354.421	587.32
359.234	470.435
364.043	698.227
368.851	734.914
373.655	672.125
378.457	652.239
383.256	432.477
388.053	347.741
392.847	326.51
397.639	195.013
402.428	99.9863
407.214	199.435
411.998	645.975
416.779	1754.82
421.557	3769.54
426.333	5785.15
431.106	2374.2
435.877	812.826
440.645	398.887
445.41	110.115
450.173	216.322
454.933	446.519
459.691	588.574
464.446	1234.53
469.198	2048.52
473.948	3755.45
478.695	5495.29
483.439	6329.01
488.181	5783.61
492.92	4850.12
497.657	3569.51
502.391	2534.89
507.122	1552.99
511.851	818.255
516.577	527.153
521.301	75.915
526.022	110.494
530.74	19.043
535.456	203.483
540.169	82.5029
544.879	39.3994
549.587	28.7812
554.292	72.167
558.995	92.1787
563.695	39.4785
568.392	158.502
573.087	271.13
577.779	310.983
582.469	599.027
587.156	699.144
591.84	1256.43
596.522	2318.48
601.201	3969.45
605.877	3485.77
610.551	2221.82
615.222	2336.75
619.891	3009.11
624.557	4852.73
629.22	7717.64
633.881	11248.6
638.539	19551.9
643.195	35405.7
647.848	37485.9
652.498	15674.2
657.145	6313.03
661.791	3140.69
666.433	1915.88
671.073	1248.94
675.71	705.265
680.345	628.351
684.977	380.857
689.606	365.342
694.233	126.441
698.857	333.7
703.478	114.03
708.097	285.636
712.714	98.1084
717.327	163.988
721.938	68.3555
726.547	34.0059
731.153	161.304
735.756	187.303
740.356	165.31
744.954	220.203
749.55	111.315
754.142	184.433
758.733	271.803
763.32	78.1211
767.905	114.648
772.487	174.927
777.067	209.627
781.644	176.4
786.218	255.31
790.79	318.656
795.359	497.211
799.926	683.113
804.49	809.336
809.051	657.922
813.61	760.078
818.166	619.008
822.72	436.475
827.271	367.119
831.819	329.312
836.365	143.752
840.908	65.3809
845.448	13.0625
849.986	12.0176
854.521	22.1055
859.054	196.31
863.584	45.5078
868.111	15.877
872.636	98.8125
877.158	103.562
881.677	118.455
886.194	82.0488
890.709	115.906
895.22	20.5312
899.729	73.959
904.236	5.79492
908.74	30.2734
913.241	51.502
917.739	53.8652
922.235	20.1406
926.729	22.2363
931.219	60.0449
935.708	239.908
940.193	134.875
944.676	242.971
949.156	310.215
953.634	305.627
958.109	492.223
962.582	788.037
967.051	927.367
971.519	1272.09
975.983	1539.19
980.445	2470.25
984.905	3660.34
989.362	6150.99
993.816	10384.2
998.267	17460.2
1002.72	27601.9
1007.16	38717.9
1011.61	41496.6
1016.05	32448
1020.49	20874.4
1024.92	13486.2
1029.36	10413.3
1033.79	11103.2
1038.21	13013
1042.64	15606.5
1047.06	17252.7
1051.48	18570.3
1055.9	22351.2
1060.32	28452
1064.73	25326.6
1069.14	13639.7
1073.55	6656.5
1077.95	3731.97
1082.35	2372.09
1086.75	1536.91
1091.15	1072.39
1095.54	835.215
1099.93	955.189
1104.32	1204.14
1108.71	1564.87
1113.09	2004.02
1117.47	2092.89
1121.85	1931.2
1126.23	1718.8
1130.6	1540.79
1134.97	1303.89
1139.34	1085.94
1143.7	986.67
1148.07	989.914
1152.43	1049.74
1156.79	955.115
1161.14	752.111
1165.49	658.955
1169.84	544.643
1174.19	615.926
1178.54	642.865
1182.88	786.359
1187.22	1133.01
1191.55	1518.01
1195.89	1257.95
1200.22	1312.51
1204.55	966.838
1208.87	557.348
1213.2	532.141
1217.52	197.906
1221.84	166.99
1226.15	311.897
1230.47	25.377
1234.78	82.9961
1239.09	53.6562
1243.39	45.2461
1247.69	120.566
1251.99	70.1172
1256.29	95.9394
1260.59	253.592
1264.88	124.773
1269.17	185.897
1273.46	163.656
1277.74	126.59
1282.02	290.076
1286.3	121.49
1290.58	181.158
1294.86	24.0938
1299.13	230.414
1303.39	136.709
1307.66	115.885
1311.93	174.074
1316.19	292.797
1320.45	376.262
1324.7	148.688
1328.96	183.244
1333.21	313.584
1337.45	251.365
1341.7	65.8926
1345.94	319.137
1350.18	42.582
1354.42	473.578
1358.66	356.654
1362.89	220.953
1367.12	173.037
1371.35	59.5449
1375.57	219.565
1379.8	33.1562
1384.02	165.486
1388.23	214.643
1392.45	85.8535
1396.66	79.1856
1400.87	44.9473
1405.08	1.25781
1409.28	227.992
1413.48	92.2734
1417.68	143.062
1421.88	65.0801
1426.07	124.934
1430.26	162.481
1434.45	604.891
1438.64	157.746
1442.82	224.191
1447	97.4512
1451.18	325.35
1455.35	246.519
1459.53	329.81
1463.7	211.125
1467.87	49.9219
1472.03	234.287
1476.19	382.475
1480.35	335.244
1484.51	303.785
1488.67	477.582
1492.82	538.856
1496.97	908.299
1501.12	1537.71
1505.26	1573.77
1509.4	1758.54
1513.54	1442.36
1517.68	1229.69
1521.81	1193.48
1525.94	496.012
1530.07	294.402
1534.2	462.144
1538.32	71.4922
1542.44	167.848
1546.56	167.375
1550.68	146.051
1554.79	156.889
1558.9	289.066
1563.01	229.678
1567.12	68.334
1571.22	240.996
1575.32	0.896484
