Measurement: Raman, 514 nm, depolarized, Raman Data Processed
Mineral: Montebrasite
Rruff sample: R060890
Ideal chemistry: LiAlPO_4_(OH)
Locality: Mount Marie, Paris, Maine, USA
Source: Bob Jenkins
Description: Colorless massive
Measured chemistry: Li_1.00_Al_1.00_(P_1.00_O_4_)(OH)_0.63_F_0.37_)_Î£=1_ ; Li not measured but estimated by stoichiometry
Pin_id: M01677
Orientation: Laser parallel to b* (0 1 0). Fiducial mark perpendicular to laser is parallel to c [0 0 1]
Raman shift (cm-1)	intensity
90.678	0
95.631	390.383
100.581	187.221
105.529	41.5234
110.475	419.018
115.417	375.055
120.358	620.244
125.295	719.434
130.23	888.371
135.163	849.023
140.092	424.213
145.019	448.438
149.944	445.383
154.866	958.828
159.785	1444.81
164.702	2044.08
169.616	2011.7
174.528	1437.06
179.437	1327.35
184.343	1142.71
189.247	967.236
194.148	559.965
199.046	372.912
203.942	213.065
208.835	174.406
213.726	307.92
218.614	254.59
223.5	22.3047
228.382	412.144
233.263	281.19
238.14	124.223
243.015	235.5
247.888	173.873
252.758	461.086
257.625	326.943
262.49	824.611
267.352	1027.73
272.211	1201.21
277.068	1191.91
281.922	1075.63
286.773	1748.34
291.622	3294.93
296.469	6256.52
301.312	7960.9
306.154	6044.09
310.992	3466.03
315.828	2071.72
320.661	1186.12
325.492	645.246
330.32	329.102
335.145	249.666
339.968	212.93
344.789	16.875
349.606	110.494
354.421	213.756
359.234	197.611
364.043	126.064
368.851	13.875
373.655	402.69
378.457	83.8418
383.256	37.6602
388.053	91.0137
392.847	106.293
397.639	59.2773
402.428	364.621
407.214	446.305
411.998	817.658
416.779	2684.63
421.557	5504.33
426.333	6669.65
431.106	2919.12
435.877	1053.85
440.645	380.947
445.41	388.809
450.173	220.225
454.933	207.236
459.691	640.131
464.446	439.555
469.198	670.455
473.948	1122.83
478.695	1669.66
483.439	1799.98
488.181	1932.76
492.92	1758.97
497.657	1260.78
502.391	970.109
507.122	891.572
511.851	545.234
516.577	371.496
521.301	26.1465
526.022	181.404
530.74	169.49
535.456	162.981
540.169	240.266
544.879	58.5664
549.587	216.055
554.292	154.623
558.995	131.213
563.695	209.289
568.392	8.04492
573.087	151.828
577.779	158.363
582.469	394.535
587.156	206.641
591.84	322.231
596.522	628.254
601.201	693.203
605.877	715.148
610.551	491.266
615.222	623.551
619.891	741.394
624.557	1317.23
629.22	1695.51
633.881	2695.97
638.539	4857.32
643.195	6951.98
647.848	6854.84
652.498	2905.09
657.145	1128.5
661.791	864.731
666.433	574.883
671.073	247.535
675.71	355.531
680.345	143.785
684.977	160.555
689.606	132.305
694.233	216.121
698.857	171.039
703.478	43.8516
708.097	5.39062
712.714	143.738
717.327	47.668
721.938	89
726.547	320.469
731.153	90.043
735.756	98.7109
740.356	279.238
744.954	299.508
749.55	120.207
754.142	225.984
758.733	293.781
763.32	163.305
767.905	139.211
772.487	362.863
777.067	189.098
781.644	217.777
786.218	350.086
790.79	639.273
795.359	589.438
799.926	866.461
804.49	806.324
809.051	865.742
813.61	967.367
818.166	959.231
822.72	515.148
827.271	643.195
831.819	478.434
836.365	520.856
840.908	102.324
845.448	354.191
849.986	75.9453
854.521	196.121
859.054	161.266
863.584	119.637
868.111	143.996
872.636	295.172
877.158	271.258
881.677	88.3633
886.194	106.613
890.709	50.0156
895.22	23.8164
899.729	93.4336
904.236	4.39844
908.74	107.199
913.241	93.2773
917.739	292.328
922.235	255.367
926.729	265.117
931.219	267.031
935.708	15.125
940.193	119.402
944.676	411.574
949.156	151.875
953.634	330.422
958.109	190.211
962.582	343.246
967.051	537.547
971.519	277.109
975.983	344.043
980.445	521.348
984.905	1223.01
989.362	1531.93
993.816	2757.87
998.267	4291.84
1002.72	6764.07
1007.16	9085.98
1011.61	9364.51
1016.05	6771.35
1020.49	4696.55
1024.92	3048.1
1029.36	2645.18
1033.79	2974.85
1038.21	3596.42
1042.64	4682.22
1047.06	4816.65
1051.48	5904.1
1055.9	7469.34
1060.32	9332.13
1064.73	8641.36
1069.14	4496.16
1073.55	2443.64
1077.95	1260.12
1082.35	1033
1086.75	535.285
1091.15	449.977
1095.54	312.203
1099.93	622.953
1104.32	576.371
1108.71	748.219
1113.09	850.609
1117.47	849.059
1121.85	1157.78
1126.23	723.031
1130.6	567.629
1134.97	660.66
1139.34	187.992
1143.7	217.742
1148.07	117.07
1152.43	221.281
1156.79	299.973
1161.14	93.3281
1165.49	139.371
1169.84	237.609
1174.19	55.5742
1178.54	225.258
1182.88	88.9375
1187.22	269.07
1191.55	417.664
1195.89	346.512
1200.22	809.633
1204.55	482.016
1208.87	566.219
1213.2	444.266
1217.52	248.176
1221.84	101.629
1226.15	248.402
1230.47	57.2656
1234.78	35.7617
1239.09	94.2109
1243.39	207.328
1247.69	303.586
1251.99	91.0312
1256.29	123.184
1260.59	363.43
1264.88	13.793
1269.17	14.2305
1273.46	162.547
1277.74	160.535
1282.02	160.121
1286.3	92.6797
1290.58	9.73438
1294.86	48.0117
1299.13	472.305
1303.39	233.668
1307.66	463.281
1311.93	339.844
1316.19	411.844
1320.45	433.879
1324.7	335.992
1328.96	259.141
1333.21	35.3086
1337.45	333.481
1341.7	29.375
1345.94	563.266
1350.18	480.164
1354.42	652.047
1358.66	205.688
1362.89	388.062
1367.12	312.191
1371.35	580.238
1375.57	344.883
1379.8	127.781
1384.02	534.297
1388.23	332.223
1392.45	308.074
1396.66	221.922
1400.87	174.227
1405.08	300.621
1409.28	387.394
1413.48	386.965
1417.68	310.121
1421.88	86.8008
1426.07	519.375
1430.26	202.418
1434.45	157.75
1438.64	408.277
1442.82	184.93
1447	363.754
1451.18	410.805
1455.35	520.613
1459.53	256.051
1463.7	397.156
1467.87	197.484
1472.03	206.965
1476.19	592.465
1480.35	349.293
1484.51	246.328
1488.67	418.215
1492.82	436.121
1496.97	533.102
1501.12	286.547
1505.26	384.801
1509.4	493.027
1513.54	83.6992
1517.68	162.769
1521.81	570.18
1525.94	482.289
1530.07	543.027
1534.2	427.867
1538.32	481.309
1542.44	235.43
1546.56	162.297
1550.68	284.789
1554.79	533.164
1558.9	254.055
1563.01	356.379
1567.12	553.156
1571.22	422.754
