Measurement: Raman, 514 nm, depolarized, Raman Data Processed
Mineral: Montebrasite
Rruff sample: R040060
Ideal chemistry: LiAlPO_4_(OH)
Locality: Oxford County, Maine, USA
Source: University of Arizona Mineral Museum
Description: White massive
Measured chemistry: LiAl(PO_4_)((OH)_0.79_F_0.21_)
Pin_id: L00466
Orientation: Laser parallel to (-1 0 -1). Fiducial mark perpendicular to laser is parallel to b [0 1 0]
Raman shift (cm-1)	intensity
107.207	0
111.393	244.439
115.576	2221.07
119.757	2291.57
123.936	1139.09
128.112	1188.52
132.287	2498.36
136.46	3167.78
140.63	2153.73
144.799	683.374
148.965	217.198
153.13	196.96
157.292	322.665
161.452	768.312
165.611	1140.21
169.767	1439.82
173.921	1117.68
178.073	910.419
182.222	913.087
186.37	1100.43
190.516	1359.63
194.66	1444.83
198.801	1265.53
202.941	661.806
207.079	232.532
211.214	33.542
215.348	21.698
219.479	171.875
223.608	207.573
227.736	222.156
231.861	205.536
235.984	72.981
240.105	14.381
244.224	107.86
248.342	58.865
252.457	185.882
256.57	74.573
260.681	35.823
264.79	200.365
268.896	805.643
273.001	1818.14
277.104	2588.87
281.205	1922.06
285.304	1626.09
289.401	2590.86
293.495	6495.91
297.588	11960.9
301.679	11094.5
305.767	6697.62
309.854	4530.17
313.939	3371.93
318.021	2692.97
322.102	2373.36
326.181	1693.02
330.257	959.994
334.332	483.47
338.405	320.312
342.475	138.806
346.544	156.059
350.61	63.983
354.675	32.924
358.738	53.187
362.798	9.821
366.857	140.603
370.913	190.445
374.968	268.371
379.021	325.106
383.071	312.957
387.12	419.383
391.166	445.145
395.211	573.743
399.254	584.152
403.294	588.485
407.333	794.365
411.37	906.324
415.405	1118.02
419.437	2166.16
423.468	6662.3
427.497	10716.7
431.524	5542.88
435.549	2008.86
439.572	894.473
443.593	539.684
447.611	364.473
451.628	338.816
455.644	332.686
459.657	376.056
463.668	418.924
467.677	601.298
471.684	922.229
475.689	1664.57
479.692	2665.47
483.694	3005.88
487.693	3065.81
491.691	2815.26
495.686	2434.23
499.68	2022.3
503.671	1268.03
507.661	842.271
511.648	377.603
515.634	171.311
519.618	142.253
523.6	124.196
527.58	36.638
531.558	71.782
535.534	26.377
539.508	4.679
543.48	3.688
547.45	284.302
551.418	119.718
555.385	140.324
559.349	105.35
563.312	15.306
567.272	113.569
571.231	198.138
575.187	173.938
579.142	296.653
583.095	619.333
587.046	545.882
590.995	958.561
594.942	1558.69
598.888	3129.16
602.831	3748.41
606.772	2298.68
610.712	1416.52
614.649	1096.05
618.585	1347.47
622.519	2062.05
626.45	3836.12
630.38	4529.69
634.308	3772.76
638.235	4565.34
642.159	9447.41
646.081	14459
650.002	9200.07
653.92	3980.65
657.837	1870.74
661.752	1110.36
665.664	699.526
669.575	468.29
673.484	305.501
677.392	141.268
681.297	105.99
685.2	65.201
689.102	4.216
693.002	174.399
696.899	13.735
700.795	46.411
704.689	33.274
708.581	58.223
712.472	24.727
716.36	20.829
720.247	9.455
724.131	67.694
728.014	11.561
731.895	81.753
735.774	89.772
739.651	88.244
743.526	136.054
747.4	153.276
751.271	130.621
755.141	176.814
759.009	114.793
762.875	120.271
766.739	85.039
770.601	171.195
774.462	324.988
778.32	298.373
782.177	551.352
786.032	724.467
789.885	1156.65
793.736	1758.45
797.585	2439.88
801.433	2630.92
805.279	2471.6
809.122	1911.92
812.964	1371.89
816.804	1171.51
820.643	780.789
824.479	679.738
828.314	428.033
832.147	174.246
835.977	149.41
839.807	104.285
843.634	87.283
847.459	162.723
851.283	121.719
855.105	30.664
858.925	43.326
862.743	59.246
866.559	74.959
870.373	44.049
874.186	49.473
877.997	122.469
881.806	37.162
885.613	47.307
889.419	18.514
893.222	62.787
897.024	75.812
900.824	14.557
904.622	16.822
908.418	67.557
912.213	68.414
916.005	2.084
919.796	51.471
923.585	70.449
927.373	183.371
931.158	546.242
934.942	20.922
938.724	161.861
942.504	344.625
946.282	297.375
950.059	370.119
953.833	512.869
957.606	545.631
961.377	888.41
965.147	2561.22
968.914	1374.06
972.68	1036.96
976.444	1169.93
980.206	1402.96
983.967	1396.01
987.725	1589.12
991.482	2332.21
995.237	3604.84
998.99	5299.07
1002.74	8466.28
1006.49	13332.7
1010.24	18401.4
1013.99	17975.4
1017.73	12684.3
1021.47	7960.67
1025.21	5742.59
1028.95	4937.34
1032.69	5141.23
1036.42	6614.38
1040.16	9500.3
1043.89	13937
1047.62	14924.1
1051.35	13670.6
1055.08	14648.1
1058.8	18545.8
1062.53	16391.4
1066.25	9619.15
1069.97	5255.61
1073.68	3234.26
1077.4	2373.14
1081.11	1642.25
1084.83	1211.08
1088.54	1030.69
1092.25	1020.54
1095.95	910.68
1099.66	1571.22
1103.36	2271.75
1107.07	3502.52
1110.77	3703.57
1114.47	2814.91
1118.16	2016.53
1121.86	1719.97
1125.55	1302.77
1129.24	975.316
1132.93	819.926
1136.62	483.139
1140.31	170.582
1143.99	55.17
1147.68	89.129
1151.36	133.938
1155.04	171.643
1158.71	177.434
1162.39	244.617
1166.07	69.312
1169.74	106.947
1173.41	173.318
1177.08	200.186
1180.75	886.699
1184.41	1332.44
1188.08	1607.07
1191.74	1632.11
1195.4	1277.6
1199.06	1013.59
1202.71	530.078
1206.37	717.02
1210.02	364.434
1213.68	502.311
1217.33	430.65
1220.98	329.469
1224.62	248.768
1228.27	108.502
1231.91	188.68
1235.55	9.215
1239.19	168.639
1242.83	223.082
1246.47	404.33
1250.1	323.342
1253.74	215.174
1257.37	287.412
1261	70.336
1264.63	46.004
1268.25	8.385
1271.88	243.506
1275.5	389.367
1279.12	225.979
1282.74	203.375
1286.36	1.832
1289.98	71.049
1293.59	52.629
1297.21	21.373
1300.82	89.518
1304.43	604.057
1308.04	408.713
1311.64	597.594
1315.25	525.934
1318.85	531.785
1322.45	299.209
1326.05	0.881
