Measurement: Raman, 514 nm, depolarized, Raman Data Processed
Mineral: Montebrasite
Rruff sample: R060890
Ideal chemistry: LiAlPO_4_(OH)
Locality: Mount Marie, Paris, Maine, USA
Source: Bob Jenkins
Description: Colorless massive
Measured chemistry: Li_1.00_Al_1.00_(P_1.00_O_4_)(OH)_0.63_F_0.37_)_Î£=1_ ; Li not measured but estimated by stoichiometry
Pin_id: M01307
Orientation: Laser parallel to -c* (0 0 -1). Fiducial mark perpendicular to laser is parallel to a [1 0 0]
Raman shift (cm-1)	intensity
90.678	0
95.631	33.5117
100.581	102.285
105.529	811.322
110.475	1256.97
115.417	2262.34
120.358	2281.61
125.295	4062.54
130.23	5925.41
135.163	4325.3
140.092	2114.28
145.019	870.784
149.944	1142.58
154.866	1512.81
159.785	2276.19
164.702	3162.55
169.616	3266.04
174.528	2647.51
179.437	1894.83
184.343	1820.4
189.247	1763.91
194.148	1703.04
199.046	1960.58
203.942	1159.31
208.835	854.775
213.726	643.886
218.614	359.696
223.5	226.507
228.382	92.8232
233.263	77.8223
238.14	89.4209
243.015	25.3271
247.888	122.48
252.758	22.374
257.625	274.773
262.49	1221.82
267.352	1917.44
272.211	2744.43
277.068	2536.79
281.922	2260.04
286.773	3005.32
291.622	5391.76
296.469	10510.5
301.312	17310.6
306.154	13233.1
310.992	7253.98
315.828	4359.47
320.661	3438.3
325.492	2173.93
330.32	1454.6
335.145	959.285
339.968	672.975
344.789	629.67
349.606	256.357
354.421	492.043
359.234	578.734
364.043	563.258
368.851	513.467
373.655	540.584
378.457	735.789
383.256	470.268
388.053	185.418
392.847	184.848
397.639	95.8691
402.428	413.668
407.214	211.85
411.998	524.941
416.779	1240.84
421.557	3211.83
426.333	5663.01
431.106	2362.51
435.877	868.465
440.645	590.5
445.41	357.697
450.173	613.053
454.933	1445.57
459.691	2605.16
464.446	3854.86
469.198	3162.76
473.948	3028.96
478.695	3971.32
483.439	4299.55
488.181	3811.68
492.92	3242.32
497.657	2444.33
502.391	1940.5
507.122	1547.79
511.851	627.211
516.577	469.623
521.301	261.797
526.022	135.416
530.74	3.07031
535.456	114.486
540.169	52.8164
544.879	78.3281
549.587	115.566
554.292	68.9727
558.995	119.25
563.695	206.602
568.392	63.418
573.087	98.7383
577.779	321.277
582.469	206.621
587.156	640.252
591.84	1034.6
596.522	2297.17
601.201	4401.07
605.877	3917.06
610.551	2007.86
615.222	1618.01
619.891	2195.4
624.557	2935.29
629.22	4494.47
633.881	6717.97
638.539	10026
643.195	20424.8
647.848	25668.4
652.498	10892.9
657.145	4428.19
661.791	2221.53
666.433	1257.76
671.073	839.506
675.71	728.363
680.345	593.932
684.977	265.545
689.606	95.7266
694.233	119.543
698.857	215.137
703.478	148.18
708.097	157.039
712.714	17.5156
717.327	33.832
721.938	65.5762
726.547	11.4766
731.153	37.873
735.756	46.1738
740.356	160.353
744.954	36.4375
749.55	9.21094
754.142	126.787
758.733	141.887
763.32	240.611
767.905	58.5449
772.487	221.506
777.067	182.272
781.644	447.062
786.218	633.264
790.79	979.08
795.359	1325.22
799.926	1572.55
804.49	1775.52
809.051	2051.56
813.61	2058.83
818.166	1649.33
822.72	1290.45
827.271	989.971
831.819	864.557
836.365	370.893
840.908	269.025
845.448	439.078
849.986	154.717
854.521	272.147
859.054	260.897
863.584	89.2871
868.111	93.8418
872.636	55.2305
877.158	102.137
881.677	53.1094
886.194	122.584
890.709	176.856
895.22	83.4902
899.729	122.566
904.236	18.6914
908.74	31.1523
913.241	57.7363
917.739	10.3594
922.235	68.3731
926.729	34.5684
931.219	150.699
935.708	33.4434
940.193	39.3047
944.676	147.053
949.156	306.346
953.634	52.2559
958.109	337.312
962.582	602.336
967.051	827.365
971.519	558.393
975.983	743.521
980.445	1136.98
984.905	1608.9
989.362	2535.97
993.816	3991.9
998.267	6325.25
1002.72	9985.56
1007.16	14506.6
1011.61	16865.7
1016.05	13704
1020.49	9575.38
1024.92	7170.4
1029.36	6942.93
1033.79	8553.73
1038.21	11876.7
1042.64	14681.8
1047.06	16353.9
1051.48	16925.6
1055.9	18991
1060.32	23692.9
1064.73	22382.3
1069.14	12806.2
1073.55	6317.32
1077.95	3811.4
1082.35	2196.77
1086.75	1724
1091.15	1435.63
1095.54	1328.61
1099.93	1259.94
1104.32	1920
1108.71	2504.41
1113.09	3384.37
1117.47	3532.66
1121.85	3836.58
1126.23	3469.34
1130.6	2853.11
1134.97	2386.97
1139.34	1694.52
1143.7	858.068
1148.07	679.652
1152.43	497.389
1156.79	334.193
1161.14	527.58
1165.49	201.098
1169.84	570.295
1174.19	819.324
1178.54	483.635
1182.88	681.133
1187.22	786.336
1191.55	1254.13
1195.89	1334.48
1200.22	1116.94
1204.55	785.666
1208.87	667.088
1213.2	817.59
1217.52	368.381
1221.84	278.643
1226.15	215.977
1230.47	118.564
1234.78	28.4004
1239.09	20.6133
1243.39	47.1289
1247.69	128.793
1251.99	109.043
1256.29	8.8418
1260.59	96.2539
1264.88	128.66
1269.17	105.08
1273.46	0.789063
1277.74	230.103
1282.02	191.883
1286.3	7.0625
1290.58	82.0801
1294.86	154.731
1299.13	282.262
1303.39	191.951
1307.66	37.457
1311.93	141.463
1316.19	13.2695
1320.45	135.33
1324.7	237.453
1328.96	417.732
1333.21	322.504
1337.45	147.336
1341.7	401.703
1345.94	181.664
1350.18	194.158
1354.42	305.137
1358.66	355.861
1362.89	404.455
1367.12	249.885
1371.35	87.4531
1375.57	271.703
1379.8	326.166
1384.02	690.807
1388.23	318.639
1392.45	8.07617
1396.66	27.9414
1400.87	59.8027
1405.08	122.807
1409.28	139.41
1413.48	155.188
1417.68	209.662
1421.88	312.703
1426.07	21.9102
1430.26	230.332
1434.45	312.414
1438.64	378.562
1442.82	482.637
1447	251.656
1451.18	111.465
1455.35	25.2617
1459.53	486.441
1463.7	393.953
1467.87	238.371
1472.03	471.277
1476.19	562.109
1480.35	228.637
1484.51	365.234
1488.67	220.031
1492.82	243.172
1496.97	239.457
1501.12	197.383
1505.26	245.086
1509.4	182.375
1513.54	304.398
1517.68	285.246
1521.81	29.5508
1525.94	301.832
1530.07	127.535
1534.2	376.211
1538.32	347.891
1542.44	615.328
1546.56	388.113
1550.68	394.883
1554.79	427.535
1558.9	153.652
1563.01	213.598
1567.12	92.9023
1571.22	194.215
1575.32	0.96875
