Measurement: Raman, 514 nm, depolarized, Raman Data Processed
Mineral: Montebrasite
Rruff sample: R040060
Ideal chemistry: LiAlPO_4_(OH)
Locality: Oxford County, Maine, USA
Source: University of Arizona Mineral Museum
Description: White massive
Measured chemistry: LiAl(PO_4_)((OH)_0.79_F_0.21_)
Pin_id: L00181
Orientation: Laser parallel to a* (1 0 0). Fiducial mark perpendicular to laser is parallel to -b [0 -1 0]
Raman shift (cm-1)	intensity
108.603	0
112.787	569.025
116.97	2474.01
121.15	1541.26
125.328	802.787
129.504	1439.42
133.678	2961.89
137.85	3358.56
142.02	1777.85
146.188	472.886
150.354	90.769
154.517	104.396
158.679	358.541
162.839	657.871
166.996	968.146
171.152	1081.54
175.305	832.353
179.456	624.511
183.605	709.452
187.752	987.576
191.898	1181.76
196.041	1274.72
200.182	976.032
204.321	444.792
208.457	109.917
212.592	37.229
216.725	46.594
220.856	0.099
224.984	91.737
229.111	206.004
233.236	171.021
237.358	132.755
241.479	61.995
245.597	3.466
249.713	167.968
253.828	3.406
257.94	127.662
262.05	54.828
266.159	297.284
270.265	1009.69
274.369	2035.92
278.471	2358.22
282.572	1653.22
286.67	1789.16
290.766	3305.81
294.86	7983
298.952	12220.3
303.042	9406.47
307.13	5601.64
311.216	4106.23
315.3	3250.04
319.382	2813.07
323.462	2365.44
327.54	1517.1
331.616	848.108
335.69	468.503
339.762	308.249
343.832	186.631
347.9	42.94
351.965	22.497
356.029	43.877
360.091	0.443
364.151	108.973
368.209	97.269
372.265	140.664
376.319	175.392
380.371	263.323
384.421	321.559
388.469	596.123
392.515	569.589
396.559	504.106
400.601	656.238
404.641	696.971
408.679	754.686
412.715	995.162
416.749	1302.5
420.781	2783.33
424.811	7846.55
428.839	9621.68
432.866	4317.29
436.89	1572.54
440.912	827.354
444.932	581.667
448.951	425.448
452.967	488.664
456.981	381.294
460.994	383.307
465.004	504.718
469.013	675.515
473.019	1005.69
477.024	1845.24
481.026	2534.17
485.027	2922.48
489.026	2690.16
493.023	2447.23
497.017	2093.67
501.01	1688.29
505.001	1100.39
508.99	638.247
512.977	356.972
516.962	247.271
520.945	80.475
524.927	87.659
528.906	57.025
532.883	7.132
536.858	140.927
540.832	5.481
544.803	47.155
548.773	87.822
552.741	154.405
556.706	156.932
560.67	163.965
564.632	113.521
568.592	173.818
572.55	126.479
576.506	338.128
580.46	683.021
584.412	623.159
588.363	855.97
592.311	1412.37
596.258	2027.51
600.202	3642.14
604.145	3426.15
608.086	2158.75
612.024	1340.26
615.961	1309.12
619.896	1448.44
623.829	2606.25
627.761	4482.47
631.69	4527.8
635.617	3772.44
639.543	5416.38
643.466	11269.6
647.388	14332.1
651.308	7693.95
655.226	3185.06
659.142	1675.48
663.056	905.211
666.968	744.305
670.879	462.323
674.787	318.111
678.694	192.217
682.598	146.262
686.501	149.09
690.402	145.311
694.301	120.184
698.198	62.322
702.093	87.197
705.987	91.877
709.878	133.262
713.768	194.672
717.656	73.656
721.542	98.412
725.426	55.336
729.308	132.996
733.188	179.59
737.067	14.088
740.943	86.033
744.818	153.293
748.691	198.59
752.562	175.373
756.431	47.469
760.298	161.889
764.163	161.26
768.027	238.705
771.888	297.152
775.748	283.76
779.606	408.227
783.462	593.961
787.317	991.443
791.169	1335.53
795.019	1978.87
798.868	2651.27
802.715	2463.02
806.56	2134.12
810.403	1784.59
814.245	1284.42
818.084	1213.63
821.922	612.225
825.758	450.027
829.592	435.605
833.424	299.723
837.254	242.529
841.082	104.02
844.909	83.977
848.734	123.227
852.557	88.393
856.378	346.752
860.197	145.357
864.015	67.746
867.831	13.168
871.645	72.129
875.457	168.068
879.267	51.648
883.075	62.701
886.882	83.605
890.687	12.922
894.49	29.508
898.291	187.75
902.09	90.154
905.888	122.389
909.683	36.646
913.477	65.299
917.269	126.73
921.06	48.367
924.848	170.465
928.635	130.727
932.42	143.109
936.203	54.072
939.984	88.359
943.764	390.502
947.541	462.361
951.317	463.959
955.091	415.301
958.864	836.402
962.634	3107.27
966.403	7677.92
970.17	2898.36
973.935	1438.69
977.698	1568.84
981.46	1508.19
985.22	1667.1
988.978	2023.87
992.734	2901.41
996.488	4028.7
1000.24	5745.26
1003.99	9317.19
1007.74	14781.7
1011.49	19270.8
1015.23	17266.4
1018.98	11390.8
1022.72	7146.86
1026.46	5175.22
1030.2	4859.71
1033.93	5374.02
1037.67	7250.25
1041.4	10916.4
1045.13	15068.9
1048.86	14686.9
1052.59	13443.1
1056.32	15457.7
1060.04	17923.8
1063.77	13461.2
1067.49	7681.23
1071.2	4313.6
1074.92	2763.45
1078.64	1853.86
1082.35	1575.83
1086.06	1072.88
1089.78	1053.13
1093.48	1123.86
1097.19	1044.44
1100.89	1345.45
1104.6	2326.62
1108.3	3567.95
1112	3389.43
1115.7	2601.05
1119.39	2139.86
1123.09	1701.94
1126.78	1414.31
1130.47	487.086
1134.16	460.172
1137.85	54.145
1141.54	189.57
1145.22	404.324
1148.9	95.938
1152.58	255.77
1156.26	66.832
1159.94	38.148
1163.62	80.086
1167.29	42.203
1170.96	134.875
1174.63	458.039
1178.3	621.652
1181.97	825.758
1185.63	1140.3
1189.3	1445.33
1192.96	1180.97
1196.62	917.047
1200.28	863.512
1203.93	920.363
1207.59	997.605
1211.24	515.016
1214.89	542.75
1218.54	248.5
1222.19	55.809
1225.84	106.5
1229.48	209.699
1233.13	613.23
1236.77	712.461
1240.41	372.305
1244.05	412.746
1247.68	183.754
1251.32	335.293
1254.95	227.359
1258.58	353.684
1262.21	486.945
1265.84	603.441
1269.46	432.215
1273.09	642.953
1276.71	356.234
1280.33	4.703
1283.95	48.961
1287.57	186.852
1291.18	145.996
1294.8	165.887
