Measurement: Raman, 514 nm, depolarized, Raman Data Processed
Mineral: Montebrasite
Rruff sample: R040062
Ideal chemistry: LiAlPO_4_(OH)
Locality: Hebron, Maine, USA
Source: University of Arizona Mineral Museum
Description: White massive
Measured chemistry: LiAl(PO_4_)((OH)_0.62_F_0.38_)
Pin_id: L00490
Orientation: Laser parallel to (1 0 1). Fiducial mark perpendicular to laser is parallel to b [0 1 0]
Raman shift (cm-1)	intensity
110.535	0
114.726	234.851
118.915	273.545
123.102	1143.57
127.286	3474.58
131.469	6125.18
135.649	4916.26
139.827	2075.44
144.003	766.301
148.177	241.064
152.348	271.97
156.517	199.938
160.685	357.393
164.85	678.499
169.012	772.985
173.173	868.742
177.332	1017.03
181.488	1335.26
185.642	1716.08
189.794	1837.78
193.944	1866.24
198.092	1305.41
202.237	612.81
206.38	196.363
210.522	46.131
214.661	57.899
218.798	77.146
222.932	60.082
227.065	101.095
231.196	2.219
235.324	87.808
239.45	11.86
243.574	3.671
247.696	124.953
251.816	83.67
255.933	29.481
260.049	45.146
264.162	186.827
268.274	519.625
272.383	967.299
276.49	1198.89
280.595	1457.5
284.697	2049.18
288.798	3931.97
292.896	9425.1
296.993	19318.2
301.087	21700.9
305.179	14103
309.269	9484.34
313.357	7074.93
317.443	5594.73
321.527	4403.88
325.608	3132.35
329.688	2122.97
333.765	1515.02
337.84	1130.08
341.913	844.105
345.984	686.785
350.053	748.479
354.12	630.024
358.185	681.711
362.248	785.562
366.308	863.246
370.367	942.308
374.423	1081.64
378.478	1084.93
382.53	976.641
386.58	1014.58
390.628	938.555
394.674	861.876
398.718	843.632
402.76	765.069
406.799	1042.87
410.837	1204.14
414.873	1999.43
418.906	4970.08
422.938	15467.9
426.967	19517
430.994	7887.74
435.02	2758.39
439.043	1238.98
443.064	819.414
447.083	459.604
451.1	339.542
455.115	379.238
459.128	328.65
463.139	377.743
467.147	246.516
471.154	534.97
475.159	493.112
479.161	1010.95
483.162	1288.48
487.161	1695.72
491.157	1802.68
495.151	1899.36
499.144	1675.78
503.134	1191.94
507.123	777.866
511.109	460.008
515.093	249.017
519.075	114.239
523.055	149.182
527.034	23.777
531.01	12.053
534.984	153.066
538.956	12.121
542.926	75.762
546.894	11.016
550.86	0.699
554.824	116.51
558.786	0.852
562.746	125.783
566.704	102.425
570.66	153.002
574.614	136.691
578.565	274.365
582.515	397.548
586.463	444.76
590.409	711.576
594.353	1255.87
598.295	2508.55
602.235	3272.55
606.172	1883.11
610.108	1334.99
614.042	1100.28
617.974	1209.13
621.904	1836.99
625.832	2984.43
629.758	4441.53
633.681	4488.3
637.603	6024.74
641.523	13550.9
645.441	20896.6
649.357	12512.1
653.271	5437.23
657.183	2702.05
661.093	1576.55
665.001	990.738
668.907	684.61
672.811	548.171
676.713	430.701
680.613	411.422
684.511	336.868
688.407	160.032
692.302	147.376
696.194	167.333
700.084	32.067
703.972	119.768
707.859	3.023
711.743	29.33
715.626	15.704
719.506	244.388
723.384	89.48
727.261	102.625
731.136	106.624
735.008	109.852
738.879	106.371
742.748	22.364
746.614	67.938
750.479	16.799
754.342	41.893
758.203	242.695
762.062	32.942
765.919	98.878
769.774	5.179
773.627	138.319
777.479	331.651
781.328	484.824
785.175	617.848
789.021	1010.73
792.864	1293.47
796.706	1826.09
800.545	2158.59
804.383	2330.97
808.219	1903.26
812.053	1765.44
815.885	1483.9
819.715	1149.72
823.543	821.479
827.369	533.348
831.193	425.16
835.016	96.953
838.836	188.775
842.654	40.217
846.471	210.793
850.286	71.562
854.099	59.211
857.909	31.082
861.718	273.174
865.525	242.223
869.331	183.797
873.134	183.709
876.935	423.531
880.735	556.785
884.532	357.617
888.328	483.193
892.122	564.535
895.913	571.299
899.703	638.953
903.491	436.578
907.278	386.318
911.062	329.795
914.844	179.809
918.625	252.021
922.404	181.102
926.18	55.98
929.955	290.973
933.728	266.242
937.499	331.727
941.269	167.434
945.036	233.361
948.801	359.516
952.565	455.875
956.327	482.443
960.087	549.229
963.845	656.242
967.601	723.496
971.355	980.99
975.107	1208.74
978.858	1696.76
982.607	2185.05
986.353	2693.61
990.098	3952.45
993.841	6171.58
997.583	9653.9
1001.32	15188.3
1005.06	22133
1008.79	27962.9
1012.53	26354.9
1016.26	19359.5
1019.99	13231.1
1023.72	9463.46
1027.45	7755.81
1031.17	7998.96
1034.89	9722.64
1038.61	12636.8
1042.33	15631.6
1046.05	17516.8
1049.77	17902.3
1053.48	20378
1057.19	26773.4
1060.9	26799
1064.61	16444.6
1068.32	8810.48
1072.02	5256.6
1075.72	3542.89
1079.42	2429.39
1083.12	1766.22
1086.82	1424.41
1090.51	1102.19
1094.21	890.826
1097.9	966.963
1101.59	963.664
1105.28	1180.89
1108.96	1288.67
1112.65	1057.01
1116.33	805.924
1120.01	1035.41
1123.69	765.461
1127.37	686.104
1131.04	386.906
1134.71	148.119
1138.39	119.635
1142.06	48.348
1145.72	304.141
1149.39	147.1
1153.05	190.574
1156.72	664.613
1160.38	399.236
1164.04	34.459
1167.69	10.26
1171.35	153.246
1175	194.168
1178.65	322.527
1182.31	451.838
1185.95	572.131
1189.6	903.482
1193.24	797.297
1196.89	695.432
1200.53	286.922
1204.17	182.115
1207.81	386.049
1211.44	296.539
1215.07	343.662
1218.71	186.928
1222.34	313.205
1225.97	246.867
1229.59	14.367
1233.22	43.67
1236.84	292.695
1240.46	0
