Measurement: Raman, 514 nm, depolarized, Raman Data Processed
Mineral: Montebrasite
Rruff sample: R060890
Ideal chemistry: LiAlPO_4_(OH)
Locality: Mount Marie, Paris, Maine, USA
Source: Bob Jenkins
Description: Colorless massive
Measured chemistry: Li_1.00_Al_1.00_(P_1.00_O_4_)(OH)_0.63_F_0.37_)_Î£=1_ ; Li not measured but estimated by stoichiometry
Pin_id: M00747
Orientation: Laser parallel to (0 1 1). Fiducial mark perpendicular to laser is parallel to a [1 0 0]
Raman shift (cm-1)	intensity
90.678	0
95.631	209.865
100.581	186.019
105.529	291.279
110.475	741.258
115.417	775.873
120.358	614.621
125.295	916.959
130.23	1798.39
135.163	1533.59
140.092	1592.04
145.019	917.15
149.944	1398.28
154.866	2719.36
159.785	4201.8
164.702	5636.42
169.616	5885.73
174.528	4729.07
179.437	3633.81
184.343	3286.99
189.247	2813.99
194.148	2506.45
199.046	1911.13
203.942	777.707
208.835	424.672
213.726	367.408
218.614	334.264
223.5	198.361
228.382	172.8
233.263	138.619
238.14	3.12109
243.015	249.644
247.888	94.125
252.758	219.823
257.625	647.812
262.49	1633.1
267.352	3219.43
272.211	3973.3
277.068	3572.38
281.922	3261.22
286.773	4375
291.622	9059.94
296.469	16221.2
301.312	21775
306.154	15776.7
310.992	9010.32
315.828	5895.54
320.661	3259.61
325.492	1729.62
330.32	794.683
335.145	493.771
339.968	517.828
344.789	152.839
349.606	27.7441
354.421	228.516
359.234	342.225
364.043	581.819
368.851	705.771
373.655	638.104
378.457	421.905
383.256	244.79
388.053	151.239
392.847	155.644
397.639	57.4502
402.428	172.625
407.214	291.859
411.998	652.545
416.779	2483.58
421.557	5204.03
426.333	7150.79
431.106	3098.42
435.877	1080.86
440.645	570.492
445.41	502.397
450.173	557.212
454.933	575.316
459.691	878.581
464.446	1423.97
469.198	2183.46
473.948	3741.03
478.695	5029.54
483.439	5604.45
488.181	5245.14
492.92	4571.32
497.657	3389.63
502.391	2355.67
507.122	1594.23
511.851	963.796
516.577	375.187
521.301	352.731
526.022	68.8887
530.74	44.5772
535.456	23.2324
540.169	124.975
544.879	64.6904
549.587	119.182
554.292	97.2031
558.995	93.3506
563.695	164.522
568.392	185.24
573.087	252.895
577.779	250.947
582.469	595.875
587.156	794.863
591.84	1528.24
596.522	3029.7
601.201	4761.39
605.877	3770.47
610.551	2250.56
615.222	2061.15
619.891	2964.95
624.557	4362.2
629.22	6598.96
633.881	7879.2
638.539	9620.51
643.195	14560.9
647.848	14121.5
652.498	6302.31
657.145	2484.68
661.791	1711.07
666.433	846.162
671.073	600.578
675.71	487.062
680.345	526.668
684.977	316.478
689.606	20.4531
694.233	128.973
698.857	184.619
703.478	126.494
708.097	70.2832
712.714	95.3848
717.327	238.215
721.938	71.1504
726.547	54.0234
731.153	71.3887
735.756	12.5566
740.356	123.914
744.954	43.3438
749.55	138.85
754.142	247.264
758.733	283.555
763.32	348.264
767.905	243.174
772.487	382.369
777.067	552.072
781.644	709.891
786.218	1031.26
790.79	1733.36
795.359	2100.13
799.926	2964.51
804.49	3144.1
809.051	3035.97
813.61	2967.21
818.166	2337.72
822.72	1899.07
827.271	1459.93
831.819	722.764
836.365	502.357
840.908	571.227
845.448	317.596
849.986	312.721
854.521	67.5039
859.054	235.406
863.584	143.672
868.111	179.92
872.636	4.92188
877.158	12.668
881.677	99.7519
886.194	110.785
890.709	16.8848
895.22	11.7461
899.729	36.7793
904.236	8.0625
908.74	46.2852
913.241	70.5762
917.739	106.318
922.235	112.17
926.729	185.541
931.219	53.8066
935.708	159.975
940.193	233.098
944.676	194.213
949.156	372.344
953.634	407.514
958.109	751.773
962.582	1067.17
967.051	1350.76
971.519	1250.55
975.983	1273.91
980.445	2254.16
984.905	3021.53
989.362	4602.89
993.816	8217.73
998.267	13713.9
1002.72	21759.2
1007.16	29374.3
1011.61	30663.9
1016.05	23516.6
1020.49	14603.8
1024.92	9422.84
1029.36	7277.65
1033.79	7321.71
1038.21	8877.75
1042.64	10350.2
1047.06	12370.4
1051.48	15759.3
1055.9	22002
1060.32	29032.3
1064.73	25796.9
1069.14	13621.6
1073.55	6286.84
1077.95	3524.7
1082.35	2230.16
1086.75	1670.22
1091.15	1026.88
1095.54	1093.15
1099.93	1566.4
1104.32	1769.11
1108.71	2721.99
1113.09	3154.23
1117.47	3410.06
1121.85	3062.63
1126.23	2622.97
1130.6	2300.28
1134.97	1737.3
1139.34	967.045
1143.7	821.188
1148.07	784.912
1152.43	765.383
1156.79	770.342
1161.14	613.723
1165.49	239.856
1169.84	94.4258
1174.19	224.002
1178.54	559.859
1182.88	456.83
1187.22	922.85
1191.55	1182.99
1195.89	1374.59
1200.22	1519.42
1204.55	1169.48
1208.87	1242.74
1213.2	703.193
1217.52	467.922
1221.84	203.707
1226.15	59.5137
1230.47	29.3301
1234.78	115.367
1239.09	35.6309
1243.39	18.5195
1247.69	3.43945
1251.99	93.6953
1256.29	157.254
1260.59	101.426
1264.88	65.4219
1269.17	54.8574
1273.46	264.787
1277.74	198.588
1282.02	100.119
1286.3	44.0918
1290.58	214.678
1294.86	171.986
1299.13	275.74
1303.39	201.949
1307.66	83.0215
1311.93	124.84
1316.19	513.449
1320.45	217.731
1324.7	427.539
1328.96	244.496
1333.21	305.422
1337.45	226.502
1341.7	127.336
1345.94	398.334
1350.18	196.065
1354.42	297.935
1358.66	151.315
1362.89	267.951
1367.12	245.832
1371.35	110.877
1375.57	238.539
1379.8	157.176
1384.02	307.607
1388.23	203.115
1392.45	129.113
1396.66	155.482
1400.87	16.7734
1405.08	249.465
1409.28	204.984
1413.48	1.07617
1417.68	98.7891
1421.88	148.576
1426.07	125.572
1430.26	201.906
1434.45	490.809
1438.64	547.148
1442.82	595.811
1447	312.037
1451.18	369.248
1455.35	233.656
1459.53	482.586
1463.7	293.859
1467.87	479.684
1472.03	421.879
1476.19	282.387
1480.35	429.168
1484.51	355.889
1488.67	408.383
1492.82	579.674
1496.97	737.936
1501.12	1214.11
1505.26	1057.46
1509.4	1273.14
1513.54	910.777
1517.68	949.434
1521.81	851.766
1525.94	562.758
1530.07	482.473
1534.2	519.094
1538.32	225.223
1542.44	285.992
1546.56	297.941
1550.68	220.578
1554.79	469.906
1558.9	165.059
1563.01	156.184
1567.12	443.773
1571.22	134.422
1575.32	0.332031
