Measurement: Raman, 514 nm, depolarized, Raman Data Processed
Mineral: Montebrasite
Rruff sample: R040062
Ideal chemistry: LiAlPO_4_(OH)
Locality: Hebron, Maine, USA
Source: University of Arizona Mineral Museum
Description: White massive
Measured chemistry: LiAl(PO_4_)((OH)_0.62_F_0.38_)
Pin_id: L00072
Orientation: Laser parallel to (0 1 1). Fiducial mark perpendicular to laser is parallel to a [1 0 0]
Raman shift (cm-1)	intensity
116.123	0
120.311	0.995
124.497	308.69
128.681	1040.06
132.862	1454.29
137.042	978.11
141.219	406.09
145.394	195.659
149.567	370.016
153.738	335.4
157.907	540.359
162.073	855.627
166.237	956.607
170.4	766.919
174.559	559.028
178.717	431.699
182.873	600.027
187.026	853.718
191.178	787.095
195.327	741.73
199.474	406.255
203.618	251.413
207.761	107.481
211.902	84.805
216.04	191.63
220.176	109.344
224.31	77.271
228.442	65.283
232.572	5.082
236.7	4.416
240.825	24.652
244.948	146.218
249.07	108.857
253.189	61.312
257.306	3.356
261.42	43.672
265.533	469.934
269.643	964.167
273.752	1307.87
277.858	1171.46
281.962	1008.55
286.064	1233.54
290.164	2529.47
294.262	6004.77
298.358	10360.5
302.451	8344.98
306.543	4898.93
310.632	3732.29
314.719	2755
318.804	2156.91
322.887	1348.09
326.968	898.573
331.047	738.285
335.124	397.359
339.198	435.723
343.271	323.236
347.341	279.585
351.409	254.045
355.475	288.363
359.539	254.3
363.601	281.99
367.661	358.392
371.719	325.598
375.775	309.821
379.828	336.721
383.88	500.938
387.929	268.93
391.977	200.693
396.022	351.753
400.065	326.816
404.106	362.984
408.146	264.254
412.182	283.046
416.217	606.285
420.25	1594.75
424.281	4453.99
428.31	3285.75
432.336	1077.99
436.361	420.123
440.383	262.182
444.404	264.116
448.422	215.794
452.438	267.169
456.453	148.384
460.465	459.289
464.475	429.909
468.483	770.254
472.489	1250.31
476.493	2080.07
480.495	2609.55
484.495	2728.74
488.493	2387.66
492.489	2096.31
496.482	1594.69
500.474	1322.81
504.464	890.631
508.451	517.015
512.437	213.72
516.421	199.532
520.402	35.933
524.382	18.686
528.359	28.243
532.335	67.265
536.308	6.339
540.279	161.283
544.249	119.94
548.216	162.584
552.181	280.443
556.145	87.489
560.106	221.256
564.065	26.78
568.023	118.437
571.978	269.03
575.931	228.709
579.882	290.9
583.831	399.578
587.779	487
591.724	702.979
595.667	1627.32
599.608	2804.4
603.547	2617.2
607.485	1548.58
611.42	1000.73
615.353	1001.6
619.284	1272.57
623.213	2205.08
627.141	3475.21
631.066	4315.34
634.989	3774.72
638.91	6043.79
642.829	13292.6
646.747	13831
650.662	6539.18
654.575	2717.03
658.486	1534.59
662.396	781.846
666.303	678.82
670.209	485.295
674.112	371.301
678.013	274.543
681.913	165.441
685.81	111.18
689.706	171.248
693.599	181.426
697.491	23.123
701.38	58.596
705.268	80.252
709.154	1.443
713.037	551.816
716.919	213.771
720.799	67.621
724.677	120.439
728.553	110.852
732.427	151.125
736.299	50.879
740.169	10.607
744.037	9.965
747.903	28.967
751.767	42.326
755.629	36.002
759.49	94.078
763.348	282.156
767.204	183.902
771.059	181.039
774.911	207.959
778.762	74.627
782.611	25.697
786.457	391.943
790.302	488.006
794.145	613.893
797.986	999.607
801.825	855.158
805.662	820.553
809.497	635.791
813.33	580.889
817.162	555.846
820.991	180.672
824.818	205.375
828.644	279.961
832.468	234.463
836.289	138.492
840.109	41.195
843.927	7.312
847.743	103.742
851.557	43.715
855.369	167.949
859.179	102.35
862.988	37.58
866.794	33.531
870.599	60.592
874.401	415.773
878.202	198.312
882.001	111.977
885.798	283.676
889.593	188.889
893.386	376.705
897.177	586.809
900.966	508.924
904.754	427.67
908.539	151.617
912.323	14.32
916.105	300.508
919.885	164.104
923.663	108.611
927.439	303.127
931.213	134.037
934.985	340.797
938.756	116.207
942.525	331.762
946.291	257.465
950.056	333.326
953.819	119.35
957.58	335.545
961.339	301.916
965.097	448.473
968.852	735.229
972.606	492.25
976.358	679.48
980.108	1006.92
983.856	1224.59
987.602	2252.54
991.346	3288.38
995.089	5261.93
998.829	7714.91
1002.57	12046.5
1006.3	17055.8
1010.04	19486.5
1013.77	16417.8
1017.5	10869.5
1021.23	7060.14
1024.96	5081.08
1028.69	4072.34
1032.41	4286.33
1036.13	5075.88
1039.85	6348.19
1043.57	7790.85
1047.29	8243.83
1051	8977.14
1054.72	11320.8
1058.43	14504.8
1062.14	12468.9
1065.84	7013.47
1069.55	3664.29
1073.25	2239.67
1076.95	1395.28
1080.66	886.59
1084.35	812.168
1088.05	868.252
1091.74	634.646
1095.44	481.365
1099.13	588.41
1102.82	1045.79
1106.51	1663.52
1110.19	1571.58
1113.87	1590.38
1117.56	1274.7
1121.24	1123.91
1124.91	1113.56
1128.59	433.705
1132.27	244.375
1135.94	161.24
1139.61	422.424
1143.28	524.115
1146.95	414.955
1150.61	215.754
1154.28	43.721
1157.94	64.455
1161.6	64.74
1165.26	245.455
1168.91	276.137
1172.57	447.301
1176.22	538.947
1179.87	551.07
1183.52	813.676
1187.17	1106.91
1190.81	1120.66
1194.46	935.092
1198.1	870.049
1201.74	1055.55
1205.38	811.609
1209.02	678.131
1212.65	475.027
1216.29	392.387
1219.92	409.605
1223.55	295.211
1227.17	440.244
1230.8	528.543
1234.42	244.834
1238.05	203.234
1241.67	42.289
1245.29	51.963
1248.91	262.207
1252.52	232.955
1256.13	554.146
1259.75	495.941
1263.36	601.361
1266.97	360.021
1270.57	421.041
1274.18	134.871
1277.78	57.408
1281.38	73.516
1284.98	288.457
1288.58	117.965
1292.18	259.566
1295.77	182.867
