Measurement: Raman, 514 nm, depolarized, Raman Data Processed
Mineral: Montebrasite
Rruff sample: R040060
Ideal chemistry: LiAlPO_4_(OH)
Locality: Oxford County, Maine, USA
Source: University of Arizona Mineral Museum
Description: White massive
Measured chemistry: LiAl(PO_4_)((OH)_0.79_F_0.21_)
Pin_id: L00066
Orientation: Laser parallel to (0 -1 -1). Fiducial mark perpendicular to laser is parallel to a [1 0 0]
Raman shift (cm-1)	intensity
146.188	0
148.965	140.256
151.742	6.555
154.517	207.006
157.292	167.237
160.066	182.002
162.839	850.021
165.611	530.938
168.381	343.611
171.152	587.875
173.921	473.376
176.689	669.919
179.456	487.32
182.222	478.509
184.988	497.115
187.752	446.354
190.516	556.15
193.279	437.848
196.041	418.428
198.801	319.676
201.561	261.57
204.321	243.385
207.079	115.483
209.836	57.865
212.592	130.52
215.348	43.416
218.102	146.533
220.856	69.856
223.608	73.367
226.36	7.189
229.111	171.288
231.861	275.375
234.61	169.418
237.358	23.485
240.105	67.599
242.852	41.77
245.597	46.271
248.342	105.252
251.085	210.818
253.828	165.123
256.57	10.477
259.31	74.135
262.05	189.182
264.79	274.367
267.528	259.676
270.265	415.121
273.001	561.223
275.737	736.902
278.471	782.645
281.205	608.455
283.938	604.334
286.67	580.262
289.401	626.23
292.131	1102.23
294.86	1688.25
297.588	2694.3
300.315	2930.37
303.042	2329.86
305.767	1640.27
308.492	1136.33
311.216	1151.59
313.939	955.41
316.661	698.229
319.382	812.469
322.102	656.975
324.821	521.695
327.54	356.598
330.257	321.652
332.974	106.84
335.69	42.145
338.405	97.551
341.119	143.051
343.832	11.365
346.544	85.732
349.255	10.047
351.965	185.719
354.675	101.531
357.384	147.711
360.091	13.826
362.798	200.115
365.504	6.664
368.209	128.336
370.913	96.145
373.617	113.992
376.319	0.258
379.021	39.621
381.721	98.455
384.421	156.129
387.12	162.805
389.818	63.697
392.515	110.334
395.211	57.1
397.906	137.039
400.601	166.67
403.294	123.098
405.987	129.797
408.679	397.125
411.37	43.705
414.06	132.355
416.749	159.506
419.437	386.598
422.125	783.547
424.811	1530.83
427.497	2057.49
430.182	1594.42
432.866	1041.09
435.549	487.738
438.231	254.375
440.912	131.006
443.593	177.625
446.272	74.246
448.951	90.857
451.628	117.451
454.305	244.023
456.981	59.42
459.657	37.084
462.331	203.598
465.004	120.049
467.677	46.434
470.348	202.77
473.019	219.072
475.689	355.355
478.358	391.627
481.026	757.883
483.694	694.111
486.36	370.307
489.026	606.471
491.691	702.6
494.354	548.691
497.017	514.744
499.68	540.752
502.341	366.713
505.001	372.967
507.661	176.68
510.319	132.787
512.977	118.445
515.634	36.018
518.29	53.738
520.945	119.754
523.6	53.012
526.253	141.799
528.906	58.203
531.558	165.549
534.208	181.125
536.858	41.562
539.508	3.957
542.156	11.859
544.803	98.658
547.45	94.443
550.096	489.846
552.741	185.75
555.385	29.273
558.028	95.562
560.67	153.006
563.312	137.91
565.952	53.004
568.592	188.9
571.231	3.957
573.869	89.029
576.506	33.645
579.142	127.859
581.778	31.473
584.412	184.742
587.046	132.654
589.679	317.221
592.311	481.725
594.942	365.119
597.573	769.961
600.202	964.193
602.831	1188.1
605.459	955.291
608.086	708.824
610.712	572.25
613.337	485.893
615.961	445.713
618.585	474.848
621.208	463.932
623.829	416.801
626.45	838.527
629.071	960.602
631.69	992.193
634.308	833.688
636.926	834.912
639.543	1166.01
642.159	1886.98
644.774	3007.81
647.388	3028.52
650.002	2229.09
652.614	1139.53
655.226	659.836
657.837	470.006
660.447	290.041
663.056	179.986
665.664	199.748
668.272	109.375
670.879	51.559
673.484	30.654
676.089	170.232
678.694	60.936
681.297	17.6
683.899	212.002
686.501	88.91
689.102	35.188
691.702	63.646
694.301	130.186
696.899	220.668
699.497	50.033
702.093	147.873
704.689	244.967
707.284	178.369
709.878	87.781
712.472	203.539
715.064	31.98
717.656	245.693
720.247	181.992
722.837	117.611
725.426	103.148
728.014	77.994
730.601	242.457
733.188	217.1
735.774	285.283
738.359	80.678
740.943	154.18
743.526	138.283
746.109	108.453
748.691	272.494
751.271	156.338
753.851	70.258
756.431	163.752
759.009	12.916
761.587	221.146
764.163	104.094
766.739	247.141
769.314	119.768
771.888	22.238
774.462	164.502
777.034	66.594
779.606	278.648
782.177	210.439
784.747	242.09
787.317	233.596
789.885	434.959
792.453	436.188
795.019	357.279
797.585	718.234
800.151	509.055
802.715	729.744
805.279	800.301
807.841	690.725
810.403	491.02
812.964	341.189
815.525	461.227
818.084	430.355
820.643	289.598
823.201	268.449
825.758	236.754
828.314	93.734
830.869	262.219
833.424	234.09
835.977	59.887
838.53	187.734
841.082	154.875
843.634	121.836
846.184	10.668
848.734	194.199
851.283	28.449
853.831	127.449
856.378	204.137
858.925	111.246
861.47	22.109
864.015	86.371
866.559	250.527
869.102	235.551
871.645	331.449
874.186	167.535
876.727	143.258
879.267	58.191
881.806	223.645
884.344	89.84
886.882	325.406
889.419	251.477
891.954	239.172
894.49	283.59
897.024	395.086
899.557	369.648
902.09	274.938
904.622	69.996
907.153	313.422
909.683	238.293
912.213	489.043
914.741	204.066
917.269	48.098
919.796	213.148
922.323	336.676
924.848	339.68
927.373	338.629
929.897	62.867
932.42	137.902
934.942	452.77
937.463	347.512
939.984	222.41
942.504	387.418
945.023	92.387
947.541	237.34
950.059	92.262
952.575	97.164
955.091	332.051
957.606	316.926
960.121	421.789
962.634	686.652
965.147	1091.52
967.659	1126.39
970.17	681.23
972.68	646.141
975.19	511.074
977.698	813.312
980.206	947.742
982.713	772.746
985.22	440.812
987.725	800.16
990.23	1028.04
992.734	1129.06
995.237	1073.75
997.739	1246.86
1000.24	1508.95
1002.74	1931.18
1005.24	2636.39
1007.74	3371.55
1010.24	4187.3
1012.74	4650.94
1015.23	4010.88
1017.73	3251.08
1020.23	2615.68
1022.72	1952.52
1025.21	1649.86
1027.71	1303.98
1030.2	1458.11
1032.69	1559.42
1035.18	1743.98
1037.67	1762.43
1040.16	2356.99
1042.65	3381.92
1045.13	3545.82
1047.62	3600.53
1050.11	3275.6
1052.59	3340.71
1055.08	3455.99
1057.56	3961.3
1060.04	4536.63
1062.53	4181.99
1065.01	3017.38
1067.49	2232.79
1069.97	1358.25
1072.44	1193.73
1074.92	1029.25
1077.4	774.879
1079.88	550.652
1082.35	626.668
1084.83	782.832
1087.3	669.203
1089.78	276.031
1092.25	432.98
1094.72	660.09
1097.19	297.66
1099.66	805.262
1102.13	323.043
1104.6	491.156
1107.07	1149.75
1109.53	968.703
1112	748.031
1114.47	897.707
1116.93	987.758
1119.39	638.223
1121.86	379.16
1124.32	500.629
1126.78	802.688
1129.24	465.41
1131.7	91.152
1134.16	63.062
1136.62	788.133
1139.08	184.203
1141.54	101.371
1143.99	39.77
1146.45	249.59
1148.9	331.062
1151.36	234.473
1153.81	349.035
1156.26	396.344
1158.71	388.457
1161.17	71.574
1163.62	126.262
1166.07	445.691
1168.51	228.215
1170.96	2.188
