Measurement: Raman, 514 nm, depolarized, Raman Data Processed
Mineral: Montebrasite
Rruff sample: R060890
Ideal chemistry: LiAlPO_4_(OH)
Locality: Mount Marie, Paris, Maine, USA
Source: Bob Jenkins
Description: Colorless massive
Measured chemistry: Li_1.00_Al_1.00_(P_1.00_O_4_)(OH)_0.63_F_0.37_)_Î£=1_ ; Li not measured but estimated by stoichiometry
Pin_id: M01846
Orientation: Laser parallel to (1 -1 0). Fiducial mark perpendicular to laser is parallel to c [0 0 1]
Raman shift (cm-1)	intensity
90.678	0
95.631	24.3311
100.581	57.1406
105.529	301.495
110.475	757.168
115.417	1414.57
120.358	2704.71
125.295	5284.99
130.23	8094.98
135.163	6126.03
140.092	2113.04
145.019	449.997
149.944	59.2393
154.866	89.6646
159.785	744.575
164.702	1843.2
169.616	2408.4
174.528	1911.71
179.437	1511.11
184.343	857.689
189.247	545.351
194.148	148.957
199.046	21.3809
203.942	88.5542
208.835	230.296
213.726	373.534
218.614	480.207
223.5	342.054
228.382	218.393
233.263	73.2461
238.14	62.9736
243.015	102.74
247.888	192.278
252.758	69.1431
257.625	384.816
262.49	1232.68
267.352	2547.35
272.211	4107.58
277.068	4392.2
281.922	4890.89
286.773	7305.62
291.622	14082.4
296.469	25893.9
301.312	38623.6
306.154	28375.5
310.992	16874.6
315.828	10479.2
320.661	6757.43
325.492	4743.95
330.32	3230.82
335.145	2153.03
339.968	1558.54
344.789	1248.5
349.606	1099.22
354.421	1016.87
359.234	1167.5
364.043	1526.37
368.851	1760.48
373.655	1961.83
378.457	1665.39
383.256	1335.36
388.053	1207.84
392.847	938.724
397.639	911.575
402.428	990.025
407.214	1177.01
411.998	2023.16
416.779	5517.15
421.557	12771.9
426.333	21400.9
431.106	8625.33
435.877	2738.28
440.645	1167.37
445.41	711.739
450.173	561.335
454.933	501.002
459.691	569.8
464.446	951.782
469.198	1598.9
473.948	2714.09
478.695	4340.3
483.439	5198.47
488.181	5137.63
492.92	4369.81
497.657	3436.9
502.391	2347.87
507.122	1335.71
511.851	725.386
516.577	446.899
521.301	127.228
526.022	47.6597
530.74	63.0337
535.456	25.1587
540.169	23.3496
544.879	66.999
549.587	16.4741
554.292	3.10449
558.995	44.5171
563.695	139.718
568.392	172.819
573.087	239.458
577.779	465.006
582.469	645.691
587.156	984.004
591.84	2216.22
596.522	4467.1
601.201	8035.26
605.877	6895.07
610.551	3790.59
615.222	3322.88
619.891	4380.97
624.557	7057.53
629.22	11437.9
633.881	15408.5
638.539	23024.5
643.195	40635.1
647.848	44353.2
652.498	18467.7
657.145	7641.63
661.791	3990.91
666.433	2176.6
671.073	1494.7
675.71	1041.99
680.345	744.436
684.977	490.475
689.606	261.688
694.233	155.288
698.857	188.115
703.478	82.437
708.097	54.4448
712.714	71.4087
717.327	1.09033
721.938	127.815
726.547	26.918
731.153	56.0205
735.756	9.21826
740.356	5.27393
744.954	78.3589
749.55	67.8897
754.142	162.176
758.733	181.038
763.32	200.967
767.905	311.417
772.487	255.126
777.067	490.262
781.644	770.723
786.218	1101.12
790.79	1829.96
795.359	2662.19
799.926	3433.93
804.49	3937.23
809.051	3938.55
813.61	3661.26
818.166	3158.99
822.72	2237.54
827.271	1562.17
831.819	1109.3
836.365	645.15
840.908	492.648
845.448	302.815
849.986	168.459
854.521	146.326
859.054	121.968
863.584	132.311
868.111	11.397
872.636	0.791504
877.158	92.4648
881.677	105.098
886.194	75.9048
890.709	33.1616
895.22	27.8989
899.729	60.7461
904.236	65.9287
908.74	36.0264
913.241	154.891
917.739	19.2744
922.235	125.536
926.729	14.5127
931.219	56.6929
935.708	253.102
940.193	184.762
944.676	294.693
949.156	331.91
953.634	617.432
958.109	573.271
962.582	903.447
967.051	1024.98
971.519	1359.02
975.983	1959.68
980.445	2791.99
984.905	4147.02
989.362	6514.82
993.816	11042.5
998.267	18430.5
1002.72	28572.9
1007.16	40523.8
1011.61	43202.8
1016.05	33911
1020.49	22456.8
1024.92	15994.3
1029.36	14826.3
1033.79	18011.4
1038.21	24256.5
1042.64	29633
1047.06	32040
1051.48	32114
1055.9	34449.1
1060.32	39286.4
1064.73	33159.6
1069.14	18331.3
1073.55	9814.82
1077.95	6028.97
1082.35	4206.81
1086.75	3205.32
1091.15	2577.48
1095.54	2466.44
1099.93	2651.57
1104.32	3378.49
1108.71	4607.85
1113.09	5486.15
1117.47	5789.52
1121.85	5633.56
1126.23	4881.91
1130.6	4059.14
1134.97	3126.45
1139.34	1993.11
1143.7	1197.3
1148.07	785.472
1152.43	615.583
1156.79	403.366
1161.14	261.861
1165.49	317.891
1169.84	115.996
1174.19	198.423
1178.54	143.212
1182.88	169.438
1187.22	85.6973
1191.55	201.654
1195.89	258.381
1200.22	204.246
1204.55	295.978
1208.87	314.628
1213.2	327.553
1217.52	167.499
1221.84	69.6279
1226.15	56.8672
1230.47	47.7207
1234.78	34.7148
1239.09	112.29
1243.39	58.1377
1247.69	48.4912
1251.99	67.165
1256.29	1.08203
1260.59	26.5352
1264.88	47.3955
1269.17	6.18555
1273.46	20.4307
1277.74	74.0156
1282.02	22.1895
1286.3	26.1484
1290.58	151.035
1294.86	95.6348
1299.13	128.18
1303.39	167.032
1307.66	139.161
1311.93	186.692
1316.19	160.288
1320.45	233.555
1324.7	279.19
1328.96	234.502
1333.21	168.571
1337.45	61.2324
1341.7	255.576
1345.94	224.685
1350.18	199.399
1354.42	122.289
1358.66	184.235
1362.89	57.0088
1367.12	159.408
1371.35	161.171
1375.57	134.637
1379.8	48.2793
1384.02	133.359
1388.23	14.8262
1392.45	67.9551
1396.66	60.415
1400.87	57.7041
1405.08	119.833
1409.28	37.7695
1413.48	40.4609
1417.68	180.923
1421.88	92.6328
1426.07	127.503
1430.26	114.245
1434.45	146.45
1438.64	121.077
1442.82	200.31
1447	155.395
1451.18	102.394
1455.35	273.68
1459.53	220.458
1463.7	191.542
1467.87	222.714
1472.03	194.911
1476.19	121.455
1480.35	145.034
1484.51	128.859
1488.67	147.983
1492.82	124.287
1496.97	125.558
1501.12	183.504
1505.26	41.751
1509.4	237.506
1513.54	112.282
1517.68	134.464
1521.81	90.7148
1525.94	146.565
1530.07	51.2881
1534.2	147.662
1538.32	174.058
1542.44	207.685
1546.56	157.584
1550.68	137.381
1554.79	163.858
1558.9	139.439
1563.01	171.362
1567.12	108.092
1571.22	59.1836
1575.32	21.2236
