Measurement: Raman, 514 nm, depolarized, Raman Data Processed
Mineral: Muscovite
Rruff sample: R050188
Ideal chemistry: KAl_2_(Si_3_Al)O_10_(OH)_2_
Locality: Sapinero, near Blue Mesa Reservoir, Gunnison County, Colorado, USA
Source: Dave Bunk Minerals
Description: Black pseudohexagonal crystal, polytype 2M1, associated with quartz
Measured chemistry: (K_0.91_Na_0.09_)(Al_0.86_Fe^3+^_0.06_Fe^2+^_0.04_Mg_0.03_Ti_0.01_)_2_(Si_0.78_Al_0.22_)_4_O_10_(OH)_2_
Pin_id: L00384
Orientation: Laser parallel to b* (0 1 0). Fiducial mark perpendicular to laser is parallel to c [0 0 1]
Raman shift (cm-1)	intensity
133.003	0
137.164	141.015
141.323	65.108
145.48	41.996
149.635	167.144
153.788	274.658
157.939	648.685
162.088	984.2
166.235	1357.33
170.38	2255.26
174.523	3714.59
178.664	6494.59
182.803	10880.8
186.94	15425.5
191.076	17689.4
195.209	16359.9
199.34	12301.9
203.47	8918.33
207.597	7707.16
211.722	6774.3
215.846	5808.65
219.967	4570.34
224.087	3396.61
228.204	2860.2
232.32	3023.23
236.434	3821.92
240.545	5825.1
244.655	9059.22
248.763	15617.3
252.869	27899.5
256.973	42529.9
261.075	45166.5
265.175	33030.1
269.273	19789.8
273.369	11224.4
277.463	6665.9
281.556	3991.34
285.646	2489.68
289.734	1765.94
293.821	1145.09
297.905	885.89
301.988	688.229
306.069	482.839
310.147	408.564
314.224	117.295
318.299	79.513
322.372	1.25
326.443	170.353
330.512	220.733
334.579	198.068
338.645	75.325
342.708	47.677
346.769	297.714
350.829	568.615
354.887	998.513
358.942	1257.69
362.996	1494.65
367.048	1834.54
371.098	2183.31
375.146	2444.99
379.192	2757.58
383.236	2860.08
387.279	3148.52
391.319	3724.88
395.358	4449.61
399.394	5276.15
403.429	6298.09
407.462	6894.94
411.493	7149.66
415.522	6335.28
419.549	5254.77
423.575	4177.13
427.598	3519.37
431.619	2757.47
435.639	2103.45
439.657	1627.28
443.673	1118.99
447.687	842.558
451.699	480.992
455.709	285.291
459.717	316.472
463.724	280.662
467.728	267.875
471.731	262.032
475.732	311.378
479.731	200.045
483.728	184.714
487.723	48.536
491.716	61.996
495.708	155.141
499.697	147.688
503.685	113.534
507.671	141.814
511.655	55.052
515.637	41.07
519.617	79.816
523.596	177.377
527.572	270.794
531.547	402.138
535.52	451.586
539.491	331.146
543.46	245.892
547.427	95.777
551.393	164.673
555.356	106.638
559.318	235.571
563.278	294.407
567.236	239.153
571.192	265.801
575.147	392.343
579.099	319.78
583.05	397.112
586.999	511.345
590.946	828.476
594.891	933.51
598.834	1140.45
602.776	1206.29
606.715	1697.04
610.653	1833.7
614.589	2055.28
618.523	2487.76
622.456	2697.17
626.386	3155.48
630.315	3280.71
634.242	3427.86
638.167	3518.92
642.09	3391.53
646.012	3203.36
649.931	3036.09
653.849	3002.91
657.765	2809.89
661.679	2747.68
665.592	2854.63
669.502	3058.39
673.411	3687.88
677.318	4540.48
681.223	5828.68
685.126	7844.55
689.028	10606.1
692.927	15314.3
696.825	20621.1
700.721	23014.7
704.616	19075.7
708.508	13539.3
712.399	8737.4
716.288	6025.15
720.175	4692.8
724.06	3667.77
727.944	3577.11
731.825	3661.45
735.705	4036.78
739.584	4791.12
743.46	5432.47
747.334	5648.82
751.207	5349.18
755.078	4952.56
758.947	4095.94
762.815	3045.34
766.68	2204.76
770.544	1702.19
774.406	1316.65
778.267	1025.13
782.125	929.628
785.982	860.153
789.837	830.704
793.69	794.283
797.542	698.927
801.391	703.633
805.239	583.509
809.085	463.722
812.93	241.35
816.772	306.362
820.613	332.826
824.452	351.642
828.29	216.666
832.125	155.969
835.959	5.904
839.791	49.983
843.621	105.156
847.45	162.833
851.277	122.098
855.102	79.996
858.925	2.366
862.746	37.022
866.566	19.022
870.384	81.981
874.2	32.025
878.015	83.106
881.828	176.254
885.639	199.493
889.448	295.767
893.256	436.12
897.061	473.517
900.865	580.957
904.668	741.435
908.468	814.923
912.267	875.43
916.064	844.026
919.86	754.663
923.653	514.365
927.445	591.093
931.236	537.857
935.024	477.631
938.811	544.419
942.596	479.221
946.379	506.027
950.161	679.833
953.94	697.632
957.719	704.429
961.495	658.219
965.27	718.993
969.043	648.746
972.814	685.469
976.583	757.206
980.351	892.929
984.117	1025.64
987.882	1000.31
991.644	1130.34
995.405	1163.13
999.165	1322.22
1002.92	1471.86
1006.68	1537.87
1010.43	1677.9
1014.18	1908.3
1017.93	2079.33
1021.68	2192.8
1025.43	2408.76
1029.18	2304.16
1032.92	2406.15
1036.66	2555.94
1040.4	3071.7
1044.14	3664.47
1047.88	4744.16
1051.62	5673.29
1055.35	6468.21
1059.08	6887.94
1062.81	6945.98
1066.54	6753.16
1070.27	6359.49
1073.99	5997.77
1077.72	5391.44
1081.44	4939.38
1085.16	4481.5
1088.88	3959.85
1092.59	3337.76
1096.31	2930.17
1100.02	2458.29
1103.73	2180.28
1107.44	1807.79
1111.15	1771.94
1114.86	1589.97
1118.57	1380.02
1122.27	1399.81
1125.97	1045.23
1129.67	700.571
1133.37	681.634
1137.07	519.375
1140.76	323.985
1144.45	186.355
1148.15	135.489
1151.84	66.468
1155.53	20.604
1159.21	114.416
1162.9	35.3
1166.58	58.77
1170.26	27.039
1173.94	16.534
1177.62	19.299
1181.3	2.636
1184.97	22.209
1188.65	18.803
1192.32	31.598
1195.99	16.663
1199.66	48.685
1203.33	70.189
1206.99	13.565
1210.65	23.259
1214.32	48.67
1217.98	6.419
1221.64	41.921
1225.29	45.233
1228.95	29.231
1232.6	14.372
1236.26	20.977
1239.91	43.887
1243.56	80.049
1247.2	115.844
1250.85	50.127
1254.49	45.25
1258.13	67.146
1261.78	28.824
1265.41	126.335
1269.05	72.667
1272.69	64.802
1276.32	33.254
1279.95	73.47
1283.59	64.025
1287.21	77.433
1290.84	44.68
1294.47	52.768
1298.09	116.709
1301.72	87.162
1305.34	27.718
1308.96	40.904
1312.58	89.328
1316.19	74.694
1319.81	95.782
1323.42	39.906
1327.03	69.52
1330.64	17.072
1334.25	34.399
1337.86	40.32
1341.46	80.758
1345.07	103.498
1348.67	121.293
1352.27	169.815
1355.87	158.291
1359.46	170.458
1363.06	83.331
1366.65	95.617
1370.25	117.081
1373.84	160.779
1377.43	89.756
1381.02	148.242
1384.6	169.954
1388.18	116.912
1391.77	166.7
1395.35	214.485
1398.93	114.802
1402.51	184.823
1406.08	93.982
1409.66	121.785
1413.23	159.936
1416.8	148.003
1420.37	244.817
1423.94	178.014
1427.51	174.634
1431.08	186.459
1434.64	166.361
1438.2	220.335
1441.76	255.315
1445.32	262.339
1448.88	251.469
1452.43	253.516
1455.99	282.503
1459.54	241.305
1463.09	108.239
1466.64	187.733
1470.19	209.45
1473.74	195.489
1477.28	171.786
1480.83	70.396
1484.37	156.277
1487.91	157.448
1491.45	191.012
1494.98	184.141
1498.52	82.887
1502.05	10.347
1505.59	146.689
1509.12	120.208
1512.65	115.69
1516.17	1.733
1519.7	48.169
1523.23	0
