Measurement: Raman, 514 nm, depolarized, Raman Data Processed
Mineral: Muscovite
Rruff sample: R050188
Ideal chemistry: KAl_2_(Si_3_Al)O_10_(OH)_2_
Locality: Sapinero, near Blue Mesa Reservoir, Gunnison County, Colorado, USA
Source: Dave Bunk Minerals
Description: Black pseudohexagonal crystal, polytype 2M1, associated with quartz
Measured chemistry: (K_0.91_Na_0.09_)(Al_0.86_Fe^3+^_0.06_Fe^2+^_0.04_Mg_0.03_Ti_0.01_)_2_(Si_0.78_Al_0.22_)_4_O_10_(OH)_2_
Pin_id: L00075
Orientation: Laser parallel to (-1 0 -1). Fiducial mark perpendicular to laser is parallel to b [0 1 0]
Raman shift (cm-1)	intensity
133.003	0
137.164	77.144
141.323	5.859
145.48	9.202
149.635	43.439
153.788	44.153
157.939	180.372
162.088	429.663
166.235	628.647
170.38	735.891
174.523	1136.51
178.664	2010.83
182.803	3301.78
186.94	4775.98
191.076	5792.95
195.209	5651.94
199.34	4534.1
203.47	3520.09
207.597	2763.47
211.722	2103.49
215.846	1828.01
219.967	1478.19
224.087	1162.17
228.204	965.14
232.32	1158.04
236.434	1522.79
240.545	2411.29
244.655	3794.42
248.763	6575.26
252.869	11842.6
256.973	17830.4
261.075	20186.7
265.175	16601.4
269.273	10633.1
273.369	6128.57
277.463	3539.75
281.556	2100.64
285.646	1266.24
289.734	867.534
293.821	670.528
297.905	428.058
301.988	361.287
306.069	339.818
310.147	293.11
314.224	159.404
318.299	82.79
322.372	19.248
326.443	75.801
330.512	68.9
334.579	110.857
338.645	67.247
342.708	70.014
346.769	81.795
350.829	262.427
354.887	432.557
358.942	586.495
362.996	857.928
367.048	1124.61
371.098	1338.94
375.146	1438.8
379.192	1635.53
383.236	1725.31
387.279	1774.36
391.319	2064.97
395.358	2450.65
399.394	2880.98
403.429	3425.63
407.462	3836.69
411.493	3911.34
415.522	3783.35
419.549	3178.3
423.575	2545.88
427.598	2141.15
431.619	1746.17
435.639	1342.93
439.657	1096.44
443.673	813.696
447.687	679.697
451.699	405.445
455.709	311.943
459.717	296.197
463.724	292.252
467.728	227.096
471.731	254.711
475.732	150.081
479.731	185.182
483.728	189.006
487.723	82.439
491.716	19.345
495.708	47.518
499.697	11.452
503.685	27.169
507.671	2.672
511.655	1.453
515.637	51.227
519.617	17.448
523.596	11.212
527.572	3.533
531.547	52.45
535.52	32.975
539.491	18.969
543.46	12.577
547.427	7.411
551.393	14.052
555.356	3.139
559.318	77.885
563.278	124.359
567.236	172.577
571.192	154.273
575.147	115.482
579.099	136.75
583.05	186.068
586.999	284.125
590.946	299.967
594.891	394.596
598.834	550.017
602.776	591.235
606.715	739.253
610.653	812.075
614.589	927.706
618.523	1207.15
622.456	1264.41
626.386	1537.44
630.315	1517.3
634.242	1474.61
638.167	1614.57
642.09	1658.48
646.012	1527.26
649.931	1517.27
653.849	1485.9
657.765	1322.14
661.679	1269
665.592	1366.87
669.502	1419.66
673.411	1679.88
677.318	2028.6
681.223	2494.73
685.126	3344.38
689.028	4838.75
692.927	6801.66
696.825	9361.67
700.721	10733.2
704.616	9147.79
708.508	6780.9
712.399	4238.97
716.288	2895.42
720.175	2110.28
724.06	1611.19
727.944	1558.13
731.825	1525.38
735.705	1693.74
739.584	2058.22
743.46	2272.74
747.334	2392.3
751.207	2321.92
755.078	2175.6
758.947	1740.34
762.815	1263.15
766.68	838.036
770.544	604
774.406	437.048
778.267	274.184
782.125	248.415
785.982	226.787
789.837	220.218
793.69	97.762
797.542	117.422
801.391	97.208
805.239	107.138
809.085	32.229
812.93	14.535
816.772	33.179
820.613	6.262
824.452	5.084
828.29	15.785
832.125	3.153
835.959	2.099
839.791	14.494
843.621	23.07
847.45	7.82
851.277	26.821
855.102	46.108
858.925	195.764
862.746	223.741
866.566	125.987
870.384	177.462
874.2	206.125
878.015	118.022
881.828	161.204
885.639	164.657
889.448	195.655
893.256	273.265
897.061	336.431
900.865	383.832
904.668	497.479
908.468	511.312
912.267	466.3
916.064	477.487
919.86	420.855
923.653	254.372
927.445	270.037
931.236	195.866
935.024	137.837
938.811	176.945
942.596	224.186
946.379	110.559
950.161	207.061
953.94	226.689
957.719	223.441
961.495	231.315
965.27	193.537
969.043	200.646
972.814	236.002
976.583	253.657
980.351	347.206
984.117	406.537
987.882	363.589
991.644	418.228
995.405	472.76
999.165	589.976
1002.92	698.853
1006.68	743.562
1010.43	747.89
1014.18	921.011
1017.93	1026.46
1021.68	1150.75
1025.43	1184.04
1029.18	1128.52
1032.92	1062.28
1036.66	1108.31
1040.4	1288.35
1044.14	1524.16
1047.88	1795.24
1051.62	2215.23
1055.35	2616.34
1059.08	2824.35
1062.81	2928.58
1066.54	2956.27
1070.27	2735.89
1073.99	2729.71
1077.72	2643.13
1081.44	2495.77
1085.16	2305.23
1088.88	1940.53
1092.59	1695.69
1096.31	1451.8
1100.02	1208.84
1103.73	1080.83
1107.44	992.741
1111.15	936.586
1114.86	751.38
1118.57	754.146
1122.27	825.584
1125.97	626.608
1129.67	389.232
1133.37	340.798
1137.07	232.295
1140.76	277.742
1144.45	72.103
1148.15	84.386
1151.84	31.439
1155.53	12.497
1159.21	4.773
1162.9	55.276
1166.58	38.945
1170.26	64.988
1173.94	5.852
1177.62	3.59
1181.3	49.42
1184.97	2.416
1188.65	24.027
1192.32	52.77
1195.99	10.83
1199.66	8.185
1203.33	50.167
1206.99	67.356
1210.65	29.604
1214.32	86.175
1217.98	41.816
1221.64	121.355
1225.29	65.747
1228.95	81.991
1232.6	149.113
1236.26	133.116
1239.91	161.004
1243.56	163.777
1247.2	204.421
1250.85	227.936
1254.49	251.318
1258.13	213.568
1261.78	299.684
1265.41	370.663
1269.05	338.503
1272.69	446.204
1276.32	401.768
1279.95	449.199
1283.59	491.499
1287.21	491.675
1290.84	474.734
1294.47	690.686
1298.09	813.449
1301.72	975.611
1305.34	981.546
1308.96	902.017
1312.58	717.789
1316.19	771.367
1319.81	483.937
1323.42	432.576
1327.03	355.601
1330.64	268.463
1334.25	174.385
1337.86	198.375
1341.46	191.537
1345.07	89.313
1348.67	159.57
1352.27	210.268
1355.87	168.457
1359.46	125.701
1363.06	105.493
1366.65	127.748
1370.25	159.05
1373.84	103.302
1377.43	56.542
1381.02	60.589
1384.6	102.054
1388.18	110.337
1391.77	102.26
1395.35	41.551
1398.93	47.352
1402.51	88.971
1406.08	118.41
1409.66	164.667
1413.23	209.761
1416.8	234.942
1420.37	375.28
1423.94	430.7
1427.51	498.556
1431.08	826.88
1434.64	1193.67
1438.2	1729.97
1441.76	1873.42
1445.32	1859.21
1448.88	1678.93
1452.43	1624.74
1455.99	1509.58
1459.54	1472.51
1463.09	1147.63
1466.64	969.038
1470.19	791.82
1473.74	549.076
1477.28	449.865
1480.83	328.841
1484.37	255.007
1487.91	170.354
1491.45	99.352
1494.98	142.186
1498.52	13.057
1502.05	27.162
1505.59	55.742
1509.12	15.223
1512.65	62.269
1516.17	23.85
1519.7	2.015
1523.23	89.507
