Measurement: Raman, 514 nm, depolarized, Raman Data Processed
Mineral: Muscovite
Rruff sample: R050188
Ideal chemistry: KAl_2_(Si_3_Al)O_10_(OH)_2_
Locality: Sapinero, near Blue Mesa Reservoir, Gunnison County, Colorado, USA
Source: Dave Bunk Minerals
Description: Black pseudohexagonal crystal, polytype 2M1, associated with quartz
Measured chemistry: (K_0.91_Na_0.09_)(Al_0.86_Fe^3+^_0.06_Fe^2+^_0.04_Mg_0.03_Ti_0.01_)_2_(Si_0.78_Al_0.22_)_4_O_10_(OH)_2_
Pin_id: L00510
Orientation: Laser parallel to a* (1 0 0). Fiducial mark perpendicular to laser is parallel to -b [0 -1 0]
Raman shift (cm-1)	intensity
128.84	0
133.003	118.114
137.164	49.908
141.323	146.349
145.48	214.614
149.635	416.584
153.788	685.221
157.939	1062.22
162.088	1461.2
166.235	2069.88
170.38	2883.6
174.523	4518.46
178.664	7357.45
182.803	11787.8
186.94	16569.8
191.076	19360.2
195.209	18647.9
199.34	14756.9
203.47	11016.3
207.597	9046.87
211.722	7681.68
215.846	6828.76
219.967	5674.32
224.087	4373.96
228.204	3475.43
232.32	3614.7
236.434	4290.41
240.545	6218.73
244.655	9497.29
248.763	15844.3
252.869	27692.6
256.973	41818.1
261.075	46977.7
265.175	38108.5
269.273	24133.2
273.369	14054.9
277.463	8263.53
281.556	4984.11
285.646	3085.64
289.734	2120.1
293.821	1400.56
297.905	1010.84
301.988	836.11
306.069	652.508
310.147	541.404
314.224	318.947
318.299	146.767
322.372	6.589
326.443	140.857
330.512	230.423
334.579	276.836
338.645	181.049
342.708	43.707
346.769	280.895
350.829	595.251
354.887	960.662
358.942	1279.51
362.996	1735.81
367.048	2053.45
371.098	2457.03
375.146	2858.53
379.192	3085.96
383.236	3334.34
387.279	3539.67
391.319	4124.52
395.358	4986.9
399.394	6141.63
403.429	7526.1
407.462	8425.5
411.493	8988.81
415.522	8575.03
419.549	7360.14
423.575	6127.15
427.598	5139.05
431.619	4236.85
435.639	3259.53
439.657	2544.09
443.673	1909.55
447.687	1376.89
451.699	968.113
455.709	734.237
459.717	524.392
463.724	483.601
467.728	516.79
471.731	491.912
475.732	351.939
479.731	392.849
483.728	361.59
487.723	105.03
491.716	0.363
495.708	61.35
499.697	120.474
503.685	129.427
507.671	177.552
511.655	123.77
515.637	27.19
519.617	38.784
523.596	203.21
527.572	285.634
531.547	465.115
535.52	459.78
539.491	316.627
543.46	196.688
547.427	149.884
551.393	129.198
555.356	144.552
559.318	203.861
563.278	207.081
567.236	265.207
571.192	287.238
575.147	324.175
579.099	386.019
583.05	394.771
586.999	552.432
590.946	824.003
594.891	1029.48
598.834	1260.88
602.776	1453.19
606.715	1831.41
610.653	2010.55
614.589	2356.6
618.523	2850.58
622.456	3144.47
626.386	3628.27
630.315	3865.99
634.242	4190.63
638.167	4366.18
642.09	4217.66
646.012	4170.73
649.931	3999.09
653.849	3875.96
657.765	3698.93
661.679	3678.18
665.592	3777.3
669.502	3951.09
673.411	4466.58
677.318	5453.86
681.223	6645.83
685.126	8853.41
689.028	11697.4
692.927	16619.3
696.825	22438.4
700.721	25652.4
704.616	22219
708.508	16219.5
712.399	10560.7
716.288	7210.39
720.175	5423.29
724.06	4313.18
727.944	4131.01
731.825	4161.81
735.705	4638.59
739.584	5418.34
743.46	6106.07
747.334	6604.77
751.207	6494.46
755.078	6130.12
758.947	5125.77
762.815	3982.4
766.68	2959.01
770.544	2358.61
774.406	1801.2
778.267	1514.77
782.125	1365.34
785.982	1216.88
789.837	1210.43
793.69	1122.97
797.542	977.498
801.391	878.026
805.239	701.657
809.085	498.521
812.93	336.727
816.772	184.358
820.613	164.457
824.452	140.961
828.29	119.706
832.125	55.482
835.959	42.865
839.791	84.551
843.621	100.763
847.45	88.648
851.277	120.23
855.102	91.502
858.925	98.319
862.746	1.337
866.566	3.733
870.384	100.031
874.2	76.312
878.015	157.6
881.828	264.899
885.639	305.258
889.448	426.661
893.256	483.115
897.061	557.595
900.865	714.742
904.668	871.605
908.468	1020.13
912.267	1073.66
916.064	985.164
919.86	873.659
923.653	686.146
927.445	667.648
931.236	573.162
935.024	528.657
938.811	572.133
942.596	632.586
946.379	627.008
950.161	750.397
953.94	845.756
957.719	883.569
961.495	879.4
965.27	927.664
969.043	911.888
972.814	999.134
976.583	1137.18
980.351	1271.23
984.117	1337.08
987.882	1379.86
991.644	1495.41
995.405	1522.13
999.165	1602.73
1002.92	1728.5
1006.68	1895
1010.43	2107.75
1014.18	2288.43
1017.93	2433.65
1021.68	2544.97
1025.43	2609.19
1029.18	2653.43
1032.92	2728.79
1036.66	2926.29
1040.4	3399.76
1044.14	4120.3
1047.88	5130.34
1051.62	6200.99
1055.35	7111.57
1059.08	7707.56
1062.81	7860.22
1066.54	7739.9
1070.27	7368.39
1073.99	6897.82
1077.72	6442.88
1081.44	5792.95
1085.16	5283.95
1088.88	4760.82
1092.59	4106.3
1096.31	3518.28
1100.02	2991.07
1103.73	2634.46
1107.44	2161.4
1111.15	1972.01
1114.86	1755.1
1118.57	1521.23
1122.27	1443.58
1125.97	1144.86
1129.67	865.946
1133.37	645.605
1137.07	474.71
1140.76	342.019
1144.45	210.062
1148.15	132.917
1151.84	115.613
1155.53	42.519
1159.21	22.844
1162.9	11.023
1166.58	0.728
1170.26	8.707
1173.94	13.003
1177.62	6.748
1181.3	60.917
1184.97	58.318
1188.65	27.453
1192.32	8.97
1195.99	1.654
1199.66	20.475
1203.33	6.6
1206.99	2.898
1210.65	4.344
1214.32	3.075
1217.98	52.332
1221.64	27.554
1225.29	13.334
1228.95	24.058
1232.6	0.348
1236.26	16.1
1239.91	36.418
1243.56	36.617
1247.2	40.691
1250.85	48.635
1254.49	27.428
1258.13	41.091
1261.78	8.392
1265.41	72.967
1269.05	35.166
1272.69	42.219
1276.32	1.869
1279.95	42.89
1283.59	40.512
1287.21	5.994
1290.84	27.326
1294.47	66.517
1298.09	53.576
1301.72	74.499
1305.34	60.219
1308.96	70.553
1312.58	76.359
1316.19	115.562
1319.81	99.174
1323.42	88.318
1327.03	76.546
1330.64	49.097
1334.25	97.514
1337.86	76.81
1341.46	47.349
1345.07	66.53
1348.67	97.709
1352.27	116.725
1355.87	157.623
1359.46	112.969
1363.06	129.773
1366.65	172.461
1370.25	95.321
1373.84	107.456
1377.43	95.975
1381.02	66.589
1384.6	110.823
1388.18	91.21
1391.77	95.094
1395.35	87.686
1398.93	80.784
1402.51	103.763
1406.08	85.177
1409.66	44.55
1413.23	136.002
1416.8	63.917
1420.37	105.116
1423.94	40.588
1427.51	46.842
1431.08	57.723
1434.64	41.642
1438.2	74.809
1441.76	89.007
1445.32	65.148
1448.88	90.344
1452.43	77.569
1455.99	132.745
1459.54	112.829
1463.09	75.888
1466.64	49.992
1470.19	86.274
1473.74	17.782
1477.28	26.448
1480.83	85.316
1484.37	73.288
1487.91	88.366
1491.45	76.572
1494.98	57.972
1498.52	12.642
1502.05	25.586
1505.59	4.855
1509.12	11.508
1512.65	25.335
1516.17	29.867
1519.7	36.898
1523.23	0.4
