Measurement: Raman, 514 nm, depolarized, Raman Data Processed
Mineral: Natrolite
Rruff sample: R040102
Ideal chemistry: Na_2_(Si_3_Al_2_)O_10_2H_2_O
Locality: Ross' Quarry, Northland, New Zealand
Source: University of Arizona Mineral Museum
Description: Mass of colorless acicular crystals
Measured chemistry: (Na_0.92_Ca_0.02_)_2_(Si_3.03_Al_1.99_)O_10_Â·2H_2_O
Pin_id: S00542
Orientation: Laser parallel to b* (0 1 0). Fiducial mark perpendicular to laser is parallel to -c [0 0 -1]
Raman shift (cm-1)	intensity
91.284	0
95.465	163.589
99.644	138.68
103.82	861.08
107.995	1856.92
112.168	3407.51
116.339	5149.83
120.508	7324.99
124.675	7336.81
128.84	5551.37
133.003	5668.17
137.164	7175.81
141.323	8379.72
145.48	6948.45
149.635	5331.13
153.788	6387.19
157.939	9585.88
162.088	11356.9
166.235	8776.05
170.38	5514.43
174.523	3792.9
178.664	2957.71
182.803	2792.29
186.94	2186.79
191.076	1741.67
195.209	2006.03
199.34	2780.67
203.47	3705.64
207.597	3464.97
211.722	2290.47
215.846	1556.29
219.967	992.355
224.087	228.626
228.204	155.063
232.32	322.346
236.434	1222.77
240.545	1902.43
244.655	1116.69
248.763	138.079
252.869	82.78
256.973	19.161
261.075	75.28
265.175	274.781
269.273	689.896
273.369	527.981
277.463	148.268
281.556	10.23
285.646	3.487
289.734	31.756
293.821	202.867
297.905	538.635
301.988	1624.91
306.069	2101.63
310.147	1018.7
314.224	506.046
318.299	33.659
322.372	121.418
326.443	402.017
330.512	637.275
334.579	545.086
338.645	312.685
342.708	339.943
346.769	407.053
350.829	704.017
354.887	1120.81
358.942	1317.46
362.996	913.941
367.048	330.25
371.098	23.665
375.146	138.002
379.192	223.024
383.236	128.853
387.279	168.902
391.319	152.898
395.358	31.144
399.394	115.391
403.429	277.991
407.462	575.384
411.493	1002.11
415.522	966.039
419.549	920.119
423.575	3412.04
427.598	1638.57
431.619	3325.04
435.639	7251.4
439.657	13147.6
443.673	12343.5
447.687	7539.03
451.699	3774.64
455.709	2091.45
459.717	1368.18
463.724	1310.05
467.728	1140.06
471.731	1247.22
475.732	1372.47
479.731	1621.15
483.728	1959.46
487.723	1904.85
491.716	1928.47
495.708	1918.78
499.697	1761.91
503.685	2245.62
507.671	2587.56
511.655	3249.15
515.637	3991.2
519.617	4822.1
523.596	7082.74
527.572	13453.1
531.547	21698.2
535.52	18945.6
539.491	9748.7
543.46	5037.48
547.427	2899.72
551.393	1745.73
555.356	1249.32
559.318	1036.01
563.278	813.734
567.236	681.323
571.192	748.735
575.147	676.06
579.099	363.222
583.05	500.238
586.999	237.804
590.946	334.937
594.891	672.689
598.834	630.042
602.776	427.456
606.715	299.685
610.653	178.228
614.589	64.932
618.523	121.148
622.456	157.697
626.386	18.496
630.315	36.48
634.242	227.793
638.167	189.734
642.09	124.64
646.012	167.855
649.931	15.421
653.849	167.902
657.765	164.665
661.679	256.862
665.592	307.439
669.502	168.288
673.411	319.762
677.318	255.312
681.223	288.504
685.126	421.022
689.028	712.681
692.927	834.271
696.825	1166.78
700.721	1246.98
704.616	1308.61
708.508	983.239
712.399	931.33
716.288	712.102
720.175	1223.14
724.06	1134.24
727.944	925.956
731.825	635.958
735.705	277.224
739.584	106.893
743.46	185.627
747.334	84.749
751.207	250.294
755.078	58.846
758.947	52.938
762.815	5.732
766.68	81.719
770.544	207.367
774.406	112.262
778.267	101.623
782.125	190.67
785.982	170.436
789.837	91.441
793.69	178.104
797.542	35.633
801.391	53.916
805.239	87.303
809.085	84.186
812.93	25.006
816.772	177.107
820.613	99.09
824.452	120.678
828.29	121.553
832.125	92.807
835.959	16.268
839.791	304.359
843.621	44.725
847.45	15.686
851.277	114.775
855.102	64.502
858.925	374.004
862.746	103.207
866.566	252.02
870.384	390.648
874.2	139.059
878.015	62.73
881.828	195.076
885.639	82.549
889.448	149.812
893.256	176.287
897.061	232.66
900.865	148.268
904.668	173.781
908.468	147.791
912.267	147.379
916.064	119.434
919.86	73.637
923.653	337.867
927.445	101.195
931.236	124.1
935.024	92.65
938.811	276.01
942.596	212.547
946.379	405.242
950.161	273.949
953.94	566.109
957.719	758.754
961.495	1371.88
965.27	1739.98
969.043	1462.32
972.814	1126.71
976.583	1059.79
980.351	622.213
984.117	754.402
987.882	753.588
991.644	725.824
995.405	996.82
999.165	899.979
1002.92	1111.22
1006.68	1014.75
1010.43	879.391
1014.18	732.107
1017.93	820.555
1021.68	1084.76
1025.43	1429.81
1029.18	1419.68
1032.92	2215.29
1036.66	3641.03
1040.4	4542.37
1044.14	2705.14
1047.88	1968.15
1051.62	1470.35
1055.35	1056.68
1059.08	1007.88
1062.81	770.078
1066.54	732.238
1070.27	781.664
1073.99	944.789
1077.72	1216.25
1081.44	1269.11
1085.16	1230.44
1088.88	1231.59
1092.59	1216.59
1096.31	897.783
1100.02	699.305
1103.73	630.668
1107.44	591.135
1111.15	432.527
1114.86	433.461
1118.57	543.842
1122.27	483.799
1125.97	224.531
1129.67	204.674
1133.37	195.105
1137.07	264.291
1140.76	155.549
1144.45	58.938
1148.15	156.764
1151.84	302.623
1155.53	166.902
1159.21	45.76
1162.9	64.412
1166.58	4.445
1170.26	12.828
1173.94	20.377
1177.62	239.08
1181.3	169.791
1184.97	197.699
1188.65	304.662
1192.32	205.814
1195.99	101.809
1199.66	185.893
1203.33	259.418
1206.99	292.074
1210.65	187.332
1214.32	250.637
1217.98	212.418
1221.64	145.338
1225.29	5.205
1228.95	164.062
1232.6	356.082
1236.26	169.252
1239.91	398.992
1243.56	337.889
1247.2	367.262
1250.85	316.941
1254.49	65.971
1258.13	104.041
1261.78	361.557
1265.41	378.395
1269.05	324.154
1272.69	519.348
1276.32	643.951
1279.95	413.34
1283.59	187.117
1287.21	9.791
1290.84	39.221
1294.47	80.732
1298.09	171.52
1301.72	411.104
1305.34	357.895
1308.96	65.021
1312.58	166.65
1316.19	215.105
1319.81	12.439
1323.42	82.873
1327.03	327.209
1330.64	337.727
1334.25	171.574
1337.86	495.113
1341.46	446.588
1345.07	337.99
1348.67	278.129
1352.27	1.125
1355.87	137.52
1359.46	266.625
1363.06	97.953
1366.65	495.465
1370.25	241.098
1373.84	247.475
1377.43	283.432
1381.02	227.014
1384.6	242.92
1388.18	267.168
1391.77	32.42
1395.35	46.701
1398.93	89.096
1402.51	250.068
1406.08	230.027
1409.66	446.225
1413.23	444.178
1416.8	626.324
1420.37	566.777
1423.94	47.625
1427.51	156.436
1431.08	60.387
1434.64	364.408
1438.2	214.326
1441.76	536.031
1445.32	672.047
1448.88	793.434
1452.43	674.074
1455.99	785.701
1459.54	636.723
1463.09	749.24
1466.64	601.855
1470.19	323.553
1473.74	139.039
1477.28	5.363
1480.83	413.834
1484.37	367.059
1487.91	529.215
1491.45	615.4
1494.98	534.895
1498.52	385.625
1502.05	370.492
1505.59	419.006
1509.12	160.307
1512.65	134.047
1516.17	0.602
