Measurement: Raman, 514 nm, depolarized, Raman Data Processed
Mineral: Natrolite
Rruff sample: R060561
Ideal chemistry: Na_2_(Si_3_Al_2_)O_10_2H_2_O
Locality: California, USA
Source: Gemological Institute of America
Description: White fragment
Measured chemistry: Na_2.00_(Si_3.00_Al_2.00_)O_10_Â·2H_2_O
Pin_id: L00681
Orientation: Laser parallel to a* (1 0 0). Fiducial mark perpendicular to laser is parallel to -b [0 -1 0]
Raman shift (cm-1)	intensity
94.648	0
99.587	269.995
104.522	97.218
109.456	582.503
114.387	2350.27
119.315	4269.9
124.241	6963.8
129.164	6161.46
134.085	7979.09
139.004	10568
143.92	14496.5
148.834	14384.2
153.745	12900.4
158.654	16520.1
163.56	24022.9
168.464	20579.9
173.365	13161.9
178.264	9942
183.16	8926.99
188.054	8940.55
192.946	7896.36
197.835	8470.74
202.721	10211.8
207.605	12342.6
212.487	10663
217.366	7258.81
222.243	5554.07
227.117	4630.68
231.988	4577.52
236.857	5130.98
241.724	6681.04
246.588	4757.98
251.45	3309.99
256.309	3119.8
261.166	3186.71
266.02	3520.12
270.872	4006.9
275.721	3870.26
280.568	2782.38
285.412	2201.66
290.254	2448.62
295.094	2545.88
299.93	3657.24
304.765	5459.31
309.597	5159.78
314.426	2031.42
319.253	1214.99
324.077	1063.42
328.899	1365.69
333.718	1273.88
338.535	786.121
343.35	617.334
348.162	1171.82
352.971	1474.15
357.778	2090.88
362.582	2222.09
367.384	1065.93
372.183	283.797
376.98	212.926
381.775	274.248
386.566	254.877
391.356	434.31
396.143	450.623
400.927	59.0547
405.709	108.977
410.488	432.033
415.265	763.234
420.039	1197.49
424.811	3007.67
429.58	6708.74
434.347	11769.5
439.111	14649
443.873	15661.2
448.632	16097.8
453.388	7103.5
458.143	2027.44
462.894	674.578
467.643	338.508
472.39	225.426
477.134	497.998
481.875	675.676
486.614	1699.97
491.351	2629.87
496.085	2920.24
500.816	2641.13
505.545	2427.8
510.272	2678.96
514.995	3672.35
519.717	5640.15
524.436	11001.9
529.152	20252.3
533.866	29872.5
538.577	17709.8
543.285	6723.98
547.992	2860.37
552.695	1563.16
557.396	886.779
562.095	640.141
566.791	318.205
571.484	219.877
576.175	283.543
580.863	72.2949
585.549	190.377
590.233	300.387
594.913	337.701
599.592	584.268
604.267	437.023
608.94	104.103
613.611	32.0332
618.279	94.6348
622.945	49.125
627.608	100.293
632.268	103.988
636.926	172.475
641.581	103.289
646.234	19.1406
650.884	177.672
655.532	256.092
660.177	212.283
664.82	144.639
669.46	137.172
674.097	421.875
678.732	601.09
683.364	750.107
687.994	976.328
692.622	1417.61
697.246	2056.66
701.868	2709.15
706.488	3017.61
711.105	2188.5
715.72	1832.62
720.332	1908.01
724.941	2398.75
729.548	1993.73
734.152	1112.19
738.754	739.291
743.353	524.023
747.949	203.856
752.544	567.168
757.135	214.373
761.724	168.935
766.31	144.816
770.894	60.4141
775.475	147.504
780.054	252.662
784.63	75.1621
789.203	61.6914
793.774	96.8945
798.343	193.654
802.909	68.6426
807.472	78.4609
812.033	163.322
816.591	258.842
821.146	92.4512
825.699	341.213
830.25	290.234
834.798	602.543
839.343	184.148
843.885	462.031
848.426	116.238
852.963	321.744
857.498	267.695
862.031	116.164
866.56	342.012
871.088	282.258
875.612	193.912
880.134	242.992
884.654	202.647
889.171	286.268
893.685	244.928
898.197	106.033
902.706	134.33
907.213	43.5508
911.717	267.07
916.218	39.8027
920.717	77.2617
925.214	131.137
929.707	48.6875
934.199	238.182
938.687	47.6172
943.173	129.609
947.657	216.299
952.137	421.363
956.616	763.135
961.091	1535.65
965.564	2952.25
970.035	3338.26
974.503	1532.71
978.968	791.977
983.431	628.898
987.891	1123.16
992.349	1344.85
996.804	1573.52
1001.26	1259.07
1005.71	973.828
1010.15	1192.06
1014.6	1528.82
1019.04	2361.48
1023.48	5612.59
1027.92	6744.49
1032.35	3117.59
1036.78	1851.98
1041.21	1821.26
1045.64	2015.71
1050.06	2554.23
1054.48	1963.77
1058.9	1526.72
1063.32	1274.25
1067.73	1919.74
1072.14	1910.11
1076.55	1670.28
1080.96	1326.38
1085.36	1846.23
1089.76	2083.5
1094.16	1840.98
1098.55	1008.41
1102.95	695.293
1107.34	613.773
1111.72	420.512
1116.11	500.207
1120.49	462.973
1124.87	482.777
1129.25	425.762
1133.62	491.664
1137.99	299.668
1142.36	146.668
1146.73	262.727
1151.1	156.836
1155.46	383.102
1159.82	41.3281
1164.17	0.519531
1168.53	21.1523
1172.88	113.168
1177.22	58.6328
1181.57	247.648
1185.91	118.66
1190.26	242.328
1194.59	151.019
1198.93	237.969
1203.26	252.883
1207.59	311.644
1211.92	357.227
1216.24	492.664
1220.57	173.027
1224.89	315.258
1229.2	273.816
1233.52	381.91
1237.83	142.887
1242.14	357.508
1246.45	173.652
1250.75	319.453
1255.05	67.1992
1259.35	161.887
1263.65	57.5195
1267.94	220.098
1272.23	272.621
1276.52	535.195
1280.81	281.742
1285.09	358.074
1289.37	317.281
1293.65	294.316
1297.93	38.5156
1302.2	190.852
1306.47	269.363
1310.74	194.613
1315	209.426
1319.27	158.18
1323.53	358.969
1327.78	398.578
1332.04	335.285
1336.29	278.699
1340.54	265.473
1344.79	283.047
1349.03	205.551
1353.27	295.883
1357.51	209.293
1361.75	254.332
1365.98	266.731
1370.21	436.043
1374.44	262.371
1378.67	294.715
1382.89	297.102
1387.11	150.402
1391.33	170.863
1395.55	366.441
1399.76	1.07031
1403.97	198.805
1408.18	443.656
1412.38	63.5703
1416.58	97.7852
1420.78	450.285
1424.98	252.91
1429.17	321.305
1433.37	657.277
1437.56	365.336
1441.74	234.719
1445.93	97.957
1450.11	393.016
1454.29	377.391
1458.46	262.629
1462.64	420.336
1466.81	26.7266
1470.98	327.5
1475.14	446.898
1479.31	264.441
1483.47	403.152
1487.62	13.8906
1491.78	335.156
1495.93	482.297
1500.08	261.516
1504.23	134.043
1508.37	144.16
1512.52	341.773
1516.65	283.879
1520.79	394.281
1524.93	334.023
1529.06	290.598
1533.19	564.242
1537.31	700.691
1541.44	495.891
1545.56	356.051
1549.68	344.031
1553.79	2.36328
1557.91	372.945
1562.02	309.414
1566.12	25.6289
1570.23	469.617
