Measurement: Raman, 514 nm, depolarized, Raman Data Processed
Mineral: Natrolite
Rruff sample: R040112
Ideal chemistry: Na_2_(Si_3_Al_2_)O_10_2H_2_O
Locality: Ice River Alkaline Complex, Moose Creek Valley, Yoho National Park, British Columbia, Canada
Source: National Museums of Canada
Description: Colorless pseudohexagonal prism
Measured chemistry: Na_2.00_(Si_3.00_Al_2.00_)O_10_Â·2H_2_O
Pin_id: L00277
Orientation: Laser parallel to -a* (-1 0 0). Fiducial mark perpendicular to laser is parallel to b [0 1 0]
Raman shift (cm-1)	intensity
110.777	0
114.949	227.164
119.119	1172.03
123.286	4110.02
127.452	7373.14
131.615	1651.81
135.777	3275.16
139.937	5963.78
144.094	9015.06
148.25	6287.85
152.403	3129.55
156.555	7004.99
160.705	18597.9
164.853	22240
168.998	10805.1
173.142	4387.17
177.284	1887.75
181.424	708.424
185.562	717.919
189.698	842.346
193.831	1238.27
197.963	1047.45
202.093	2162.33
206.221	4542.23
210.347	4138.45
214.472	1811.94
218.594	1209.65
222.714	1075.34
226.832	369.919
230.948	97.554
235.063	94.502
239.175	590.906
243.286	1000.06
247.394	336.704
251.501	96.91
255.605	245.893
259.708	329.982
263.808	200.421
267.907	462.798
272.004	38.968
276.099	769.316
280.192	596.276
284.283	61.669
288.372	39.588
292.459	168.589
296.544	487.945
300.627	517.163
304.709	1535.88
308.788	2773.91
312.865	771.087
316.941	76.959
321.015	131.318
325.086	444.338
329.156	176.193
333.224	6.944
337.29	196.108
341.354	553.963
345.416	760.707
349.476	705.067
353.534	1135.25
357.591	2282.7
361.645	3149.88
365.698	1836.44
369.748	642.606
373.797	198.47
377.844	173.94
381.889	21.217
385.932	77.094
389.973	246.217
394.012	145.039
398.049	107.19
402.084	228.138
406.118	659.848
410.15	1360.67
414.179	2017.43
418.207	1694.02
422.233	1340.31
426.257	1225.58
430.279	1305.53
434.299	2560.28
438.318	7299.54
442.334	18288.1
446.349	11934
450.361	4002.32
454.372	2003.65
458.381	1493.74
462.388	1119.98
466.394	976.832
470.397	1393.3
474.398	2099.38
478.398	3241.17
482.396	4772.09
486.391	5006.02
490.385	4117.23
494.377	3203.45
498.368	2664.53
502.356	2546.71
506.342	3089.05
510.327	3972.72
514.31	5043.62
518.291	5640.97
522.27	6844.05
526.247	10721.7
530.222	23254.2
534.196	41123.9
538.167	28479.5
542.137	12222
546.105	5974.21
550.071	3087.56
554.035	1799.21
557.998	1154.08
561.958	1051.28
565.917	782.451
569.874	463.98
573.829	155.631
577.782	257.434
581.733	399.873
585.683	143.023
589.63	57.141
593.576	48.02
597.52	372.094
601.462	550.154
605.402	277.551
609.341	42.525
613.277	61.971
617.212	154.361
621.145	316.24
625.076	527.219
629.006	311.58
632.933	190.301
636.859	192.365
640.783	292.107
644.705	312.834
648.625	331.576
652.543	295.699
656.46	279.836
660.375	278.615
664.288	52.502
668.199	183.754
672.108	39.574
676.016	124.371
679.921	127.35
683.825	161.422
687.727	174.156
691.628	636.861
695.526	1009.59
699.423	1422.5
703.318	1425.6
707.211	1328.85
711.102	1102.2
714.992	1195.62
718.879	1379.07
722.765	1462.51
726.649	1795.92
730.532	1649.29
734.412	1442.64
738.291	655.943
742.168	209.205
746.043	132.41
749.916	124.65
753.788	187.664
757.658	90.342
761.526	52.562
765.392	74.592
769.257	125.406
773.119	23.27
776.98	174.975
780.839	125.857
784.697	43.377
788.552	72.77
792.406	97.512
796.258	227.48
800.108	256.561
803.957	56.086
807.804	145.537
811.649	84.951
815.492	294.289
819.333	234.51
823.173	82.182
827.011	34.982
830.847	70.076
834.681	179.023
838.514	323.266
842.345	422.385
846.174	531.52
850.001	360.674
853.827	239.936
857.651	679.293
861.473	968.676
865.293	648.09
869.112	477.543
872.928	277.039
876.744	496.574
880.557	396.207
884.369	325.912
888.178	175.67
891.987	175.482
895.793	45.359
899.598	179.703
903.401	567.463
907.202	420.154
911.001	467.053
914.799	404.557
918.595	94.727
922.389	95.586
926.182	242.93
929.972	666.281
933.761	410.363
937.549	217.625
941.334	322.256
945.118	500.59
948.9	366.152
952.681	510.836
956.459	697.605
960.236	569.158
964.012	590.877
967.785	658.092
971.557	1100.27
975.327	2442.69
979.095	2503.77
982.862	1906.79
986.627	440.029
990.39	452.297
994.152	886.012
997.912	1269.94
1001.67	1990.99
1005.43	1400.99
1009.18	1545.77
1012.93	1330.72
1016.68	1267.02
1020.43	1223.2
1024.18	1719.34
1027.93	1975.56
1031.67	2858.55
1035.42	5365.33
1039.16	12842
1042.9	11910
1046.63	5187.56
1050.37	2734.89
1054.11	1772.13
1057.84	1204.21
1061.57	952.758
1065.3	1018.3
1069.03	951.523
1072.75	1234.62
1076.47	1670.21
1080.2	1746.88
1083.92	1764.37
1087.64	1402.68
1091.36	951.514
1095.07	520.859
1098.79	1030.68
1102.5	800.977
1106.21	741.746
1109.92	482.977
1113.62	84.299
1117.33	85.939
1121.04	277.939
1124.74	840.252
1128.44	352.787
1132.14	385.699
1135.83	556.742
1139.53	362.801
1143.22	457.029
1146.92	366.902
1150.61	247.578
1154.3	494.361
1157.98	511.969
1161.67	350.416
1165.35	69.736
1169.04	110.029
1172.72	181.408
1176.4	65.957
1180.07	388.15
1183.75	564.012
1187.42	690.051
1191.1	474.828
1194.77	247.674
1198.44	132.514
1202.1	34.369
1205.77	364.455
1209.43	401.861
1213.1	332.91
1216.76	0
