Measurement: Raman, 514 nm, depolarized, Raman Data Processed
Mineral: Natrolite
Rruff sample: R060561
Ideal chemistry: Na_2_(Si_3_Al_2_)O_10_2H_2_O
Locality: California, USA
Source: Gemological Institute of America
Description: White fragment
Measured chemistry: Na_2.00_(Si_3.00_Al_2.00_)O_10_Â·2H_2_O
Pin_id: L00568
Orientation: Laser parallel to b* (0 1 0). Fiducial mark perpendicular to laser is parallel to c [0 0 1]
Raman shift (cm-1)	intensity
97.118	0
102.055	91.5576
106.989	6065.11
111.921	4228.92
116.851	3523
121.778	9602.01
126.703	5769.77
131.625	5681.36
136.545	9702.8
141.462	16306.4
146.377	13892.2
151.29	7905.52
156.2	10004
161.107	17689.5
166.012	16466.7
170.915	8109.7
175.815	4870.01
180.713	4161.96
185.608	4445.32
190.5	4071.64
195.391	5307.73
200.278	7686.88
205.164	10325.2
210.046	10215.5
214.927	5430.67
219.805	3574.44
224.68	2016.62
229.553	1814.02
234.423	3013.48
239.291	6331.35
244.157	6774.69
249.019	2130.8
253.88	912.812
258.738	1017.37
263.593	1467.44
268.446	2445.16
273.297	2860.5
278.145	1407.05
282.991	672.719
287.834	941.628
292.674	1065.11
297.512	2244.64
302.348	5036.84
307.181	9665.34
312.012	4082.81
316.84	770.895
321.665	568.141
326.488	746.394
331.309	1520.62
336.127	1170.77
340.943	728.773
345.756	693.582
350.567	1094.18
355.375	1703.76
360.18	2932.22
364.983	1593.42
369.784	287.015
374.582	269.309
379.378	432.402
384.171	621.118
388.961	527.232
393.75	386.021
398.535	211.287
403.318	765.019
408.099	1519.48
412.877	2406.83
417.652	2246.29
422.425	2050.46
427.196	2986.88
431.964	7575.46
436.729	18550.1
441.492	37754.2
446.253	24736.2
451.01	7842.55
455.766	2954.72
460.519	1551.63
465.269	853.293
470.017	590.784
474.762	458.586
479.505	714.014
484.245	765.926
488.983	988.782
493.718	1546.11
498.451	2513.25
503.181	3631.69
507.909	5364.28
512.634	7270.01
517.356	9256.71
522.077	12714.8
526.794	22045.4
531.509	37470.6
536.221	38056.9
540.931	15638
545.639	6123.1
550.344	2913.07
555.046	1542.53
559.746	967.438
564.443	590.751
569.138	402.435
573.83	217.452
578.52	249.772
583.207	26.3594
587.891	194.108
592.573	649.089
597.253	1253.28
601.93	890.958
606.604	475.835
611.276	93.0508
615.945	170.376
620.612	81.8711
625.276	190.334
629.938	101.141
634.597	41.4805
639.254	29.5645
643.908	113.617
648.559	290.419
653.208	178.385
657.855	30.7119
662.499	6.23731
667.14	112.365
671.779	175.761
676.415	184.27
681.049	528.773
685.68	973.51
690.308	1383.42
694.934	2351.57
699.558	3399.34
704.179	3548.25
708.797	2847.39
713.413	2036.33
718.026	1643.41
722.637	1848.02
727.245	1868.33
731.85	1277.64
736.453	758.089
741.054	14.1719
745.652	31.3486
750.247	56.8672
754.84	79.8213
759.43	31.833
764.017	38.9287
768.602	43.1504
773.185	168.927
777.765	97.3613
782.342	151.175
786.917	57.7051
791.489	186.912
796.059	6.12109
800.626	230.31
805.191	57.4033
809.753	67.5811
814.312	117.821
818.869	320.047
823.423	147.115
827.975	112.346
832.524	203.398
837.07	99.1289
841.614	133.689
846.156	337.106
850.695	262.728
855.231	268.09
859.765	180.639
864.296	283.981
868.824	373.525
873.35	313.637
877.874	166.006
882.395	263.199
886.913	262.162
891.428	256.608
895.942	231.872
900.452	143.597
904.96	54.6728
909.465	264.976
913.968	10.5273
918.468	73.6436
922.966	80.7949
927.461	44.5957
931.953	26.1484
936.443	133.887
940.931	155.197
945.415	324.348
949.897	465.236
954.377	901.242
958.854	2252.45
963.328	4693.15
967.8	4875.97
972.269	2163.55
976.736	1358.66
981.2	913.084
985.661	712.918
990.12	422.185
994.576	929.436
999.03	1524.76
1003.48	1191.54
1007.93	748.018
1012.38	617.797
1016.82	511.211
1021.26	524.074
1025.7	1001.62
1030.13	1627.15
1034.57	3761.53
1039	6889.72
1043.42	5074.28
1047.85	2082.15
1052.27	1020.71
1056.69	716.627
1061.11	668.33
1065.53	619.354
1069.94	833.502
1074.35	1338.79
1078.75	1838.35
1083.16	2164.21
1087.56	1667.88
1091.96	1165.72
1096.36	749.783
1100.75	599.881
1105.14	241.994
1109.53	208.049
1113.92	300.797
1118.3	246.693
1122.68	310.904
1127.06	100.018
1131.44	180.887
1135.81	38.0273
1140.18	263.33
1144.55	49.0605
1148.91	267.658
1153.28	76.5352
1157.64	27.7578
1161.99	103.031
1166.35	120.859
1170.7	39.8477
1175.05	181.018
1179.4	170.453
1183.74	89.1504
1188.09	46.8008
1192.42	229.416
1196.76	231.803
1201.1	87.0078
1205.43	65.5644
1209.76	50.7715
1214.08	96.6758
1218.41	137.242
1222.73	190.166
1227.05	10.2676
1231.36	218.148
1235.68	79.7832
1239.99	138.322
1244.3	143.744
1248.6	0.207031
1252.9	7.18164
1257.2	194.315
1261.5	245.451
1265.8	190.945
1270.09	35.1719
1274.38	143.406
1278.67	32.6484
1282.95	60.707
1287.23	37.6055
1291.51	177.291
1295.79	233.213
1300.06	69.0859
1304.34	199.451
1308.61	47.166
1312.87	180.484
1317.13	30.9902
1321.4	65.8047
1325.65	103.301
1329.91	139.453
1334.16	155.144
1338.41	141.853
1342.66	16.1367
1346.91	139.205
1351.15	171.326
1355.39	83.7051
1359.63	122.25
1363.87	104.672
1368.1	186.619
1372.33	229.959
1376.56	290.352
1380.78	263.088
1385	111.324
1389.22	15.373
1393.44	1.97461
1397.65	20.291
1401.86	139.516
1406.07	127.174
1410.28	244.951
1414.48	350.006
1418.68	219.291
1422.88	175.803
1427.08	236.627
1431.27	149.504
1435.46	133.664
1439.65	418.408
1443.84	559.432
1448.02	513.975
1452.2	545.121
1456.38	831.549
1460.55	716.967
1464.72	573.607
1468.89	290.957
1473.06	511.057
1477.22	190.185
1481.39	236.471
1485.55	204.16
1489.7	79.1152
1493.86	214.6
1498.01	247.09
1502.16	290.557
1506.3	79.6934
1510.44	290.481
1514.59	270.277
1518.72	41.9375
1522.86	116.99
1526.99	134.307
1531.12	364.356
1535.25	198.203
1539.38	303.894
1543.5	138.742
1547.62	123.332
1551.74	243.457
1555.85	245.385
1559.96	102.148
1564.07	252.363
1568.18	423.523
1572.28	119.143
