Measurement: Raman, 514 nm, depolarized, Raman Data Processed
Mineral: Natrolite
Rruff sample: R040112
Ideal chemistry: Na_2_(Si_3_Al_2_)O_10_2H_2_O
Locality: Ice River Alkaline Complex, Moose Creek Valley, Yoho National Park, British Columbia, Canada
Source: National Museums of Canada
Description: Colorless pseudohexagonal prism
Measured chemistry: Na_2.00_(Si_3.00_Al_2.00_)O_10_Â·2H_2_O
Pin_id: L00109
Orientation: Laser parallel to -c* (0 0 -1). Fiducial mark perpendicular to laser is parallel to a [1 0 0]
Raman shift (cm-1)	intensity
136.176	0
138.959	222.352
141.741	1263.64
144.521	2441.91
147.301	2598.7
150.08	1501.12
152.858	828.342
155.635	1292.68
158.411	2558.25
161.187	5618.46
163.961	8377.23
166.734	7114.38
169.507	3877.63
172.278	2268.74
175.049	1171.22
177.819	447.319
180.587	153.324
183.355	335.945
186.122	536.037
188.888	76.809
191.653	106.942
194.417	17.187
197.18	249.354
199.943	409.751
202.704	1128.47
205.465	2286.5
208.224	3426.02
210.983	2401.76
213.74	1321.8
216.497	383.354
219.253	81.512
222.008	181.59
224.762	71.577
227.515	78.682
230.267	113.49
233.018	5.876
235.769	504.514
238.518	854.564
241.267	1636.27
244.014	1157.43
246.761	395.102
249.507	62.549
252.252	120.126
254.996	66.133
257.739	35.498
260.481	185.364
263.222	194.324
265.962	411.672
268.702	508.562
271.44	836.785
274.178	624.707
276.915	242.362
279.65	78.773
282.385	28.51
285.119	15.937
287.852	26.486
290.584	111.248
293.316	39.327
296.046	97.837
298.775	13.232
301.504	606.688
304.231	1635.07
306.958	2255.47
309.684	1206.74
312.409	389.304
315.133	251.473
317.856	103.293
320.578	115.035
323.299	17.229
326.02	21.819
328.739	58.68
331.458	208.763
334.176	71.502
336.892	27.84
339.608	6.838
342.323	24.642
345.037	72.808
347.751	289.406
350.463	175.384
353.174	451.182
355.885	396.78
358.594	741.942
361.303	797.226
364.011	582.367
366.718	327.376
369.424	52.334
372.129	57.155
374.833	1.58
377.537	5.45
380.239	8.782
382.941	76.13
385.642	233.241
388.341	90.806
391.04	264.023
393.738	242.552
396.435	268.383
399.132	109.664
401.827	150.654
404.521	31.862
407.215	77.391
409.908	23.138
412.599	253.324
415.29	213.225
417.98	192.893
420.67	106.647
423.358	415.451
426.045	754.302
428.732	1603.01
431.417	2831.59
434.102	4740.05
436.786	5688.28
439.469	5376.42
442.151	4993.53
444.832	5216.01
447.512	6441.32
450.192	6386.31
452.87	4239.74
455.548	2241.88
458.225	1320.34
460.901	705.468
463.576	462.661
466.25	499.861
468.923	397.018
471.596	263.988
474.267	270.758
476.938	347.303
479.608	602.186
482.276	127.477
484.944	596.02
487.612	694.879
490.278	833.83
492.943	846.734
495.608	1302.44
498.271	1094
500.934	1325.06
503.596	1442.84
506.257	1216.16
508.917	870.119
511.577	889.004
514.235	1096.05
516.892	1197.05
519.549	2030.92
522.205	2015.75
524.86	2896.17
527.514	4489.21
530.167	8035.29
532.82	11656.6
535.471	10419.9
538.122	6248.43
540.771	3513.84
543.42	2176.16
546.068	1730.08
548.715	1080.05
551.362	690.793
554.007	811.982
556.652	803.236
559.295	495.018
561.938	345.535
564.58	405.191
567.221	608.225
569.861	565.951
572.501	436.332
575.139	234.389
577.777	46.4
580.414	313.971
583.049	528.104
585.685	409.367
588.319	410.922
590.952	464.084
593.585	545.467
596.216	591.398
598.847	775.49
601.477	645.967
604.106	496.852
606.734	647.645
609.361	505.723
611.988	587.076
614.614	587.049
617.238	937.348
619.862	1421.28
622.485	1532.33
625.108	1886.83
627.729	1985.98
630.349	1195.27
632.969	1003.46
635.588	732.873
638.206	871.408
640.823	1109.78
643.439	988.613
646.055	1436.99
648.669	1175.31
651.283	1283.73
653.896	1311.89
656.508	960.596
659.119	599.258
661.729	437.209
664.339	495.078
666.947	362.834
669.555	200.43
672.162	327.836
674.768	25.131
677.373	182.164
679.978	68.92
682.581	74.596
685.184	358.396
687.786	157.252
690.387	42.719
692.987	198.041
695.586	333.289
698.185	348.498
700.783	813.701
703.379	768.877
705.975	683.973
708.57	739.014
711.165	333.965
713.758	448.826
716.351	643.588
718.943	498.23
721.533	612.328
724.124	626.623
726.713	850.873
729.301	1044.92
731.889	1088.75
734.476	98.695
737.061	281.977
739.647	226.016
742.231	119.928
744.814	6.27
747.397	127.393
749.978	350.949
752.559	204.369
755.139	337.627
757.719	80.775
760.297	103.812
762.875	103.322
765.451	59.375
768.027	521.924
770.602	84.232
773.177	43.559
775.75	28.518
778.323	230.484
780.894	242.297
783.465	203.957
786.035	325.695
788.605	77.18
791.173	560.516
793.741	71.826
796.307	183.055
798.873	474.205
801.439	345.283
804.003	466.295
806.566	267.238
809.129	108.117
811.691	608.922
814.252	589.66
816.812	640.334
819.371	390.33
821.93	560.383
824.488	484.217
827.045	771.551
829.601	585.424
832.156	447.488
834.71	446.141
837.264	626.027
839.817	848.461
842.369	777.35
844.92	934.607
847.47	1003.2
850.02	1093.17
852.568	1278.99
855.116	1502.44
857.663	1732.45
860.209	1645.86
862.755	2235.92
865.299	1715.93
867.843	1105.96
870.386	644.178
872.928	923.533
875.47	952.859
878.01	1272.38
880.55	721.891
883.089	891.41
885.627	820.838
888.164	649.285
890.701	928.508
893.236	554.162
895.771	732.383
898.305	989.055
900.838	477.41
903.371	616.662
905.902	570.412
908.433	618.949
910.963	585.918
913.492	456.279
916.021	133.854
918.548	167.896
921.075	148.938
923.601	257.088
926.126	84.896
928.65	302.846
931.174	331.148
933.697	329.588
936.218	27.416
938.739	305.061
941.26	113.398
943.779	421.768
946.298	280.061
948.816	335.162
951.333	277.859
953.849	407.559
956.365	347.352
958.879	307.137
961.393	196.85
963.906	776.486
966.418	1596.12
968.93	1469.93
971.441	1055.39
973.95	305.018
976.459	25.311
978.968	55.521
981.475	24.389
983.982	4.5
986.488	244.742
988.993	235.43
991.497	106.775
994	38.666
996.503	560.844
999.005	1302.9
1001.51	1920.72
1004.01	1163.69
1006.51	516.994
1009	390.617
1011.5	304.588
1014	278.973
1016.5	543.842
1018.99	914.342
1021.49	1685.94
1023.98	3177.91
1026.47	4380.67
1028.96	3343.09
1031.46	1985.97
1033.95	918.887
1036.44	559.098
1038.93	388.129
1041.41	411.545
1043.9	297.285
1046.39	353.668
1048.88	255.213
1051.36	323.895
1053.85	471.832
1056.33	3.74
1058.81	0
