Measurement: Raman, 514 nm, depolarized, Raman Data Processed
Mineral: Natrolite
Rruff sample: R060561
Ideal chemistry: Na_2_(Si_3_Al_2_)O_10_2H_2_O
Locality: California, USA
Source: Gemological Institute of America
Description: White fragment
Measured chemistry: Na_2.00_(Si_3.00_Al_2.00_)O_10_Â·2H_2_O
Pin_id: L00669
Orientation: Laser parallel to c* (0 0 1). Fiducial mark perpendicular to laser is parallel to a [1 0 0]
Raman shift (cm-1)	intensity
99.587	0
104.522	6.24805
109.456	139.969
114.387	1838.41
119.315	3991.62
124.241	7399.66
129.164	6567.95
134.085	8055.22
139.004	10736
143.92	15654.6
148.834	16905.7
153.745	14719
158.654	19957.5
163.56	32182.4
168.464	28458.6
173.365	17595.9
178.264	12610.4
183.16	10593.6
188.054	10906
192.946	9429.27
197.835	9494.09
202.721	11624.5
207.605	14844.7
212.487	13304.4
217.366	8095.02
222.243	5840.06
227.117	4532.22
231.988	4429.32
236.857	5411.14
241.724	7281.9
246.588	5525.86
251.45	3493.06
256.309	3179.31
261.166	3303.71
266.02	3458.52
270.872	4155.75
275.721	3689.37
280.568	2658.88
285.412	2096.13
290.254	2103.23
295.094	2337.47
299.93	3554.32
304.765	5734.33
309.597	5804.19
314.426	1845.5
319.253	977.838
324.077	1000.83
328.899	952.842
333.718	1191.74
338.535	714.475
343.35	420.336
348.162	833.086
352.971	1501.23
357.778	2529.69
362.582	2620.31
367.384	1004.86
372.183	234.18
376.98	216.08
381.775	188.531
386.566	198.287
391.356	491.772
396.143	353.06
400.927	328.637
405.709	96.4004
410.488	362.291
415.265	763.045
420.039	1498.44
424.811	3140.3
429.58	7438.45
434.347	14189.8
439.111	17155.1
443.873	17970.5
448.632	20635
453.388	10949.8
458.143	3077.22
462.894	927.904
467.643	100.984
472.39	53.8711
477.134	585.592
481.875	1135.92
486.614	2088.05
491.351	3860.19
496.085	4528.08
500.816	3890.4
505.545	3463.67
510.272	3382.73
514.995	4385.71
519.717	6491.46
524.436	12036.6
529.152	23636
533.866	37264.9
538.577	21700.8
543.285	8095.36
547.992	3696.09
552.695	1997.43
557.396	1257.64
562.095	567.639
566.791	324.348
571.484	280.695
576.175	282.596
580.863	456.965
585.549	331.688
590.233	293.693
594.913	556.701
599.592	641.859
604.267	344.135
608.94	282.902
613.611	102.752
618.279	17.2793
622.945	102.232
627.608	74.4688
632.268	36.3164
636.926	137.375
641.581	150.791
646.234	22.8262
650.884	67.4219
655.532	227.822
660.177	326.639
664.82	505.074
669.46	426.227
674.097	330.098
678.732	548.912
683.364	889.559
687.994	1199.2
692.622	1648.52
697.246	2514.31
701.868	3066.55
706.488	3726.99
711.105	3008.66
715.72	2196.74
720.332	2515.04
724.941	3001.06
729.548	2890.01
734.152	1869.59
738.754	955.359
743.353	489.777
747.949	496.461
752.544	396.389
757.135	656.896
761.724	159.252
766.31	214.027
770.894	118.439
775.475	105.826
780.054	285.672
784.63	212.438
789.203	143.381
793.774	192.348
798.343	2.02539
802.909	231.125
807.472	89.543
812.033	105.656
816.591	79.3711
821.146	104.82
825.699	186.356
830.25	323.961
834.798	128.699
839.343	381.551
843.885	129.566
848.426	250.711
852.963	208.055
857.498	268.617
862.031	308.449
866.56	154.562
871.088	323.057
875.612	368.002
880.134	404.9
884.654	187.16
889.171	360.719
893.685	123.031
898.197	201.348
902.706	59.877
907.213	125.555
911.717	57.7812
916.218	178.418
920.717	42.4844
925.214	68.2305
929.707	2.16797
934.199	110.266
938.687	178.543
943.173	162.465
947.657	122.273
952.137	482.652
956.616	872.25
961.091	1520.95
965.564	3342.74
970.035	4027.21
974.503	1745.46
978.968	676.211
983.431	527.574
987.891	814.41
992.349	1479.41
996.804	1592.09
1001.26	1271.84
1005.71	800.152
1010.15	879.519
1014.6	1392.92
1019.04	3414.31
1023.48	8612.45
1027.92	11411.6
1032.35	4884.14
1036.78	2311.2
1041.21	1874.96
1045.64	2176.57
1050.06	2778.27
1054.48	2586.05
1058.9	2409.89
1063.32	2883.23
1067.73	3555.37
1072.14	3499.22
1076.55	2405.84
1080.96	1891.19
1085.36	2350.23
1089.76	2924.82
1094.16	2588.02
1098.55	1273.23
1102.95	915.371
1107.34	645.492
1111.72	523.586
1116.11	1034.31
1120.49	854.332
1124.87	166.043
1129.25	137.617
1133.62	31.6836
1137.99	142.09
1142.36	6.30469
1146.73	74.3047
1151.1	39.8242
1155.46	102.277
1159.82	720.742
1164.17	275.059
1168.53	10.8359
1172.88	261.551
1177.22	135.074
1181.57	44.4609
1185.91	49.3281
1190.26	388.699
1194.59	46.2227
1198.93	236.656
1203.26	148.519
1207.59	241.285
1211.92	398.828
1216.24	527.5
1220.57	238.922
1224.89	394.258
1229.2	199.387
1233.52	419.023
1237.83	236.297
1242.14	423.059
1246.45	356.699
1250.75	397.18
1255.05	47.4375
1259.35	362.551
1263.65	286.465
1267.94	213.566
1272.23	479.75
1276.52	378.367
1280.81	386.852
1285.09	327.438
1289.37	148.938
1293.65	132.371
1297.93	111.285
1302.2	180.945
1306.47	447.016
1310.74	356.531
1315	300.078
1319.27	303.754
1323.53	182.359
1327.78	349.578
1332.04	127.117
1336.29	147.957
1340.54	74.8906
1344.79	71.1758
1349.03	60.8906
1353.27	988.547
1357.51	359.117
1361.75	446.781
1365.98	380.273
1370.21	418.723
1374.44	422.117
1378.67	239.106
1382.89	312.019
1387.11	408.035
1391.33	438.586
1395.55	288.223
1399.76	107.742
1403.97	526.625
1408.18	372.637
1412.38	278.703
1416.58	273.856
1420.78	246.254
1424.98	20.2695
1429.17	262.672
1433.37	127.57
1437.56	11.6055
1441.74	449.254
1445.93	259.894
1450.11	488.523
1454.29	325.031
1458.46	255.777
1462.64	235.215
1466.81	280.453
1470.98	66.7695
1475.14	464.109
1479.31	448.57
1483.47	26.8203
1487.62	141.644
1491.78	292.852
1495.93	398.156
1500.08	442.562
1504.23	201.473
1508.37	341.281
1512.52	47.6133
1516.65	1.54688
1520.79	386.977
1524.93	231.203
1529.06	232.977
1533.19	411.207
1537.31	364.215
1541.44	370.543
1545.56	473.519
1549.68	327.109
1553.79	603.527
1557.91	442.406
1562.02	296.797
1566.12	317.125
1570.23	367.062
1574.33	348.07
