Measurement: Raman, 514 nm, depolarized, Raman Data Processed
Mineral: Natrolite
Rruff sample: R040112
Ideal chemistry: Na_2_(Si_3_Al_2_)O_10_2H_2_O
Locality: Ice River Alkaline Complex, Moose Creek Valley, Yoho National Park, British Columbia, Canada
Source: National Museums of Canada
Description: Colorless pseudohexagonal prism
Measured chemistry: Na_2.00_(Si_3.00_Al_2.00_)O_10_Â·2H_2_O
Pin_id: L00214
Orientation: Laser parallel to -b* (0 -1 0). Fiducial mark perpendicular to laser is parallel to c [0 0 1]
Raman shift (cm-1)	intensity
52.937	0
57.132	129.484
61.325	186.346
65.515	119.191
69.704	232.984
73.891	175.294
78.076	45.7
82.26	34.134
86.441	67.984
90.62	48.459
94.797	313.689
98.973	516.933
103.146	1323.13
107.318	3690.47
111.487	7901.51
115.655	7773.82
119.821	16053.4
123.984	10325.9
128.146	3846.37
132.306	4694.66
136.464	10309.9
140.62	16810.3
144.774	11183.4
148.927	4586.36
153.077	5086.44
157.226	10979.9
161.372	16751.3
165.517	10452.8
169.659	4833.31
173.8	2737.97
177.939	2462.78
182.076	3081.75
186.211	2165.9
190.344	1984.22
194.475	3098.74
198.605	4416.44
202.732	7802.35
206.858	9785.47
210.981	5502.79
215.103	3774.16
219.223	2421.61
223.341	1333.62
227.457	990.805
231.571	1385.9
235.684	3703.03
239.794	7558.88
243.902	3443.86
248.009	937.564
252.114	454.109
256.217	433.605
260.318	617.054
264.417	1214.89
268.514	2602.08
272.609	2446.58
276.703	941.366
280.794	544.428
284.884	749.746
288.972	941.309
293.058	858.105
297.142	3113.13
301.224	4714.36
305.304	10041.8
309.383	4373.28
313.46	1020.93
317.534	445.722
321.607	391.673
325.678	760.777
329.747	1798.04
333.815	1340.46
337.88	802.023
341.944	672.742
346.005	640.612
350.065	882.633
354.123	1610.8
358.179	2715.12
362.234	1978.59
366.286	814.203
370.337	216.963
374.386	97.174
378.432	208.412
382.478	108.338
386.521	117.062
390.562	214.569
394.602	124.704
398.639	134.974
402.675	457.852
406.709	1153.96
410.742	2247.36
414.772	2413.07
418.8	1793.06
422.827	1604.23
426.852	2403.6
430.875	4756.14
434.896	12414.9
438.916	33461.8
442.933	30628.9
446.949	10386.4
450.963	4284.05
454.975	1990.07
458.985	1037.42
462.994	719.114
467	624.131
471.005	484.364
475.008	456.887
479.009	567.341
483.009	787.423
487.006	920.436
491.002	1090.94
494.996	1399.62
498.988	2137.47
502.978	2985.48
506.967	4100.66
510.953	5441.98
514.938	6933.47
518.921	8019.16
522.903	9900.99
526.882	17983
530.86	35755.1
534.836	32067.6
538.81	14145.9
542.782	6298.28
546.753	3129.5
550.721	1965.59
554.688	1314.59
558.653	927.077
562.617	579.54
566.578	426.195
570.538	466.037
574.496	478.061
578.452	285.272
582.407	157.664
586.359	272.23
590.31	700.966
594.259	1272.88
598.206	1222.82
602.152	584.747
606.096	249.059
610.038	272.976
613.978	242.937
617.916	85.427
621.853	4.289
625.788	57.748
629.721	126.188
633.652	86.829
637.582	9.168
641.51	23.435
645.436	132.032
649.36	251.675
653.282	257.563
657.203	135.133
661.122	148.72
665.039	312.17
668.955	403.274
672.869	406.5
676.781	419.097
680.691	558.216
684.599	957.645
688.506	1360.07
692.411	1912.06
696.314	2485.05
700.216	3329.26
704.115	3548.93
708.013	2638.04
711.91	1874.6
715.804	1446.39
719.697	1411.88
723.588	1818.3
727.477	1817.61
731.365	1219.99
735.25	496.299
739.134	248.161
743.017	152.598
746.897	140.96
750.776	103.754
754.653	63.373
758.529	84.358
762.402	33.176
766.274	62.798
770.144	23.396
774.013	77.575
777.88	250.822
781.745	83.903
785.608	2.928
789.47	37.396
793.329	7.869
797.188	24.823
801.044	24.476
804.899	64.873
808.752	126.079
812.603	186.129
816.452	103.012
820.3	21.75
824.146	6.657
827.991	152.719
831.834	210.899
835.675	128.936
839.514	420.838
843.352	44.613
847.187	53.246
851.022	187.719
854.854	205.016
858.685	138.167
862.514	51.166
866.341	45.005
870.167	143.677
873.991	239.203
877.813	191.567
881.634	137.774
885.453	9.837
889.27	36.726
893.086	131.452
896.9	159.024
900.712	161.436
904.522	106.695
908.331	2.632
912.138	5.146
915.944	179.086
919.747	287.312
923.549	194.425
927.35	428.226
931.148	67.266
934.945	97.949
938.741	237.245
942.534	379.91
946.326	387.031
950.117	492.825
953.905	722.586
957.692	1565.1
961.478	3786.46
965.261	5606.05
969.043	3143.6
972.823	1679.61
976.602	1164.14
980.379	743.973
984.154	612.345
987.928	707.142
991.7	858.573
995.47	1288.64
999.239	1443.56
1003.01	670.795
1006.77	578.179
1010.53	575.237
1014.3	697.256
1018.06	727.353
1021.82	691.487
1025.57	771.513
1029.33	1100.38
1033.08	2258.31
1036.83	5625.88
1040.59	7228.38
1044.33	3412.12
1048.08	1579.38
1051.83	940.484
1055.57	771.642
1059.31	683.944
1063.05	756.341
1066.79	885.539
1070.53	995.721
1074.27	1118.08
1078	1437.9
1081.73	1845.95
1085.46	1747.96
1089.19	1355.89
1092.92	1100.79
1096.64	844.996
1100.37	500.735
1104.09	324.647
1107.81	261.76
1111.53	251.901
1115.25	382.524
1118.97	340.56
1122.68	348.557
1126.39	197.785
1130.1	128.863
1133.81	62.889
1137.52	129.954
1141.23	190.027
1144.93	259.083
1148.64	249.96
1152.34	149.835
1156.04	105.606
1159.74	5.449
1163.43	7.546
1167.13	51.16
1170.82	156.248
1174.51	188.057
1178.2	179.617
1181.89	102.547
1185.58	16.255
1189.26	19.336
1192.95	10.865
1196.63	4.475
1200.31	46.768
1203.99	235.94
1207.67	166.066
1211.34	42.139
1215.02	8.141
1218.69	17.909
1222.36	66.019
1226.03	90.27
1229.7	73.27
1233.36	170.726
1237.03	251.214
1240.69	171.586
1244.35	35.834
1248.01	56.063
1251.67	27.075
1255.33	11.829
1258.98	90.647
1262.64	171.408
1266.29	265.105
1269.94	237.747
1273.59	120.301
1277.23	77.762
1280.88	17.153
1284.53	10.482
1288.17	79.741
1291.81	152.938
1295.45	252.077
1299.09	274.159
1302.72	241.903
1306.36	159.583
1309.99	55.125
1313.62	1.97
1317.25	10.629
1320.88	68.203
1324.51	121.9
1328.13	272.499
1331.75	309.948
1335.38	318.358
1339	199.234
1342.62	147.199
1346.23	93.373
1349.85	58.572
1353.46	72.014
1357.08	100.06
1360.69	223.118
1364.3	387.202
1367.9	383.308
1371.51	409.142
1375.12	285.386
1378.72	55.496
1382.32	122.088
1385.92	43.25
1389.52	35.053
1393.12	141.102
1396.71	199.731
1400.31	295.148
1403.9	331.949
1407.49	388.52
1411.08	332.194
1414.67	209.861
1418.25	199.515
1421.84	90.474
1425.42	98.704
1429	76.571
1432.58	138.454
1436.16	220.726
1439.74	247.206
1443.32	342.7
1446.89	356.229
1450.46	321.915
1454.03	272.699
1457.6	149.581
1461.17	47.832
1464.74	46.246
1468.3	101.816
1471.87	133.482
1475.43	195.494
1478.99	241.786
1482.55	318.417
1486.1	357.388
1489.66	328.766
1493.21	314.627
1496.77	150.042
1500.32	124.123
1503.87	49.022
1507.41	13.077
1510.96	15.39
1514.51	83.778
1518.05	119.141
1521.59	261.208
1525.13	232.16
