Measurement: Raman, 514 nm, depolarized, Raman Data Processed
Mineral: Natrolite
Rruff sample: R040102
Ideal chemistry: Na_2_(Si_3_Al_2_)O_10_2H_2_O
Locality: Ross' Quarry, Northland, New Zealand
Source: University of Arizona Mineral Museum
Description: Mass of colorless acicular crystals
Measured chemistry: (Na_0.92_Ca_0.02_)_2_(Si_3.03_Al_1.99_)O_10_Â·2H_2_O
Pin_id: S00341
Orientation: Laser parallel to -c* (0 0 -1). Fiducial mark perpendicular to laser is parallel to a [1 0 0]
Raman shift (cm-1)	intensity
127.452	0
131.615	94.59
135.777	403.915
139.937	1108.88
144.094	1640.63
148.25	1613.53
152.403	1549.54
156.555	2412.63
160.705	3964.86
164.853	4173.79
168.998	3096.3
173.142	1839.03
177.284	1270.18
181.424	989.192
185.562	845.845
189.698	620.928
193.831	605.09
197.963	808.761
202.093	1262.63
206.221	1526.91
210.347	1245.52
214.472	688.026
218.594	216.66
222.714	116.254
226.832	1.276
230.948	130.144
235.063	277.538
239.175	537.025
243.286	388.338
247.394	71.697
251.501	77.396
255.605	92.249
259.708	37.417
263.808	65.184
267.907	267.03
272.004	286.672
276.099	95.493
280.192	76.161
284.283	46.755
288.372	50.098
292.459	92.433
296.544	166.991
300.627	439.736
304.709	713.803
308.788	608.565
312.865	13.668
316.941	78.911
321.015	14.181
325.086	49.228
329.156	123.993
333.224	98.441
337.29	202.554
341.354	46.318
345.416	229.757
349.476	182.9
353.534	405.636
357.591	447.165
361.645	388.156
365.698	278.965
369.748	139.15
373.797	38.537
377.844	37.541
381.889	13.042
385.932	55.061
389.973	13.012
394.012	19.054
398.049	178.679
402.084	206.253
406.118	193.689
410.15	241.243
414.179	281.094
418.207	289.035
422.233	424.481
426.257	889.768
430.279	1676.32
434.299	2772.82
438.318	3249.05
442.334	3602.32
446.349	3878.06
450.361	3202.05
454.372	1627.1
458.381	872.148
462.388	478.431
466.394	415
470.397	491.095
474.398	428.307
478.398	583.884
482.396	941.557
486.391	877.33
490.385	1071.74
494.377	900.791
498.368	1025.64
502.356	959.889
506.342	846.404
510.327	860.477
514.31	854.058
518.291	1187.97
522.27	1731.45
526.247	3254.7
530.222	6147.2
534.196	5946.74
538.167	3585.86
542.137	1693.13
546.105	763.054
550.071	701.159
554.035	498.167
557.998	368.121
561.958	238.403
565.917	319.978
569.874	51.639
573.829	173.225
577.782	174.857
581.733	107.129
585.683	186.319
589.63	167.998
593.576	265.949
597.52	288.057
601.462	290.054
605.402	362.531
609.341	175.31
613.277	78.237
617.212	40.931
621.145	174.087
625.076	116.7
629.006	8.533
632.933	60.473
636.859	8.858
640.783	43.289
644.705	7.707
648.625	28.397
652.543	0.961
656.46	108.683
660.375	32.038
664.288	67.17
668.199	126.837
672.108	105.776
676.016	75.511
679.921	104.982
683.825	294.283
687.727	353.099
691.628	372.193
695.526	468.552
699.423	684.387
703.318	852.92
707.211	610.455
711.102	568.479
714.992	636.615
718.879	404.773
722.765	560.003
726.649	596.92
730.532	385.375
734.412	212.219
738.291	276.64
742.168	236.871
746.043	71.628
749.916	44.421
753.788	204.101
757.658	199.549
761.526	168.961
765.392	276.104
769.257	271.701
773.119	56.417
776.98	80.472
780.839	53.91
784.697	176.7
788.552	74.44
792.406	210.062
796.258	278.05
800.108	125.545
803.957	37.316
807.804	134.521
811.649	316.197
815.492	174.746
819.333	145.928
823.173	197.312
827.011	108.502
830.847	108.979
834.681	170.217
838.514	161.168
842.345	162.041
846.174	152.754
850.001	23.199
853.827	103.426
857.651	213.492
861.473	113.516
865.293	43.289
869.112	52.928
872.928	242.41
876.744	71.607
880.557	30.588
884.369	279.391
888.178	128.027
891.987	195.998
895.793	136.705
899.598	278.373
903.401	295.191
907.202	102.623
911.001	49.385
914.799	105.371
918.595	241.164
922.389	46.512
926.182	161.262
929.972	195.961
933.761	160.693
937.549	76.533
941.334	172.004
945.118	187.412
948.9	278.049
952.681	353.035
956.459	368.17
960.236	493.326
964.012	739.371
967.785	1075.37
971.557	680.605
975.327	406.627
979.095	412.209
982.862	83.295
986.627	310.662
990.39	450.883
994.152	627.197
997.912	401.639
1001.67	531.635
1005.43	347.307
1009.18	142.43
1012.93	358.514
1016.68	426.75
1020.43	972.051
1024.18	1657.62
1027.93	1575.67
1031.67	1039.51
1035.42	673.752
1039.16	508.434
1042.9	823.312
1046.63	714.133
1050.37	743.77
1054.11	651.279
1057.84	796.105
1061.57	766.506
1065.3	996.039
1069.03	827.826
1072.75	749.193
1076.47	601.887
1080.2	625.035
1083.92	447.439
1087.64	799.881
1091.36	632.607
1095.07	535.012
1098.79	477.402
1102.5	359.908
1106.21	532.967
1109.92	95.805
1113.62	128.377
1117.33	230.385
1121.04	7.629
1124.74	254.373
1128.44	96.346
1132.14	32.863
1135.83	86.498
1139.53	225.953
1143.22	367.318
1146.92	229.725
1150.61	173.674
1154.3	35.258
1157.98	117.502
1161.67	169.945
1165.35	216.111
1169.04	64.535
1172.72	33.436
1176.4	162.455
1180.07	250.482
1183.75	214.373
1187.42	569.475
1191.1	237.324
1194.77	104.617
1198.44	261.223
1202.1	188.109
1205.77	333.006
1209.43	367.938
1213.1	491.352
1216.76	521.92
1220.42	435.891
1224.07	508.453
1227.73	475.643
1231.38	329.973
1235.04	343.885
1238.69	374.221
1242.34	364.602
1245.99	484.213
1249.63	719.191
1253.28	378.004
1256.92	297.75
1260.56	515.709
1264.2	374.617
1267.84	221.453
1271.48	327.605
1275.11	381.957
1278.74	629.732
1282.38	348.756
1286.01	351.697
1289.63	122.742
1293.26	14.553
1296.89	114.975
1300.51	135.604
1304.13	44.32
1307.75	342.248
1311.37	316.664
1314.99	142.693
1318.6	128.492
1322.22	213.572
1325.83	60.182
1329.44	66.119
1333.05	47.473
1336.66	90.355
1340.26	212.299
1343.87	394.523
1347.47	242.246
1351.07	533.195
1354.67	373.268
1358.27	76.104
1361.86	73.746
1365.46	116.412
1369.05	36.703
1372.64	153.791
1376.23	292.486
1379.82	557.609
1383.41	736.217
1386.99	573.143
1390.57	368.668
1394.16	484.088
1397.74	47.764
1401.32	225.156
1404.89	134.49
1408.47	258.348
1412.04	382.748
1415.61	330.58
1419.18	607.084
1422.75	661.414
1426.32	444.541
1429.89	274.867
1433.45	304.785
1437.01	227.254
1440.58	198.729
1444.13	160.656
1447.69	456.686
1451.25	670.613
1454.81	788.529
1458.36	930.605
1461.91	710.238
1465.46	596.615
1469.01	628.586
1472.56	323.967
1476.1	224.449
1479.64	84.086
1483.19	92.934
1486.73	355.326
1490.27	198.248
1493.81	452.221
1497.34	527.627
1500.88	385.332
1504.41	516.244
1507.94	388.82
1511.47	129.27
1515	20.467
1518.53	0
