Measurement: Raman, 514 nm, ccw, Raman Data Processed
Mineral: Nepheline
Rruff sample: R060581
Ideal chemistry: Na_3_K(Al_4_Si_4_O_16_)
Locality: Capo di Bova, Via Appia Antica, Rome, Italy
Source: Michael Scott
Description: Colorless hexagonal prisms
Measured chemistry: (Na_0.66_K_0.27_Ca_0.04_)_Î£=0.97_Al_0.98_Si_1.01_O_4_
Pin_id: M01217
Orientation: Laser parallel to a* (1 0 0). Fiducial mark perpendicular to laser is parallel to c [0 0 1]
Raman shift (cm-1)	intensity
108.032	0
112.976	85.8867
117.917	736.535
122.856	2057.44
127.792	3835.95
132.725	4545.77
137.656	3971.47
142.583	3737.32
147.508	5101.58
152.431	6184.41
157.35	8286.02
162.267	9606.75
167.181	10334.7
172.092	10532.8
177.001	11215.7
181.907	11854.8
186.81	13788.4
191.711	16993
196.608	20938.5
201.503	24185.2
206.395	23758.9
211.285	19944.1
216.172	14985.6
221.056	11720.9
225.937	9755.32
230.816	8640.53
235.692	6409.92
240.565	4413.02
245.436	2829.88
250.304	2387.54
255.169	2654.03
260.031	3622.05
264.891	4597.48
269.748	3897.35
274.602	2129.75
279.454	392.879
284.303	540.996
289.149	439.691
293.992	419.438
298.833	517.894
303.671	610.656
308.507	251.773
313.339	403.168
318.169	921.879
322.996	1479.11
327.821	1742.16
332.643	2682.26
337.462	4499.52
342.279	7033.14
347.092	11091.6
351.904	14289.7
356.712	11570.8
361.518	10847.9
366.321	11429.3
371.121	14751.3
375.919	20810.7
380.714	28494
385.506	38157
390.296	48937.4
395.083	55331.6
399.867	56089.7
404.649	53920.8
409.428	51507.4
414.204	45130.3
418.978	35397.4
423.749	25916.2
428.517	18856.2
433.282	13955.2
438.045	11894.4
442.806	10449.3
447.563	10322.1
452.318	11471.2
457.07	14717.1
461.82	19117.2
466.567	19580.1
471.311	10899.6
476.053	5516.53
480.792	3619.89
485.528	2670.35
490.262	2371.77
494.992	2072.25
499.721	2182.16
504.446	1696.04
509.169	1693.75
513.89	1329.43
518.607	858.668
523.322	990.062
528.035	884.156
532.745	222.875
537.452	162.121
542.156	48.6172
546.858	128.848
551.557	280.141
556.254	18.5469
560.947	233.082
565.639	111.039
570.327	35.7695
575.013	704.641
579.697	769.953
584.377	380.352
589.055	93.5625
593.731	249.789
598.403	335.883
603.074	149.555
607.741	601.769
612.406	597.289
617.068	422.773
621.728	482.41
626.385	516.023
631.039	26.5781
635.691	628.699
640.34	305.32
644.987	240.727
649.63	63.5391
654.272	677.641
658.91	562.992
663.546	658.887
668.18	723.391
672.81	1015.15
677.439	1805.69
682.064	1869.11
686.687	1834.38
691.307	1726.85
695.925	1188
700.54	1366.02
705.153	731.027
709.763	937.856
714.37	882.555
718.974	399.231
723.577	13.0859
728.176	71.625
732.773	420.938
737.367	244.188
741.959	7.96094
746.548	210.891
751.134	489.602
755.718	482
760.299	30.6094
764.878	383.891
769.454	287.305
774.028	454.078
778.598	123.203
783.167	90.6094
787.732	50.0625
792.295	213.57
796.856	200.281
801.414	165.25
805.969	140.523
810.522	189.258
815.072	196.07
819.62	231.672
824.165	250.414
828.707	16.8281
833.247	177.828
837.784	68.6172
842.319	356.844
846.851	462.172
851.381	232.461
855.908	178.688
860.432	475.734
864.954	845.07
869.473	335.273
873.99	973.469
878.504	764.125
883.015	700.797
887.524	1126.78
892.031	1380.16
896.535	1602.84
901.036	2109.34
905.535	2905.4
910.031	3107.95
914.524	3929.05
919.015	3846.62
923.504	4209.52
927.99	3571.32
932.473	3406.82
936.954	3442.48
941.432	3316.25
945.908	3580.62
950.381	4665.42
954.852	6861.29
959.32	9252.39
963.785	12884.6
968.248	13924.9
972.708	14866.2
977.166	15146.7
981.622	17034.4
986.074	18351.2
990.525	18963.3
994.972	18659.6
999.417	16394.2
1003.86	12407.5
1008.3	8691.45
1012.74	6223.58
1017.17	4898.85
1021.61	4139.23
1026.04	3258.2
1030.46	3187.15
1034.89	2944.2
1039.31	2040.95
1043.73	1929.19
1048.15	1152.37
1052.56	1315.25
1056.97	1245.14
1061.38	1385.41
1065.79	1456.31
1070.19	1438.43
1074.6	1505.48
1079	1789.59
1083.39	2198.49
1087.79	1963.12
1092.18	1790.03
1096.57	1533.43
1100.96	1060.62
1105.34	1297.86
1109.72	949.773
1114.1	923.695
1118.48	801.391
1122.85	815.391
1127.22	122.25
1131.6	254.156
1135.96	91.625
1140.33	59.7109
1144.69	26.4844
1149.05	79.8125
1153.4	128.93
1157.76	46.6016
1162.11	76.1953
1166.46	156.508
1170.81	133.078
1175.15	323.5
1179.49	142.461
1183.83	453.906
1188.17	86.2031
1192.5	207.133
1196.84	4.625
1201.16	104.469
1205.49	332.117
1209.82	221.289
1214.14	300.312
1218.46	348.641
1222.77	15.375
1227.09	363.656
1231.4	326.609
1235.71	404.141
1240.02	692.219
1244.32	164.836
1248.62	805.945
1252.92	330.414
1257.22	230.492
1261.51	594.148
1265.81	203.922
1270.1	540.227
1274.38	130.531
1278.67	346.172
1282.95	773.328
1287.23	716.039
1291.51	604.992
1295.78	305.562
1300.05	144.633
1304.32	649.102
1308.59	616.578
1312.86	404.547
1317.12	641.07
1321.38	403.508
1325.63	336.367
1329.89	337.078
1334.14	823.477
1338.39	508.078
1342.64	689.352
1346.88	852.008
1351.13	600.305
1355.37	933.859
1359.61	970.844
1363.84	714.602
1368.07	936.992
1372.3	935.969
1376.53	913.195
1380.76	761.609
1384.98	1029.7
1389.2	455.266
1393.42	696.57
1397.64	912.906
1401.85	813.688
1406.06	440.703
1410.27	568.984
1414.47	705.734
1418.68	373.07
1422.88	758.164
1427.08	1142.55
1431.27	276.984
1435.47	741.102
1439.66	654.969
1443.85	717.797
1448.03	880.039
1452.22	480.305
1456.4	811.789
1460.58	746.812
1464.76	33
1468.93	846.141
1473.1	362.812
1477.27	280.18
1481.44	300.406
1485.6	738.758
1489.77	310.758
1493.92	683.492
1498.08	637.148
1502.24	46.4453
1506.39	564.25
1510.54	540.492
1514.69	329.086
1518.83	164.883
1522.97	596.109
1527.12	385.93
1531.25	625.531
1535.39	309.469
1539.52	435.125
1543.65	165.148
1547.78	566.961
1551.91	664.492
1556.03	299.047
1560.15	9.51562
1564.27	224.227
1568.39	484.891
1572.5	13.9141
1576.61	189.062
