Measurement: Raman, 514 nm, ccw, Raman Data Processed
Mineral: Nepheline
Rruff sample: R060581
Ideal chemistry: Na_3_K(Al_4_Si_4_O_16_)
Locality: Capo di Bova, Via Appia Antica, Rome, Italy
Source: Michael Scott
Description: Colorless hexagonal prisms
Measured chemistry: (Na_0.66_K_0.27_Ca_0.04_)_Î£=0.97_Al_0.98_Si_1.01_O_4_
Pin_id: M01882
Orientation: Laser parallel to c* (0 0 1). Fiducial mark perpendicular to laser is parallel to b [0 1 0]
Raman shift (cm-1)	intensity
120.387	0
125.324	116.609
130.259	281.471
135.191	260.766
140.12	250.988
145.046	175.721
149.97	261.269
154.891	583.629
159.809	955.633
164.724	1668.05
169.637	2708.04
174.547	4119.94
179.454	5394.02
184.359	7451.16
189.261	9947.16
194.16	13275.3
199.056	16202.2
203.95	17119.9
208.841	15963.1
213.729	13837.5
218.614	13027.9
223.497	12707.2
228.377	12255.5
233.254	10312.5
238.129	7184.98
243.001	4477.49
247.87	3373.03
252.737	3545.72
257.6	5765.86
262.461	7858.84
267.32	7583.58
272.175	4921.85
277.028	2249.07
281.879	616.361
286.726	374.258
291.571	308.522
296.413	310.894
301.252	240.154
306.089	271.59
310.923	10.7266
315.755	480.652
320.583	1340.55
325.409	2140.7
330.232	3826.11
335.053	5111.5
339.871	7793.36
344.686	12527
349.498	17266.4
354.308	18576.1
359.115	17813.1
363.92	18839.4
368.721	22590.6
373.52	30270.3
378.317	41165.2
383.111	54252.3
387.902	67542.5
392.69	74851.9
397.475	72181.5
402.258	62857.5
407.039	54994.9
411.816	51284.3
416.591	50353.3
421.364	48226.5
426.133	41027.9
430.9	32216.2
435.664	24363.8
440.426	20293.4
445.185	17524
449.941	15802.5
454.695	16338.1
459.445	20259.7
464.194	18680.3
468.939	11191.4
473.682	6415.62
478.423	4861.97
483.16	5059.71
487.895	7931.54
492.627	13176.8
497.357	13895
502.084	8579.2
506.808	4865.31
511.53	3166.82
516.249	2042.7
520.965	1776.24
525.679	1359.09
530.39	1259.72
535.098	868.439
539.804	654.666
544.507	232.67
549.208	204.422
553.906	183.852
558.601	426.654
563.293	27.6133
567.983	488.904
572.671	1839.82
577.355	2633.99
582.037	1797.41
586.717	742.635
591.393	610.631
596.067	496.037
600.739	667.676
605.408	628.764
610.074	1199.84
614.737	829.621
619.398	263.986
624.057	226.022
628.712	309.797
633.365	22.2734
638.016	222.269
642.664	114.137
647.309	273.266
651.951	45.4336
656.591	127.894
661.229	73.9141
665.863	98.2266
670.495	40.4688
675.125	10.8359
679.752	589.039
684.376	457.152
688.998	723.547
693.617	466.106
698.233	422.223
702.847	538.934
707.458	824.25
712.066	963.055
716.672	885.031
721.276	689.676
725.877	551.949
730.475	290.516
735.07	517.117
739.663	409.559
744.254	358.992
748.841	788.941
753.426	550.414
758.009	256.926
762.589	69.1523
767.166	63.4375
771.741	377.527
776.313	182.004
780.883	54.7773
785.45	97.7969
790.014	366.074
794.576	116.781
799.135	89.9102
803.692	88.7695
808.246	88.1133
812.797	152.394
817.346	48.2383
821.893	181.18
826.436	106.168
830.977	253.109
835.516	27.8594
840.052	298.66
844.585	171.742
849.116	252.887
853.645	169.137
858.17	343.625
862.693	492.371
867.214	259.414
871.732	415.809
876.247	466.606
880.76	654.856
885.27	554.535
889.778	660.691
894.283	1150.34
898.786	1468.25
903.286	1602.18
907.783	2011.36
912.278	2219.55
916.77	2878.91
921.26	3077.73
925.747	3205.88
930.232	2811.35
934.714	2528.86
939.193	2367.84
943.67	2091.8
948.145	2570.83
952.617	3150.22
957.086	3945.94
961.553	5220.07
966.017	6546.83
970.479	8304.02
974.938	10690.4
979.394	14822.5
983.848	18238.7
988.3	20698.9
992.749	20892.4
997.195	19653.2
1001.64	15421.3
1006.08	10690.6
1010.52	7691.31
1014.96	5786.7
1019.39	5115.31
1023.82	4239.92
1028.25	3850.66
1032.67	3715.59
1037.1	2944.27
1041.52	2528.71
1045.94	1797.84
1050.35	1821.38
1054.77	1850.05
1059.18	1997.83
1063.59	2380.03
1067.99	2503.4
1072.4	2822.43
1076.8	3363.55
1081.19	3758.52
1085.59	3837.96
1089.98	3504.91
1094.38	3048.54
1098.76	2658.15
1103.15	1974.38
1107.53	1619.45
1111.91	1399.6
1116.29	817.875
1120.67	1014.66
1125.04	729.711
1129.41	410.059
1133.78	450.398
1138.14	241.863
1142.51	21.9336
1146.87	131.129
1151.23	268.09
1155.58	145.957
1159.93	119.723
1164.29	179.914
1168.63	102.305
1172.98	36.082
1177.32	233.094
1181.66	118.43
1186	7.88672
1190.34	51.0586
1194.67	80.4219
1199	175.383
1203.33	60.1836
1207.65	174.469
1211.98	205.18
1216.3	154.547
1220.62	358.422
1224.93	407.828
1229.24	489.809
1233.56	554.394
1237.86	228.574
1242.17	355.332
1246.47	1.32812
1250.77	404.121
1255.07	430.965
1259.37	294.356
1263.66	290.281
1267.95	264.715
1272.24	408.203
1276.53	339.664
1280.81	338.481
1285.09	389.231
1289.37	614.715
1293.64	427.109
1297.92	346.336
1302.19	310.219
1306.46	101.977
1310.72	676.781
1314.99	457.715
1319.25	251.828
1323.51	265.414
1327.76	134.516
1332.02	371.269
1336.27	280.926
1340.52	253.043
1344.76	272.711
1349.01	351.629
1353.25	264.551
1357.49	345.934
1361.72	388.906
1365.96	434.492
1370.19	421.699
1374.42	293.715
1378.64	206.519
1382.87	553.91
1387.09	429.543
1391.31	617.047
1395.53	564.941
1399.74	337.324
1403.95	848.453
1408.16	561.254
1412.37	462.293
1416.58	1010.13
1420.78	836.316
1424.98	631.918
1429.18	400.141
1433.37	687.484
1437.56	663.09
1441.75	572.133
1445.94	535.508
1450.13	654.734
1454.31	946.266
1458.49	692.66
1462.67	475.016
1466.84	416.469
1471.02	458.953
1475.19	602.414
1479.36	438.137
1483.52	155.394
1487.68	511.777
1491.85	1135.38
1496	313.512
1500.16	484.555
1504.31	178.34
1508.46	469.977
1512.61	570.469
1516.76	266.078
1520.9	424.062
1525.05	226.832
1529.18	236.461
1533.32	245.977
1537.45	509.43
1541.59	101.047
1545.72	470.199
1549.84	500.406
1553.97	511.793
1558.09	20.3867
1562.21	188.387
1566.33	398.281
1570.44	216.836
1574.56	327.129
1578.67	0
