Measurement: Raman, 514 nm, depolarized, Raman Data Processed
Mineral: Nepheline
Rruff sample: R040025
Ideal chemistry: Na_3_K(Al_4_Si_4_O_16_)
Locality: Bancroft, Ontario, Canada
Source: University of Arizona Mineral Museum
Description: White massive
Measured chemistry: (Na_0.77_K_0.23_)_Î£=1_Al_1.00_Si_1.00_O_4_
Pin_id: L00106
Orientation: Laser parallel to c* (0 0 1). Fiducial mark perpendicular to laser is parallel to b [0 1 0]
Raman shift (cm-1)	intensity
137.85	0
142.02	25.866
146.188	388.479
150.354	633.133
154.517	565.602
158.679	306.485
162.839	5.377
166.996	48.316
171.152	140.549
175.305	301.903
179.456	570.922
183.605	833.546
187.752	1292.77
191.898	1883.38
196.041	2717.59
200.182	3325.97
204.321	3529.92
208.457	2821.4
212.592	2490.97
216.725	2381.07
220.856	2997.01
224.984	3578.18
229.111	3382.64
233.236	2577.53
237.358	1780.09
241.479	1083.1
245.597	686.432
249.713	509.911
253.828	733.439
257.94	1036.97
262.05	1790.4
266.159	2043.57
270.265	1536.4
274.369	848.904
278.471	391.03
282.572	22.669
286.67	73.855
290.766	45.287
294.86	64.909
298.952	46.022
303.042	123.335
307.13	110.729
311.216	8.188
315.3	13.888
319.382	15.33
323.462	306.215
327.54	406.518
331.616	725.585
335.69	964.736
339.762	1513.34
343.832	2431.29
347.9	3378.36
351.965	3304.52
356.029	2719.85
360.091	2144.46
364.151	2208.57
368.209	2643.12
372.265	3406.65
376.319	4399.47
380.371	6001.34
384.421	8291.77
388.469	11670.7
392.515	15569
396.559	18807.1
400.601	19124.9
404.641	16442.4
408.679	13759.8
412.715	12405.3
416.749	12479.6
420.781	12833
424.811	11666.2
428.839	9459.92
432.866	6954.79
436.89	5320.85
440.912	4304.59
444.932	3868.77
448.951	3381.11
452.967	3204.7
456.981	3655.59
460.994	5427.07
465.004	5514.73
469.013	3734.23
473.019	2147.02
477.024	1427.51
481.026	1028.81
485.027	874.291
489.026	1235.84
493.023	3421.57
497.017	4084.75
501.01	2531.98
505.001	1320.05
508.99	797.765
512.977	565.42
516.962	423.636
520.945	430.547
524.927	416.692
528.906	262.33
532.883	327.096
536.858	191.746
540.832	275.544
544.803	189.087
548.773	32.302
552.741	125.23
556.706	117.879
560.67	30.094
564.632	182.013
568.592	153.618
572.55	144.939
576.506	396.403
580.46	427.442
584.412	348.397
588.363	178.808
592.311	88.734
596.258	88.329
600.202	77.639
604.145	136.734
608.086	325.627
612.024	344.438
615.961	273.192
619.896	35.928
623.829	84.948
627.761	15.681
631.69	79.112
635.617	121.996
639.543	59.86
643.466	18.889
647.388	19.809
651.308	48.505
655.226	41.358
659.142	135.317
663.056	74.84
666.968	81.13
670.879	120.623
674.787	166.481
678.694	61.968
682.598	86.94
686.501	172.555
690.402	237.787
694.301	240.731
698.198	283.463
702.093	205.877
705.987	339.17
709.878	160.691
713.768	411.025
717.656	474.637
721.542	565.377
725.426	409.592
729.308	290.578
733.188	273.025
737.067	115.281
740.943	117.35
744.818	308.057
748.691	167.178
752.562	295.053
756.431	124.229
760.298	134.389
764.163	194.672
768.027	215.602
771.888	76.23
775.748	144.941
779.606	123.555
783.462	62.791
787.317	132.135
791.169	38.223
795.019	29.455
798.868	23.322
802.715	170.658
806.56	72.053
810.403	147.732
814.245	5.779
818.084	31.191
821.922	51.678
825.758	5.111
829.592	180.93
833.424	116.982
837.254	113.91
841.082	21.137
844.909	138.521
848.734	84.43
852.557	12.961
856.378	150.232
860.197	117.451
864.015	104.518
867.831	8.271
871.645	138.922
875.457	136.113
879.267	153.256
883.075	90.375
886.882	57.072
890.687	113.756
894.49	280.498
898.291	117.695
902.09	184.943
905.888	382.256
909.683	239.5
913.477	36.918
917.269	254.406
921.06	331.91
924.848	9.215
928.635	252.959
932.42	140.369
936.203	202.57
939.984	149.697
943.764	294.508
947.541	322.436
951.317	458.111
955.091	486.033
958.864	763.633
962.634	850.281
966.403	1047.83
970.17	1424.57
973.935	1830.63
977.698	2549.29
981.46	4348.71
985.22	6698.16
988.978	8457.95
992.734	7115.59
996.488	5058.4
1000.24	3145.75
1003.99	2091.39
1007.74	1572.1
1011.49	1351.24
1015.23	1212.52
1018.98	874.629
1022.72	786.154
1026.46	758.279
1030.2	885.605
1033.93	1098.32
1037.67	962.514
1041.4	675.432
1045.13	528.924
1048.86	522.311
1052.59	575.908
1056.32	689.711
1060.04	643.756
1063.77	787.656
1067.49	961.424
1071.2	974.848
1074.92	1178.65
1078.64	1102.5
1082.35	1346.31
1086.06	1030.12
1089.78	984.049
1093.48	897.842
1097.19	612.166
1100.89	256.039
1104.6	200.238
1108.3	184.318
1112	178.402
1115.7	272.99
1119.39	298.418
1123.09	493.9
1126.78	388.9
1130.47	113.896
1134.16	9.465
1137.85	146.746
1141.54	213.844
1145.22	176.16
1148.9	53.172
1152.58	153.971
1156.26	22.16
1159.94	6.588
1163.62	74.213
1167.29	74.23
1170.96	285.941
1174.63	285.67
1178.3	103.457
1181.97	126.859
1185.63	95.234
1189.3	41.523
1192.96	94.195
1196.62	98.762
1200.28	212.646
1203.93	398.602
1207.59	160.076
1211.24	196.332
1214.89	367.621
1218.54	167.91
1222.19	187.559
1225.84	409.107
1229.48	419.221
1233.13	607.959
1236.77	455.984
1240.41	314.213
1244.05	321.59
1247.68	218.699
1251.32	345.736
1254.95	292.266
1258.58	408.531
1262.21	455.471
1265.84	341.064
1269.46	316.168
1273.09	270.309
1276.71	63.738
1280.33	129.086
1283.95	71.043
1287.57	147.801
1291.18	89.082
1294.8	247.277
1298.41	316.578
1302.02	264.836
1305.63	32.289
1309.24	60.475
1312.84	55.096
1316.45	22.547
1320.05	137.539
1323.65	156.924
1327.25	80.416
1330.85	151.775
1334.44	23.828
1338.04	85.289
1341.63	56.314
1345.22	12.824
1348.81	187.002
1352.4	34.07
1355.98	244.988
1359.57	243.908
1363.15	462.35
1366.73	241.062
1370.31	290.916
1373.89	378.773
1377.46	287.838
1381.04	164.537
1384.61	285.93
1388.18	353.068
1391.75	439.639
1395.32	493.842
1398.88	466.814
1402.45	667.553
1406.01	575.186
1409.57	539.207
1413.13	405.805
1416.69	326.189
1420.24	0.568
1423.8	306.879
1427.35	277.549
1430.9	358.465
1434.45	391.842
1438	443.572
1441.55	651.441
1445.09	798.846
1448.63	569.564
1452.18	365.66
1455.71	400.203
1459.25	353.568
1462.79	345.291
1466.32	502.355
1469.86	501.646
1473.39	835.365
1476.92	748.184
1480.45	1061.48
1483.97	545.197
1487.5	639.865
1491.02	414.418
1494.54	339.363
1498.06	276.031
1501.58	175.207
1505.1	26.262
1508.62	0.023
1512.13	137.887
1515.64	551.629
1519.15	484.277
1522.66	0
