Measurement: Raman, 514 nm, ccw, Raman Data Processed
Mineral: Nepheline
Rruff sample: R060581
Ideal chemistry: Na_3_K(Al_4_Si_4_O_16_)
Locality: Capo di Bova, Via Appia Antica, Rome, Italy
Source: Michael Scott
Description: Colorless hexagonal prisms
Measured chemistry: (Na_0.66_K_0.27_Ca_0.04_)_Î£=0.97_Al_0.98_Si_1.01_O_4_
Pin_id: M01882
Orientation: Laser parallel to c* (0 0 1). Fiducial mark perpendicular to laser is parallel to b [0 1 0]
Raman shift (cm-1)	intensity
119.152	0
124.09	435.859
129.026	124.758
133.958	382.867
138.888	314.203
143.815	357.031
148.739	449.072
153.661	286.07
158.58	806.848
163.496	1615.33
168.409	2523.31
173.32	3758.24
178.228	4980.25
183.133	6686.96
188.035	9108.24
192.935	12331.4
197.832	15375.3
202.727	16998.1
207.618	16249.6
212.507	13954.2
217.393	12901
222.277	12559.4
227.157	12318.7
232.035	10799.9
236.911	7724.64
241.783	4994.42
246.653	3287.16
251.52	3356.92
256.385	5255
261.246	7374.8
266.105	7985.96
270.962	5660.34
275.815	2978.78
280.666	875.043
285.514	28.6152
290.36	268.736
295.203	83.1113
300.043	274.338
304.88	427.742
309.715	211.664
314.547	394.43
319.376	985.211
324.203	1892.99
329.027	3207.89
333.848	4574.69
338.667	7237.86
343.482	10803.7
348.296	16010.9
353.106	18172.4
357.914	17433.4
362.719	17767.1
367.521	20737.9
372.321	27454
377.118	37131.9
381.912	49770.1
386.704	63337.4
391.493	71651.9
396.279	70821.7
401.063	63299.8
405.844	54734.8
410.622	50374.5
415.398	49053.1
420.171	47585.1
424.941	42051.4
429.709	33106.9
434.473	25287.9
439.236	20450.2
443.995	17647.3
448.752	15646.4
453.506	15671.4
458.258	19051.4
463.007	19566.5
467.753	12420.7
472.497	7099.13
477.238	4643.25
481.976	4619.67
486.712	6785.32
491.445	11499.1
496.175	14312.4
500.902	9012.68
505.627	5351.5
510.35	3334.27
515.069	2277.87
519.786	1733.34
524.501	1346.67
529.213	1246.94
533.922	1066.41
538.628	687.996
543.332	15.2812
548.033	183.035
552.731	141.035
557.427	352.133
562.121	19.4375
566.811	533.91
571.499	1239.63
576.184	2424.13
580.867	2254.06
585.547	932.445
590.224	473.789
594.899	128.106
599.571	523.305
604.241	540.254
608.908	950.41
613.572	1107.39
618.233	303.957
622.892	608.758
627.549	218.926
632.202	263.477
636.853	256.59
641.502	209.312
646.148	182.391
650.791	139.301
655.432	259.066
660.069	207.141
664.705	73.8086
669.338	21.1992
673.968	25.7227
678.595	158.492
683.22	549.461
687.842	604.172
692.462	359.711
697.079	567.988
701.694	375.281
706.305	583.754
710.915	595.453
715.521	281.902
720.125	681.121
724.727	517.066
729.325	496.703
733.922	341.641
738.515	412.953
743.106	536.422
747.695	630.488
752.28	550.164
756.864	206.371
761.444	160.227
766.022	184.289
770.598	147.723
775.17	6.40234
779.741	295.195
784.308	95.793
788.873	1.79297
793.436	231.5
797.996	29.0664
802.553	127.66
807.108	39.2852
811.66	1.36719
816.209	86.7539
820.756	143.539
825.301	185.785
829.842	31.9688
834.382	70.0352
838.918	382.871
843.452	11.5859
847.984	371.488
852.513	332.133
857.039	429.055
861.563	512.281
866.084	629.84
870.603	532.773
875.119	493.144
879.632	482.172
884.143	619.922
888.651	929.227
893.157	1166.16
897.66	1281.23
902.161	1556.22
906.659	2093.06
911.154	2485.88
915.647	2710.23
920.138	2885.81
924.626	2984.43
929.111	2734.18
933.594	2408.82
938.074	2450.71
942.551	2191.88
947.026	2366.3
951.499	2627.99
955.969	3897
960.436	4799.89
964.901	6212.26
969.363	7830.75
973.823	10081.5
978.28	13444.3
982.735	16743.5
987.187	19389.9
991.637	20486.5
996.084	19418.5
1000.53	15852.6
1004.97	11322.1
1009.41	8087.93
1013.85	6330.1
1018.28	5287.8
1022.71	4366.58
1027.14	4032.74
1031.57	3682.62
1035.99	3085.04
1040.41	2589.92
1044.83	2136.07
1049.25	2107.71
1053.66	2254.96
1058.08	1837.58
1062.48	2038.85
1066.89	2577.79
1071.3	2704.18
1075.7	3068.86
1080.1	3801.33
1084.49	3964.53
1088.89	3659.43
1093.28	3121.05
1097.67	2331.82
1102.05	2109.29
1106.44	2056.44
1110.82	1310.32
1115.2	1149.56
1119.57	848.84
1123.95	604.144
1128.32	493.465
1132.69	667.789
1137.05	307.094
1141.42	194.617
1145.78	205.938
1150.14	53.8438
1154.49	4.89453
1158.85	148.801
1163.2	40.8047
1167.55	173.894
1171.89	63.1992
1176.24	207.617
1180.58	263.801
1184.92	162.199
1189.25	20.2734
1193.59	257.879
1197.92	46.1758
1202.25	5.89062
1206.57	194.148
1210.9	449.852
1215.22	254.16
1219.54	378.793
1223.85	250.91
1228.17	87.6914
1232.48	127.109
1236.79	517.461
1241.09	442.84
1245.4	361.144
1249.7	359.055
1254	253.574
1258.29	380.766
1262.59	294.555
1266.88	644.019
1271.17	156.262
1275.45	525.098
1279.74	366.184
1284.02	492.594
1288.3	258.805
1292.58	403.856
1296.85	410.629
1301.12	168.344
1305.39	253.617
1309.66	515.758
1313.92	341.012
1318.18	402.609
1322.44	243.492
1326.7	606.809
1330.95	412.535
1335.2	454.277
1339.45	28.3828
1343.7	15.375
1347.95	227.633
1352.19	346.277
1356.43	400.555
1360.66	297.484
1364.9	305.059
1369.13	362.297
1373.36	273.199
1377.59	727.773
1381.81	553.156
1386.04	486.484
1390.26	423.176
1394.47	620.461
1398.69	279.496
1402.9	573.644
1407.11	338.617
1411.32	682.523
1415.53	722.242
1419.73	615.133
1423.93	647.027
1428.13	666.242
1432.32	974.453
1436.52	845.816
1440.71	498.824
1444.89	637.914
1449.08	767.512
1453.26	845.641
1457.44	672.426
1461.62	604.102
1465.8	516.481
1469.97	529.551
1474.14	325.641
1478.31	436.289
1482.48	463.93
1486.64	514.422
1490.81	196.832
1494.96	497.266
1499.12	312.723
1503.28	181.918
1507.43	22.4023
1511.58	191.336
1515.72	370.312
1519.87	157.414
1524.01	338.137
1528.15	425.457
1532.29	16.4219
1536.42	332.121
1540.55	226.676
1544.68	215.109
1548.81	26.6016
1552.94	489.242
1557.06	424.168
1561.18	360.219
1565.3	360.371
1569.41	511.086
1573.53	21.8906
1577.64	0.773438
