Measurement: Raman, 514 nm, ccw, Raman Data Processed
Mineral: Nepheline
Rruff sample: R060581
Ideal chemistry: Na_3_K(Al_4_Si_4_O_16_)
Locality: Capo di Bova, Via Appia Antica, Rome, Italy
Source: Michael Scott
Description: Colorless hexagonal prisms
Measured chemistry: (Na_0.66_K_0.27_Ca_0.04_)_Î£=0.97_Al_0.98_Si_1.01_O_4_
Pin_id: M01217
Orientation: Laser parallel to a* (1 0 0). Fiducial mark perpendicular to laser is parallel to c [0 0 1]
Raman shift (cm-1)	intensity
117.917	0
122.856	196.043
127.792	315.066
132.725	386.32
137.656	301.859
142.583	434.652
147.508	297.055
152.431	487.039
157.35	928.602
162.267	1991.02
167.181	3312.2
172.092	4939.03
177.001	6412.21
181.907	7998.48
186.81	10876.6
191.711	15145.4
196.608	19741.4
201.503	23106.5
206.395	23175.5
211.285	20181
216.172	17295.4
221.056	17114.4
225.937	17750.2
230.816	16157.9
235.692	12198.4
240.565	8005.1
245.436	4830.26
250.304	3967.91
255.169	5609.43
260.031	8828.66
264.891	11125.5
269.748	9488.68
274.602	5330.82
279.454	1973.38
284.303	284.356
289.149	103.027
293.992	206.434
298.833	105.32
303.671	630
308.507	272.195
313.339	303.176
318.169	950.606
322.996	2259.62
327.821	3738.67
332.643	5430.85
337.462	8044.83
342.279	12971
347.092	19903.5
351.904	24552.7
356.712	23323.3
361.518	22218.7
366.321	24452.6
371.121	32117.3
375.919	43982
380.714	60435
385.506	80344.3
390.296	101390
395.083	112102
399.867	107327
404.649	94381.5
409.428	81202.7
414.204	66187.8
418.978	50298.2
423.749	37575.6
428.517	28014
433.282	22823.3
438.045	20601.9
442.806	20083.6
447.563	22149.6
452.318	27109.5
457.07	37914.7
461.82	54153.5
466.567	56839.9
471.311	32206.3
476.053	16115.7
480.792	9927.44
485.528	6964.38
490.262	5509.27
494.992	4972.97
499.721	4614.44
504.446	3570.93
509.169	3223.41
513.89	2638.66
518.607	1965.78
523.322	1659.15
528.035	1509.59
532.745	942.59
537.452	578.629
542.156	53.8945
546.858	99.8594
551.557	172.531
556.254	154.648
560.947	326.801
565.639	195.32
570.327	1304.93
575.013	2650.16
579.697	2461.42
584.377	1119.53
589.055	582.906
593.731	286.879
598.403	545.25
603.074	868.008
607.741	1303.5
612.406	1592.18
617.068	656.781
621.728	416.231
626.385	319.527
631.039	116.641
635.691	159.492
640.34	117.199
644.987	20.0508
649.63	104.406
654.272	153.656
658.91	19.9102
663.546	39.0508
668.18	97.5273
672.81	301.055
677.439	564.332
682.064	1126.41
686.687	1235.39
691.307	1491.94
695.925	997.359
700.54	980.746
705.153	879.641
709.763	1191.7
714.37	1347.92
718.974	1414.43
723.577	1040.18
728.176	532.539
732.773	373.035
737.367	492.894
741.959	672.519
746.548	648.887
751.134	809.375
755.718	507.809
760.299	416.356
764.878	401.414
769.454	200.328
774.028	60.1406
778.598	154.492
783.167	370.566
787.732	9.06641
792.295	345.992
796.856	220.586
801.414	103.641
805.969	170.062
810.522	23.7266
815.072	254.465
819.62	39.7852
824.165	23.8594
828.707	138.644
833.247	164.828
837.784	311.633
842.319	169.273
846.851	424.848
851.381	382.277
855.908	333.863
860.432	467.641
864.954	675.668
869.473	670.141
873.99	843.086
878.504	879.258
883.015	773.488
887.524	993.602
892.031	1109.34
896.535	1858.43
901.036	2127.21
905.535	2699.58
910.031	3292.11
914.524	3413.11
919.015	3696.83
923.504	4090.24
927.99	4490.93
932.473	3867.56
936.954	3505.05
941.432	3248.56
945.908	2961.55
950.381	3877.78
954.852	5110.72
959.32	7144.26
963.785	9349.97
968.248	11254
972.708	14318.9
977.166	18093.5
981.622	23357.6
986.074	27923.6
990.525	30966.5
994.972	30041.3
999.417	25309.9
1003.86	18198
1008.3	12227.7
1012.74	9598.1
1017.17	7157.31
1021.61	5658.64
1026.04	4546.23
1030.46	4011.45
1034.89	3725.49
1039.31	2828.72
1043.73	2510.34
1048.15	2485.45
1052.56	2049.29
1056.97	1821.15
1061.38	2283.59
1065.79	2527.58
1070.19	2890.51
1074.6	3256.3
1079	4184.91
1083.39	4572.38
1087.79	4216.79
1092.18	3667.84
1096.57	3250.72
1100.96	2162.36
1105.34	1786.73
1109.72	1907.68
1114.1	1257.18
1118.48	1009.21
1122.85	431.766
1127.22	55.1484
1131.6	50.5703
1135.96	264.5
1140.33	123.906
1144.69	8.78125
1149.05	88.8125
1153.4	197.312
1157.76	40.7578
1162.11	27.2422
1166.46	126.539
1170.81	72.1094
1175.15	117.312
1179.49	139.336
1183.83	56.1484
1188.17	340.953
1192.5	60.3281
1196.84	52.6719
1201.16	281.242
1205.49	87.6406
1209.82	21
1214.14	134.711
1218.46	361.914
1222.77	223.672
1227.09	189.258
1231.4	510.242
1235.71	167.32
1240.02	594.461
1244.32	355.672
1248.62	229.93
1252.92	345.234
1257.22	278.516
1261.51	97.7578
1265.81	340.07
1270.1	523.453
1274.38	458.844
1278.67	391.016
1282.95	551.727
1287.23	716.305
1291.51	391.125
1295.78	592.281
1300.05	546.914
1304.32	578.047
1308.59	398.312
1312.86	498.984
1317.12	401.539
1321.38	157.336
1325.63	454.359
1329.89	386.797
1334.14	352.211
1338.39	574.852
1342.64	130.719
1346.88	44.1641
1351.13	590.602
1355.37	464.969
1359.61	696.953
1363.84	864.297
1368.07	705.664
1372.3	654.047
1376.53	767.461
1380.76	586.461
1384.98	669.469
1389.2	484.867
1393.42	565.562
1397.64	560.203
1401.85	684.156
1406.06	769.383
1410.27	783.625
1414.47	1071.06
1418.68	429.938
1422.88	952.094
1427.08	545.867
1431.27	922.523
1435.47	1052.84
1439.66	1083.48
1443.85	1083.73
1448.03	720.391
1452.22	726.922
1456.4	1037.41
1460.58	977.945
1464.76	518.102
1468.93	418.594
1473.1	492.398
1477.27	835.156
1481.44	547.242
1485.6	787.914
1489.77	594.164
1493.92	334.18
1498.08	384.992
1502.24	575.391
1506.39	6.29688
1510.54	171.875
1514.69	486.289
1518.83	271
1522.97	102.117
1527.12	298.172
1531.25	489.984
1535.39	728.898
1539.52	942.484
1543.65	674.359
1547.78	621.125
1551.91	609.828
1556.03	637.328
1560.15	436.117
1564.27	639.008
1568.39	768.211
1572.5	238.516
1576.61	503.906
