Measurement: Raman, 514 nm, depolarized, Raman Data Processed
Mineral: Nepheline
Rruff sample: R060581
Ideal chemistry: Na_3_K(Al_4_Si_4_O_16_)
Locality: Capo di Bova, Via Appia Antica, Rome, Italy
Source: Michael Scott
Description: Colorless hexagonal prisms
Measured chemistry: (Na_0.66_K_0.27_Ca_0.04_)_Î£=0.97_Al_0.98_Si_1.01_O_4_
Pin_id: M01882
Orientation: Laser parallel to c* (0 0 1). Fiducial mark perpendicular to laser is parallel to b [0 1 0]
Raman shift (cm-1)	intensity
121.622	0
126.558	69.2109
131.492	91.7188
136.423	164.539
141.352	296.441
146.277	20.2891
151.2	155.707
156.121	930.902
161.038	1164.2
165.953	2068.21
170.865	3096.61
175.774	4281.47
180.681	6038.85
185.585	7892.18
190.486	10892.3
195.384	14502.5
200.28	16643.8
205.173	16649.1
210.063	14930
214.95	13543.3
219.835	12408.4
224.717	13024.3
229.597	11825.2
234.473	9663.91
239.347	6383.02
244.218	4264.07
249.087	3374.11
253.953	4205.29
258.816	6272.93
263.676	8224.6
268.534	6969.47
273.389	4415.93
278.241	1776.87
283.091	55.3691
287.938	118.891
292.782	56.7031
297.623	317.615
302.462	142.535
307.298	211.197
312.131	189.906
316.962	685.793
321.79	1471.79
326.615	2917.13
331.438	3976.84
336.258	5505.57
341.075	8860.75
345.889	13692.7
350.701	18042.8
355.51	18044.4
360.317	17225.7
365.12	18957.8
369.921	23810.3
374.72	32431.4
379.515	43688.6
384.309	57535.1
389.099	70038.2
393.886	74975.3
398.671	69277.5
403.454	60035.9
408.233	53273.7
413.01	50486.2
417.785	49909.2
422.556	46913.2
427.325	38270.7
432.091	29820.6
436.855	23065.5
441.616	19355.8
446.374	16757
451.13	15400.1
455.883	17329.3
460.633	20788.7
465.38	16712.8
470.125	9179.38
474.868	5826.4
479.607	4728.27
484.344	5314.94
489.078	8924.12
493.81	14085.2
498.539	12543.6
503.265	7000.96
507.989	4139.53
512.71	2649.34
517.428	1832.48
522.144	1682.27
526.857	1287.54
531.567	1202.13
536.275	635.965
540.98	494.941
545.683	73.1484
550.383	74.5156
555.08	73.7109
559.774	18.6289
564.466	0.230469
569.155	938.504
573.842	2097.09
578.526	2510.7
583.207	1504.47
587.886	742.293
592.562	764.445
597.235	487.102
601.906	465.344
606.574	1022.9
611.24	944.34
615.903	507.391
620.563	470.008
625.221	540.188
629.876	302.988
634.528	15.3125
639.178	216.723
643.825	39.0312
648.47	170.348
653.112	316.109
657.751	51.0391
662.388	126.516
667.022	25.1992
671.653	294.703
676.282	175.277
680.908	495.652
685.532	506.777
690.153	598.637
694.771	539.172
699.387	602.234
704	517.711
708.61	935.41
713.218	875.574
717.824	322.484
722.426	215.059
727.026	169.051
731.624	110.484
736.219	155.496
740.811	707.863
745.401	755.832
749.988	660.5
754.572	471.762
759.154	153.641
763.734	317.512
768.31	260.664
772.884	78.1484
777.456	124.094
782.025	48.5352
786.591	23.1523
791.155	85.8008
795.716	85.7695
800.275	98.6055
804.831	48.0898
809.384	57.1797
813.935	201.539
818.483	8.6875
823.029	105
827.572	253.184
832.112	208.867
836.65	228.434
841.186	271.551
845.718	200.086
850.249	311.961
854.776	366.188
859.301	694.996
863.824	524.07
868.344	644.566
872.861	291.168
877.376	626.703
881.888	1095.91
886.397	861.766
890.904	706.438
895.409	956.891
899.911	1383.41
904.41	1998.91
908.907	2092.44
913.401	2223.23
917.893	2548.42
922.382	3429.75
926.869	2998.38
931.353	3101.27
935.834	2440.02
940.313	2051.45
944.789	2153.16
949.263	2546.27
953.734	3593.33
958.203	4242.05
962.669	5760.71
967.133	7592.75
971.594	9111.49
976.052	11650.2
980.508	15502.3
984.961	18742.7
989.412	20845.7
993.861	20866.5
998.306	18553
1002.75	13918.4
1007.19	9894.47
1011.63	7201.15
1016.06	5740.5
1020.5	4859.35
1024.93	4185.34
1029.36	3849.62
1033.78	3855.92
1038.2	2806.8
1042.62	2677.98
1047.04	2090.33
1051.46	1713.38
1055.87	2055.89
1060.28	2214.77
1064.69	2236.15
1069.09	2487.1
1073.5	3135.05
1077.9	3414.59
1082.29	3720.09
1086.69	3670.54
1091.08	3318.34
1095.47	2865.39
1099.86	2365.68
1104.24	1957.32
1108.63	1691.21
1113.01	1110.3
1117.38	916.586
1121.76	734.051
1126.13	690.688
1130.5	682.481
1134.87	343.504
1139.23	30.5469
1143.6	10.6367
1147.96	17.6836
1152.32	60.7812
1156.67	316.922
1161.02	149.297
1165.37	20.4453
1169.72	204.281
1174.07	23.5391
1178.41	56.293
1182.75	241.648
1187.08	51.9883
1191.42	90.6836
1195.75	299.066
1200.08	72.3125
1204.41	253.34
1208.73	8.25391
1213.06	162.707
1217.38	413.887
1221.69	293.789
1226.01	200.684
1230.32	287.906
1234.63	283.106
1238.94	478.035
1243.24	110.699
1247.55	185.086
1251.85	728.188
1256.14	456
1260.44	264.519
1264.73	498.574
1269.02	376.156
1273.31	409.262
1277.6	414.859
1281.88	345.871
1286.16	357.731
1290.44	115.543
1294.71	111.133
1298.98	510.516
1303.26	293.621
1307.52	382.106
1311.79	228.789
1316.05	487.223
1320.31	370.031
1324.57	190.043
1328.83	171.203
1333.08	207.438
1337.33	359.5
1341.58	5.08984
1345.82	579.402
1350.07	458.586
1354.31	360.477
1358.55	400.086
1362.78	483.414
1367.02	544.484
1371.25	551.293
1375.48	516.852
1379.7	595.176
1383.92	553.269
1388.15	576.664
1392.37	507.203
1396.58	476.641
1400.8	466.93
1405.01	320.102
1409.22	351.266
1413.42	807.133
1417.63	858.055
1421.83	512.547
1426.03	663.523
1430.22	735.219
1434.42	664.008
1438.61	893.992
1442.8	633.922
1446.99	566.875
1451.17	626.273
1455.35	543.906
1459.53	304.594
1463.71	838.727
1467.89	396.07
1472.06	186.555
1476.23	342.18
1480.4	388.977
1484.56	338.961
1488.72	183.5
1492.88	644.359
1497.04	109.883
1501.2	15.9219
1505.35	556.047
1509.5	29.9531
1513.65	583.945
1517.8	319.836
1521.94	147.281
1526.08	360.711
1530.22	218.805
1534.36	474.852
1538.49	29.2344
1542.62	535.156
1546.75	595.414
1550.88	515.867
1555	451.844
1559.12	50.5547
1563.24	334.281
1567.36	468.922
1571.47	381.469
1575.58	295.297
