Measurement: Raman, 514 nm, ccw, Raman Data Processed
Mineral: Nepheline
Rruff sample: R060581
Ideal chemistry: Na_3_K(Al_4_Si_4_O_16_)
Locality: Capo di Bova, Via Appia Antica, Rome, Italy
Source: Michael Scott
Description: Colorless hexagonal prisms
Measured chemistry: (Na_0.66_K_0.27_Ca_0.04_)_Î£=0.97_Al_0.98_Si_1.01_O_4_
Pin_id: M01882
Orientation: Laser parallel to c* (0 0 1). Fiducial mark perpendicular to laser is parallel to b [0 1 0]
Raman shift (cm-1)	intensity
120.387	0
125.324	215.406
130.259	41.2695
135.191	199.074
140.12	383.93
145.046	177.004
149.97	20.2305
154.891	216.219
159.809	1141.33
164.724	1621.7
169.637	2835.44
174.547	3971.19
179.454	5712.23
184.359	7543.98
189.261	10471.5
194.16	13759.2
199.056	16509.4
203.95	17362.3
208.841	16261.8
213.729	14073.1
218.614	13195.3
223.497	12984.8
228.377	12759.2
233.254	10610.7
238.129	7337.65
243.001	4544.48
247.87	3298.13
252.737	3986.75
257.6	5966.59
262.461	8102.07
267.32	7710.87
272.175	5282.17
277.028	2032.82
281.879	384.256
286.726	44.1445
291.571	285.482
296.413	216.498
301.252	92.834
306.089	285.106
310.923	32.25
315.755	560.557
320.583	1294.06
325.409	2570.55
330.232	3887.13
335.053	5523.02
339.871	8232.16
344.686	12800.4
349.498	17904.2
354.308	19279.2
359.115	18290.7
363.92	18987.9
368.721	23595.8
373.52	31587.2
378.317	42498.6
383.111	56570
387.902	70181.3
392.69	77352.8
397.475	73336.3
402.258	64549.2
407.039	56886.3
411.816	52539.9
416.591	52182.8
421.364	49796
426.133	42137.2
430.9	32723.8
435.664	25193.8
440.426	21056.5
445.185	18037
449.941	16576.9
454.695	17016.1
459.445	21369.2
464.194	18714.9
468.939	11054
473.682	6399.16
478.423	4786.59
483.16	5041.03
487.895	8329.28
492.627	13796.4
497.357	14236
502.084	8624.27
506.808	4721.53
511.53	3046.59
516.249	2289.59
520.965	1850.9
525.679	1580.84
530.39	1167.58
535.098	1096.73
539.804	303.945
544.507	300.344
549.208	185.535
553.906	258.844
558.601	121.184
563.293	104.746
567.983	540.953
572.671	1736.68
577.355	2933.46
582.037	1976.25
586.717	988.621
591.393	540.961
596.067	807.188
600.739	867.82
605.408	1307.85
610.074	1360.77
614.737	690.269
619.398	373.25
624.057	592.707
628.712	323.648
633.365	436.609
638.016	217.117
642.664	424.473
647.309	3.84766
651.951	129.082
656.591	145.34
661.229	110.219
665.863	162.199
670.495	265.113
675.125	269.305
679.752	392.094
684.376	550.793
688.998	702.301
693.617	384.078
698.233	496.199
702.847	706.176
707.458	624.723
712.066	697.285
716.672	314.727
721.276	173.336
725.877	319.496
730.475	364.281
735.07	415.539
739.663	376.531
744.254	298.594
748.841	662.195
753.426	361.34
758.009	320.644
762.589	197.32
767.166	1.00781
771.741	6.31641
776.313	110.656
780.883	7.875
785.45	66.6953
790.014	15.1016
794.576	251.801
799.135	227.754
803.692	160.422
808.246	80.5117
812.797	280.5
817.346	191.711
821.893	144.203
826.436	62.3125
830.977	76.1328
835.516	121.848
840.052	129.715
844.585	134.973
849.116	214.363
853.645	231.996
858.17	324.352
862.693	739.602
867.214	896.297
871.732	12.5273
876.247	590.184
880.76	729.449
885.27	618.273
889.778	942.684
894.283	979.723
898.786	1397.48
903.286	1437.17
907.783	2113.57
912.278	2424.39
916.77	2590.38
921.26	3269.65
925.747	3349.23
930.232	2772.57
934.714	2729.97
939.193	2453.29
943.67	2245.45
948.145	2859.82
952.617	3238.88
957.086	4249.52
961.553	5192.69
966.017	6706.86
970.479	8633.53
974.938	11015
979.394	14678.3
983.848	19186
988.3	21439.8
992.749	21698.3
997.195	19956.9
1001.64	15268
1006.08	11006.5
1010.52	7778.93
1014.96	6368.17
1019.39	4766.81
1023.82	3897.85
1028.25	3746.54
1032.67	3570.68
1037.1	2950.8
1041.52	2678.11
1045.94	1901.55
1050.35	1887.87
1054.77	2156.43
1059.18	2175.17
1063.59	2131.08
1067.99	2464.25
1072.4	2688.56
1076.8	3631.87
1081.19	4038.59
1085.59	3656.19
1089.98	3861.8
1094.38	3615.68
1098.76	2778.02
1103.15	2557.28
1107.53	1499.56
1111.91	1394.03
1116.29	1195.66
1120.67	735.406
1125.04	630.238
1129.41	96.6914
1133.78	7.39062
1138.14	9.53516
1142.51	215.328
1146.87	139.07
1151.23	345.797
1155.58	51.9453
1159.93	28.4531
1164.29	103.996
1168.63	233.113
1172.98	207.484
1177.32	390.734
1181.66	147.231
1186	54.3008
1190.34	27.1602
1194.67	29.6406
1199	104.055
1203.33	234.348
1207.65	182.481
1211.98	474.644
1216.3	48.9062
1220.62	356.852
1224.93	156.996
1229.24	516.816
1233.56	456.324
1237.86	152.512
1242.17	377.379
1246.47	247.938
1250.77	202.141
1255.07	55
1259.37	396.227
1263.66	486.801
1267.95	541.207
1272.24	138.731
1276.53	197.484
1280.81	265.879
1285.09	358.883
1289.37	319.016
1293.64	605.262
1297.92	352.504
1302.19	116.863
1306.46	410.414
1310.72	846.883
1314.99	493.016
1319.25	627.691
1323.51	732.098
1327.76	464.066
1332.02	740.137
1336.27	725.543
1340.52	464.555
1344.76	667.215
1349.01	661.527
1353.25	642.875
1357.49	558.613
1361.72	791.867
1365.96	762.387
1370.19	959.691
1374.42	393.973
1378.64	241.727
1382.87	690.812
1387.09	776.055
1391.31	544.258
1395.53	924.789
1399.74	177.758
1403.95	666.617
1408.16	847.391
1412.37	607.633
1416.58	561.312
1420.78	423.047
1424.98	310.617
1429.18	978.195
1433.37	575.367
1437.56	1036.88
1441.75	553.117
1445.94	852.477
1450.13	657.672
1454.31	656.164
1458.49	806.906
1462.67	285.344
1466.84	624.078
1471.02	663.055
1475.19	294.266
1479.36	432.719
1483.52	258.641
1487.68	86.0703
1491.85	476.641
1496	713.594
1500.16	391.023
1504.31	354.109
1508.46	576.266
1512.61	172.375
1516.76	378.352
1520.9	436.695
1525.05	232.25
1529.18	325.117
1533.32	332.406
1537.45	911.609
1541.59	548.883
1545.72	148.703
1549.84	274.227
1553.97	665.094
1558.09	848.32
1562.21	741.531
1566.33	179.453
1570.44	750.68
1574.56	180.242
1578.67	0
