Measurement: Raman, 514 nm, ccw, Raman Data Processed
Mineral: Nepheline
Rruff sample: R060581
Ideal chemistry: Na_3_K(Al_4_Si_4_O_16_)
Locality: Capo di Bova, Via Appia Antica, Rome, Italy
Source: Michael Scott
Description: Colorless hexagonal prisms
Measured chemistry: (Na_0.66_K_0.27_Ca_0.04_)_Î£=0.97_Al_0.98_Si_1.01_O_4_
Pin_id: M01217
Orientation: Laser parallel to a* (1 0 0). Fiducial mark perpendicular to laser is parallel to c [0 0 1]
Raman shift (cm-1)	intensity
122.856	0
127.792	105.598
132.725	505.512
137.656	2208.9
142.583	5440.31
147.508	10167
152.431	15989.5
157.35	21592.8
162.267	25327
167.181	27026.3
172.092	27253.3
177.001	27295.3
181.907	28875.8
186.81	32573
191.711	39557.2
196.608	47699.6
201.503	53643.4
206.395	52227.2
211.285	44142.5
216.172	32471.3
221.056	23792.3
225.937	18630.8
230.816	15354.3
235.692	11674.8
240.565	8356.11
245.436	5686.01
250.304	4560.29
255.169	4682.88
260.031	6103.82
264.891	7161.43
269.748	6010.01
274.602	3323.84
279.454	1091.71
284.303	95.6641
289.149	419
293.992	980.644
298.833	748.715
303.671	424.516
308.507	273.848
313.339	278.798
318.169	703.844
322.996	1370.34
327.821	2117.61
332.643	3615.12
337.462	6199.25
342.279	10257.4
347.092	16056.6
351.904	18772.5
356.712	17281.3
361.518	16167.1
366.321	17913.3
371.121	23218.5
375.919	31503
380.714	43945.3
385.506	58453.3
390.296	75117.9
395.083	87039.9
399.867	91334.7
404.649	92506.2
409.428	90259.6
414.204	81313.4
418.978	65149.1
423.749	46590.9
428.517	33435.4
433.282	24063
438.045	18461
442.806	14759.2
447.563	13029
452.318	11272.9
457.07	12862.7
461.82	17215.2
466.567	17847.1
471.311	10755.5
476.053	5970.05
480.792	4143.14
485.528	3476.07
490.262	3012.98
494.992	3098.21
499.721	3101.79
504.446	2708.95
509.169	2456.64
513.89	1914.31
518.607	1701.93
523.322	1236.25
528.035	1278.54
532.745	961.125
537.452	669.488
542.156	131.457
546.858	38.6602
551.557	396.691
556.254	93.7188
560.947	75.5547
565.639	172.478
570.327	101.661
575.013	276.582
579.697	392.723
584.377	317.297
589.055	291.348
593.731	174.144
598.403	454.949
603.074	5.71875
607.741	451.738
612.406	206.199
617.068	642.676
621.728	386.141
626.385	708.617
631.039	738.238
635.691	393.742
640.34	420.914
644.987	332.734
649.63	571.828
654.272	661.68
658.91	667.602
663.546	795.141
668.18	1836.23
672.81	2824.44
677.439	3549.28
682.064	3538.12
686.687	3050.03
691.307	2082.39
695.925	1410.35
700.54	1185.87
705.153	836.727
709.763	666.094
714.37	283.656
718.974	107.273
723.577	130.57
728.176	325.789
732.773	135.188
737.367	215.523
741.959	369.195
746.548	383.008
751.134	341.305
755.718	367.109
760.299	211.078
764.878	440.719
769.454	167.156
774.028	307.516
778.598	161.797
783.167	376.133
787.732	202.195
792.295	18.7969
796.856	242.531
801.414	203.93
805.969	200.32
810.522	182.258
815.072	249.969
819.62	244.867
824.165	285.305
828.707	328
833.247	354.781
837.784	178.469
842.319	248.344
846.851	194.188
851.381	310.844
855.908	128.086
860.432	346.422
864.954	657.789
869.473	471.727
873.99	503.148
878.504	1018.23
883.015	1343.47
887.524	1216.97
892.031	1621.79
896.535	2289.11
901.036	2493.02
905.535	4077.8
910.031	4921.13
914.524	4780.06
919.015	4309.41
923.504	3948.84
927.99	3627.38
932.473	3508.91
936.954	3823.8
941.432	3504.38
945.908	4318.12
950.381	4820.84
954.852	7894.43
959.32	11088.1
963.785	13991
968.248	16979
972.708	18092.9
977.166	19673
981.622	20670.3
986.074	21541.3
990.525	22920
994.972	24040.8
999.417	21776.1
1003.86	16985.1
1008.3	11412.7
1012.74	8457.94
1017.17	6576.88
1021.61	5179.78
1026.04	4384.64
1030.46	4042.13
1034.89	3334.63
1039.31	3866.11
1043.73	2760.77
1048.15	2127.41
1052.56	1494.98
1056.97	1446.16
1061.38	1218.38
1065.79	809.258
1070.19	1395.19
1074.6	947.375
1079	1207.55
1083.39	1762.33
1087.79	1208.42
1092.18	1098.62
1096.57	845.719
1100.96	1105.72
1105.34	1004.59
1109.72	1083.31
1114.1	489.852
1118.48	627.266
1122.85	243.367
1127.22	213.203
1131.6	435.297
1135.96	128.898
1140.33	367.297
1144.69	45.0312
1149.05	767.109
1153.4	311.82
1157.76	48.9844
1162.11	277.453
1166.46	243.219
1170.81	45.8906
1175.15	15.2578
1179.49	378.531
1183.83	81.6484
1188.17	180.969
1192.5	390.414
1196.84	204.977
1201.16	337.156
1205.49	190.086
1209.82	572.883
1214.14	36.5938
1218.46	321.867
1222.77	231.383
1227.09	688.438
1231.4	546.5
1235.71	680.555
1240.02	579.562
1244.32	72.5078
1248.62	297.688
1252.92	310.398
1257.22	113.484
1261.51	357.633
1265.81	306.023
1270.1	735.5
1274.38	377.062
1278.67	776.414
1282.95	506.602
1287.23	215.781
1291.51	639.289
1295.78	389.719
1300.05	626.586
1304.32	633.102
1308.59	95.2422
1312.86	732.477
1317.12	494.469
1321.38	215.484
1325.63	419.922
1329.89	680.938
1334.14	249.812
1338.39	356.773
1342.64	335.672
1346.88	356.008
1351.13	655.844
1355.37	452.172
1359.61	285
1363.84	699.32
1368.07	1089.16
1372.3	714.398
1376.53	919.211
1380.76	858.516
1384.98	977.547
1389.2	443.938
1393.42	803.062
1397.64	691.594
1401.85	510.961
1406.06	776.695
1410.27	819.898
1414.47	911.719
1418.68	995.258
1422.88	526.758
1427.08	955.953
1431.27	556.344
1435.47	1061.67
1439.66	1107.27
1443.85	962.266
1448.03	1049.48
1452.22	552.781
1456.4	1073.4
1460.58	392.578
1464.76	468.617
1468.93	599.938
1473.1	251.156
1477.27	749.297
1481.44	577.336
1485.6	544.609
1489.77	637.852
1493.92	199.875
1498.08	855.531
1502.24	277.852
1506.39	693.484
1510.54	264.211
1514.69	75.9531
1518.83	1.92188
1522.97	179.867
1527.12	144.109
1531.25	180.312
1535.39	74.5234
1539.52	411.875
1543.65	310.672
1547.78	290.555
1551.91	411.531
1556.03	39.7812
1560.15	470.711
1564.27	195.391
1568.39	647.859
1572.5	28.3594
1576.61	245.984
