Measurement: Raman, 514 nm, depolarized, Raman Data Processed
Mineral: Nepheline
Rruff sample: R040025
Ideal chemistry: Na_3_K(Al_4_Si_4_O_16_)
Locality: Bancroft, Ontario, Canada
Source: University of Arizona Mineral Museum
Description: White massive
Measured chemistry: (Na_0.77_K_0.23_)_Î£=1_Al_1.00_Si_1.00_O_4_
Pin_id: L00445
Orientation: Laser parallel to -a* (-1 0 0). Fiducial mark perpendicular to laser is parallel to -c [0 0 -1]
Raman shift (cm-1)	intensity
121.15	0
125.328	10.377
129.504	171.732
133.678	261.652
137.85	172.384
142.02	92.102
146.188	324.014
150.354	866.989
154.517	1517.06
158.679	1371.23
162.839	1677.92
166.996	1706.37
171.152	1494.98
175.305	1100.61
179.456	1183.88
183.605	1395.1
187.752	1744.76
191.898	2523.16
196.041	3380.61
200.182	4237.3
204.321	4523.35
208.457	3578.65
212.592	2692.69
216.725	2056.56
220.856	1818.12
224.984	1922.55
229.111	1799.36
233.236	1416.66
237.358	964.383
241.479	752.446
245.597	480.822
249.713	449.451
253.828	758.279
257.94	1287.21
262.05	2066.49
266.159	2186.09
270.265	1486.01
274.369	846.062
278.471	436.098
282.572	216.154
286.67	214.512
290.766	452.402
294.86	503.038
298.952	265.17
303.042	11.673
307.13	77.968
311.216	144.073
315.3	140.311
319.382	36.829
323.462	23.521
327.54	79.665
331.616	192.818
335.69	385.87
339.762	798.736
343.832	1421.37
347.9	2203.79
351.965	1896.05
356.029	1388.12
360.091	1129.98
364.151	1042.28
368.209	1334.08
372.265	1665.58
376.319	2247.08
380.371	2978.56
384.421	4337.97
388.469	6037.08
392.515	8338.37
396.559	11177.6
400.601	12762.9
404.641	12012.2
408.679	11527.9
412.715	10499.7
416.749	8708.18
420.781	6107.31
424.811	4445.03
428.839	3404.51
432.866	2502.95
436.89	2104.57
440.912	1893.01
444.932	1910.1
448.951	2307.4
452.967	3095.36
456.981	4811.42
460.994	9523.5
465.004	13306.9
469.013	9550.51
473.019	5104.81
477.024	2879.1
481.026	1779
485.027	1341.95
489.026	1033.42
493.023	847.947
497.017	866.484
501.01	650.939
505.001	476.156
508.99	322.141
512.977	345.416
516.962	346.521
520.945	206.355
524.927	325.613
528.906	264.49
532.883	142.98
536.858	111.109
540.832	269.312
544.803	187.311
548.773	4.623
552.741	91.666
556.706	177.982
560.67	163.67
564.632	88.699
568.592	83.471
572.55	41.936
576.506	191.873
580.46	545.301
584.412	8.791
588.363	200.586
592.311	52.402
596.258	53.791
600.202	54.832
604.145	155.039
608.086	145.77
612.024	135.436
615.961	144.24
619.896	35.936
623.829	64.412
627.761	62.709
631.69	9.084
635.617	11.936
639.543	86.566
643.466	45.625
647.388	215.33
651.308	144.842
655.226	31.619
659.142	56.799
663.056	158.885
666.968	182.586
670.879	188.453
674.787	261.492
678.694	417.082
682.598	479.369
686.501	570.854
690.402	641.078
694.301	290.668
698.198	229.395
702.093	247.426
705.987	423.018
709.878	239.33
713.768	507.258
717.656	456.604
721.542	410.568
725.426	337.199
729.308	333.342
733.188	383.42
737.067	175.457
740.943	306.059
744.818	298.176
748.691	237.982
752.562	135.445
756.431	264.83
760.298	166.359
764.163	255.268
768.027	222.92
771.888	141.934
775.748	263.451
779.606	139.215
783.462	54.553
787.317	338.344
791.169	57.891
795.019	17.477
798.868	92.291
802.715	45.67
806.56	159.324
810.403	187.689
814.245	40.775
818.084	152.338
821.922	197.92
825.758	23.516
829.592	276.824
833.424	30.658
837.254	114.15
841.082	7.365
844.909	40.328
848.734	147.088
852.557	144.449
856.378	225.996
860.197	107.855
864.015	41.311
867.831	9.744
871.645	101.432
875.457	182.617
879.267	113.504
883.075	23.934
886.882	124.398
890.687	24.162
894.49	274.229
898.291	174.922
902.09	294.85
905.888	404.363
909.683	25.434
913.477	214.049
917.269	273.244
921.06	212.438
924.848	131.693
928.635	318.328
932.42	106.602
936.203	234.732
939.984	303.881
943.764	368.25
947.541	299.908
951.317	687.02
955.091	532.555
958.864	928.391
962.634	1896.07
966.403	2884.44
970.17	2726.92
973.935	2403.39
977.698	2512.24
981.46	3492.44
985.22	6609.4
988.978	7450.5
992.734	5572.07
996.488	3703.79
1000.24	2296.22
1003.99	1668.09
1007.74	1109.29
1011.49	1140.39
1015.23	1080
1018.98	573.207
1022.72	377.867
1026.46	384.793
1030.2	718.648
1033.93	560.293
1037.67	781.379
1041.4	725.457
1045.13	569.141
1048.86	801.273
1052.59	814.27
1056.32	996.605
1060.04	1028.27
1063.77	980.441
1067.49	1153.23
1071.2	815.473
1074.92	707.324
1078.64	688.703
1082.35	559.637
1086.06	692.094
1089.78	912.781
1093.48	743.539
1097.19	304.855
1100.89	257.266
1104.6	238.613
1108.3	328.441
1112	279.816
1115.7	460.605
1119.39	532.055
1123.09	202.867
1126.78	343.273
1130.47	15.574
1134.16	51.465
1137.85	41.543
1141.54	555.988
1145.22	590.395
1148.9	265.402
1152.58	191.688
1156.26	98.18
1159.94	200.145
1163.62	61.641
1167.29	223.086
1170.96	410.473
1174.63	558.656
1178.3	405.773
1181.97	347.094
1185.63	215.453
1189.3	292.184
1192.96	569.168
1196.62	414.301
1200.28	673.551
1203.93	864.688
1207.59	585.609
1211.24	534.168
1214.89	401.93
1218.54	769.902
1222.19	595.145
1225.84	739.992
1229.48	902.906
1233.13	847.387
1236.77	816.098
1240.41	727.09
1244.05	415.824
1247.68	485.934
1251.32	733.727
1254.95	471.652
1258.58	787.422
1262.21	1173.19
1265.84	926.922
1269.46	619.715
1273.09	501.258
1276.71	151.125
1280.33	89.758
1283.95	236.191
1287.57	199.391
1291.18	440.492
1294.8	331.289
1298.41	618.996
1302.02	236.898
1305.63	173.797
1309.24	8.617
1312.84	208.508
1316.45	97.355
1320.05	50.086
1323.65	308.734
1327.25	287.25
1330.85	384.094
1334.44	288.887
1338.04	104.09
1341.63	62.176
1345.22	109.191
1348.81	181.969
1352.4	331.984
1355.98	471.762
1359.57	589.617
1363.15	808.543
1366.73	665.973
1370.31	174.168
1373.89	440.883
1377.46	32.211
1381.04	168.941
1384.61	522.715
1388.18	306.957
1391.75	629.305
1395.32	766.574
1398.88	892.789
1402.45	1281.04
1406.01	724.023
1409.57	742.82
1413.13	529.285
1416.69	129.23
1420.24	65.637
1423.8	283.555
1427.35	658.309
1430.9	753.516
1434.45	1140.81
1438	595.863
1441.55	1229.29
1445.09	997.512
1448.63	668.445
1452.18	633.938
1455.71	524.145
1459.25	579.367
1462.79	336.121
1466.32	504.297
1469.86	867.438
1473.39	1116.06
1476.92	1339.8
1480.45	945.645
1483.97	1008.2
1487.5	974.504
1491.02	460.965
1494.54	159
1498.06	91.406
1501.58	117.926
1505.1	59.168
1508.62	12.418
1512.13	295.754
1515.64	748.258
1519.15	984.875
