Measurement: Raman, 514 nm, depolarized, Raman Data Processed
Mineral: Nepheline
Rruff sample: R060581
Ideal chemistry: Na_3_K(Al_4_Si_4_O_16_)
Locality: Capo di Bova, Via Appia Antica, Rome, Italy
Source: Michael Scott
Description: Colorless hexagonal prisms
Measured chemistry: (Na_0.66_K_0.27_Ca_0.04_)_Î£=0.97_Al_0.98_Si_1.01_O_4_
Pin_id: M01217
Orientation: Laser parallel to a* (1 0 0). Fiducial mark perpendicular to laser is parallel to c [0 0 1]
Raman shift (cm-1)	intensity
117.917	0
122.856	23.3398
127.792	784.688
132.725	1286.64
137.656	1227.75
142.583	2411.54
147.508	4074.16
152.431	6220.83
157.35	8075.68
162.267	9970.9
167.181	11329.8
172.092	12189.4
177.001	12908.1
181.907	14075.5
186.81	16888.4
191.711	20969
196.608	26130.5
201.503	29626.1
206.395	29730.8
211.285	25256.7
216.172	19942
221.056	15895
225.937	13659
230.816	11835.8
235.692	9130.99
240.565	6163.71
245.436	4051.4
250.304	3188.99
255.169	3841.81
260.031	5559.3
264.891	7186.84
269.748	5823.98
274.602	3063.94
279.454	904.344
284.303	276.309
289.149	499.727
293.992	416.137
298.833	651.57
303.671	384.938
308.507	463.32
313.339	201.367
318.169	878.926
322.996	1593.75
327.821	2599.53
332.643	3597.71
337.462	5983.97
342.279	9897.88
347.092	15528.8
351.904	18122.6
356.712	16748
361.518	15065.8
366.321	17118.7
371.121	21808.2
375.919	30038.2
380.714	41274.7
385.506	54741.6
390.296	69948.7
395.083	79022.1
399.867	78819
404.649	74809
409.428	70646.1
414.204	59970
418.978	46631.2
423.749	34033.8
428.517	24828.5
433.282	18977.9
438.045	16223.9
442.806	14372.3
447.563	14102.7
452.318	15820.2
457.07	21112.8
461.82	28727.2
466.567	29840.3
471.311	17493.3
476.053	8861.55
480.792	5326.11
485.528	3794.83
490.262	3713.62
494.992	3248.46
499.721	2984.18
504.446	2649.12
509.169	2030.85
513.89	1563.69
518.607	1276.57
523.322	883.711
528.035	887.688
532.745	694.227
537.452	463.344
542.156	37.6562
546.858	169.031
551.557	20.3516
556.254	18.25
560.947	428.492
565.639	9.19531
570.327	577.188
575.013	1164.62
579.697	1165.2
584.377	607.594
589.055	542.5
593.731	613.758
598.403	435.188
603.074	403.703
607.741	1119.32
612.406	663.734
617.068	392.859
621.728	353.664
626.385	757.117
631.039	889.898
635.691	493.531
640.34	374.133
644.987	326.32
649.63	355.352
654.272	158.211
658.91	350.102
663.546	437.031
668.18	972.836
672.81	1353.28
677.439	2093.86
682.064	1895.31
686.687	1934.98
691.307	1868.61
695.925	1330.48
700.54	1171.58
705.153	930.633
709.763	740.484
714.37	844.289
718.974	644.555
723.577	427.883
728.176	159.375
732.773	262.18
737.367	562.773
741.959	646.672
746.548	803.227
751.134	461.328
755.718	342.844
760.299	542.406
764.878	634.414
769.454	338.141
774.028	58.3125
778.598	138.797
783.167	154.984
787.732	192.867
792.295	247.094
796.856	14.75
801.414	179.891
805.969	264.688
810.522	306.07
815.072	87.4297
819.62	398.578
824.165	414.141
828.707	261.031
833.247	249.25
837.784	693.781
842.319	237.688
846.851	811.391
851.381	208.602
855.908	454.32
860.432	597.484
864.954	592.039
869.473	1124.98
873.99	579.672
878.504	1147.49
883.015	972.562
887.524	811.945
892.031	1510.43
896.535	1480.41
901.036	2314.97
905.535	3037.29
910.031	3574.72
914.524	3462.98
919.015	3964.32
923.504	3911.3
927.99	3806.12
932.473	3079.95
936.954	3451.55
941.432	3129.8
945.908	3936.53
950.381	4455.26
954.852	6572.56
959.32	9164.06
963.785	11177.7
968.248	13746.5
972.708	15241.6
977.166	16675.8
981.622	19427.4
986.074	21051.2
990.525	22896.3
994.972	22820
999.417	19987.6
1003.86	14362.2
1008.3	10498.7
1012.74	7888
1017.17	5880.27
1021.61	4357.53
1026.04	3535.45
1030.46	3188.2
1034.89	2600.79
1039.31	2563.48
1043.73	2054.14
1048.15	1656.69
1052.56	1634.26
1056.97	1489.59
1061.38	1387.22
1065.79	1687.93
1070.19	2113.23
1074.6	1245.33
1079	1993.52
1083.39	2612.95
1087.79	1638.19
1092.18	1702.33
1096.57	1606.62
1100.96	1606.64
1105.34	1108.19
1109.72	1180.38
1114.1	806.031
1118.48	1313.42
1122.85	605.844
1127.22	482.516
1131.6	489.875
1135.96	456.609
1140.33	2.32812
1144.69	512.969
1149.05	153.281
1153.4	190.328
1157.76	427.797
1162.11	316.359
1166.46	59.375
1170.81	201.219
1175.15	276.641
1179.49	310.859
1183.83	63.0469
1188.17	330.5
1192.5	11.9531
1196.84	22.6875
1201.16	368.891
1205.49	10.25
1209.82	127.578
1214.14	136.75
1218.46	10.1875
1222.77	609.688
1227.09	460.703
1231.4	643.938
1235.71	243.812
1240.02	323.109
1244.32	904.156
1248.62	34.0625
1252.92	161.656
1257.22	547.75
1261.51	507.188
1265.81	279.266
1270.1	708.516
1274.38	435.875
1278.67	726.859
1282.95	464.703
1287.23	376
1291.51	97.25
1295.78	634.438
1300.05	5.26562
1304.32	532.484
1308.59	505.812
1312.86	634.609
1317.12	565.297
1321.38	245.688
1325.63	673.141
1329.89	593.406
1334.14	507.984
1338.39	57.4219
1342.64	412.406
1346.88	342.109
1351.13	456.391
1355.37	1182.31
1359.61	333.875
1363.84	659.875
1368.07	604.547
1372.3	1445.67
1376.53	928.047
1380.76	1325.94
1384.98	559.031
1389.2	1263.17
1393.42	719.656
1397.64	1439.11
1401.85	318.969
1406.06	342.859
1410.27	622.828
1414.47	1873.41
1418.68	751.078
1422.88	513.828
1427.08	1086.81
1431.27	425.281
1435.47	1253.75
1439.66	1129.73
1443.85	935.266
1448.03	583.547
1452.22	1202.7
1456.4	797.312
1460.58	1141.3
1464.76	536.125
1468.93	1270
1473.1	670.734
1477.27	15.5938
1481.44	353
1485.6	786.734
1489.77	750.094
1493.92	587.984
1498.08	175.328
1502.24	712
1506.39	946.328
1510.54	1250.84
1514.69	550.406
1518.83	429.125
1522.97	536.094
1527.12	362.062
1531.25	835.766
1535.39	68.1875
1539.52	868.141
1543.65	611.5
1547.78	376.891
1551.91	521.766
1556.03	64.8281
1560.15	364.656
1564.27	261.266
1568.39	880.203
1572.5	119.703
1576.61	162.172
