Measurement: Raman, 514 nm, ccw, Raman Data Processed
Mineral: Olivenite
Rruff sample: R040181
Ideal chemistry: Cu^2+^_2_As^5+^O_4_(OH)
Locality: Majuba Hill, Pershing County, Nevada, USA
Source: University of Arizona Mineral Museum
Description: Greenish blue prismatic, untwinned. Structure for this sample reported in Li et al (2008).
Measured chemistry: (Cu_0.98_[box]_0.02_)_2_(As_0.90_P_0.10_O_4_)(OH)_0.92_
Pin_id: S00027
Orientation: Laser parallel to -c* (0 0 -1). Fiducial mark perpendicular to laser is parallel to a [1 0 0]
Raman shift (cm-1)	intensity
63.589	0
68.563	355.178
73.534	84.8253
78.502	353.463
83.467	3124.83
88.429	8330.35
93.389	8864.59
98.346	6288.4
103.3	5241.22
108.251	5452.98
113.2	5106.3
118.145	4475.06
123.088	3921.03
128.028	4222.34
132.965	5219.01
137.9	7886.52
142.832	16853.4
147.761	37035.4
152.687	62309.7
157.61	70171.5
162.531	50465.3
167.448	22405.2
172.363	10925.6
177.276	6644.34
182.185	4044.28
187.092	2533.24
191.996	1634.5
196.897	1656.44
201.795	3027.6
206.691	6697.79
211.584	13536
216.474	21861
221.361	23974.8
226.245	18577.6
231.127	12092.5
236.006	8564.35
240.882	5851.93
245.756	3145.38
250.626	1567.71
255.494	1129.99
260.36	1092.74
265.222	1719.51
270.082	4416.29
274.939	11044.8
279.793	19729.6
284.644	23002.6
289.493	16125.4
294.339	8349.12
299.182	5621.58
304.022	6427.81
308.86	8229.74
313.695	8183.12
318.527	6011.68
323.357	4092.57
328.183	3210.89
333.007	3509.27
337.829	4952.92
342.647	6806.28
347.463	7457.73
352.276	5344.23
357.086	2760.84
361.894	1678.25
366.699	1745.04
371.501	1621.9
376.3	933.264
381.097	534.873
385.891	274.518
390.682	401.078
395.47	416.187
400.256	179.667
405.039	485.475
409.82	1841.85
414.597	4294.34
419.372	6953.84
424.144	7763.22
428.914	6422.37
433.681	4029.18
438.445	2275.55
443.206	1307.74
447.965	639.036
452.721	355.478
457.474	40.9004
462.225	286.908
466.972	172.902
471.718	202.365
476.46	185.139
481.2	14.9768
485.937	230.284
490.671	480.217
495.403	596.658
500.132	823.902
504.858	1077.93
509.582	1455.62
514.303	1963.95
519.021	2566.99
523.736	3169.43
528.449	3111.68
533.159	2564
537.867	1964.86
542.572	1766.88
547.274	1870.78
551.973	2338.39
556.67	2833.44
561.364	2818.9
566.055	2386.74
570.744	1707.92
575.43	1032.41
580.114	679.202
584.794	244.24
589.472	268.256
594.148	127.648
598.82	116.642
603.49	103.628
608.158	60.0083
612.823	43.5461
617.485	34.6423
622.144	28.4936
626.801	46.7207
631.455	1.45117
636.106	26.9922
640.755	26.1504
645.401	98.0503
650.045	37.0478
654.685	173.524
659.323	160.695
663.959	100.639
668.592	264.39
673.222	333.131
677.85	273.525
682.475	320.753
687.097	397.185
691.717	325.65
696.334	291.19
700.948	286.853
705.56	477.686
710.169	725.133
714.775	998.365
719.379	1355.85
723.98	1593.73
728.579	1742.49
733.175	1268.79
737.768	852.383
742.359	546.35
746.947	273.175
751.532	218.319
756.115	194.446
760.695	154.989
765.273	252.891
769.847	378.156
774.42	561.367
778.989	874.206
783.557	1415.04
788.121	2259.41
792.683	3303.63
797.242	4148.06
801.799	4309.19
806.353	4507.29
810.904	5425.1
815.453	7400.64
819.999	9565.93
824.543	11519
829.084	15068.9
833.622	22540.7
838.158	35635.3
842.691	57253.9
847.221	106317
851.749	207990
856.275	254187
860.798	153774
865.318	66577.7
869.835	32715.3
874.35	19107.5
878.863	12521
883.373	8851.67
887.88	6303.94
892.384	4859.58
896.886	3707.37
901.386	2615.08
905.883	1891.55
910.377	1349.66
914.869	1127.01
919.358	981.404
923.844	813.17
928.328	711.976
932.81	585.947
937.289	578.065
941.765	703.108
946.239	969.172
950.71	1493.22
955.178	2309.26
959.644	2187.23
964.108	1579.04
968.569	729.715
973.027	297.224
977.482	195.558
981.936	54.7009
986.386	109.372
990.834	167.085
995.28	204.854
999.723	65.8059
1004.16	32.3462
1008.6	65.7593
1013.04	55.5361
1017.47	89.781
1021.9	28.4646
1026.33	114.168
1030.75	161.514
1035.17	263.326
1039.59	171.965
1044.01	190.097
1048.43	189.848
1052.84	269.634
1057.25	383.212
1061.65	327.271
1066.06	472.42
1070.46	467.022
1074.86	519.542
1079.26	738.66
1083.65	827.145
1088.05	747.587
1092.43	441.465
1096.82	486.958
1101.21	299.533
1105.59	458.04
1109.97	393.422
1114.34	417.834
1118.72	519.773
1123.09	386.028
1127.46	329.648
1131.83	326.516
1136.19	314.338
1140.55	248.592
1144.91	257.371
1149.27	210.76
1153.62	129.631
1157.97	74.1638
1162.32	83.0225
1166.67	52.7473
1171.01	8.8833
1175.36	33.2358
1179.69	10.0793
1184.03	6.21655
1188.36	5.30591
1192.7	33.5022
1197.03	44.5776
1201.35	86.817
1205.67	84.2482
1210	62.785
1214.32	3.49853
1218.63	180.287
1222.95	170.347
1227.26	116.717
1231.57	62.3391
1235.87	113.217
1240.18	100.325
1244.48	27.668
1248.78	131.192
1253.07	99.2459
1257.37	101.982
1261.66	225.406
1265.95	190.421
1270.24	238.967
1274.52	202.959
1278.8	230.353
1283.08	197.156
1287.36	176.76
1291.63	248.521
1295.9	192.421
1300.17	205.181
1304.44	268.908
1308.7	201.938
1312.96	213.753
1317.22	111.587
1321.48	182.187
1325.74	171.619
1329.99	193.186
1334.24	178.389
1338.48	197.159
1342.73	218.681
1346.97	241.623
1351.21	217.546
1355.45	214.537
1359.68	362.454
1363.91	192.974
1368.14	196.922
1372.37	245.613
1376.6	191.297
1380.82	262.024
1385.04	249.737
1389.26	226.813
1393.47	269.105
1397.68	263.488
1401.89	151.809
1406.1	230.986
1410.31	199.036
1414.51	231.404
1418.71	160.945
1422.91	248.97
1427.1	234.699
1431.3	277.683
1435.49	383.317
1439.68	382.466
1443.86	302.122
1448.05	328.665
1452.23	255.062
1456.4	240.647
1460.58	232.349
1464.75	190.379
1468.92	151.008
1473.09	117.919
1477.26	143.612
1481.42	139.803
1485.59	179.397
1489.74	61.2919
1493.9	124.502
1498.06	155.091
1502.21	141.728
1506.36	70.4282
1510.5	174.908
1514.65	109.975
1518.79	118.078
1522.93	124.93
1527.07	70.4263
1531.2	100.456
1535.33	88.6687
1539.46	55.6718
1543.59	23.2325
1547.72	60.1805
1551.84	155.78
1555.96	55.7959
1560.08	77.3581
1564.19	41.2725
1568.31	72.8583
1572.42	59.804
1576.53	69.8538
