Measurement: Raman, 514 nm, ccw, Raman Data Processed
Mineral: Olivenite
Rruff sample: R040181
Ideal chemistry: Cu^2+^_2_As^5+^O_4_(OH)
Locality: Majuba Hill, Pershing County, Nevada, USA
Source: University of Arizona Mineral Museum
Description: Greenish blue prismatic, untwinned. Structure for this sample reported in Li et al (2008).
Measured chemistry: (Cu_0.98_[box]_0.02_)_2_(As_0.90_P_0.10_O_4_)(OH)_0.92_
Pin_id: S00027
Orientation: Laser parallel to -c* (0 0 -1). Fiducial mark perpendicular to laser is parallel to a [1 0 0]
Raman shift (cm-1)	intensity
69.806	0
74.776	170.085
79.743	41.3345
84.708	879.529
89.67	2706.09
94.629	3387.58
99.585	4018.26
104.538	6717.74
109.489	8477.6
114.436	7145.42
119.381	5349.89
124.323	4065.61
129.263	4208.07
134.199	4487.63
139.133	3068.59
144.064	3011.65
148.992	6449.56
153.918	13150.6
158.84	16800.4
163.76	12795.5
168.677	7370.87
173.592	7377.98
178.503	9202.06
183.412	10363.3
188.318	8849.17
193.221	5724.93
198.122	4972.44
203.019	7688.54
207.914	13878
212.806	24658.7
217.696	35490.3
222.582	35993.8
227.466	23920.4
232.347	12933.3
237.225	7232.83
242.101	4264.63
246.974	2829.14
251.844	2102.23
256.711	2480.43
261.575	3749.25
266.437	6908.13
271.296	15134
276.152	34559.9
281.006	60671.9
285.857	68940.8
290.705	47187.3
295.55	27287.5
300.392	21624.1
305.232	24515.7
310.069	28537.8
314.903	25643.5
319.735	18434.5
324.563	13067.7
329.39	10656.8
334.213	9400.87
339.033	8531.96
343.851	8147.66
348.666	7755.13
353.479	5968.8
358.288	4241.43
363.095	3280.25
367.899	2789.34
372.701	2214.96
377.5	1839.39
382.296	1634.25
387.089	1172.28
391.879	341.264
396.667	65.9976
401.452	238.213
406.235	320.874
411.014	308.735
415.791	242.802
420.566	254.974
425.337	216.126
430.106	227.621
434.872	65.7188
439.635	103.452
444.396	299.111
449.154	663.856
453.909	822.428
458.662	1171.61
463.412	1594.37
468.159	2020.56
472.903	2947.35
477.645	4362.12
482.384	6515.15
487.121	10119
491.854	15463.3
496.585	21017.9
501.314	22626.6
506.039	18147.8
510.762	12622.8
515.482	9332.86
520.2	7884.13
524.915	6839.58
529.627	5947.39
534.336	4872.95
539.043	4001.72
543.747	3490.55
548.449	3227.92
553.148	3227.75
557.844	3198.66
562.537	2806.96
567.228	1882.24
571.916	1193.7
576.601	820.944
581.284	357.131
585.964	184.238
590.641	134.326
595.316	16.7788
599.988	73.2268
604.657	26.3699
609.324	9.24243
613.988	37.4153
618.65	6.02344
623.308	0.389648
627.964	6.7605
632.618	22.8296
637.269	15.7707
641.917	92.2759
646.562	5.27441
651.205	4.84033
655.845	15.2473
660.483	85.4165
665.117	69.7817
669.75	146.395
674.379	131.312
679.006	102.615
683.63	100.624
688.252	87.4356
692.871	54.7705
697.487	118.091
702.101	187.95
706.712	190.45
711.321	338.867
715.926	417.046
720.529	538.824
725.13	547.374
729.728	660.48
734.323	670.62
738.916	760.388
743.506	722.423
748.093	706.636
752.678	964.79
757.26	985.024
761.84	940.957
766.417	1265.42
770.991	1489.4
775.562	1873.58
780.131	2243.42
784.698	2874
789.262	4011.76
793.823	5332.71
798.381	6416.81
802.937	7175.91
807.491	7820.04
812.042	8769.16
816.59	9814.32
821.135	12286.5
825.678	16600.8
830.218	26016.2
834.756	42894.6
839.291	70309.1
843.824	105631
848.354	167905
852.881	256506
857.406	254440
861.928	135946
866.447	60904.3
870.964	32491.2
875.479	20393.8
879.99	13922.1
884.5	10031.2
889.006	7582.39
893.51	5734.13
898.012	4406.43
902.51	3329.42
907.007	2614.21
911.5	2104.66
915.991	1813.27
920.48	1758.24
924.966	1704.77
929.449	1623.59
933.93	1485.55
938.408	1462.6
942.884	1513.62
947.357	1836.62
951.827	2411.55
956.295	3259.71
960.76	3055.54
965.223	1846.62
969.683	717.011
974.141	240.184
978.596	97.0986
983.049	183.409
987.498	127.105
991.946	210.352
996.391	42.1357
1000.83	71.8467
1005.27	80.7031
1009.71	17.7398
1014.14	135.228
1018.58	18.1367
1023.01	110.415
1027.43	235.168
1031.86	90.0881
1036.28	104.221
1040.7	61.459
1045.12	80.3418
1049.53	146.379
1053.94	191.605
1058.35	183.356
1062.76	162.232
1067.16	203.021
1071.56	234.559
1075.96	202.655
1080.36	153.46
1084.75	88.9565
1089.14	108.195
1093.53	199.286
1097.92	206.936
1102.3	247.297
1106.68	348.612
1111.06	289.337
1115.44	250.774
1119.81	269.681
1124.18	299.628
1128.55	349.467
1132.92	296.65
1137.28	300.831
1141.64	290.179
1146	236.038
1150.36	121.707
1154.71	151.902
1159.06	4.01294
1163.41	8.53003
1167.76	33.7991
1172.1	17.2812
1176.44	47.4321
1180.78	37.3245
1185.11	17.7075
1189.45	29.845
1193.78	108.942
1198.11	107.946
1202.43	48.3147
1206.76	84.8005
1211.08	52.1943
1215.39	6.50488
1219.71	45.1125
1224.02	128.071
1228.34	106.761
1232.64	117.251
1236.95	128.315
1241.25	114.629
1245.55	166.124
1249.85	191.395
1254.15	219.377
1258.44	182.837
1262.73	252.627
1267.02	228.89
1271.31	256.83
1275.59	270.731
1279.87	263.542
1284.15	263.388
1288.43	234.952
1292.7	231.823
1296.97	304.125
1301.24	264.297
1305.51	117.19
1309.77	165.265
1314.03	172.31
1318.29	135.577
1322.55	198.528
1326.8	143.37
1331.05	188.445
1335.3	188.222
1339.55	165.868
1343.79	191.84
1348.03	192.577
1352.27	164.271
1356.51	242.262
1360.74	179.04
1364.97	166.581
1369.2	268.104
1373.43	85.3665
1377.65	184.19
1381.87	253.514
1386.09	185.764
1390.31	129.453
1394.53	162.869
1398.74	182.573
1402.95	188.707
1407.15	185.214
1411.36	133.39
1415.56	149.752
1419.76	120.136
1423.96	247.769
1428.15	173.746
1432.35	198.485
1436.54	274.541
1440.72	295.6
1444.91	179.153
1449.09	181.838
1453.27	111.093
1457.45	190.705
1461.62	143.361
1465.8	133.297
1469.97	133.363
1474.13	54.6533
1478.3	133.072
1482.46	94.6728
1486.62	85.4273
1490.78	27.3513
1494.94	38.3943
1499.09	18.4526
1503.24	113.598
1507.39	81.9409
1511.54	57.5115
1515.68	21.3257
1519.82	126.531
1523.96	0.924072
1528.1	13.8113
1532.23	70.0281
1536.37	96.9849
1540.49	4.15015
1544.62	134.978
1548.75	69.6399
1552.87	184.022
1556.99	187.087
1561.11	49.3621
1565.22	62.103
1569.33	114.599
1573.44	119.858
1577.55	0.466064
