Measurement: Raman, 514 nm, depolarized, Raman Data Processed
Mineral: Olivenite
Rruff sample: R040181
Ideal chemistry: Cu^2+^_2_As^5+^O_4_(OH)
Locality: Majuba Hill, Pershing County, Nevada, USA
Source: University of Arizona Mineral Museum
Description: Greenish blue prismatic, untwinned. Structure for this sample reported in Li et al (2008).
Measured chemistry: (Cu_0.98_[box]_0.02_)_2_(As_0.90_P_0.10_O_4_)(OH)_0.92_
Pin_id: S00079
Orientation: Laser parallel to b* (0 1 0). Fiducial mark perpendicular to laser is parallel to -c [0 0 -1]
Raman shift (cm-1)	intensity
52.866	0
57.065	49.773
61.262	66.435
65.458	76.435
69.651	290.578
73.842	1283.01
78.031	2863.46
82.218	3201.3
86.404	2968.02
90.587	3896.81
94.768	4291.33
98.947	3573.4
103.124	3851.21
107.3	4963.26
111.473	5921.91
115.644	6585.71
119.813	5264.31
123.981	3465.45
128.146	2476.9
132.309	2187.47
136.47	1759.94
140.63	1955.96
144.787	2688.95
148.942	3784.71
153.096	4044.58
157.247	3909.13
161.396	2783.38
165.544	1797.38
169.689	1437.21
173.833	1643.89
177.974	2113.39
182.114	2500.71
186.251	1955.85
190.387	1141.78
194.52	718.462
198.652	798.885
202.782	1261.01
206.909	2240.8
211.035	3754.23
215.159	5973.24
219.281	6981.73
223.4	5775.4
227.518	3859.55
231.634	2362.63
235.748	1521.83
239.86	870.8
243.97	506.763
248.079	261.706
252.185	156.747
256.289	180.778
260.391	287.696
264.492	625.42
268.59	1273.9
272.687	2623.11
276.781	5402.01
280.874	9429.12
284.964	10559.2
289.053	7787.08
293.14	5053.64
297.225	3823.84
301.308	3691.63
305.389	4134.96
309.468	4231.78
313.545	3637.01
317.62	2766.58
321.693	2058.44
325.765	1721.63
329.834	1561.11
333.902	1508.88
337.967	1501.95
342.031	1499.25
346.093	1588.73
350.153	1539.36
354.21	1248.13
358.267	981.017
362.321	851.005
366.373	596.075
370.423	358.214
374.471	209.406
378.518	163.639
382.563	114.926
386.605	37.431
390.646	67.833
394.685	167.067
398.722	191.652
402.757	207.784
406.79	144.548
410.821	11.266
414.851	155.051
418.878	266.876
422.904	277.823
426.927	251.248
430.949	162.594
434.969	72.573
438.987	54.828
443.003	13.822
447.018	80.371
451.03	93.951
455.041	63.925
459.049	179.69
463.056	260.289
467.061	322.834
471.064	427.57
475.065	519.377
479.064	860.818
483.062	1048.64
487.057	1419.34
491.051	2094.85
495.043	2726.03
499.032	3356.49
503.02	3654.16
507.007	3465.14
510.991	3190.2
514.973	2799.18
518.954	2166
522.933	1761.27
526.91	1460.21
530.885	1190.82
534.858	1011.08
538.829	922.09
542.799	888.732
546.766	907.04
550.732	960.569
554.696	1009.54
558.658	980.001
562.618	915.89
566.576	677.676
570.533	547.035
574.488	347.052
578.44	211.757
582.391	79.967
586.341	39.194
590.288	26.837
594.233	5.029
598.177	6.703
602.119	40.047
606.059	37.088
609.997	21.36
613.933	48.394
617.868	4.222
621.801	65.739
625.731	23.048
629.66	25.715
633.588	34.024
637.513	30.383
641.437	4.318
645.358	1.8
649.278	18.121
653.196	0.533
657.113	6.611
661.027	45.41
664.94	25.919
668.851	49.145
672.76	13.11
676.667	43.821
680.572	62.295
684.476	42.54
688.378	78.569
692.278	97.394
696.176	104.05
700.072	134.544
703.967	94.868
707.86	136.027
711.751	129.178
715.64	175.478
719.527	187.963
723.413	187.665
727.297	152.397
731.179	153.015
735.059	200.512
738.937	241.418
742.814	261.173
746.689	227.419
750.562	292.322
754.433	309.99
758.303	366.809
762.17	446.032
766.036	407.89
769.901	517.557
773.763	623.782
777.624	744.417
781.482	943.09
785.339	1207.46
789.195	1535.34
793.048	1847.33
796.9	2208.97
800.75	2770.41
804.598	3533.8
808.445	4483.75
812.289	6006.56
816.132	7655.15
819.973	9037.47
823.813	9613.88
827.65	9638.82
831.486	10308.2
835.32	11598.8
839.152	14911.8
842.983	19385
846.812	27844.6
850.639	42544.1
854.464	57373.3
858.288	53030.9
862.11	32820
865.93	18419.4
869.748	11318.2
873.564	7572.27
877.379	5413.67
881.192	4155.4
885.004	3280.46
888.813	2637.81
892.621	2104.44
896.427	1691.32
900.232	1385.48
904.034	1141.98
907.835	958.804
911.634	819.015
915.432	752.656
919.227	696.861
923.021	693.434
926.813	761.498
930.604	684.005
934.393	690.947
938.18	637.269
941.965	673.905
945.749	703.82
949.53	857.065
953.311	1130.62
957.089	1481.48
960.866	1614.71
964.641	1391.23
968.414	844.008
972.185	491.031
975.955	269.293
979.723	228.775
983.49	172.476
987.254	57.39
991.017	18.491
994.779	50.176
998.538	44.97
1002.3	24.37
1006.05	25.977
1009.81	10.829
1013.56	42.954
1017.31	147.201
1021.06	295.962
1024.81	375.786
1028.55	361.145
1032.3	325.55
1036.04	273.135
1039.78	210.898
1043.52	156.206
1047.26	137.745
1050.99	56.543
1054.73	75.792
1058.46	49.628
1062.19	56.478
1065.92	91.89
1069.65	86.078
1073.37	79.818
1077.1	112.856
1080.82	156.418
1084.54	132.626
1088.26	151.124
1091.97	95.095
1095.69	107.754
1099.4	95.261
1103.12	57.823
1106.83	59.354
1110.54	39.402
1114.24	69.544
1117.95	99.042
1121.65	77.213
1125.35	251.904
1129.06	101.365
1132.75	63.33
1136.45	90.882
1140.15	53.24
1143.84	23.837
1147.53	36.855
1151.22	1.641
1154.91	13.652
1158.6	37.437
1162.28	52.097
1165.97	3.056
1169.65	30.699
1173.33	20.78
1177.01	15.42
1180.69	15.297
1184.36	31.656
1188.04	12.979
1191.71	62.968
1195.38	36.331
1199.05	40.883
1202.71	51.387
1206.38	59.339
1210.04	62.26
1213.71	55.192
1217.37	40.688
1221.03	50.474
1224.68	39.715
1228.34	33.961
1231.99	72.696
1235.65	90.235
1239.3	87.588
1242.95	72.76
1246.59	116.736
1250.24	78.515
1253.88	95.092
1257.53	78.476
1261.17	76.667
1264.81	107.658
1268.45	113.431
1272.08	143.987
1275.72	131.357
1279.35	154.497
1282.98	101.442
1286.61	134.206
1290.24	83.781
1293.87	101.479
1297.49	121.922
1301.11	57.61
1304.73	136.018
1308.36	134.941
1311.97	34.594
1315.59	96.424
1319.2	90.946
1322.82	79.646
1326.43	85.826
1330.04	34.613
1333.65	37.789
1337.26	36.387
1340.86	50.276
1344.47	45.277
1348.07	92.909
1351.67	70.793
1355.27	45.603
1358.87	62.779
1362.46	61.223
1366.06	57.354
1369.65	98.518
1373.24	88.055
1376.83	103.791
1380.42	75.396
1384	108.34
1387.59	83.999
1391.17	78.64
1394.75	101.734
1398.33	89.105
1401.91	106.347
1405.49	102.011
1409.06	82.317
1412.64	109.765
1416.21	74.186
1419.78	85.719
1423.35	79.542
1426.91	78.763
1430.48	37.025
1434.05	41
1437.61	83.349
1441.17	65.445
1444.73	116.935
1448.29	57.509
1451.84	83.745
1455.4	97.91
1458.95	104.043
1462.5	98.151
1466.05	11.249
1469.6	39.554
1473.15	41.09
1476.69	79.869
1480.24	39.781
1483.78	25.91
1487.32	29.042
1490.86	89.503
1494.39	51.241
1497.93	20.968
1501.46	17.817
1505	15.056
1508.53	49.621
1512.06	43.142
1515.59	29.153
1519.11	13.46
1522.64	0
