Measurement: Raman, 514 nm, depolarized, Raman Data Processed
Mineral: Olivenite
Rruff sample: R040181
Ideal chemistry: Cu^2+^_2_As^5+^O_4_(OH)
Locality: Majuba Hill, Pershing County, Nevada, USA
Source: University of Arizona Mineral Museum
Description: Greenish blue prismatic, untwinned. Structure for this sample reported in Li et al (2008).
Measured chemistry: (Cu_0.98_[box]_0.02_)_2_(As_0.90_P_0.10_O_4_)(OH)_0.92_
Pin_id: S00117
Orientation: Laser parallel to (-1 0 -1). Fiducial mark perpendicular to laser is parallel to -b [0 -1 0]
Raman shift (cm-1)	intensity
52.866	0
57.065	57.363
61.262	71.463
65.458	41.36
69.651	73.114
73.842	550.223
78.031	1513.52
82.218	2169.94
86.404	2616.33
90.587	2878.99
94.768	2840.9
98.947	2272.99
103.124	2253.55
107.3	2928.03
111.473	3606.84
115.644	4108.61
119.813	3673.04
123.981	2555.92
128.146	1915.07
132.309	1624.31
136.47	1653.46
140.63	2086.24
144.787	3532.88
148.942	6081.02
153.096	8875.92
157.247	9884.5
161.396	7967.85
165.544	4520.02
169.689	2934.07
173.833	2556.01
177.974	2239.86
182.114	1736.64
186.251	1200.33
190.387	794.903
194.52	621.339
198.652	896.61
202.782	1460.68
206.909	2573.53
211.035	4230.1
215.159	6063.38
219.281	6969.25
223.4	6377.49
227.518	4766.26
231.634	3394.68
235.748	2496.61
239.86	1833.05
243.97	1092.37
248.079	653.999
252.185	432.345
256.289	376.708
260.391	442.994
264.492	696.133
268.59	1293.13
272.687	2529.96
276.781	4893.62
280.874	7454.04
284.964	8023.22
289.053	6212.15
293.14	4263.51
297.225	3290.06
301.308	3126.96
305.389	3245.58
309.468	3243
313.545	2891.25
317.62	2311.26
321.693	1843.69
325.765	1509.53
329.834	1421.74
333.902	1523.31
337.967	1604.19
342.031	1702.35
346.093	1741.8
350.153	1478.5
354.21	1070.44
358.267	689.598
362.321	531.966
366.373	413.525
370.423	283.263
374.471	191.165
378.518	167.218
382.563	129.434
386.605	24.976
390.646	110.171
394.685	209.306
398.722	191.752
402.757	156.573
406.79	43.675
410.821	167.286
414.851	416.428
418.878	612.736
422.904	706.191
426.927	605.583
430.949	401.077
434.969	240.232
438.987	190.839
443.003	103.949
447.018	99.065
451.03	69.157
455.041	72.638
459.049	67.93
463.056	66.118
467.061	68.768
471.064	141.155
475.065	142.43
479.064	299.176
483.062	379.245
487.057	613.877
491.051	852.225
495.043	1205.84
499.032	1484.14
503.02	1736.39
507.007	1969.52
510.991	2176.2
514.973	2271.6
518.954	2284.82
522.933	2204.85
526.91	2106.69
530.885	1848.34
534.858	1601.79
538.829	1301.04
542.799	1075.07
546.766	1065.9
550.732	1008.94
554.696	975.048
558.658	894.308
562.618	719.936
566.576	544.23
570.533	360.766
574.488	234.092
578.44	117.205
582.391	38.099
586.341	19.281
590.288	11.914
594.233	14.376
598.177	10.798
602.119	32.519
606.059	6.484
609.997	21.06
613.933	26.214
617.868	35.916
621.801	36.208
625.731	27.174
629.66	11.551
633.588	14.673
637.513	4.983
641.437	22.044
645.358	18.216
649.278	26.067
653.196	64.636
657.113	51.97
661.027	74.075
664.94	60.955
668.851	74.617
672.76	94.073
676.667	90.329
680.572	82.39
684.476	108.259
688.378	93.948
692.278	116.473
696.176	108.844
700.072	150.068
703.967	147.135
707.86	165.102
711.751	156.152
715.64	197.372
719.527	236.308
723.413	250.205
727.297	289.543
731.179	257.753
735.059	273.842
738.937	258.178
742.814	206.307
746.689	212.125
750.562	247.813
754.433	300.181
758.303	253.849
762.17	293.817
766.036	278.204
769.901	354.886
773.763	411.317
777.624	455.596
781.482	617.888
785.339	793.823
789.195	1000.34
793.048	1215.4
796.9	1341.22
800.75	1502.62
804.598	1649.59
808.445	1808.62
812.289	2184.13
816.132	2615.86
819.973	3283.49
823.813	3935.54
827.65	4518.79
831.486	5576.15
835.32	7506.63
839.152	10655.3
842.983	15144.5
846.812	23588.6
850.639	38548.6
854.464	54296.7
858.288	51509.4
862.11	32166.7
865.93	17892.6
869.748	10676.5
873.564	7049.55
877.379	4970.84
881.192	3804.35
885.004	2932.05
888.813	2438.94
892.621	1924.06
896.427	1598.4
900.232	1311.05
904.034	1047.06
907.835	869.393
911.634	721.071
915.432	631.171
919.227	504.642
923.021	465.454
926.813	487.605
930.604	375.117
934.393	360.975
938.18	354.152
941.965	337.369
945.749	347.258
949.53	443.188
953.311	582.348
957.089	752.732
960.866	802.309
964.641	606.064
968.414	337.997
972.185	252.1
975.955	145.367
979.723	112.795
983.49	82.379
987.254	7.884
991.017	16.998
994.779	20.955
998.538	27.819
1002.3	35.009
1006.05	3.375
1009.81	5.055
1013.56	21.075
1017.31	5.856
1021.06	20.954
1024.81	37.141
1028.55	37.576
1032.3	50.901
1036.04	78.398
1039.78	87.094
1043.52	79.828
1047.26	30.253
1050.99	63.631
1054.73	67.245
1058.46	35.636
1062.19	70.895
1065.92	77.909
1069.65	67.609
1073.37	74.032
1077.1	125.637
1080.82	136.165
1084.54	125.669
1088.26	92.409
1091.97	93.696
1095.69	92.509
1099.4	39.298
1103.12	40.09
1106.83	84.418
1110.54	96.562
1114.24	72.079
1117.95	73.886
1121.65	64.739
1125.35	142.407
1129.06	77.217
1132.75	57.677
1136.45	70.216
1140.15	58.494
1143.84	39.453
1147.53	47.584
1151.22	35.457
1154.91	13.881
1158.6	27.405
1162.28	31.266
1165.97	25.869
1169.65	28.478
1173.33	40.522
1177.01	13.836
1180.69	4.702
1184.36	16.952
1188.04	2.683
1191.71	24.983
1195.38	13.285
1199.05	10.183
1202.71	28.468
1206.38	7.587
1210.04	8.478
1213.71	44.248
1217.37	45.827
1221.03	42.261
1224.68	22.549
1228.34	59.671
1231.99	44.637
1235.65	42.45
1239.3	33.091
1242.95	29.559
1246.59	31.862
1250.24	56.002
1253.88	57.988
1257.53	47.822
1261.17	66.502
1264.81	79.025
1268.45	85.39
1272.08	60.599
1275.72	86.65
1279.35	88.546
1282.98	81.295
1286.61	86.9
1290.24	60.349
1293.87	90.691
1297.49	84.344
1301.11	84.04
1304.73	84.014
1308.36	84.984
1311.97	89.852
1315.59	80.883
1319.2	88.232
1322.82	70.76
1326.43	68.223
1330.04	67.291
1333.65	72.751
1337.26	69.395
1340.86	67.414
1344.47	75.635
1348.07	90.879
1351.67	63.882
1355.27	95.194
1358.87	77.961
1362.46	76.399
1366.06	103.495
1369.65	82.459
1373.24	80.615
1376.83	91.964
1380.42	86.047
1384	63.095
1387.59	71.42
1391.17	69.448
1394.75	87.119
1398.33	87.365
1401.91	71.284
1405.49	110.875
1409.06	91.025
1412.64	89.42
1416.21	74.497
1419.78	86.466
1423.35	59.051
1426.91	50.719
1430.48	74.63
1434.05	46.595
1437.61	75.695
1441.17	55.853
1444.73	41.029
1448.29	78.146
1451.84	63.245
1455.4	56.359
1458.95	46.528
1462.5	35.72
1466.05	47.931
1469.6	31.247
1473.15	36.719
1476.69	14.333
1480.24	21.051
1483.78	27.861
1487.32	20.771
1490.86	20.824
1494.39	29.501
1497.93	14.518
1501.46	14.237
1505	27.214
1508.53	9.617
1512.06	26.538
1515.59	15.171
1519.11	16.301
1522.64	5.078
