Measurement: Raman, 514 nm, depolarized, Raman Data Processed
Mineral: Olivenite
Rruff sample: R040181
Ideal chemistry: Cu^2+^_2_As^5+^O_4_(OH)
Locality: Majuba Hill, Pershing County, Nevada, USA
Source: University of Arizona Mineral Museum
Description: Greenish blue prismatic, untwinned. Structure for this sample reported in Li et al (2008).
Measured chemistry: (Cu_0.98_[box]_0.02_)_2_(As_0.90_P_0.10_O_4_)(OH)_0.92_
Pin_id: S00388
Orientation: Laser parallel to -a* (-1 0 0). Fiducial mark perpendicular to laser is parallel to b [0 1 0]
Raman shift (cm-1)	intensity
52.866	0
57.065	263.451
61.262	666.113
65.458	41.457
69.651	41.412
73.842	639.699
78.031	1899.38
82.218	3447.85
86.404	4058.51
90.587	4476.73
94.768	4247.31
98.947	3625.18
103.124	3416.02
107.3	3613.06
111.473	3168.82
115.644	3319.99
119.813	3551.5
123.981	3079.26
128.146	2919.04
132.309	3091.61
136.47	3352.74
140.63	4388.42
144.787	6381.22
148.942	9533.46
153.096	11485.8
157.247	12069.4
161.396	7879.28
165.544	4265.46
169.689	2720.98
173.833	2049.9
177.974	1729.77
182.114	1653.09
186.251	1324.53
190.387	1046.42
194.52	829.4
198.652	850.631
202.782	1038.46
206.909	1600.48
211.035	2500.45
215.159	3958.33
219.281	5119.56
223.4	4370.23
227.518	3093.01
231.634	2254.51
235.748	1750.94
239.86	1367.49
243.97	768.722
248.079	486.682
252.185	258.058
256.289	283.717
260.391	208.558
264.492	197.494
268.59	335.483
272.687	668.46
276.781	1528.49
280.874	2778.43
284.964	3204.28
289.053	2356.51
293.14	1489.4
297.225	1216.53
301.308	1273.38
305.389	1495.24
309.468	1810.91
313.545	1587.93
317.62	1412.2
321.693	1262.86
325.765	1177.3
329.834	1215.21
333.902	1508.6
337.967	1737.44
342.031	2006.78
346.093	2144.54
350.153	1785.74
354.21	1361.37
358.267	839.404
362.321	758.705
366.373	547.229
370.423	381.947
374.471	134.973
378.518	169.016
382.563	103.213
386.605	114.642
390.646	97.778
394.685	56.545
398.722	70.994
402.757	52.198
406.79	113.767
410.821	423.913
414.851	775.215
418.878	1008.76
422.904	1257.98
426.927	1141.09
430.949	815.613
434.969	518.395
438.987	309.04
443.003	169.28
447.018	63.771
451.03	23.006
455.041	126.442
459.049	128.304
463.056	125.361
467.061	47.399
471.064	22.896
475.065	165.011
479.064	15.831
483.062	18.729
487.057	88.049
491.051	162.166
495.043	297.334
499.032	387.91
503.02	430.695
507.007	374.292
510.991	350.756
514.973	362.806
518.954	339.661
522.933	322.856
526.91	300.202
530.885	251.613
534.858	234.239
538.829	377.115
542.799	373.489
546.766	573.153
550.732	652.493
554.696	775.442
558.658	832.853
562.618	898.429
566.576	755.798
570.533	746.013
574.488	519.787
578.44	224.483
582.391	129.125
586.341	74.529
590.288	180.021
594.233	104.861
598.177	155.012
602.119	42.207
606.059	78.551
609.997	79.136
613.933	10.672
617.868	6.727
621.801	14.689
625.731	118.513
629.66	25.056
633.588	0.018
637.513	3.275
641.437	46.085
645.358	13.414
649.278	41.324
653.196	70.341
657.113	55.391
661.027	59.972
664.94	77.521
668.851	167.796
672.76	22.823
676.667	129.658
680.572	119.844
684.476	140.445
688.378	99.436
692.278	195.7
696.176	101.494
700.072	226.719
703.967	83.377
707.86	162.476
711.751	51.033
715.64	337.081
719.527	346.632
723.413	180.692
727.297	262.253
731.179	341.323
735.059	192.356
738.937	201.075
742.814	189.538
746.689	129.599
750.562	254.46
754.433	106.384
758.303	148.676
762.17	83.838
766.036	153.371
769.901	548.163
773.763	329.028
777.624	423.227
781.482	580.229
785.339	706.463
789.195	1105.82
793.048	1349.62
796.9	1804.44
800.75	2337.49
804.598	3051.1
808.445	4117.23
812.289	5823.08
816.132	7812.91
819.973	9281.65
823.813	10140
827.65	10023.3
831.486	10041.7
835.32	10875.5
839.152	13007.9
842.983	16067.9
846.812	21960.3
850.639	33426.3
854.464	46450.5
858.288	45701.6
862.11	30159.4
865.93	17369.4
869.748	10637.4
873.564	7004.46
877.379	4672.79
881.192	3607.38
885.004	2583.64
888.813	2208.25
892.621	1615.61
896.427	1135.56
900.232	1048.73
904.034	907.516
907.835	606.589
911.634	577.078
915.432	399.471
919.227	408.396
923.021	401.378
926.813	571.659
930.604	447.211
934.393	290.926
938.18	332.871
941.965	371.178
945.749	322.73
949.53	508.283
953.311	857.303
957.089	1217.66
960.866	1387.96
964.641	1213.89
968.414	796.562
972.185	386.32
975.955	400.262
979.723	273.166
983.49	490.539
987.254	108.844
991.017	45.646
994.779	23.514
998.538	162.473
1002.3	60.51
1006.05	158.512
1009.81	157.094
1013.56	218.832
1017.31	370.752
1021.06	535.473
1024.81	668.133
1028.55	653.25
1032.3	533.877
1036.04	387.738
1039.78	471.041
1043.52	513.514
1047.26	386.699
1050.99	112.246
1054.73	155.805
1058.46	219.559
1062.19	407.244
1065.92	316.484
1069.65	206.404
1073.37	357.391
1077.1	362.848
1080.82	432.24
1084.54	460.568
1088.26	204.354
1091.97	170.58
1095.69	343.234
1099.4	50.859
1103.12	272.219
1106.83	46.945
1110.54	11.221
1114.24	64.066
1117.95	84.654
1121.65	236.252
1125.35	534.717
1129.06	41.711
1132.75	20.863
1136.45	244.377
1140.15	104.789
1143.84	64.092
1147.53	58.889
1151.22	210.736
1154.91	68.518
1158.6	18.316
1162.28	79.111
1165.97	36.693
1169.65	14.857
1173.33	55.27
1177.01	105.469
1180.69	75.582
1184.36	303.23
1188.04	271
1191.71	354.674
1195.38	271.268
1199.05	270.709
1202.71	538.5
1206.38	442.254
1210.04	309.342
1213.71	445.754
1217.37	379.926
1221.03	375.805
1224.68	449.43
1228.34	209.25
1231.99	345.295
1235.65	432.109
1239.3	345.268
1242.95	379.58
1246.59	507.207
1250.24	533.236
1253.88	428.205
1257.53	152.941
1261.17	226.635
1264.81	429.268
1268.45	410.002
1272.08	358.988
1275.72	348.988
1279.35	366.963
1282.98	252.361
1286.61	327.482
1290.24	283.76
1293.87	230.656
1297.49	44.729
1301.11	90.654
1304.73	178.16
1308.36	201.795
1311.97	15.807
1315.59	407.633
1319.2	145.906
1322.82	71.514
1326.43	251.51
1330.04	65.98
1333.65	250.656
1337.26	71.721
1340.86	316.33
1344.47	255.777
1348.07	425.617
1351.67	400.42
1355.27	576.285
1358.87	470.41
1362.46	352.404
1366.06	505.918
1369.65	421.85
1373.24	496.959
1376.83	431.062
1380.42	548.873
1384	696.346
1387.59	336.957
1391.17	338.17
1394.75	400.686
1398.33	221.461
1401.91	274.283
1405.49	189.48
1409.06	413.152
1412.64	270.965
1416.21	341.334
1419.78	470.096
1423.35	120.66
1426.91	232.652
1430.48	346.213
1434.05	335.918
1437.61	506.158
1441.17	509.439
1444.73	578.588
1448.29	323.592
1451.84	668.109
1455.4	642.207
1458.95	509.441
1462.5	206.295
1466.05	219.896
1469.6	183.191
1473.15	226.295
1476.69	38.324
1480.24	137.807
1483.78	275.637
1487.32	7.389
1490.86	550.594
