Measurement: Raman, 514 nm, depolarized, Raman Data Processed
Mineral: Olivenite
Rruff sample: R040181
Ideal chemistry: Cu^2+^_2_As^5+^O_4_(OH)
Locality: Majuba Hill, Pershing County, Nevada, USA
Source: University of Arizona Mineral Museum
Description: Greenish blue prismatic, untwinned. Structure for this sample reported in Li et al (2008).
Measured chemistry: (Cu_0.98_[box]_0.02_)_2_(As_0.90_P_0.10_O_4_)(OH)_0.92_
Pin_id: S00027
Orientation: Laser parallel to -c* (0 0 -1). Fiducial mark perpendicular to laser is parallel to a [1 0 0]
Raman shift (cm-1)	intensity
63.589	0
68.563	336.406
73.534	19.8031
78.502	27.1373
83.467	1294.22
88.429	3884.79
93.389	4983.97
98.346	4427.45
103.3	5004.05
108.251	6212.33
113.2	6299.06
118.145	5490.46
123.088	4803.12
128.028	4210.7
132.965	4419.48
137.9	4924
142.832	7712.47
147.761	15716.9
152.687	27787.4
157.61	34419.9
162.531	27715.8
167.448	14711.9
172.363	10789.3
177.276	9998.92
182.185	8004.66
187.092	5950.48
191.996	4245.35
196.897	3474.22
201.795	5246.01
206.691	9121.63
211.584	16663.4
216.474	25391.5
221.361	27912.1
226.245	21487.2
231.127	13389.1
236.006	8870.9
240.882	5625.36
245.756	3214.1
250.626	1846.32
255.494	1545.02
260.36	1957.32
265.222	3207
270.082	6683.43
274.939	15026.7
279.793	28858.5
284.644	36522.7
289.493	28656
294.339	16134.5
299.182	11518
304.022	12333.7
308.86	14270.3
313.695	13867
318.527	10335.8
323.357	7036.52
328.183	5371.31
333.007	4965.66
337.829	5064.06
342.647	5415.8
347.463	5710.81
352.276	4411.84
357.086	2618.73
361.894	1622.43
366.699	1286.23
371.501	1110.91
376.3	562.993
381.097	420.158
385.891	110.19
390.682	386.278
395.47	642.188
400.256	625.439
405.039	381.416
409.82	104.394
414.597	1117.97
419.372	2178.54
424.144	2582.8
428.914	2036.25
433.681	1226.22
438.445	680.835
443.206	414.385
447.965	269.545
452.721	192.371
457.474	177.535
462.225	225.899
466.972	329.519
471.718	784.173
476.46	1286.62
481.2	2129.01
485.937	3401.94
490.671	5450.44
495.403	7868.23
500.132	9314.91
504.858	8520.23
509.582	6911.45
514.303	6341.67
519.021	7065.54
523.736	7785.49
528.449	7890.79
533.159	6434.18
537.867	4678.67
542.572	3570.14
547.274	3123.45
551.973	3091.44
556.67	3004.72
561.364	2663.95
566.055	1943.12
570.744	1232.18
575.43	719.112
580.114	353.889
584.794	211.478
589.472	76.6406
594.148	85.167
598.82	81.5637
603.49	70.6934
608.158	66.7083
612.823	27.636
617.485	59.321
622.144	75.8914
626.801	141.966
631.455	8.59717
636.106	36.219
640.755	21.1377
645.401	16.0762
650.045	90.2666
654.685	64.9722
659.323	99.3269
663.959	195.516
668.592	114.631
673.222	269.946
677.85	178.519
682.475	168.147
687.097	280.756
691.717	266.364
696.334	226.182
700.948	333.183
705.56	372.4
710.169	618.869
714.775	828.652
719.379	1041.92
723.98	1241.25
728.579	1243.72
733.175	1118.66
737.768	883.843
742.359	693.797
746.947	572.618
751.532	504.411
756.115	436.736
760.695	512.828
765.273	530.991
769.847	721.88
774.42	871.649
778.989	1098.42
783.557	1537.94
788.121	2314.68
792.683	3139.71
797.242	4035.78
801.799	4529.15
806.353	4827.56
810.904	5469.21
815.453	6597.37
819.999	8330.53
824.543	10436.3
829.084	15053.7
833.622	23766.7
838.158	38806.4
842.691	59716.7
847.221	98775.8
851.749	173081
856.275	211680
860.798	135598
865.318	61049.6
869.835	30665.4
874.35	18362.8
878.863	11995
883.373	8645.81
887.88	6373.8
892.384	4942.48
896.886	3653.43
901.386	2723.53
905.883	2029.46
910.377	1476.95
914.869	1127.94
919.358	1095.14
923.844	924
928.328	918.03
932.81	912.098
937.289	769.078
941.765	887.956
946.239	1137.77
950.71	1447.21
955.178	2225.94
959.644	2210.26
964.108	1658.33
968.569	805.156
973.027	362.715
977.482	157.001
981.936	31.968
986.386	130.477
990.834	177.693
995.28	195.137
999.723	48.7588
1004.16	48.8115
1008.6	73.7124
1013.04	48.9707
1017.47	98.6074
1021.9	79.6416
1026.33	6.19385
1030.75	133.291
1035.17	122.022
1039.59	113.807
1044.01	141.443
1048.43	16.8459
1052.84	184.979
1057.25	211.198
1061.65	205.2
1066.06	252.242
1070.46	284.872
1074.86	358.252
1079.26	389.571
1083.65	406.675
1088.05	354.665
1092.43	294.673
1096.82	242.438
1101.21	313.822
1105.59	318.397
1109.97	310.862
1114.34	309.154
1118.72	365.642
1123.09	296.743
1127.46	242.349
1131.83	341.125
1136.19	241.853
1140.55	191.117
1144.91	307.816
1149.27	146.134
1153.62	107.154
1157.97	29.1455
1162.32	0.898193
1166.67	62.3337
1171.01	45.8909
1175.36	84.6697
1179.69	82.533
1184.03	11.6951
1188.36	42.2188
1192.7	64.3608
1197.03	66.4326
1201.35	59.8696
1205.67	118.496
1210	63.3384
1214.32	59.49
1218.63	158.9
1222.95	155.708
1227.26	94.8294
1231.57	89.3066
1235.87	108.132
1240.18	179.045
1244.48	131.929
1248.78	208.955
1253.07	92.6299
1257.37	132.146
1261.66	200.394
1265.95	253.236
1270.24	249.629
1274.52	273.517
1278.8	232.917
1283.08	293.623
1287.36	223.992
1291.63	203.494
1295.9	144.062
1300.17	212.402
1304.44	261.191
1308.7	210.643
1312.96	118.165
1317.22	48.4993
1321.48	137.699
1325.74	157.929
1329.99	169.958
1334.24	101.999
1338.48	185.766
1342.73	174.133
1346.97	169.551
1351.21	180.186
1355.45	207.004
1359.68	292.893
1363.91	216.113
1368.14	267.594
1372.37	162.195
1376.6	128.702
1380.82	176.26
1385.04	183.637
1389.26	206.27
1393.47	223.689
1397.68	192.284
1401.89	120.686
1406.1	180.607
1410.31	109.444
1414.51	180.844
1418.71	166.292
1422.91	231.215
1427.1	210.545
1431.3	181.973
1435.49	217.694
1439.68	288.468
1443.86	310.563
1448.05	302.043
1452.23	205.368
1456.4	129.674
1460.58	186.563
1464.75	165.632
1468.92	177.756
1473.09	54.0784
1477.26	94.5005
1481.42	114.16
1485.59	116.048
1489.74	35.8672
1493.9	73.4138
1498.06	47.8657
1502.21	26.4578
1506.36	53.1355
1510.5	76.0034
1514.65	147.222
1518.79	105.523
1522.93	17.7471
1527.07	24.3301
1531.2	3.23657
1535.33	51.9216
1539.46	53.6135
1543.59	40.6943
1547.72	52.1069
1551.84	184.602
1555.96	120.906
1560.08	100.767
1564.19	79.5256
1568.31	48.9614
1572.42	17.7649
1576.53	50.019
