Measurement: Raman, 514 nm, ccw, Raman Data Processed
Mineral: Olivenite
Rruff sample: R040181
Ideal chemistry: Cu^2+^_2_As^5+^O_4_(OH)
Locality: Majuba Hill, Pershing County, Nevada, USA
Source: University of Arizona Mineral Museum
Description: Greenish blue prismatic, untwinned. Structure for this sample reported in Li et al (2008).
Measured chemistry: (Cu_0.98_[box]_0.02_)_2_(As_0.90_P_0.10_O_4_)(OH)_0.92_
Pin_id: S00027
Orientation: Laser parallel to -c* (0 0 -1). Fiducial mark perpendicular to laser is parallel to a [1 0 0]
Raman shift (cm-1)	intensity
63.589	0
68.563	244.925
73.534	19.5785
78.502	6.94934
83.467	722.761
88.429	2114.99
93.389	3023.76
98.346	3060.11
103.3	4126.52
108.251	5481.2
113.2	6046.95
118.145	5690.29
123.088	4915.4
128.028	3846.28
132.965	3811.49
137.9	3611.77
142.832	4203.99
147.761	7331.65
152.687	12803.2
157.61	16787.1
162.531	14805.2
167.448	10224.2
172.363	10466.6
177.276	11153
182.185	8617.16
187.092	6337.2
191.996	4425.04
196.897	3897.61
201.795	5545.87
206.691	9724.6
211.584	16497.2
216.474	23697.7
221.361	25548.3
226.245	19269.9
231.127	12586
236.006	8361.97
240.882	5346.06
245.756	2919.62
250.626	1658.39
255.494	1508.4
260.36	1949.96
265.222	3125.81
270.082	6106.47
274.939	13910.6
279.793	25439.5
284.644	32605
289.493	25630.8
294.339	15331.1
299.182	11484.8
304.022	12123.8
308.86	13359.9
313.695	12498
318.527	9033.38
323.357	6282.95
328.183	4905.7
333.007	4583.68
337.829	4239.28
342.647	4347.86
347.463	4155.15
352.276	3236.88
357.086	2270.98
361.894	1416.32
366.699	1080.12
371.501	848.434
376.3	383.635
381.097	306.446
385.891	139.703
390.682	285.84
395.47	476.856
400.256	479.897
405.039	327.167
409.82	112.056
414.597	361
419.372	802.77
424.144	854.192
428.914	512.201
433.681	267.732
438.445	322.612
443.206	347.108
447.965	364.047
452.721	533.781
457.474	492.884
462.225	678.499
466.972	751.693
471.718	1180.71
476.46	1627.69
481.2	2503.91
485.937	3955.34
490.671	6158.81
495.403	8494.09
500.132	10094.4
504.858	9444.01
509.582	8104.93
514.303	8039.55
519.021	9167.18
523.736	10752.9
528.449	11017.1
533.159	9045.43
537.867	6428.81
542.572	4958.62
547.274	4222.57
551.973	3803.53
556.67	3233.93
561.364	2515.92
566.055	1717.13
570.744	1111.54
575.43	632.128
580.114	367.875
584.794	202.765
589.472	116.754
594.148	24.3516
598.82	71.9429
603.49	16.4189
608.158	40.9863
612.823	34.6682
617.485	42.4729
622.144	63.0662
626.801	10.6619
631.455	25.8901
636.106	105.468
640.755	7.50024
645.401	40.0889
650.045	70.3386
654.685	51.8003
659.323	68.875
663.959	129.023
668.592	35.2983
673.222	81.8923
677.85	145.8
682.475	59.519
687.097	86.2378
691.717	148.28
696.334	74.9153
700.948	99.9299
705.56	195.352
710.169	357.207
714.775	522.523
719.379	532.361
723.98	589.896
728.579	603.102
733.175	496.635
737.768	542.384
742.359	426.024
746.947	389.96
751.532	379.864
756.115	325.747
760.695	462.394
765.273	404.192
769.847	655.434
774.42	762.214
778.989	990.554
783.557	1320.7
788.121	1842.4
792.683	2468.66
797.242	3211.84
801.799	3552.32
806.353	4000.25
810.904	4514.29
815.453	5264.8
819.999	6344.61
824.543	8066.91
829.084	12114.6
833.622	19486.1
838.158	31895.1
842.691	48832.6
847.221	78482.6
851.749	130532
856.275	153748
860.798	98347.3
865.318	46268.8
869.835	24003.1
874.35	14296.2
878.863	9628.96
883.373	7029.36
887.88	5217.25
892.384	4161.99
896.886	3212.8
901.386	2362.95
905.883	1626.19
910.377	1288.15
914.869	942.871
919.358	873.81
923.844	863.054
928.328	852.805
932.81	794.977
937.289	727.904
941.765	808.542
946.239	985.926
950.71	1354.96
955.178	1674.63
959.644	1834.93
964.108	1379.81
968.569	716.263
973.027	422.357
977.482	177.81
981.936	44.9238
986.386	19.449
990.834	82.4387
995.28	55.4431
999.723	42.5723
1004.16	17.8999
1008.6	17.55
1013.04	75.4085
1017.47	148.502
1021.9	40.155
1026.33	81.1636
1030.75	24.3997
1035.17	19.9939
1039.59	108.156
1044.01	107.852
1048.43	89.1145
1052.84	58.1111
1057.25	47.7415
1061.65	119.71
1066.06	149.136
1070.46	57.2019
1074.86	157.384
1079.26	175.023
1083.65	180.246
1088.05	180.062
1092.43	210.042
1096.82	158.565
1101.21	178.885
1105.59	197.784
1109.97	126.04
1114.34	165.849
1118.72	231.435
1123.09	190.311
1127.46	172.258
1131.83	167.42
1136.19	203.05
1140.55	137.268
1144.91	143.218
1149.27	149.743
1153.62	102.534
1157.97	20.6152
1162.32	32.0125
1166.67	61.635
1171.01	39.946
1175.36	30.8867
1179.69	78.6614
1184.03	50.5886
1188.36	19.2021
1192.7	61.918
1197.03	44.4477
1201.35	69.4185
1205.67	97.8296
1210	85.6338
1214.32	77.9146
1218.63	94.6736
1222.95	105.949
1227.26	148.76
1231.57	143.127
1235.87	90.0544
1240.18	86.4888
1244.48	138.202
1248.78	112.039
1253.07	131.995
1257.37	136.855
1261.66	177.128
1265.95	162.577
1270.24	184.434
1274.52	160.039
1278.8	193.352
1283.08	176.59
1287.36	206.701
1291.63	161.828
1295.9	153.569
1300.17	156.33
1304.44	186.348
1308.7	131.56
1312.96	109.426
1317.22	122.177
1321.48	134.462
1325.74	99.4944
1329.99	151.733
1334.24	128.36
1338.48	146.86
1342.73	159.493
1346.97	127.627
1351.21	154.045
1355.45	103.945
1359.68	158.508
1363.91	172.256
1368.14	118.101
1372.37	111.246
1376.6	111.626
1380.82	99.9253
1385.04	140.74
1389.26	151.861
1393.47	178.734
1397.68	147.888
1401.89	98.2927
1406.1	145.159
1410.31	87.2288
1414.51	142.332
1418.71	73.4356
1422.91	182.297
1427.1	189.99
1431.3	234.916
1435.49	234.859
1439.68	303.952
1443.86	259.721
1448.05	255.85
1452.23	225.891
1456.4	175.772
1460.58	194.077
1464.75	100.565
1468.92	167.163
1473.09	131.831
1477.26	81.7107
1481.42	137.801
1485.59	146.085
1489.74	22.5564
1493.9	6.86548
1498.06	29.7791
1502.21	8.64111
1506.36	4.6626
1510.5	22.8921
1514.65	95.3169
1518.79	72.9875
1522.93	69.9661
1527.07	40.2673
1531.2	50.926
1535.33	34.9605
1539.46	30.7459
1543.59	33.1853
1547.72	75.5679
1551.84	187.449
1555.96	52.4265
1560.08	84.2246
1564.19	42.333
1568.31	53.1936
1572.42	54.3582
1576.53	60.2893
