Measurement: Raman, 514 nm, depolarized, Raman Data Processed
Mineral: Olmiite
Rruff sample: R050177
Ideal chemistry: CaMn^2+^SiO_3_(OH)_2_
Locality: N'Chwaning II mine, Kuruman, South Africa
Source: Marcus Origlieri
Description: Gray etched crystals
Measured chemistry: Ca_1.00_(Mn_0.98_Ca_0.02_)(Si_1.00_O_3_OH)(OH)
Raman shift (cm-1)	intensity
56.365	0
60.563	29.018
64.758	21.84
68.952	32.266
73.144	182.219
77.333	667.517
81.521	710.461
85.706	2278.79
89.89	4154.94
94.071	3362.84
98.251	1356.67
102.428	1362.63
106.604	1953.9
110.777	2480.38
114.949	3726.6
119.119	6202.11
123.286	3505.29
127.452	2323.51
131.615	2855.67
135.777	1348.68
139.937	677.448
144.094	643.818
148.25	786.286
152.403	800.691
156.555	907.763
160.705	1435.75
164.853	1647.19
168.998	878.073
173.142	511.105
177.284	574.301
181.424	330.019
185.562	40.648
189.698	103.022
193.831	259.516
197.963	851.098
202.093	1712.72
206.221	2449.34
210.347	2599.91
214.472	2723.37
218.594	1886.68
222.714	1159.27
226.832	1024.87
230.948	1004.88
235.063	986.974
239.175	1792.91
243.286	3645.38
247.394	4997.27
251.501	3177.49
255.605	1053.98
259.708	182.656
263.808	96.512
267.907	13.595
272.004	117.322
276.099	176.208
280.192	203.06
284.283	481.873
288.372	494.615
292.459	455.183
296.544	432.445
300.627	227.214
304.709	29.169
308.788	91.967
312.865	94.865
316.941	595.417
321.015	1442.61
325.086	2632.4
329.156	3757.63
333.224	4555.32
337.29	4167.38
341.354	2849.79
345.416	1793.51
349.476	1047.44
353.534	840.629
357.591	991.074
361.645	1638.75
365.698	2935.64
369.748	5296.73
373.797	8392.99
377.844	9047.4
381.889	6685.95
385.932	4312.63
389.973	3560.6
394.012	4097.85
398.049	4714.81
402.084	4422.65
406.118	3391.89
410.15	2563.91
414.179	2351.73
418.207	2342.45
422.233	2133.97
426.257	1830.47
430.279	1741.88
434.299	1979.1
438.318	1795.36
442.334	1205.29
446.349	663.435
450.361	384.517
454.372	196.646
458.381	137.007
462.388	227.483
466.394	516.952
470.397	997.206
474.398	1754.71
478.398	2226.36
482.396	2288.8
486.391	2556.14
490.385	2353.17
494.377	2040.47
498.368	1819.65
502.356	2008.11
506.342	2995.18
510.327	4422.85
514.31	5125.11
518.291	4114.95
522.27	3113.37
526.247	2615.35
530.222	2296.9
534.196	1808.01
538.167	1167.66
542.137	715.867
546.105	436.61
550.071	270.89
554.035	134.698
557.998	103.024
561.958	34.765
565.917	34.783
569.874	24.993
573.829	12.293
577.782	23.337
581.733	61.949
585.683	53.657
589.63	26.64
593.576	47.091
597.52	50.81
601.462	75.223
605.402	74.431
609.341	17.469
613.277	21.577
617.212	2.922
621.145	34.421
625.076	86.627
629.006	56.714
632.933	103.678
636.859	74.614
640.783	18.38
644.705	47.897
648.625	4.931
652.543	8.717
656.46	90.224
660.375	120.801
664.288	225.03
668.199	281.928
672.108	342.51
676.016	347.79
679.921	334.781
683.825	243.5
687.727	150.962
691.628	75.186
695.526	156.188
699.423	197.983
703.318	334.611
707.211	548.023
711.102	953.301
714.992	1418.9
718.879	1919.64
722.765	2372.25
726.649	2596.7
730.532	2216.24
734.412	1452.46
738.291	939.743
742.168	565.22
746.043	375.009
749.916	759.96
753.788	3.964
757.658	12.234
761.526	82.327
765.392	147.217
769.257	509.306
773.119	1025.93
776.98	1782.68
780.839	2693.32
784.697	4122.46
788.552	5752.48
792.406	7343.1
796.258	8316.73
800.108	9582.2
803.957	11974.1
807.804	15992.3
811.649	21219.3
815.492	20598.1
819.333	14220.7
823.173	10126.9
827.011	8458.67
830.847	8099
834.681	9096.05
838.514	11573.8
842.345	17282.2
846.174	29354.4
850.001	46419.4
853.827	51773
857.651	38104.4
861.473	23810.4
865.293	14522.2
869.112	9099.7
872.928	6080.93
876.744	4242.94
880.557	3086.83
884.369	2555.64
888.178	2065.37
891.987	1998.02
895.793	2156.67
899.598	2850.24
903.401	3425.72
907.202	3532.07
911.001	3832.39
914.799	4697.72
918.595	5846.97
922.389	5080.04
926.182	2877.84
929.972	1544.41
933.761	1242.82
937.549	1662.05
941.334	3028.13
945.118	5438.04
948.9	9766.87
952.681	14379
956.459	12597.9
960.236	7367.59
964.012	4060.86
967.785	2453.31
971.557	1744.73
975.327	1136.29
979.095	871.258
982.862	625.745
986.627	417.28
990.39	408.006
994.152	433.416
997.912	608.67
1001.67	711.642
1005.43	694.059
1009.18	636.014
1012.93	466.203
1016.68	457.227
1020.43	391.871
1024.18	250.34
1027.93	243.784
1031.67	259.993
1035.42	152.402
1039.16	194.989
1042.9	188.092
1046.63	148.447
1050.37	133.446
1054.11	82.617
1057.84	95.738
1061.57	96.141
1065.3	122.878
1069.03	125.793
1072.75	85.509
1076.47	167.267
1080.2	246.156
1083.92	318.016
1087.64	366.129
1091.36	274.127
1095.07	209.005
1098.79	15.302
1102.5	71.042
1106.21	97.773
1109.92	103.251
1113.62	95.479
1117.33	92.672
1121.04	86.628
1124.74	277.442
1128.44	10.781
1132.14	78.573
1135.83	4.207
1139.53	44.175
1143.22	18.525
1146.92	31.548
1150.61	9.393
1154.3	18.066
1157.98	55.894
1161.67	40.946
1165.35	17.2
1169.04	90.664
1172.72	100.433
1176.4	53.467
1180.07	102.676
1183.75	108.068
1187.42	148.668
1191.1	134.497
1194.77	156.538
1198.44	126.802
1202.1	135.289
1205.77	185.027
1209.43	206.258
1213.1	215.51
1216.76	206.272
1220.42	237.593
1224.07	254.09
1227.73	208.008
1231.38	251.099
1235.04	279.335
1238.69	288.515
1242.34	277.866
1245.99	326.015
1249.63	337.742
1253.28	341.226
1256.92	314.418
1260.56	294.827
1264.2	312.485
1267.84	352.774
1271.48	306.687
1275.11	414.171
1278.74	364.899
1282.38	349.418
1286.01	388.404
1289.63	303.087
1293.26	306.167
1296.89	475.754
1300.51	456.786
1304.13	528.206
1307.75	540.994
1311.37	553.788
1314.99	520.995
1318.6	577.87
1322.22	563.123
1325.83	638.417
1329.44	683.498
1333.05	729.117
1336.66	705.231
1340.26	513.7
1343.87	533.806
1347.47	424.667
1351.07	325.963
1354.67	244.212
1358.27	219.931
1361.86	212.901
1365.46	122.022
1369.05	119.342
1372.64	103.127
1376.23	72.349
1379.82	83.212
1383.41	35.938
1386.99	28.708
1390.57	63.521
1394.16	72.865
1397.74	74.079
1401.32	12.161
1404.89	104.302
1408.47	68.598
1412.04	75.373
1415.61	72.211
1419.18	145.674
1422.75	138.876
1426.32	151.659
1429.89	206.219
1433.45	361.11
1437.01	180.712
1440.58	161.566
1444.13	245.996
1447.69	95.112
1451.25	156.148
1454.81	191.026
1458.36	112.125
1461.91	110.378
1465.46	36.63
1469.01	58.926
1472.56	46.806
1476.1	28.406
1479.64	68.375
1483.19	59.477
1486.73	132.619
1490.27	15.606
1493.81	25.642
1497.34	156.393
1500.88	17.935
1504.41	41.268
1507.94	57.741
1511.47	31.047
1515	85.5
1518.53	38.521
1522.05	99.429
1525.57	42.838
1529.1	0
