Measurement: Raman, 514 nm, depolarized, Raman Data Processed
Mineral: Olmiite
Rruff sample: R050177
Ideal chemistry: CaMn^2+^SiO_3_(OH)_2_
Locality: N'Chwaning II mine, Kuruman, South Africa
Source: Marcus Origlieri
Description: Gray etched crystals
Measured chemistry: Ca_1.00_(Mn_0.98_Ca_0.02_)(Si_1.00_O_3_OH)(OH)
Raman shift (cm-1)	intensity
56.365	0
60.563	163.96
64.758	99.251
68.952	29.973
73.144	552.638
77.333	688.693
81.521	404.25
85.706	952.416
89.89	1089.72
94.071	1246.17
98.251	1022.67
102.428	1619.6
106.604	2695.53
110.777	2785.82
114.949	3377.78
119.119	5233.45
123.286	2034.18
127.452	934.261
131.615	1049.85
135.777	707.089
139.937	299.073
144.094	282.865
148.25	378.231
152.403	383.504
156.555	591.854
160.705	1366.54
164.853	1783.26
168.998	1102.99
173.142	640.12
177.284	751.691
181.424	504.676
185.562	187.047
189.698	180.792
193.831	353.87
197.963	717.185
202.093	1482.71
206.221	1907.44
210.347	1754.34
214.472	1510.41
218.594	1154.62
222.714	1151.81
226.832	1539.33
230.948	1618.74
235.063	1279.36
239.175	1316.59
243.286	1840.48
247.394	2092.97
251.501	1222.96
255.605	324.357
259.708	52.907
263.808	186.074
267.907	148.452
272.004	46.999
276.099	43.399
280.192	128.85
284.283	305.322
288.372	429.862
292.459	580.468
296.544	826.214
300.627	812.014
304.709	349.869
308.788	282.808
312.865	406.9
316.941	726.137
321.015	1456.48
325.086	2630.56
329.156	4233.56
333.224	6233.27
337.29	6478.05
341.354	4787.83
345.416	3007.62
349.476	1771.4
353.534	1084.16
357.591	900.889
361.645	932.582
365.698	1319.23
369.748	1891.83
373.797	2810.37
377.844	3213.84
381.889	2650.25
385.932	2165.58
389.973	2392.84
394.012	3340.81
398.049	4225.76
402.084	4091.54
406.118	3242.83
410.15	2712.15
414.179	2816.53
418.207	3448.61
422.233	3794.51
426.257	3683.3
430.279	4228.52
434.299	5381.07
438.318	5474.83
442.334	3684.93
446.349	1920.49
450.361	1022.01
454.372	547.847
458.381	273.598
462.388	215.791
466.394	496.639
470.397	800.239
474.398	1323.66
478.398	1627.19
482.396	1709.68
486.391	1835.15
490.385	1697.88
494.377	1515.68
498.368	1465.15
502.356	1555.71
506.342	2324.97
510.327	3876.95
514.31	4413.65
518.291	3404.05
522.27	2432.15
526.247	1819.96
530.222	1477.47
534.196	1077.91
538.167	737.019
542.137	478.646
546.105	368.059
550.071	167.083
554.035	89.796
557.998	16.868
561.958	36.894
565.917	32.872
569.874	4.7
573.829	9.292
577.782	21.858
581.733	29.948
585.683	15.763
589.63	4.518
593.576	10.083
597.52	13.374
601.462	9.631
605.402	15.88
609.341	45.125
613.277	13.337
617.212	19.689
621.145	17.855
625.076	90.38
629.006	35.609
632.933	91.377
636.859	32.707
640.783	50.448
644.705	5.642
648.625	54.169
652.543	17.017
656.46	49.911
660.375	93.668
664.288	191.263
668.199	225.707
672.108	283.008
676.016	273.176
679.921	200.218
683.825	161.146
687.727	45.968
691.628	11.308
695.526	2.83
699.423	7.13
703.318	64.353
707.211	206.649
711.102	450.85
714.992	747.512
718.879	1112
722.765	1292.27
726.649	1312.56
730.532	1147.44
734.412	798.589
738.291	541.044
742.168	322.336
746.043	223.287
749.916	40.102
753.788	19.985
757.658	3.906
761.526	69.267
765.392	178.295
769.257	389.471
773.119	799.588
776.98	1292.4
780.839	2124
784.697	3146.79
788.552	4267.79
792.406	5335.39
796.258	6246.08
800.108	7495.93
803.957	8734.44
807.804	10751.6
811.649	13146.8
815.492	12515.4
819.333	9056.42
823.173	6919.86
827.011	6085.6
830.847	6069.67
834.681	6868.15
838.514	8767.04
842.345	13155.4
846.174	22165.8
850.001	35793
853.827	41832.5
857.651	31834.6
861.473	19835
865.293	11977.9
869.112	7266.29
872.928	4742.17
876.744	3227.54
880.557	2408.6
884.369	1894.12
888.178	1605.18
891.987	1430.73
895.793	1616.75
899.598	2022.21
903.401	2293.1
907.202	2136.31
911.001	2061.06
914.799	2317.09
918.595	2531.7
922.389	2279
926.182	1249.65
929.972	712.732
933.761	551.236
937.549	770.225
941.334	1346.72
945.118	2413.7
948.9	4456.2
952.681	6394.97
956.459	5674.21
960.236	3490.45
964.012	2111.75
967.785	1358.84
971.557	1045.1
975.327	681.913
979.095	552.798
982.862	313.501
986.627	174.415
990.39	161.16
994.152	196.499
997.912	272.625
1001.67	332.237
1005.43	417.051
1009.18	360.474
1012.93	352.386
1016.68	415.689
1020.43	393.771
1024.18	268.566
1027.93	111.002
1031.67	140.555
1035.42	147.223
1039.16	100.513
1042.9	115.912
1046.63	120.254
1050.37	89.467
1054.11	46.999
1057.84	35.09
1061.57	52.78
1065.3	77.069
1069.03	111.587
1072.75	82.509
1076.47	183.438
1080.2	176.594
1083.92	216.363
1087.64	256.188
1091.36	226.707
1095.07	58.367
1098.79	41.253
1102.5	69.171
1106.21	61.609
1109.92	87.823
1113.62	116.179
1117.33	26.577
1121.04	10.656
1124.74	92.204
1128.44	38.381
1132.14	28.746
1135.83	60.784
1139.53	22.364
1143.22	64.951
1146.92	7.032
1150.61	31.624
1154.3	3.585
1157.98	8.695
1161.67	21.433
1165.35	57.739
1169.04	49.673
1172.72	63.357
1176.4	74.901
1180.07	99.422
1183.75	86.243
1187.42	104.267
1191.1	102.689
1194.77	129.048
1198.44	112.756
1202.1	92.381
1205.77	121.027
1209.43	134.462
1213.1	78.575
1216.76	142.403
1220.42	173.261
1224.07	164.775
1227.73	157.854
1231.38	176.916
1235.04	211.795
1238.69	195.08
1242.34	219.758
1245.99	204.563
1249.63	221.987
1253.28	230.46
1256.92	166.372
1260.56	168.923
1264.2	203.279
1267.84	202.125
1271.48	132.357
1275.11	244.286
1278.74	146.929
1282.38	236.165
1286.01	191.135
1289.63	181.805
1293.26	138.72
1296.89	202.58
1300.51	175.712
1304.13	213.022
1307.75	132.479
1311.37	170.562
1314.99	129.834
1318.6	141.37
1322.22	186.681
1325.83	240.182
1329.44	250.438
1333.05	291.643
1336.66	259.699
1340.26	188.665
1343.87	202.936
1347.47	137.748
1351.07	151.927
1354.67	111.823
1358.27	101.083
1361.86	86.865
1365.46	10.853
1369.05	39.404
1372.64	4.551
1376.23	0.193
1379.82	57.215
1383.41	87.045
1386.99	113.004
1390.57	24.591
1394.16	125.176
1397.74	71.459
1401.32	126.488
1404.89	134.773
1408.47	106.456
1412.04	130.139
1415.61	112.359
1419.18	137.275
1422.75	180.983
1426.32	115.233
1429.89	147.188
1433.45	113.476
1437.01	131.758
1440.58	120.127
1444.13	179.253
1447.69	142.465
1451.25	153.905
1454.81	91.172
1458.36	131.815
1461.91	53.135
1465.46	97.97
1469.01	17.49
1472.56	60.579
1476.1	24.357
1479.64	44.697
1483.19	54.084
1486.73	87.821
1490.27	76.714
1493.81	128.173
1497.34	96.702
1500.88	62.666
1504.41	114.391
1507.94	63.642
1511.47	95.612
1515	97.021
1518.53	54.763
1522.05	85.175
1525.57	66.267
