Measurement: Raman, 514 nm, depolarized, Raman Data Processed
Mineral: Olmiite
Rruff sample: R050177
Ideal chemistry: CaMn^2+^SiO_3_(OH)_2_
Locality: N'Chwaning II mine, Kuruman, South Africa
Source: Marcus Origlieri
Description: Gray etched crystals
Measured chemistry: Ca_1.00_(Mn_0.98_Ca_0.02_)(Si_1.00_O_3_OH)(OH)
Raman shift (cm-1)	intensity
56.365	0
60.563	41.506
64.758	51.812
68.952	14.341
73.144	133.952
77.333	356.68
81.521	423.411
85.706	1013.68
89.89	1272.11
94.071	1466.24
98.251	1482.18
102.428	2141.13
106.604	2896.26
110.777	3779.7
114.949	4051.46
119.119	5210.05
123.286	2875.42
127.452	1618.55
131.615	1457.42
135.777	1210.33
139.937	995.089
144.094	875.777
148.25	1003.63
152.403	995.083
156.555	1440.33
160.705	2007.81
164.853	2299.9
168.998	1699.4
173.142	1206.47
177.284	1117.67
181.424	973.991
185.562	658.429
189.698	556.959
193.831	771.552
197.963	1232.16
202.093	1788.75
206.221	2267.29
210.347	2192.74
214.472	1760.06
218.594	1534.21
222.714	1601.1
226.832	1814.01
230.948	1713.96
235.063	1447.72
239.175	1409.48
243.286	1818.77
247.394	1884.45
251.501	1062.47
255.605	363.682
259.708	5.994
263.808	170.645
267.907	110.458
272.004	5.405
276.099	56.508
280.192	127.273
284.283	252.814
288.372	417.13
292.459	649.153
296.544	826.651
300.627	755.369
304.709	415.496
308.788	155.204
312.865	270.69
316.941	686.415
321.015	1415.84
325.086	2750.72
329.156	4287.79
333.224	5907.3
337.29	6008.24
341.354	4382.57
345.416	2711.27
349.476	1619.31
353.534	914.675
357.591	795.353
361.645	849.321
365.698	1241.56
369.748	1986.06
373.797	2952.8
377.844	3209.75
381.889	2753.92
385.932	2383.29
389.973	2372.01
394.012	3115.08
398.049	3739.96
402.084	3617.43
406.118	2869.05
410.15	2410.79
414.179	2640.28
418.207	3109.2
422.233	3368.04
426.257	3392.71
430.279	4086.85
434.299	5077.83
438.318	4861.21
442.334	3309.6
446.349	1760.4
450.361	859.05
454.372	378.771
458.381	230.437
462.388	207.519
466.394	370.457
470.397	747.355
474.398	1288.07
478.398	1581.78
482.396	1772.14
486.391	1861.84
490.385	1654.6
494.377	1477.53
498.368	1384.35
502.356	1593.96
506.342	2611.35
510.327	3868.52
514.31	4295.46
518.291	3461.16
522.27	2358.61
526.247	1880.81
530.222	1394.75
534.196	1029.42
538.167	739.822
542.137	440.942
546.105	301.778
550.071	82.324
554.035	53.571
557.998	75.573
561.958	9.623
565.917	21.812
569.874	47.619
573.829	14.307
577.782	18.652
581.733	98.686
585.683	56.398
589.63	119.635
593.576	34.373
597.52	102.223
601.462	13.394
605.402	46.422
609.341	16.136
613.277	24.495
617.212	80.563
621.145	47.619
625.076	8.773
629.006	48.729
632.933	55.282
636.859	22.358
640.783	28.071
644.705	70.99
648.625	10.581
652.543	20.438
656.46	126.135
660.375	199.545
664.288	270.706
668.199	324.599
672.108	390.242
676.016	389.568
679.921	328.813
683.825	250.759
687.727	189.492
691.628	109.022
695.526	71.359
699.423	61.514
703.318	158.497
707.211	355.286
711.102	577.975
714.992	874.114
718.879	1232
722.765	1459.64
726.649	1391.65
730.532	1272.76
734.412	917.223
738.291	582.08
742.168	451.995
746.043	300.307
749.916	121.478
753.788	19.141
757.658	42.389
761.526	126.981
765.392	149.806
769.257	449.229
773.119	831.815
776.98	1366.5
780.839	2166.13
784.697	3275.78
788.552	4339.79
792.406	5490.38
796.258	6306.77
800.108	7553.98
803.957	8950.55
807.804	10850.5
811.649	12901.5
815.492	12061.8
819.333	8961.64
823.173	7101.94
827.011	6167.55
830.847	6214.47
834.681	7009.84
838.514	8928.69
842.345	13675
846.174	22963.7
850.001	36014.9
853.827	41028.6
857.651	31381.7
861.473	19861.3
865.293	11860.3
869.112	7217.81
872.928	4666.89
876.744	3393.55
880.557	2410.81
884.369	1885.69
888.178	1532.17
891.987	1469.26
895.793	1683.95
899.598	2006.26
903.401	2249.66
907.202	2205.59
911.001	2067.63
914.799	2347.31
918.595	2664.53
922.389	2181.34
926.182	1252.76
929.972	685.739
933.761	563.206
937.549	632.18
941.334	1366.66
945.118	2496.58
948.9	4309.96
952.681	5965.35
956.459	5212.83
960.236	3341.15
964.012	2009.16
967.785	1357.51
971.557	996.669
975.327	663.294
979.095	518.393
982.862	319.54
986.627	211.08
990.39	110.123
994.152	180.793
997.912	225.741
1001.67	363.547
1005.43	393.897
1009.18	428.997
1012.93	348.177
1016.68	390.333
1020.43	333.93
1024.18	269.803
1027.93	232.189
1031.67	93.12
1035.42	156.868
1039.16	123.808
1042.9	125.328
1046.63	164.946
1050.37	34.271
1054.11	52.79
1057.84	26.588
1061.57	81.981
1065.3	59.188
1069.03	109.909
1072.75	50.436
1076.47	175.949
1080.2	290.063
1083.92	408.182
1087.64	556.965
1091.36	476.718
1095.07	311.128
1098.79	102.896
1102.5	8.237
1106.21	5.314
1109.92	65.152
1113.62	47.059
1117.33	48.926
1121.04	54.967
1124.74	231.501
1128.44	28.304
1132.14	56.911
1135.83	20.583
1139.53	8.991
1143.22	29.229
1146.92	66.178
1150.61	22.83
1154.3	15.72
1157.98	17.684
1161.67	31.493
1165.35	34.686
1169.04	45.041
1172.72	43.23
1176.4	65.586
1180.07	122.766
1183.75	29.771
1187.42	105.737
1191.1	152.194
1194.77	86.062
1198.44	118.592
1202.1	96.611
1205.77	217.392
1209.43	160.28
1213.1	165.521
1216.76	157.208
1220.42	161.646
1224.07	149.876
1227.73	231.565
1231.38	198.86
1235.04	168.285
1238.69	204.595
1242.34	271.204
1245.99	210.927
1249.63	263.362
1253.28	263.287
1256.92	285.554
1260.56	191.663
1264.2	264.081
1267.84	231.538
1271.48	233.263
1275.11	266.799
1278.74	226.186
1282.38	236.604
1286.01	228.392
1289.63	219.896
1293.26	199.669
1296.89	240.956
1300.51	222.338
1304.13	269.694
1307.75	240.926
1311.37	314.481
1314.99	232.961
1318.6	231.769
1322.22	205.367
1325.83	232.911
1329.44	284.697
1333.05	235.501
1336.66	253.955
1340.26	252.893
1343.87	218.428
1347.47	167.341
1351.07	100.616
1354.67	172.108
1358.27	128.398
1361.86	98.639
1365.46	37.38
1369.05	14.946
1372.64	47.214
1376.23	118.316
1379.82	117.565
1383.41	31.147
1386.99	10.677
1390.57	21.81
1394.16	92.747
1397.74	176.437
1401.32	112.305
1404.89	78.556
1408.47	89.959
1412.04	146.56
1415.61	168.381
1419.18	90.645
1422.75	192.622
1426.32	140.245
1429.89	120.817
1433.45	201.38
1437.01	212.814
1440.58	265.587
1444.13	194.407
1447.69	261.424
1451.25	195.644
1454.81	194.829
1458.36	240.486
1461.91	240.118
1465.46	158.806
1469.01	53.957
1472.56	100.633
1476.1	133.297
1479.64	114.117
1483.19	117.221
1486.73	96.535
1490.27	86.496
1493.81	96.836
1497.34	103.831
1500.88	75.561
1504.41	72.563
1507.94	70.534
1511.47	71.314
1515	146.187
1518.53	51.88
1522.05	72.879
1525.57	0.308
