Measurement: Raman, 514 nm, depolarized, Raman Data Processed
Mineral: Orthoclase
Rruff sample: R040055
Ideal chemistry: KAlSi_3_O_8_
Locality: Madagascar
Source: Bob Downs
Description: Pale yellow fragments
Measured chemistry: K_0.96_(Al_0.96_Si_0.03_Fe_0.02_)Si_3.00_O_8_; = light material. (K_0.90_Na_0.02_)(Al_0.91_Si_0.08_Fe_0.02_)Si_3.00_O_8_ = dark
Pin_id: L00390
Orientation: Laser parallel to a* (1 0 0). Fiducial mark perpendicular to laser is parallel to -b [0 -1 0]
Raman shift (cm-1)	intensity
100.227	0
104.416	1083.02
108.603	2792
112.787	3465.24
116.97	4729.08
121.15	3930.22
125.328	2102.47
129.504	926.362
133.678	470.251
137.85	159.926
142.02	10.983
146.188	2.591
150.354	547.173
154.517	896.173
158.679	1034.12
162.839	903.306
166.996	445.021
171.152	455.094
175.305	442.318
179.456	279.209
183.605	26.302
187.752	64.278
191.898	133.85
196.041	34.896
200.182	32.904
204.321	149.908
208.457	45.77
212.592	84.643
216.725	196.227
220.856	106.689
224.984	13.769
229.111	74.266
233.236	44.546
237.358	113.99
241.479	110.874
245.597	166.849
249.713	550.777
253.828	864.486
257.94	1188.32
262.05	1673.12
266.159	2481.22
270.265	2819.93
274.369	3543.85
278.471	4448.63
282.572	4823.96
286.67	4069.04
290.766	2563.2
294.86	1496.34
298.952	908.065
303.042	558.443
307.13	317.598
311.216	364.83
315.3	241.473
319.382	206.085
323.462	107.938
327.54	207.409
331.616	165.596
335.69	193.257
339.762	120.822
343.832	118.284
347.9	233.662
351.965	60.548
356.029	129.098
360.091	340.542
364.151	579.419
368.209	525.609
372.265	325.999
376.319	248.58
380.371	277.368
384.421	92.307
388.469	21.653
392.515	267.32
396.559	426.573
400.601	608.218
404.641	804.377
408.679	820.812
412.715	437.239
416.749	133.67
420.781	139.927
424.811	26.286
428.839	332.353
432.866	408.279
436.89	503.958
440.912	1189.35
444.932	2584.45
448.951	4239.25
452.967	5314.04
456.981	5238.28
460.994	5262.25
465.004	5765.98
469.013	7799.48
473.019	11522.8
477.024	12375.4
481.026	8597.94
485.027	5466.65
489.026	4067.17
493.023	3668.19
497.017	4178.02
501.01	6368.07
505.001	11695.2
508.99	23250.5
512.977	35171.7
516.962	27061.9
520.945	13534.5
524.927	6795.86
528.906	4223.94
532.883	3050.05
536.858	2058.76
540.832	1595.06
544.803	1142.86
548.773	943.205
552.741	966.826
556.706	607.902
560.67	531.948
564.632	425.864
568.592	689.689
572.55	443.508
576.506	287.278
580.46	390.397
584.412	591.859
588.363	685.06
592.311	468.281
596.258	361.542
600.202	364.673
604.145	477.727
608.086	500.644
612.024	173.433
615.961	186.094
619.896	298.656
623.829	631.106
627.761	763.42
631.69	385.599
635.617	97.646
639.543	349.562
643.466	401.384
647.388	473.104
651.308	504.71
655.226	196.217
659.142	397.614
663.056	68.93
666.968	150.183
670.879	101.436
674.787	107.211
678.694	43.508
682.598	154.501
686.501	68.504
690.402	173.328
694.301	174.646
698.198	3.399
702.093	180.931
705.987	127.965
709.878	65.411
713.768	293.029
717.656	549.017
721.542	614.82
725.426	881.223
729.308	791.236
733.188	751.893
737.067	1327.03
740.943	1592.09
744.818	1811.7
748.691	1566.37
752.562	1393.87
756.431	1483.18
760.298	1677.3
764.163	1692.41
768.027	1527.03
771.888	1280.62
775.748	1068.62
779.606	911.934
783.462	1045.01
787.317	1157.93
791.169	990.33
795.019	1162.65
798.868	1575.09
802.715	1647.38
806.56	1409.52
810.403	1421.52
814.245	1103.38
818.084	714.066
821.922	354.783
825.758	365.242
829.592	245.34
833.424	44.381
837.254	26.99
841.082	64.648
844.909	335.771
848.734	140.533
852.557	78.904
856.378	147.297
860.197	280.398
864.015	45.662
867.831	154.486
871.645	214.6
875.457	124.721
879.267	95.348
883.075	165.635
886.882	223.797
890.687	143.117
894.49	53.961
898.291	11.82
902.09	78.783
905.888	260.641
909.683	20.09
913.477	99.506
917.269	219.01
921.06	38.576
924.848	121.797
928.635	2.137
932.42	157.609
936.203	174.592
939.984	187.406
943.764	127.459
947.541	217.727
951.317	588.166
955.091	738.727
958.864	889.402
962.634	860.203
966.403	731.141
970.17	612.219
973.935	413.443
977.698	814.82
981.46	936.186
985.22	987.465
988.978	968.592
992.734	809.217
996.488	771.955
1000.24	1175.24
1003.99	1418.92
1007.74	1162.95
1011.49	1067.31
1015.23	1139.75
1018.98	554.719
1022.72	729.861
1026.46	925.186
1030.2	1035.33
1033.93	922.395
1037.67	711.678
1041.4	539.621
1045.13	469.217
1048.86	674.121
1052.59	844.783
1056.32	945.666
1060.04	568.564
1063.77	707.199
1067.49	710.291
1071.2	658.457
1074.92	859.104
1078.64	948.15
1082.35	1359.45
1086.06	1509.57
1089.78	1629.72
1093.48	1330.3
1097.19	1433.37
1100.89	1565.17
1104.6	1915.9
1108.3	2607.19
1112	2308.88
1115.7	2440.67
1119.39	3072.17
1123.09	3183.54
1126.78	3195.46
1130.47	3127.06
1134.16	3209.48
1137.85	2902.27
1141.54	2785.54
1145.22	2320.76
1148.9	1473.56
1152.58	1277.26
1156.26	989.609
1159.94	1094.99
1163.62	948.92
1167.29	1043.26
1170.96	646.328
1174.63	559.934
1178.3	373.182
1181.97	106.102
1185.63	81.76
1189.3	304.459
1192.96	102.514
1196.62	317.605
1200.28	229.789
1203.93	283.277
1207.59	36.211
1211.24	106.611
1214.89	34.586
1218.54	436.311
1222.19	589.381
1225.84	629.789
1229.48	594.004
1233.13	719.441
1236.77	351.662
1240.41	168.197
1244.05	120.4
1247.68	369.014
1251.32	667.676
1254.95	708.045
1258.58	820.508
1262.21	768.533
1265.84	496.781
1269.46	244.225
1273.09	424.279
1276.71	292.971
1280.33	540.834
1283.95	526.986
1287.57	762.697
1291.18	617.158
1294.8	660.758
1298.41	473.586
1302.02	35.936
1305.63	157.438
1309.24	77.785
1312.84	417.549
1316.45	276.854
1320.05	515.506
1323.65	753.551
1327.25	190.84
1330.85	27.336
1334.44	88.637
1338.04	116.676
1341.63	55.287
1345.22	201.682
1348.81	391.088
1352.4	533.777
1355.98	830.109
1359.57	420.803
1363.15	401.654
1366.73	336.617
1370.31	134.217
1373.89	316.934
1377.46	109.018
1381.04	324.564
1384.61	701.756
1388.18	722.035
1391.75	820.707
1395.32	1009.98
1398.88	778.385
1402.45	634.619
1406.01	266.771
1409.57	410.9
1413.13	82.768
1416.69	223.104
1420.24	564.709
1423.8	691.975
1427.35	914.299
1430.9	894.656
1434.45	1023.71
1438	1021.87
1441.55	1048.24
1445.09	718.318
1448.63	723.924
1452.18	955.291
1455.71	1102.6
1459.25	1381.72
1462.79	1271.96
1466.32	1337.99
1469.86	1598.92
1473.39	1414.82
1476.92	1113.8
1480.45	706.156
1483.97	528.408
1487.5	455.398
1491.02	8.633
1494.54	18.043
1498.06	77.689
1501.58	429.553
1505.1	425.863
1508.62	652.922
1512.13	488.205
1515.64	619.662
1519.15	0
