Measurement: Raman, 514 nm, depolarized, Raman Data Processed
Mineral: Orthoclase
Rruff sample: R040055
Ideal chemistry: KAlSi_3_O_8_
Locality: Madagascar
Source: Bob Downs
Description: Pale yellow fragments
Measured chemistry: K_0.96_(Al_0.96_Si_0.03_Fe_0.02_)Si_3.00_O_8_; = light material. (K_0.90_Na_0.02_)(Al_0.91_Si_0.08_Fe_0.02_)Si_3.00_O_8_ = dark
Pin_id: L00124
Orientation: Laser parallel to b* (0 1 0). Fiducial mark perpendicular to laser is parallel to c [0 0 1]
Raman shift (cm-1)	intensity
92.409	0
96.614	160.641
100.817	257.573
105.017	358.95
109.215	847.162
113.412	2312.12
117.605	2441.82
121.797	1989.95
125.987	1826.06
130.174	3096.51
134.359	5048.16
138.542	6473.77
142.723	8435.27
146.902	13885
151.078	19778.8
155.252	18274.3
159.424	12310.6
163.594	6875.68
167.762	3820.52
171.928	2236.91
176.091	1503.29
180.253	1041.48
184.412	507.131
188.569	277.398
192.724	80.499
196.877	36.713
201.027	59.393
205.176	104.002
209.322	123.809
213.466	21.947
217.608	194.412
221.748	1.19
225.886	31.276
230.022	49.089
234.155	207.98
238.286	389.031
242.416	726.709
246.543	1042.99
250.668	1515.99
254.79	1768.98
258.911	2328.49
263.03	3399.82
267.146	4906.1
271.261	7357.54
275.373	9752.47
279.483	11027.6
283.591	9812.74
287.697	7087.56
291.801	4561.73
295.902	2965.12
300.002	2127.87
304.099	1350.07
308.195	1071.76
312.288	822.738
316.379	831.597
320.468	638.354
324.555	633.995
328.64	599.35
332.722	584.59
336.803	479.686
340.882	464.621
344.958	469.375
349.032	503.946
353.105	498.349
357.175	572.578
361.243	763.555
365.309	700.291
369.373	369.784
373.435	27.349
377.494	51.48
381.552	13.458
385.608	89.577
389.661	21.842
393.713	258.92
397.762	570.552
401.81	971.764
405.855	852.382
409.898	502.677
413.939	243.038
417.978	43.024
422.015	117.424
426.05	17.898
430.083	20.23
434.114	308.329
438.143	625.943
442.169	1312.79
446.194	2349.3
450.217	3207.1
454.237	3412.97
458.256	3558.53
462.272	4433.78
466.286	7168.75
470.299	11633.4
474.309	12957.8
478.317	9661.93
482.324	6305.83
486.328	4719.6
490.33	3803.23
494.33	4158.01
498.328	6161.62
502.324	10904.8
506.318	21759.3
510.31	34483.4
514.3	30283
518.288	16565
522.274	8211.41
526.258	4673.04
530.24	2945.88
534.22	2086.7
538.198	1444.19
542.174	987.133
546.148	831.123
550.119	741.918
554.089	531.499
558.057	463.511
562.023	315.528
565.986	377.431
569.948	229.215
573.908	320.783
577.866	207.429
581.822	114.61
585.775	278.078
589.727	307.002
593.677	73.587
597.625	114.388
601.57	215.07
605.514	195.645
609.456	306.151
613.396	166.563
617.333	186.879
621.269	217.103
625.203	337.24
629.135	297.293
633.065	337.264
636.993	241.097
640.918	106.973
644.842	236.716
648.764	16.385
652.684	75.948
656.602	75.422
660.518	134.827
664.432	314.15
668.344	53.36
672.255	112.36
676.163	148.748
680.069	85.264
683.973	187.571
687.875	225.663
691.776	47.796
695.674	10.126
699.57	103.795
703.465	302.544
707.357	380.975
711.248	289.045
715.136	257.68
719.023	530.408
722.907	611.644
726.79	494.676
730.671	542.351
734.55	670.264
738.426	1069.7
742.301	1307.48
746.174	1007.26
750.045	1115.09
753.915	1153.63
757.782	1102.23
761.647	1143.65
765.51	1224.9
769.372	963.488
773.231	712.399
777.088	631.008
780.944	680.005
784.798	558.641
788.649	647.298
792.499	605.979
796.347	564.685
800.193	773.328
804.037	891.443
807.879	889.235
811.719	747.532
815.558	546.111
819.394	373.221
823.228	380.519
827.061	282.295
830.891	91.17
834.72	90.389
838.547	155.265
842.372	73.488
846.195	125.461
850.016	113.873
853.835	253.003
857.652	7.82
861.468	11.456
865.281	10.861
869.093	120.394
872.903	49.968
876.71	109.585
880.516	39.23
884.32	28.989
888.122	78.91
891.923	288.976
895.721	199.186
899.517	59.569
903.312	9.877
907.105	60.85
910.896	8.241
914.684	142.823
918.472	223.958
922.257	165.242
926.04	26.699
929.821	21.674
933.601	320.123
937.379	412.108
941.154	344.28
944.928	446.635
948.7	419.176
952.471	539.973
956.239	704.906
960.005	718.089
963.77	761.475
967.533	845.062
971.294	598.861
975.053	652.891
978.81	767.248
982.565	1041.93
986.319	1287.44
990.07	1172.92
993.82	1018.86
997.568	756.52
1001.31	1042.96
1005.06	1144.03
1008.8	1070.16
1012.54	1147.99
1016.28	946.277
1020.02	824.354
1023.75	1028.69
1027.48	904.768
1031.22	989.314
1034.94	879.514
1038.67	730.07
1042.4	759.451
1046.12	672.654
1049.85	632.914
1053.57	584.436
1057.28	556.678
1061	498.283
1064.71	359.066
1068.43	257.238
1072.14	389.662
1075.85	461.236
1079.56	543.066
1083.26	725.744
1086.97	998.49
1090.67	931.027
1094.37	933.568
1098.07	916.244
1101.76	1162.77
1105.46	1755.75
1109.15	2008.93
1112.84	2562.47
1116.53	2855.86
1120.22	3278.78
1123.9	3144.16
1127.59	2739.66
1131.27	2741.35
1134.95	2616.89
1138.63	2475.48
1142.31	2150.9
1145.98	1751.34
1149.65	1301.56
1153.33	1093.9
1156.99	807.871
1160.66	804.867
1164.33	758.863
1167.99	848.596
1171.66	738.113
1175.32	550.311
1178.97	393.189
1182.63	95.99
1186.29	238.758
1189.94	231.578
1193.59	252.295
1197.24	371.252
1200.89	179.705
1204.54	66.965
1208.18	64.992
1211.82	101.592
1215.46	187.27
1219.1	238.699
1222.74	319.678
1226.38	206.57
1230.01	283.098
1233.64	277.557
1237.27	269.994
1240.9	242.58
1244.53	15.6
1248.15	216.35
1251.78	317.062
1255.4	198.355
1259.02	266.926
1262.64	346.566
1266.25	154.045
1269.87	30.244
1273.48	94.268
1277.09	59.961
1280.7	96.516
1284.31	315.697
1287.91	127.076
1291.52	167.701
1295.12	187.572
1298.72	43.438
1302.32	45.529
1305.92	278.572
1309.51	152.67
1313.11	147.768
1316.7	236.098
1320.29	229.078
1323.88	531.172
1327.46	391.785
1331.05	422.348
1334.63	151.617
1338.21	198.061
1341.79	235.619
1345.37	282.215
1348.95	127.629
1352.52	372.598
1356.09	657.51
1359.66	413.166
1363.23	137.656
1366.8	232.635
1370.37	65.645
1373.93	123.371
1377.49	400.293
1381.05	351.98
1384.61	515.953
1388.17	758.75
1391.73	705.049
1395.28	802.625
1398.83	878.676
1402.38	731.242
1405.93	704.744
1409.48	356.848
1413.02	160.369
1416.57	173.715
1420.11	217.139
1423.65	488.246
1427.19	557.49
1430.72	576.342
1434.26	707.094
1437.79	634.512
1441.33	479.705
1444.86	512.752
1448.38	366.811
1451.91	306.514
1455.43	174.615
1458.96	330.643
1462.48	461.473
1466	876.016
1469.52	631.031
1473.03	686.646
1476.55	691.883
1480.06	348.055
1483.57	465.312
1487.08	175.188
1490.59	207.264
1494.1	151.613
1497.6	20.395
1501.11	2.605
1504.61	4.33
1508.11	242.449
