Measurement: Raman, 514 nm, depolarized, Raman Data Processed
Mineral: Orthoclase
Rruff sample: R040055
Ideal chemistry: KAlSi_3_O_8_
Locality: Madagascar
Source: Bob Downs
Description: Pale yellow fragments
Measured chemistry: K_0.96_(Al_0.96_Si_0.03_Fe_0.02_)Si_3.00_O_8_; = light material. (K_0.90_Na_0.02_)(Al_0.91_Si_0.08_Fe_0.02_)Si_3.00_O_8_ = dark
Pin_id: M00468
Orientation: Laser parallel to (1 0 1). Fiducial mark perpendicular to laser is parallel to b [0 1 0]
Raman shift (cm-1)	intensity
66.157	0
70.349	69.875
74.54	241.565
78.729	2032.34
82.916	1213.67
87.101	714.113
91.284	1110.03
95.465	1682.02
99.644	2004.71
103.82	1879.36
107.995	1983.48
112.168	2525.06
116.339	4220.88
120.508	6171.74
124.675	4592.78
128.84	2840.04
133.003	2634.12
137.164	3700.84
141.323	4383.52
145.48	4442.92
149.635	6432.35
153.788	10801.7
157.939	13080.4
162.088	10129.5
166.235	5619.63
170.38	3310.38
174.523	2245.49
178.664	1572.92
182.803	1016.61
186.94	591.536
191.076	743.611
195.209	1167.77
199.34	1068.19
203.47	422.992
207.597	148.031
211.722	11.83
215.846	124.133
219.967	103.409
224.087	14.777
228.204	83.644
232.32	136.516
236.434	41.504
240.545	137.912
244.655	180.786
248.763	424.441
252.869	954.325
256.973	1551.66
261.075	2280.21
265.175	3181.25
269.273	4255.66
273.369	5339.86
277.463	7074.05
281.556	8778.19
285.646	8302.28
289.734	5566.31
293.821	3200.29
297.905	1926.2
301.988	1284.01
306.069	603.498
310.147	307.344
314.224	206.437
318.299	155.901
322.372	46.804
326.443	61.629
330.512	31.382
334.579	77.233
338.645	59.063
342.708	104.614
346.769	14.51
350.829	64.261
354.887	27.262
358.942	117.026
362.996	602.133
367.048	868.072
371.098	637.658
375.146	394.655
379.192	410.585
383.236	349.129
387.279	200.127
391.319	146.166
395.358	493.209
399.394	656.94
403.429	907.264
407.462	771.483
411.493	432.632
415.522	222.689
419.549	50.462
423.575	16.942
427.598	93.287
431.619	365.311
435.639	712.194
439.657	1243.94
443.673	2457.56
447.687	4654.04
451.699	6700.39
455.709	7266.72
459.717	6372.81
463.724	6158.76
467.728	7444.59
471.731	10710.3
475.732	13955.9
479.731	11361.5
483.728	7622.04
487.723	5600.39
491.716	4841.04
495.708	5051.83
499.697	6764.99
503.685	11152.9
507.671	22480.1
511.655	42702.2
515.637	45700.8
519.617	25644.2
523.596	12536.2
527.572	6820.74
531.547	4507.08
535.52	3315.62
539.491	2383.41
543.46	1605.54
547.427	1435.64
551.393	1257.9
555.356	1006.5
559.318	704.176
563.278	573.931
567.236	735.691
571.192	816.398
575.147	674.107
579.099	474.542
583.05	618.015
586.999	556.815
590.946	628.99
594.891	290.541
598.834	321.097
602.776	306.602
606.715	506.185
610.653	397.745
614.589	198.265
618.523	150.688
622.456	327.033
626.386	574.272
630.315	357.396
634.242	115.399
638.167	309.279
642.09	189.058
646.012	334.788
649.931	347.486
653.849	159.145
657.765	203.776
661.679	211.469
665.592	304.28
669.502	115.146
673.411	106.953
677.318	74.926
681.223	84.803
685.126	93.164
689.028	19.46
692.927	8.7
696.825	134.472
700.721	173.502
704.616	291.664
708.508	195.433
712.399	304.438
716.288	412.782
720.175	739.438
724.06	941.926
727.944	902.077
731.825	767.26
735.705	1068.16
739.584	1543.05
743.46	1907.81
747.334	2083.07
751.207	1880.05
755.078	1807.2
758.947	2021.33
762.815	2383.07
766.68	2269.31
770.544	2106.78
774.406	1775.94
778.267	1735.9
782.125	1802.78
785.982	1679.45
789.837	1725.82
793.69	1912.08
797.542	1947.43
801.391	2223.01
805.239	2418.65
809.085	2644.09
812.93	2279.33
816.772	1394.06
820.613	898.52
824.452	621.23
828.29	484.32
832.125	292.316
835.959	74.744
839.791	59.489
843.621	217.478
847.45	358.207
851.277	269.09
855.102	62.549
858.925	48.245
862.746	36.604
866.566	205.021
870.384	281.248
874.2	164.179
878.015	43.145
881.828	174.705
885.639	3.321
889.448	261.177
893.256	241.823
897.061	34.234
900.865	131.613
904.668	139.821
908.468	38.334
912.267	290.899
916.064	399.883
919.86	178.65
923.653	38.701
927.445	60.154
931.236	384.284
935.024	442.689
938.811	511.065
942.596	499.415
946.379	337.747
950.161	446.081
953.94	704.408
957.719	912.732
961.495	1391.08
965.27	1299.42
969.043	1047.77
972.814	1086.15
976.583	1174.58
980.351	1453.11
984.117	1761.34
987.882	1709.01
991.644	1477.42
995.405	1486.29
999.165	1294.43
1002.92	1543.77
1006.68	1650.36
1010.43	1625.69
1014.18	1455.8
1017.93	1052.88
1021.68	943.234
1025.43	924.426
1029.18	999.048
1032.92	1258.4
1036.66	1228.99
1040.4	915.478
1044.14	635.307
1047.88	621.085
1051.62	638.519
1055.35	1082.13
1059.08	1202.83
1062.81	901.827
1066.54	730.888
1070.27	607.734
1073.99	659.243
1077.72	921.159
1081.44	1384.98
1085.16	1709.1
1088.88	1773.14
1092.59	1657.5
1096.31	1672.06
1100.02	1567.38
1103.73	1882.31
1107.44	2288.39
1111.15	2763.15
1114.86	2898.19
1118.57	3213.74
1122.27	3438.84
1125.97	3383.78
1129.67	3400.27
1133.37	3536.15
1137.07	3465.47
1140.76	3373.18
1144.45	2809.39
1148.15	2089.73
1151.84	1578.25
1155.53	1478.14
1159.21	1239.05
1162.9	1394.73
1166.58	1281.79
1170.26	1171.76
1173.94	898.368
1177.62	615.318
1181.3	221.249
1184.97	130.088
1188.65	266.51
1192.32	485.122
1195.99	570.91
1199.66	510.716
1203.33	332.3
1206.99	65.853
1210.65	189.868
1214.32	55.731
1217.98	129.403
1221.64	429.8
1225.29	535.945
1228.95	672.034
1232.6	468.93
1236.26	174.945
1239.91	41.183
1243.56	12.863
1247.2	113.015
1250.85	347.671
1254.49	582.639
1258.13	568.297
1261.78	513.846
1265.41	458.265
1269.05	282.961
1272.69	2.604
1276.32	81.771
1279.95	135.39
1283.59	479.195
1287.21	581.953
1290.84	664.046
1294.47	526.301
1298.09	297.718
1301.72	88.335
1305.34	256.558
1308.96	117.19
1312.58	69.175
1316.19	173.365
1319.81	183.81
1323.42	517.627
1327.03	107.984
1330.64	183.808
1334.25	31.972
1337.86	101.978
1341.46	166.438
1345.07	138.564
1348.67	83.092
1352.27	526.822
1355.87	610.964
1359.46	612.233
1363.06	425.662
1366.65	558.859
1370.25	150.713
1373.84	32.898
1377.43	105.067
1381.02	127.255
1384.6	400.582
1388.18	581.546
1391.77	851.06
1395.35	809.053
1398.93	688.089
1402.51	726.301
1406.08	403.028
1409.66	186.679
1413.23	210.955
1416.8	169.011
1420.37	371.581
1423.94	643.942
1427.51	774.449
1431.08	933.95
1434.64	919.861
1438.2	786.08
1441.76	666.901
1445.32	433.653
1448.88	93.596
1452.43	111.156
1455.99	603.62
1459.54	527.296
1463.09	808.111
1466.64	920.859
1470.19	1137.51
1473.74	1024.56
1477.28	1031.54
1480.83	897.099
1484.37	565.018
1487.91	322.052
1491.45	142.519
1494.98	84.886
1498.52	178.387
1502.05	282.312
1505.59	557.657
1509.12	495.351
1512.65	726.148
1516.17	908.23
1519.7	962.655
1523.23	820.386
1526.75	577.68
1530.27	184.818
