Measurement: Raman, 514 nm, depolarized, Raman Data Processed
Mineral: Orthoclase
Rruff sample: R040055
Ideal chemistry: KAlSi_3_O_8_
Locality: Madagascar
Source: Bob Downs
Description: Pale yellow fragments
Measured chemistry: K_0.96_(Al_0.96_Si_0.03_Fe_0.02_)Si_3.00_O_8_; = light material. (K_0.90_Na_0.02_)(Al_0.91_Si_0.08_Fe_0.02_)Si_3.00_O_8_ = dark
Pin_id: M00411
Orientation: Laser parallel to -c* (0 0 -1). Fiducial mark perpendicular to laser is parallel to a [1 0 0]
Raman shift (cm-1)	intensity
98.251	0
102.428	52.575
106.604	443.994
110.777	2138.89
114.949	2976.97
119.119	4289.91
123.286	3441.16
127.452	2382.43
131.615	3162.31
135.777	5659.5
139.937	6940.44
144.094	6687.31
148.25	8781.45
152.403	13150.3
156.555	16133.7
160.705	13171.9
164.853	8295.62
168.998	5679.06
173.142	4332.48
177.284	3367.05
181.424	2293.29
185.562	1509.38
189.698	1374.91
193.831	2002.24
197.963	1748.38
202.093	606.228
206.221	27.373
210.347	40.542
214.472	41.532
218.594	241.579
222.714	249.713
226.832	82.288
230.948	56.042
235.063	43.366
239.175	122.849
243.286	530.08
247.394	1069.16
251.501	1664.56
255.605	2653.07
259.708	3964.68
263.808	5321
267.907	6773.78
272.004	8993.57
276.099	11986.6
280.192	13331.7
284.283	12167.9
288.372	8844.74
292.459	5351.87
296.544	3048.82
300.627	1843.3
304.709	1276.36
308.788	800.044
312.865	757.404
316.941	395.421
321.015	472.294
325.086	339.946
329.156	266.538
333.224	245.796
337.29	503.83
341.354	281.784
345.416	249.657
349.476	313.404
353.534	502.009
357.591	317.482
361.645	184.878
365.698	265.316
369.748	315.568
373.797	119.431
377.844	86.825
381.889	61.368
385.932	44.08
389.973	60.693
394.012	193.062
398.049	431.437
402.084	927.572
406.118	848.944
410.15	317.819
414.179	16.549
418.207	31.057
422.233	87.906
426.257	81.955
430.279	120.426
434.299	677.609
438.318	1336.57
442.334	2524.27
446.349	4215.69
450.361	6556.81
454.372	6587.63
458.381	5708.14
462.388	5198.34
466.394	6508.25
470.397	9737.87
474.398	11307.2
478.398	8946.21
482.396	6414.95
486.391	5633.64
490.385	4901.9
494.377	5049.93
498.368	7257.9
502.356	13346.1
506.342	26505.1
510.327	44603.1
514.31	43720.4
518.291	25042.1
522.27	12955.7
526.247	7386.01
530.222	4491.05
534.196	3045.42
538.167	2657.25
542.137	1904.87
546.105	1344.98
550.071	1011.65
554.035	854.303
557.998	1021.28
561.958	817.574
565.917	640.729
569.874	689.676
573.829	952.964
577.782	1024.34
581.733	744.084
585.683	570.737
589.63	532.475
593.576	617.552
597.52	602.489
601.462	375.383
605.402	340.224
609.341	348.933
613.277	491.519
617.212	535.96
621.145	350.263
625.076	474.418
629.006	628.401
632.933	602.217
636.859	505.866
640.783	159.35
644.705	242.666
648.625	365.821
652.543	398.814
656.46	311.646
660.375	11.308
664.288	116.766
668.199	279.053
672.108	221.167
676.016	26.663
679.921	313.174
683.825	84.025
687.727	16.318
691.628	116.358
695.526	29.969
699.423	19.339
703.318	49.873
707.211	309.002
711.102	367.947
714.992	496.063
718.879	441.349
722.765	569.929
726.649	991.059
730.532	1285.98
734.412	1364.14
738.291	1587.16
742.168	1860.67
746.043	2147.82
749.916	2246.16
753.788	2154.76
757.658	2018.28
761.526	2047.69
765.392	2269.45
769.257	2408.31
773.119	2198.14
776.98	1728.08
780.839	1585.17
784.697	1782.11
788.552	2098.91
792.406	2465.55
796.258	2591.86
800.108	2588.23
803.957	2734.46
807.804	3130.56
811.649	3096.38
815.492	2210.15
819.333	1025.29
823.173	390.01
827.011	394.249
830.847	471.242
834.681	510.896
838.514	196.385
842.345	47.257
846.174	31.411
850.001	68.237
853.827	302.946
857.651	346.292
861.473	215.377
865.293	150.005
869.112	93.82
872.928	128.072
876.744	112.178
880.557	136.204
884.369	30.066
888.178	86.145
891.987	2.497
895.793	161.156
899.598	274.767
903.401	228.272
907.202	98.364
911.001	205.231
914.799	87.649
918.595	170.582
922.389	243.449
926.182	276.311
929.972	99.194
933.761	182.113
937.549	165.079
941.334	408.094
945.118	661.153
948.9	944.272
952.681	907.453
956.459	770.695
960.236	784.007
964.012	1177.39
967.785	1240.85
971.557	1294.53
975.327	1428.3
979.095	1272.16
982.862	1345.88
986.627	1600.18
990.39	1774.38
994.152	1918.9
997.912	1771.15
1001.67	1945.43
1005.43	1599.9
1009.18	1545.87
1012.93	1672.01
1016.68	1628.98
1020.43	1755.47
1024.18	1565.42
1027.93	1332.03
1031.67	1046.05
1035.42	1056.34
1039.16	1278.97
1042.9	1336.16
1046.63	1257.92
1050.37	1047.84
1054.11	739.01
1057.84	452.341
1061.57	629.693
1065.3	1116.77
1069.03	1162.01
1072.75	1129.85
1076.47	1031.3
1080.2	963.715
1083.92	1144.06
1087.64	1564.4
1091.36	1924.14
1095.07	1974.75
1098.79	1785.65
1102.5	1686.28
1106.21	1726.61
1109.92	1588.02
1113.62	1558.95
1117.33	2029.4
1121.04	2530.45
1124.74	2591.07
1128.44	2422.75
1132.14	2053.78
1135.83	2054.82
1139.53	2196.22
1143.22	2258.11
1146.92	2094.59
1150.61	1766.32
1154.3	1539.17
1157.98	1180.61
1161.67	613.671
1165.35	593.561
1169.04	604.728
1172.72	878.991
1176.4	741.439
1180.07	733.853
1183.75	255.573
1187.42	224.374
1191.1	166.259
1194.77	190.985
1198.44	63.966
1202.1	425.854
1205.77	396.434
1209.43	474.813
1213.1	339.867
1216.76	284.94
1220.42	75.53
1224.07	86.829
1227.73	172.991
1231.38	502.872
1235.04	671.856
1238.69	339.511
1242.34	277.161
1245.99	278.91
1249.63	216.621
1253.28	13.25
1256.92	231.1
1260.56	408.346
1264.2	514.584
1267.84	580.761
1271.48	616.654
1275.11	411.615
1278.74	186.117
1282.38	110.666
1286.01	124.704
1289.63	32.007
1293.26	390.607
1296.89	582.73
1300.51	503.625
1304.13	524.124
1307.75	483.69
1311.37	342.762
1314.99	1.256
1318.6	49.272
1322.22	136.777
1325.83	213.712
1329.44	289.994
1333.05	385.582
1336.66	431.968
1340.26	446.482
1343.87	340.073
1347.47	190.644
1351.07	66.885
1354.67	175.161
1358.27	38.419
1361.86	329.468
1365.46	526.234
1369.05	643.333
1372.64	464.508
1376.23	255.1
1379.82	394.461
1383.41	193.186
1386.99	17.742
1390.57	130.148
1394.16	337.143
1397.74	442.764
1401.32	739.014
1404.89	863.92
1408.47	822.268
1412.04	812.557
1415.61	611.119
1419.18	348.941
1422.75	228.186
1426.32	176.332
1429.89	193.314
1433.45	339.348
1437.01	652.383
1440.58	957.68
1444.13	1004.63
1447.69	954.926
1451.25	921.812
1454.81	861.73
1458.36	658.697
1461.91	522.193
1465.46	320.734
1469.01	530.963
1472.56	470.012
1476.1	657.607
1479.64	658.164
1483.19	918.791
1486.73	943.832
1490.27	759.674
1493.81	766.236
1497.34	934.656
1500.88	396.236
1504.41	74.559
1507.94	21.096
1511.47	39.158
1515	197.225
1518.53	96.846
