Measurement: Raman, 514 nm, ccw, Raman Data Processed
Mineral: Osumilite
Rruff sample: R060385
Ideal chemistry: KFe^2+^_2_(Al_5_Si_10_)O_30_
Locality: Funtanafigu Quarry, Monte Arci, near Oristano, Sardinia
Source: Michael Scott
Description: Black tabular distorted hexagonal crystals associated with colorless tridymite
Measured chemistry: (K_0.72_Na_0.15_Ca_0.01_)_Σ=0.88_(Fe^2+^_1.07_Mg_0.93_Mn_0.06_)_Σ=2.06_(Al_2.69_Fe^3+^_0.31_)_Σ=3_(Si_10.28_Al_1.72_)_Σ=12_O_30_
Pin_id: M01656
Orientation: Laser parallel to a* (1 0 0). Fiducial mark perpendicular to laser is parallel to c [0 0 1]
Raman shift (cm-1)	intensity
131.464	0
136.395	57.0869
141.324	4.52783
146.251	211.04
151.175	565.362
156.096	1282.48
161.015	1903.09
165.931	1106.71
170.844	662.99
175.755	490.608
180.663	469.788
185.569	553.189
190.472	645.483
195.373	742.46
200.27	706.415
205.166	539.129
210.058	462.019
214.948	404.081
219.836	359.651
224.721	445.881
229.603	407.843
234.482	498.625
239.359	355.438
244.234	408.642
249.106	414.343
253.975	469.99
258.841	429.272
263.705	560.73
268.567	686.139
273.425	986.429
278.281	1230.05
283.135	983.883
287.986	650.178
292.834	397.777
297.68	367.715
302.523	166.819
307.363	126.907
312.201	102.897
317.037	123.657
321.869	131.121
326.699	14.3081
331.527	161.131
336.351	38.5254
341.174	33.5625
345.993	73.8247
350.81	40.3101
355.625	71.019
360.436	6.63916
365.245	76.314
370.052	89.0532
374.856	55.8374
379.657	185.075
384.456	285.743
389.252	102.779
394.045	68.0019
398.836	108.403
403.625	78.3086
408.41	50.7217
413.193	158.608
417.974	127.875
422.751	193.555
427.527	325.768
432.299	283.53
437.069	620.914
441.836	792.856
446.601	1205.95
451.363	1947.69
456.123	3150.16
460.88	5105.27
465.634	8164.28
470.386	12158.5
475.135	14656.7
479.881	12851.3
484.625	7386.39
489.366	3465.78
494.105	1774.27
498.84	934.342
503.574	448.029
508.305	197.977
513.033	298.233
517.758	358.742
522.481	324.591
527.201	258.81
531.919	589.322
536.634	770.756
541.346	940.2
546.056	1483.73
550.763	993.25
555.468	559.181
560.17	478.208
564.869	216.447
569.566	269.901
574.26	287.317
578.952	15.0185
583.641	10.3916
588.327	172.974
593.011	51.9551
597.692	51.8418
602.37	50.5742
607.046	94.9014
611.719	138.077
616.39	234.48
621.058	318.549
625.723	492.492
630.386	611.891
635.046	547.236
639.703	410.454
644.358	335.363
649.01	378.122
653.66	167.009
658.307	281.548
662.951	223.11
667.593	141.487
672.232	115.381
676.869	84.0957
681.503	73.2783
686.134	6.96777
690.763	42.0127
695.389	83.7647
700.013	106.95
704.633	81.3398
709.252	95.2041
713.867	82.6797
718.48	51.4277
723.091	50.3594
727.698	38.9756
732.304	8.29004
736.906	7.5293
741.506	202.505
746.103	148.34
750.698	85.9912
755.29	164.332
759.88	54.9141
764.467	88.7061
769.051	106.195
773.632	36.4023
778.211	115.29
782.788	126.868
787.362	203.157
791.933	64.1982
796.501	173.911
801.067	62.3086
805.631	105.329
810.191	139.1
814.749	282.633
819.305	410.293
823.858	804.222
828.408	851.849
832.956	550.482
837.501	207.907
842.043	27.1201
846.583	148.259
851.12	100.391
855.654	55.709
860.186	52.0459
864.716	155.915
869.242	62.8623
873.766	228.757
878.288	66.3838
882.807	65.543
887.323	67.0244
891.837	90.9688
896.348	7.79199
900.856	63.2754
905.362	141.028
909.865	113.227
914.366	207.423
918.864	153.565
923.359	123.275
927.852	119.777
932.342	125.497
936.829	96.5596
941.314	131.273
945.796	237.087
950.276	143.977
954.753	124.894
959.228	163.91
963.699	90.0713
968.169	236.274
972.635	143.501
977.099	12.2227
981.56	216.008
986.019	186.5
990.475	111.728
994.929	234.773
999.38	151.985
1003.83	98.9375
1008.27	85.6123
1012.72	32.0928
1017.16	93.6768
1021.6	57.3779
1026.03	132.262
1030.46	7.86133
1034.89	71.2764
1039.32	328.838
1043.74	268.557
1048.17	388.444
1052.59	485.516
1057	363.738
1061.42	629.244
1065.83	555.669
1070.24	577.481
1074.65	686.525
1079.05	554.759
1083.45	296.137
1087.85	369.659
1092.25	245.326
1096.64	2.14062
1101.03	63.1113
1105.42	292.223
1109.8	191.498
1114.19	212.636
1118.57	152.402
1122.95	323.619
1127.32	404.171
1131.69	382.405
1136.06	302.636
1140.43	437.542
1144.8	359.118
1149.16	542.99
1153.52	533.164
1157.87	500.392
1162.23	577.616
1166.58	488.926
1170.93	350.308
1175.28	251.738
1179.62	132.304
1183.96	232.88
1188.3	183.552
1192.64	84.2568
1196.97	172.178
1201.3	259.644
1205.63	262.722
1209.95	62.5185
1214.28	135.344
1218.6	96.2295
1222.92	215.092
1227.23	41.0889
1231.55	128.015
1235.86	134.94
1240.16	246.86
1244.47	92.2471
1248.77	96.4219
1253.07	61.2129
1257.37	119.287
1261.66	148.811
1265.95	1.18945
1270.24	164.828
1274.53	102.822
1278.81	224.654
1283.09	300.371
1287.37	90.8643
1291.65	172.097
1295.92	55.2988
1300.19	146.438
1304.46	118.512
1308.73	157.621
1312.99	194.71
1317.25	159.572
1321.51	175.377
1325.77	55.875
1330.02	98.6113
1334.27	172.946
1338.52	104.376
1342.76	137.722
1347	129.391
1351.24	163.341
1355.48	146.019
1359.72	299.776
1363.95	139.454
1368.18	284.044
1372.4	366.181
1376.63	198.516
1380.85	336.343
1385.07	77.7041
1389.29	208.609
1393.5	62.126
1397.71	209.068
1401.92	163.023
1406.13	104.621
1410.33	111.922
1414.53	237.219
1418.73	97.5693
1422.92	157.882
1427.12	171.576
1431.31	121.939
1435.5	184.128
1439.68	210.596
1443.87	60.5117
1448.05	135.503
1452.22	209.144
1456.4	78.4072
1460.57	20.5762
1464.74	156.873
1468.91	15.2764
1473.07	125.572
1477.23	84.3623
1481.39	61.002
1485.55	265.232
1489.7	208.602
1493.86	63.6143
1498.01	28.6475
1502.15	282.125
1506.3	276.376
1510.44	13.4863
1514.58	256.728
1518.71	185.304
1522.85	161.235
1526.98	31.1387
1531.11	172.041
1535.23	98.3262
1539.35	39.1172
1543.47	309.191
1547.59	5.46875
1551.71	126.288
1555.82	297.096
1559.93	235.466
1564.04	233.138
1568.14	215.655
1572.25	175.636
1576.35	148.976
