Measurement: Raman, 514 nm, depolarized, Raman Data Processed
Mineral: Osumilite
Rruff sample: R060385
Ideal chemistry: KFe^2+^_2_(Al_5_Si_10_)O_30_
Locality: Funtanafigu Quarry, Monte Arci, near Oristano, Sardinia
Source: Michael Scott
Description: Black tabular distorted hexagonal crystals associated with colorless tridymite
Measured chemistry: (K_0.72_Na_0.15_Ca_0.01_)_Σ=0.88_(Fe^2+^_1.07_Mg_0.93_Mn_0.06_)_Σ=2.06_(Al_2.69_Fe^3+^_0.31_)_Σ=3_(Si_10.28_Al_1.72_)_Σ=12_O_30_
Pin_id: M01656
Orientation: Laser parallel to a* (1 0 0). Fiducial mark perpendicular to laser is parallel to c [0 0 1]
Raman shift (cm-1)	intensity
152.405	0
157.326	306.015
162.244	704.181
167.159	209.101
172.072	92.7812
176.982	72.3643
181.89	75.3135
186.795	264.289
191.697	322.751
196.597	280.269
201.494	219.317
206.389	186.777
211.281	133.268
216.17	201.548
221.057	103.894
225.941	149.176
230.823	99.6982
235.702	46.9697
240.578	178.803
245.452	129.51
250.323	194.27
255.192	272.667
260.058	183.81
264.921	531.204
269.782	636.927
274.64	972.068
279.495	819.658
284.348	608.328
289.198	364.527
294.046	237.861
298.891	149.155
303.733	61.3037
308.573	64.3418
313.41	101.126
318.245	37.5918
323.077	34.2637
327.906	36.4131
332.733	57.9883
337.557	171.894
342.379	166.067
347.198	47.5449
352.014	15.7715
356.828	77.5195
361.639	40.3379
366.447	176.049
371.253	147.928
376.056	283.924
380.857	257.543
385.655	184.629
390.451	160.603
395.243	226.781
400.034	298.01
404.821	38.7539
409.606	197.611
414.389	249.312
419.168	302.254
423.945	407.435
428.72	291.918
433.492	558.633
438.261	364.609
443.028	802.84
447.792	1125.58
452.553	1755.31
457.312	3033.86
462.068	4447.58
466.822	6937.34
471.573	9581.67
476.321	10255.8
481.067	7547.82
485.81	4101.04
490.551	1879.65
495.289	1060.98
500.024	891.5
504.757	373.232
509.487	592.547
514.214	414.162
518.939	267.082
523.661	627.221
528.381	647.58
533.098	803.158
537.812	1102.28
542.524	1070.76
547.233	1290.13
551.94	923.172
556.644	686.365
561.345	596.109
566.044	263.32
570.74	368.643
575.433	146.348
580.124	290.856
584.812	72.8184
589.498	179.869
594.181	121.902
598.861	123.539
603.539	201.361
608.214	295.297
612.887	202.291
617.557	426.695
622.224	401.144
626.889	692.602
631.551	740.703
636.21	670.016
640.867	349.565
645.521	416.348
650.173	232.424
654.822	273.459
659.468	286.451
664.112	23.3906
668.753	74.4941
673.392	131.404
678.028	44.2051
682.661	26.7363
687.292	134.143
691.92	36.5645
696.545	78.4453
701.168	187.35
705.788	23.5898
710.406	20.0488
715.021	21.9043
719.633	71.1172
724.243	53.3574
728.85	156.541
733.455	231.834
738.056	276.527
742.656	177.598
747.252	108.713
751.846	92.4629
756.438	432.75
761.027	122.281
765.613	315.762
770.196	344.863
774.777	208.963
779.356	61.168
783.932	175.422
788.505	286.025
793.075	276.326
797.643	169.322
802.208	300.008
806.771	231.381
811.331	47.4336
815.888	281.086
820.443	653.957
824.995	630.051
829.545	830.648
834.092	364.025
838.636	4.82812
843.178	216.004
847.717	181.227
852.254	59.7109
856.788	225.777
861.319	85.7891
865.848	152.315
870.374	146.332
874.897	132.211
879.418	138.871
883.936	48.2734
888.452	10.6094
892.965	142.1
897.475	81.4512
901.983	259.002
906.488	244.385
910.99	140.397
915.49	139.223
919.988	268.109
924.482	140.588
928.974	113.615
933.464	247.141
937.951	277.522
942.435	216.543
946.917	303.432
951.396	166.473
955.872	176.49
960.346	352.42
964.817	268.307
969.285	452.516
973.751	57.2344
978.215	17.6465
982.675	266.443
987.134	378.014
991.589	222.19
996.042	61.2871
1000.49	298.852
1004.94	210.078
1009.38	192.76
1013.83	159.838
1018.27	34.3906
1022.7	224.666
1027.14	212.578
1031.57	92.8262
1036	79.5879
1040.43	2.20898
1044.85	325.822
1049.27	343.002
1053.69	245.998
1058.11	359.369
1062.52	532.83
1066.93	490.389
1071.34	319.045
1075.75	561.812
1080.15	547.711
1084.55	198.772
1088.95	39.8145
1093.35	211.201
1097.74	121.613
1102.13	377.065
1106.52	179.633
1110.9	113.047
1115.28	331.836
1119.66	322.92
1124.04	257.617
1128.41	309.172
1132.79	309.777
1137.16	192.586
1141.52	298.588
1145.89	328.703
1150.25	426.102
1154.61	436.703
1158.96	241.389
1163.32	321.59
1167.67	374.31
1172.02	449.49
1176.36	389.795
1180.71	225.244
1185.05	151.924
1189.38	203.773
1193.72	118.699
1198.05	249.697
1202.38	3.76367
1206.71	157.875
1211.04	344.074
1215.36	73.6641
1219.68	48.5273
1224	13.373
1228.31	260.019
1232.62	107.023
1236.93	117.123
1241.24	285.262
1245.54	97.416
1249.84	7.69336
1254.14	69.4961
1258.44	224.51
1262.73	298.607
1267.03	123.719
1271.31	191.975
1275.6	82.7715
1279.88	147.33
1284.16	212.635
1288.44	306.924
1292.72	266.188
1296.99	25.2773
1301.26	312.049
1305.53	253.496
1309.79	138.922
1314.06	232.996
1318.32	289.416
1322.57	220.816
1326.83	288.182
1331.08	161.508
1335.33	404.779
1339.58	426.016
1343.82	253.373
1348.06	314.566
1352.3	316.533
1356.54	164.609
1360.77	256.603
1365.01	94.6621
1369.23	246.453
1373.46	398.168
1377.68	207.342
1381.9	29.2148
1386.12	382.018
1390.34	55.1309
1394.55	343.203
1398.76	109.231
1402.97	330.49
1407.18	309.297
1411.38	326.996
1415.58	438.641
1419.78	164.162
1423.97	72.7402
1428.17	261.996
1432.36	114.025
1436.54	198.361
1440.73	276.619
1444.91	243.727
1449.09	279.547
1453.27	268.603
1457.44	398.428
1461.61	310.803
1465.78	224.244
1469.95	466.65
1474.11	199.272
1478.27	389.59
1482.43	120.418
1486.59	398.949
1490.74	376.275
1494.89	113.578
1499.04	129.143
1503.19	405.977
1507.33	307.602
1511.47	354.412
1515.61	44.5977
1519.75	454.688
1523.88	159.543
1528.01	239.043
1532.14	209.582
1536.26	333.344
1540.38	70.168
1544.51	317.863
1548.62	695.356
1552.74	167.246
1556.85	62.9375
1560.96	118.816
1565.07	345.469
1569.17	316.848
1573.27	112.555
1577.37	0
