Measurement: Raman, 514 nm, ccw, Raman Data Processed
Mineral: Osumilite
Rruff sample: R060385
Ideal chemistry: KFe^2+^_2_(Al_5_Si_10_)O_30_
Locality: Funtanafigu Quarry, Monte Arci, near Oristano, Sardinia
Source: Michael Scott
Description: Black tabular distorted hexagonal crystals associated with colorless tridymite
Measured chemistry: (K_0.72_Na_0.15_Ca_0.01_)_Σ=0.88_(Fe^2+^_1.07_Mg_0.93_Mn_0.06_)_Σ=2.06_(Al_2.69_Fe^3+^_0.31_)_Σ=3_(Si_10.28_Al_1.72_)_Σ=12_O_30_
Pin_id: M01656
Orientation: Laser parallel to a* (1 0 0). Fiducial mark perpendicular to laser is parallel to c [0 0 1]
Raman shift (cm-1)	intensity
152.405	0
157.326	88.8848
162.244	339.978
167.159	268.801
172.072	288.272
176.982	279.975
181.89	192.55
186.795	311.943
191.697	663.243
196.597	646.751
201.494	690.447
206.389	305.534
211.281	196.225
216.17	477.045
221.057	459.819
225.941	201.697
230.823	230.792
235.702	409.933
240.578	362.622
245.452	358.641
250.323	543.002
255.192	469.974
260.058	546.214
264.921	901.296
269.782	946.285
274.64	1188.03
279.495	1170.98
284.348	788.912
289.198	429.562
294.046	161.932
298.891	54.7471
303.733	48.6602
308.573	31.8467
313.41	41.376
318.245	21.6055
323.077	69.9736
327.906	159.86
332.733	39.4609
337.557	49.7315
342.379	19.3076
347.198	78.2607
352.014	33.3906
356.828	2.66113
361.639	88.6016
366.447	247.419
371.253	454.81
376.056	560.54
380.857	514.533
385.655	377.544
390.451	344.222
395.243	246.127
400.034	223.47
404.821	274.406
409.606	251.225
414.389	253.977
419.168	172.812
423.945	327.729
428.72	264.611
433.492	350.51
438.261	416.5
443.028	408.525
447.792	665.911
452.553	739.999
457.312	1076.9
462.068	1498.9
466.822	2117.86
471.573	2662.53
476.321	2592.18
481.067	1940.53
485.81	1022.33
490.551	542.128
495.289	500.33
500.024	244.345
504.757	408.073
509.487	472.294
514.214	591.475
518.939	690.625
523.661	770.701
528.381	1156.05
533.098	1116.19
537.812	1281.56
542.524	1466.79
547.233	1394.06
551.94	1260.48
556.644	1071.67
561.345	946.692
566.044	854.497
570.74	879.411
575.433	756.004
580.124	523.362
584.812	310.913
589.498	92.2705
594.181	234.256
598.861	241.356
603.539	233.683
608.214	304.175
612.887	392.031
617.557	482.239
622.224	493.097
626.889	533.956
631.551	635.891
636.21	668.979
640.867	312.238
645.521	404.623
650.173	294.991
654.822	109.331
659.468	173.637
664.112	194.884
668.753	45.0645
673.392	124.234
678.028	86.207
682.661	103.339
687.292	45.2109
691.92	51.7353
696.545	95.4473
701.168	33.1816
705.788	40.7666
710.406	173.122
715.021	148.197
719.633	14.7461
724.243	68.3789
728.85	199.067
733.455	160.091
738.056	249.659
742.656	237.887
747.252	221.094
751.846	268.899
756.438	89.4287
761.027	207.948
765.613	199.088
770.196	334.49
774.777	348.216
779.356	255.44
783.932	263.081
788.505	291.134
793.075	235.053
797.643	329.498
802.208	214.723
806.771	237.333
811.331	89.8525
815.888	143.855
820.443	55.708
824.995	36.0098
829.545	217.961
834.092	257.442
838.636	57.0469
843.178	63.1143
847.717	125.344
852.254	101.401
856.788	120.936
861.319	48.5303
865.848	15.832
870.374	101.084
874.897	53.0391
879.418	26.7324
883.936	110.079
888.452	91.8057
892.965	129.392
897.475	137.916
901.983	49.1113
906.488	128.06
910.99	34.7959
915.49	12.3145
919.988	195.624
924.482	159.742
928.974	222.673
933.464	172.426
937.951	137.023
942.435	257.463
946.917	259.39
951.396	160.93
955.872	353.172
960.346	189.972
964.817	395.409
969.285	302.049
973.751	467.697
978.215	347.928
982.675	311.477
987.134	472.82
991.589	270.516
996.042	200.385
1000.49	267.363
1004.94	127.547
1009.38	103.26
1013.83	52.2246
1018.27	133.478
1022.7	179.512
1027.14	51.7988
1031.57	79.668
1036	36.5898
1040.43	116.414
1044.85	137.098
1049.27	83.6719
1053.69	256.857
1058.11	87.1348
1062.52	223.336
1066.93	346.803
1071.34	372.344
1075.75	160.022
1080.15	163.662
1084.55	62.5762
1088.95	141.611
1093.35	59.9453
1097.74	176.283
1102.13	172.773
1106.52	88.4981
1110.9	279.844
1115.28	405.447
1119.66	57.9473
1124.04	157.678
1128.41	122.766
1132.79	305.143
1137.16	182.633
1141.52	239.5
1145.89	147.33
1150.25	301.291
1154.61	209.707
1158.96	208.934
1163.32	258.307
1167.67	334.815
1172.02	286.428
1176.36	509.617
1180.71	183.293
1185.05	101.283
1189.38	266.42
1193.72	353.586
1198.05	350.818
1202.38	180.107
1206.71	231.457
1211.04	177.863
1215.36	67.1836
1219.68	211.559
1224	25.9805
1228.31	169.81
1232.62	124.062
1236.93	167.346
1241.24	176.615
1245.54	79.7793
1249.84	20.7129
1254.14	111.75
1258.44	159.572
1262.73	12.3809
1267.03	249.518
1271.31	177.231
1275.6	147.865
1279.88	114.434
1284.16	228.143
1288.44	212.717
1292.72	184.957
1296.99	83.25
1301.26	42.7559
1305.53	0.101563
1309.79	25.6699
1314.06	30.1855
1318.32	206.725
1322.57	130.576
1326.83	218.373
1331.08	158.106
1335.33	259.893
1339.58	198.809
1343.82	256.234
1348.06	298.781
1352.3	180.326
1356.54	239.568
1360.77	198.752
1365.01	214.877
1369.23	226.647
1373.46	158.26
1377.68	211.012
1381.9	105.713
1386.12	211.139
1390.34	387.373
1394.55	166.621
1398.76	319.514
1402.97	290.465
1407.18	270.336
1411.38	18.8555
1415.58	248.826
1419.78	21.9336
1423.97	32.4941
1428.17	309.025
1432.36	275.158
1436.54	67.7871
1440.73	36.0312
1444.91	90.1582
1449.09	65.3516
1453.27	73.3066
1457.44	235.9
1461.61	7.89844
1465.78	62.2383
1469.95	50.4902
1474.11	30.7012
1478.27	78.2676
1482.43	178.016
1486.59	146.684
1490.74	202.822
1494.89	208.867
1499.04	116.057
1503.19	70.5156
1507.33	135.5
1511.47	142.022
1515.61	399.219
1519.75	224.074
1523.88	341.451
1528.01	276.891
1532.14	289.803
1536.26	205.951
1540.38	197.514
1544.51	164.475
1548.62	306.977
1552.74	137.506
1556.85	20.3887
1560.96	54.0684
1565.07	72.8106
1569.17	71.5488
1573.27	2.95508
1577.37	0
