Measurement: Raman, 514 nm, ccw, Raman Data Processed
Mineral: Osumilite
Rruff sample: R060385
Ideal chemistry: KFe^2+^_2_(Al_5_Si_10_)O_30_
Locality: Funtanafigu Quarry, Monte Arci, near Oristano, Sardinia
Source: Michael Scott
Description: Black tabular distorted hexagonal crystals associated with colorless tridymite
Measured chemistry: (K_0.72_Na_0.15_Ca_0.01_)_Σ=0.88_(Fe^2+^_1.07_Mg_0.93_Mn_0.06_)_Σ=2.06_(Al_2.69_Fe^3+^_0.31_)_Σ=3_(Si_10.28_Al_1.72_)_Σ=12_O_30_
Pin_id: M01364
Orientation: Laser parallel to c* (0 0 1). Fiducial mark perpendicular to laser is parallel to a [1 0 0]
Raman shift (cm-1)	intensity
184.343	0
189.247	847.615
194.148	896.82
199.046	1133.71
203.942	517.818
208.835	236.713
213.726	175.425
218.614	362.69
223.5	158.506
228.382	324.926
233.263	461.431
238.14	545.723
243.015	751.084
247.888	879.993
252.758	1332.5
257.625	1950.32
262.49	3038.28
267.352	3758.81
272.211	5053.76
277.068	5920.88
281.922	5266.17
286.773	3344.01
291.622	1832.74
296.469	929.443
301.312	499.214
306.154	213.003
310.992	140.512
315.828	60.8467
320.661	36.165
325.492	260.62
330.32	375.77
335.145	255.925
339.968	186.703
344.789	131.495
349.606	66.0142
354.421	371.062
359.234	540.25
364.043	1204.07
368.851	1942.42
373.655	2683.48
378.457	3089.21
383.256	2943.15
388.053	2651
392.847	2076.89
397.639	1825.25
402.428	1693.27
407.214	1615.41
411.998	1754.73
416.779	1792.94
421.557	1715.68
426.333	1940.19
431.106	2062.94
435.877	2117.99
440.645	2463.23
445.41	3043.66
450.173	3837.19
454.933	4889.53
459.691	6389.53
464.446	8545.78
469.198	12058.8
473.948	14486.9
478.695	13198.1
483.439	8814.5
488.181	4614.19
492.92	2878.17
497.657	1987.99
502.391	1543.28
507.122	1905.67
511.851	2565.7
516.577	3287.32
521.301	3860.53
526.022	4614.37
530.74	5306.94
535.456	5776.34
540.169	6632.74
544.879	6984.45
549.587	6614.31
554.292	5486.73
558.995	4565.71
563.695	4091
568.392	3637.39
573.087	2989.43
577.779	2488.42
582.469	1806.8
587.156	1233.27
591.84	1220.04
596.522	1131.97
601.201	1209.44
605.877	1348.59
610.551	1495.47
615.222	1888.97
619.891	2437.02
624.557	2857.13
629.22	3151.35
633.881	3069.64
638.539	2560.99
643.195	1863.28
647.848	1416.31
652.498	1001.87
657.145	778.909
661.791	632.428
666.433	253.421
671.073	57.8794
675.71	44.7959
680.345	31.8667
684.977	103.215
689.606	161.484
694.233	14.2769
698.857	66.2729
703.478	103.965
708.097	65.5205
712.714	61.3301
717.327	144.645
721.938	182.408
726.547	142.155
731.153	307.364
735.756	439.711
740.356	366.916
744.954	547.712
749.55	468.374
754.142	638.11
758.733	717.6
763.32	800.792
767.905	779.652
772.487	866.157
777.067	965.278
781.644	1023.99
786.218	1052.27
790.79	944.105
795.359	833.476
799.926	917.369
804.49	621.773
809.051	553.671
813.61	298.021
818.166	363.242
822.72	275.153
827.271	255.501
831.819	37.4175
836.365	156.83
840.908	32.7153
845.448	21.1265
849.986	104.554
854.521	15.7778
859.054	49.0635
863.584	101.711
868.111	132.297
872.636	72.5845
877.158	60.0586
881.677	112.951
886.194	135.344
890.709	243.26
895.22	319.728
899.729	362.763
904.236	557.379
908.74	533.596
913.241	716.428
917.739	707.893
922.235	781.007
926.729	984.79
931.219	1071.26
935.708	1281.43
940.193	1212.33
944.676	1320.96
949.156	1494.37
953.634	1538.58
958.109	1736.68
962.582	1661.78
967.051	1865.17
971.519	1949.69
975.983	1870.84
980.445	2093.39
984.905	1948.48
989.362	1896.45
993.816	1711
998.267	1321.14
1002.72	1153.29
1007.16	1001
1011.61	977.419
1016.05	931.134
1020.49	910.021
1024.92	911.066
1029.36	1021.62
1033.79	850.719
1038.21	963.318
1042.64	948.41
1047.06	896.993
1051.48	1003.04
1055.9	1100.56
1060.32	1194.56
1064.73	1380.04
1069.14	1375.11
1073.55	1339.77
1077.95	1238.81
1082.35	1084.44
1086.75	913.601
1091.15	777.314
1095.54	684.597
1099.93	704.438
1104.32	715.256
1108.71	891.344
1113.09	870.057
1117.47	967.018
1121.85	937.287
1126.23	909.859
1130.6	1159.35
1134.97	1151.35
1139.34	1219.8
1143.7	1288.1
1148.07	1403.03
1152.43	1454.15
1156.79	1404.22
1161.14	1540.15
1165.49	1546.71
1169.84	1470.47
1174.19	1381.72
1178.54	1339.77
1182.88	1374.41
1187.22	1256.78
1191.55	1223.79
1195.89	1172.63
1200.22	891.769
1204.55	724.483
1208.87	475.476
1213.2	397.854
1217.52	289.612
1221.84	197.042
1226.15	100.421
1230.47	121.44
1234.78	37.4839
1239.09	13.061
1243.39	31.5752
1247.69	73.8462
1251.99	27.5723
1256.29	26.9141
1260.59	46.9551
1264.88	35.4209
1269.17	47.5723
1273.46	29.7646
1277.74	79.2119
1282.02	6.46973
1286.3	7.39941
1290.58	101.24
1294.86	2.24707
1299.13	20.9341
1303.39	56.6929
1307.66	65.3696
1311.93	30.8745
1316.19	114.268
1320.45	41.2192
1324.7	122.487
1328.96	98.6621
1333.21	177.892
1337.45	132.347
1341.7	191.605
1345.94	280.908
1350.18	49.7495
1354.42	228.587
1358.66	86.4302
1362.89	106.798
1367.12	161.04
1371.35	133.395
1375.57	166.664
1379.8	72.6953
1384.02	141.156
1388.23	178.953
1392.45	170.155
1396.66	104.067
1400.87	86.3457
1405.08	140.94
1409.28	105.339
1413.48	17.2754
1417.68	100.138
1421.88	78.0557
1426.07	14.6533
1430.26	71.1553
1434.45	82.2231
1438.64	98.0767
1442.82	117.626
1447	104.606
1451.18	44.2866
1455.35	10.5669
1459.53	24.7969
1463.7	3.3457
1467.87	137.417
1472.03	113.837
1476.19	86.7139
1480.35	147.892
1484.51	116.288
1488.67	8.96484
1492.82	110.737
1496.97	163.567
1501.12	136.738
1505.26	176.044
1509.4	96.3813
1513.54	80.0039
1517.68	137.474
1521.81	122.43
1525.94	56.4858
1530.07	3.04688
1534.2	36.0317
1538.32	88.2988
1542.44	71.0606
1546.56	9.3208
1550.68	67.3696
1554.79	81.3154
1558.9	101.398
1563.01	7.15088
1567.12	110.531
1571.22	121.464
1575.32	12.4644
