Measurement: Raman, 514 nm, ccw, Raman Data Processed
Mineral: Osumilite
Rruff sample: R060385
Ideal chemistry: KFe^2+^_2_(Al_5_Si_10_)O_30_
Locality: Funtanafigu Quarry, Monte Arci, near Oristano, Sardinia
Source: Michael Scott
Description: Black tabular distorted hexagonal crystals associated with colorless tridymite
Measured chemistry: (K_0.72_Na_0.15_Ca_0.01_)_Σ=0.88_(Fe^2+^_1.07_Mg_0.93_Mn_0.06_)_Σ=2.06_(Al_2.69_Fe^3+^_0.31_)_Σ=3_(Si_10.28_Al_1.72_)_Σ=12_O_30_
Pin_id: M01656
Orientation: Laser parallel to a* (1 0 0). Fiducial mark perpendicular to laser is parallel to c [0 0 1]
Raman shift (cm-1)	intensity
131.464	0
136.395	10.0596
141.324	116.368
146.251	326.734
151.175	1252.04
156.096	2684.89
161.015	4320.37
165.931	2144.56
170.844	827.921
175.755	467.954
180.663	417.027
185.569	345.046
190.472	484.275
195.373	420.014
200.27	539.934
205.166	313.134
210.058	239.353
214.948	199.727
219.836	207.702
224.721	124.486
229.603	145.19
234.482	168.864
239.359	166.532
244.234	109.738
249.106	232.349
253.975	370.416
258.841	498.512
263.705	804.688
268.567	1043.53
273.425	1541.62
278.281	1749.19
283.135	1611.55
287.986	1014.69
292.834	542.225
297.68	260.617
302.523	207.54
307.363	86.7808
312.201	152.185
317.037	163.633
321.869	97.0312
326.699	266.319
331.527	280.448
336.351	385.372
341.174	415.992
345.993	296.281
350.81	60.2251
355.625	78.2246
360.436	110.165
365.245	96.7358
370.052	69.9253
374.856	36.4224
379.657	44.4194
384.456	281.063
389.252	260.273
394.045	81.5864
398.836	18.9844
403.625	17.9502
408.41	99.6943
413.193	277.948
417.974	310.79
422.751	448.81
427.527	862.558
432.299	1078.68
437.069	1557.6
441.836	2099.48
446.601	3242.32
451.363	5245.05
456.123	8696.78
460.88	14366.4
465.634	22251.4
470.386	32884.2
475.135	39616.5
479.881	33530.6
484.625	19218.2
489.366	9351.68
494.105	4551.8
498.84	2377.16
503.574	1518.81
508.305	1081.97
513.033	837.398
517.758	852.49
522.481	826.166
527.201	935.359
531.919	1304.04
536.634	1701.21
541.346	2497.03
546.056	2708.49
550.763	2426.05
555.468	1269.09
560.17	719.554
564.869	359.325
569.566	223.377
574.26	131.508
578.952	141.103
583.641	59.3687
588.327	29.7236
593.011	17.0405
597.692	18.5874
602.37	121.052
607.046	156.666
611.719	333.238
616.39	539.219
621.058	727.751
625.723	1072.92
630.386	1360.06
635.046	1380.84
639.703	1087.08
644.358	833.115
649.01	628.936
653.66	554.117
658.307	466.12
662.951	357.981
667.593	342.603
672.232	215.107
676.869	157.53
681.503	237.879
686.134	175.16
690.763	69.3481
695.389	135.413
700.013	171.335
704.633	182.081
709.252	49.6011
713.867	48.8472
718.48	18.7114
723.091	20.852
727.698	6.80127
732.304	30.0332
736.906	7.39941
741.506	22.6997
746.103	70.9385
750.698	57.7476
755.29	23.2822
759.88	36.2573
764.467	56.2388
769.051	12.2315
773.632	123.049
778.211	95.7598
782.788	180.039
787.362	90.9258
791.933	208.605
796.501	58.7148
801.067	118.38
805.631	199.829
810.191	360.895
814.749	572.519
819.305	1299.57
823.858	2384.43
828.408	2700.03
832.956	1454.81
837.501	620.983
842.043	372.971
846.583	388.754
851.12	179.539
855.654	232.288
860.186	250.12
864.716	97.6035
869.242	164.098
873.766	28.3081
878.288	185.248
882.807	41.8145
887.323	8.37451
891.837	138.98
896.348	96.1191
900.856	76.665
905.362	89.0576
909.865	56.8379
914.366	11.2685
918.864	114.047
923.359	99.959
927.852	78.9619
932.342	176.279
936.829	14.999
941.314	48.3408
945.796	9.70605
950.276	0.911133
954.753	15.5254
959.228	8.88086
963.699	101.328
968.169	16.8096
972.635	65.3769
977.099	164.152
981.56	59.1924
986.019	134.466
990.475	190.986
994.929	200.901
999.38	229.253
1003.83	239.972
1008.27	159.924
1012.72	211.031
1017.16	257.785
1021.6	148.705
1026.03	257.952
1030.46	349.55
1034.89	352.487
1039.32	515.722
1043.74	566.438
1048.17	731.637
1052.59	808.073
1057	985.797
1061.42	1241.6
1065.83	1546.86
1070.24	1573.42
1074.65	1702.21
1079.05	1319.24
1083.45	1011.62
1087.85	658.875
1092.25	461.523
1096.64	298.702
1101.03	348.452
1105.42	355.91
1109.8	374.374
1114.19	378.552
1118.57	377.657
1122.95	593.759
1127.32	559.502
1131.69	604.227
1136.06	692.87
1140.43	715.386
1144.8	723.052
1149.16	910.492
1153.52	1057.1
1157.87	1015.99
1162.23	865.612
1166.58	876.614
1170.93	703.116
1175.28	622.217
1179.62	452.078
1183.96	478.149
1188.3	443.841
1192.64	324.555
1196.97	271.622
1201.3	474.854
1205.63	253.773
1209.95	298.409
1214.28	194.814
1218.6	145.101
1222.92	161.157
1227.23	10.4521
1231.55	26.5674
1235.86	137.281
1240.16	55.4873
1244.47	49.0254
1248.77	53.4492
1253.07	62.4375
1257.37	165.967
1261.66	105.091
1265.95	86
1270.24	16.0078
1274.53	95.0908
1278.81	49.7188
1283.09	25.6289
1287.37	34.2109
1291.65	21.0029
1295.92	47.1016
1300.19	17.6387
1304.46	2.5166
1308.73	55.041
1312.99	28.4463
1317.25	194.721
1321.51	94.9297
1325.77	15.6143
1330.02	98.918
1334.27	65.6572
1338.52	40.3213
1342.76	86.7783
1347	179.111
1351.24	21.8418
1355.48	140.924
1359.72	170.071
1363.95	73.7842
1368.18	164.806
1372.4	137.125
1376.63	117.649
1380.85	143.005
1385.07	81.25
1389.29	109.668
1393.5	77.7305
1397.71	90.959
1401.92	128.794
1406.13	156.536
1410.33	288.14
1414.53	146.98
1418.73	66.5156
1422.92	13.0107
1427.12	36.1162
1431.31	150.906
1435.5	150.091
1439.68	130.234
1443.87	127.069
1448.05	208.152
1452.22	57.9434
1456.4	257.612
1460.57	144.675
1464.74	151.433
1468.91	74.8535
1473.07	21.4482
1477.23	129.455
1481.39	101.148
1485.55	208.059
1489.7	255.784
1493.86	294.321
1498.01	142.332
1502.15	159.344
1506.3	178.017
1510.44	117.481
1514.58	73.7227
1518.71	205.384
1522.85	131.231
1526.98	197.185
1531.11	34.9795
1535.23	193.162
1539.35	164.568
1543.47	149.826
1547.59	227.595
1551.71	33.5859
1555.82	186.164
1559.93	86.293
1564.04	140.326
1568.14	62.3994
1572.25	78.7949
1576.35	46.9473
