Measurement: Raman, 514 nm, ccw, Raman Data Processed
Mineral: Osumilite
Rruff sample: R060385
Ideal chemistry: KFe^2+^_2_(Al_5_Si_10_)O_30_
Locality: Funtanafigu Quarry, Monte Arci, near Oristano, Sardinia
Source: Michael Scott
Description: Black tabular distorted hexagonal crystals associated with colorless tridymite
Measured chemistry: (K_0.72_Na_0.15_Ca_0.01_)_Σ=0.88_(Fe^2+^_1.07_Mg_0.93_Mn_0.06_)_Σ=2.06_(Al_2.69_Fe^3+^_0.31_)_Σ=3_(Si_10.28_Al_1.72_)_Σ=12_O_30_
Pin_id: M01364
Orientation: Laser parallel to c* (0 0 1). Fiducial mark perpendicular to laser is parallel to a [1 0 0]
Raman shift (cm-1)	intensity
141.324	0
146.251	161.523
151.175	1214.07
156.096	2265.74
161.015	2914.99
165.931	1766.26
170.844	1251.77
175.755	1361.34
180.663	1261.96
185.569	1356.84
190.472	1706.71
195.373	1842.54
200.27	2039.17
205.166	1312.35
210.058	1030.74
214.948	917.777
219.836	816.606
224.721	847.752
229.603	1077.21
234.482	1307.93
239.359	1666.69
244.234	1683.25
249.106	1762.8
253.975	1985.25
258.841	2176.15
263.705	2701.36
268.567	3785.14
273.425	5045.28
278.281	5470.91
283.135	4432.2
287.986	2631.59
292.834	1211.66
297.68	632.409
302.523	290.142
307.363	81.8203
312.201	119.032
317.037	115.655
321.869	124.601
326.699	252.128
331.527	200.67
336.351	269.811
341.174	3.93799
345.993	18.1665
350.81	36.48
355.625	223.345
360.436	529.422
365.245	1234.07
370.052	2073
374.856	2671.87
379.657	3003.76
384.456	2827.1
389.252	2269.19
394.045	1937.96
398.836	1485.05
403.625	1413.24
408.41	1627.61
413.193	1477.35
417.974	1605.42
422.751	1642.85
427.527	1828.67
432.299	1799.83
437.069	2165.99
441.836	2456.32
446.601	3050.47
451.363	3902.9
456.123	4980.46
460.88	6578.91
465.634	9340.17
470.386	12582.4
475.135	14377.3
479.881	12346.2
484.625	7474.07
489.366	3957.53
494.105	2187.85
498.84	1579.91
503.574	1246.88
508.305	1594.4
513.033	2363.16
517.758	3102.16
522.481	3844.15
527.201	4395.61
531.919	4996.19
536.634	5541.98
541.346	6272.35
546.056	6349.93
550.763	5601.91
555.468	4727.21
560.17	3896.09
564.869	3261.01
569.566	2852.09
574.26	2357.75
578.952	1894.89
583.641	1511.11
588.327	1212.3
593.011	1120.55
597.692	1110.36
602.37	1112.01
607.046	1433.41
611.719	1630.79
616.39	1965.32
621.058	2564.11
625.723	2977.91
630.386	3116.22
635.046	2854.91
639.703	2312.71
644.358	1681.29
649.01	1267.49
653.66	1079.21
658.307	711.456
662.951	389.209
667.593	280.464
672.232	161.207
676.869	22.5762
681.503	62.9477
686.134	12.9688
690.763	98.7485
695.389	95.563
700.013	65.7519
704.633	74.8462
709.252	38.6582
713.867	35.3374
718.48	55.0405
723.091	108.049
727.698	128.862
732.304	306.49
736.906	407.137
741.506	453.747
746.103	475.67
750.698	611.653
755.29	635.97
759.88	776.063
764.467	793.891
769.051	904.411
773.632	940.592
778.211	924.402
782.788	1016.91
787.362	981.832
791.933	1078.41
796.501	792.557
801.067	697.243
805.631	645.459
810.191	486.191
814.749	376.089
819.305	307.519
823.858	222.768
828.408	139.462
832.956	75.167
837.501	166.452
842.043	13.3267
846.583	156.523
851.12	16.1094
855.654	62.4048
860.186	29.8765
864.716	70.2173
869.242	34.543
873.766	10.4326
878.288	239.606
882.807	158.189
887.323	202.274
891.837	174.907
896.348	526.108
900.856	500.89
905.362	560.637
909.865	545.267
914.366	725.891
918.864	800.162
923.359	903.096
927.852	1062.71
932.342	965.025
936.829	1246.06
941.314	1302.82
945.796	1313.34
950.276	1489.63
954.753	1667.76
959.228	1693.77
963.699	1694.47
968.169	1836.54
972.635	2047.24
977.099	1914.24
981.56	2110.73
986.019	1932.69
990.475	1765.95
994.929	1707.29
999.38	1361.95
1003.83	1209.08
1008.27	1095.66
1012.72	1019.27
1017.16	997.048
1021.6	943.953
1026.03	943.819
1030.46	1040.1
1034.89	822.931
1039.32	881.266
1043.74	977.016
1048.17	917.238
1052.59	1150.95
1057	1160.16
1061.42	1285.83
1065.83	1407.97
1070.24	1363.6
1074.65	1344.71
1079.05	1350.33
1083.45	1032.44
1087.85	956.08
1092.25	652.254
1096.64	638.994
1101.03	610.382
1105.42	656.988
1109.8	687.64
1114.19	832.691
1118.57	946.412
1122.95	990.225
1127.32	1001.14
1131.69	1165.88
1136.06	1237.22
1140.43	1288.55
1144.8	1119.58
1149.16	1472.52
1153.52	1445.63
1157.87	1535.25
1162.23	1521.88
1166.58	1670.59
1170.93	1542.05
1175.28	1402.35
1179.62	1339.95
1183.96	1333.07
1188.3	1120.18
1192.64	1008.19
1196.97	949.798
1201.3	772.843
1205.63	690.67
1209.95	516.699
1214.28	489.327
1218.6	266.725
1222.92	161.557
1227.23	75.5562
1231.55	11.6733
1235.86	70.5269
1240.16	41.8584
1244.47	66.6333
1248.77	162.533
1253.07	35.2803
1257.37	46.9062
1261.66	16.3662
1265.95	137.319
1270.24	41.686
1274.53	12.9097
1278.81	8.52539
1283.09	44.4043
1287.37	61.4082
1291.65	43.9815
1295.92	46.8159
1300.19	27.1919
1304.46	45.8745
1308.73	104.322
1312.99	31.3599
1317.25	106.539
1321.51	45.5615
1325.77	126.947
1330.02	169.33
1334.27	154.701
1338.52	181.802
1342.76	127.015
1347	43.5669
1351.24	71.8325
1355.48	106.252
1359.72	47.3105
1363.95	95.6865
1368.18	229.558
1372.4	170.838
1376.63	113.207
1380.85	86.9507
1385.07	28.5181
1389.29	129.323
1393.5	24.0405
1397.71	113.606
1401.92	63.6914
1406.13	148.765
1410.33	39.1206
1414.53	49.6255
1418.73	133.527
1422.92	43.7017
1427.12	106.358
1431.31	95.3301
1435.5	104.558
1439.68	105.793
1443.87	12.4971
1448.05	70.6709
1452.22	7.38769
1456.4	172.338
1460.57	185.076
1464.74	80.5376
1468.91	139.155
1473.07	123.671
1477.23	103.147
1481.39	36.4853
1485.55	138.517
1489.7	108.864
1493.86	188.977
1498.01	177.071
1502.15	126.103
1506.3	198.311
1510.44	239.943
1514.58	172.524
1518.71	173.647
1522.85	111.217
1526.98	138.706
1531.11	106.511
1535.23	74.7212
1539.35	78.4766
1543.47	153.655
1547.59	151.801
1551.71	170.217
1555.82	70.7647
1559.93	146.544
1564.04	34.6841
1568.14	65.7402
1572.25	68.8799
1576.35	1.63623
