Measurement: Raman, 514 nm, depolarized, Raman Data Processed
Mineral: Osumilite
Rruff sample: R060385
Ideal chemistry: KFe^2+^_2_(Al_5_Si_10_)O_30_
Locality: Funtanafigu Quarry, Monte Arci, near Oristano, Sardinia
Source: Michael Scott
Description: Black tabular distorted hexagonal crystals associated with colorless tridymite
Measured chemistry: (K_0.72_Na_0.15_Ca_0.01_)_Σ=0.88_(Fe^2+^_1.07_Mg_0.93_Mn_0.06_)_Σ=2.06_(Al_2.69_Fe^3+^_0.31_)_Σ=3_(Si_10.28_Al_1.72_)_Σ=12_O_30_
Pin_id: M01364
Orientation: Laser parallel to c* (0 0 1). Fiducial mark perpendicular to laser is parallel to a [1 0 0]
Raman shift (cm-1)	intensity
132.697	0
137.628	33.2676
142.556	416.256
147.482	873.088
152.405	2164.01
157.326	3199.23
162.244	3818.88
167.159	2494.9
172.072	2526.28
176.982	2208.85
181.89	2382.81
186.795	2276.27
191.697	2934.24
196.597	2758.36
201.494	2698.49
206.389	1821.44
211.281	1509.59
216.17	1545.58
221.057	1512.11
225.941	1362.1
230.823	1560.65
235.702	2065.04
240.578	2093.23
245.452	2037.22
250.323	2084.33
255.192	2026.43
260.058	2413.33
264.921	3079.6
269.782	3935.29
274.64	5394.54
279.495	5526.35
284.348	4149.8
289.198	2237.53
294.046	1203.46
298.891	507.144
303.733	182.725
308.573	50.5654
313.41	92.3291
318.245	43.8701
323.077	226.237
327.906	148.361
332.733	237.987
337.557	155.539
342.379	60.4961
347.198	10.0146
352.014	101.171
356.828	190.571
361.639	603.468
366.447	1351.43
371.253	2153.75
376.056	2658.87
380.857	2887.97
385.655	2534.08
390.451	1988.09
395.243	1708.61
400.034	1442.44
404.821	1380.43
409.606	1414.75
414.389	1422.42
419.168	1547.49
423.945	1519.04
428.72	1634.66
433.492	1806.07
438.261	1984.17
443.028	2350.48
447.792	3140.03
452.553	4024.57
457.312	5147.5
462.068	7038.86
466.822	9876.38
471.573	12865.4
476.321	14662.5
481.067	11564.9
485.81	6706.97
490.551	3597.84
495.289	2016.68
500.024	1449.86
504.757	1534.25
509.487	2075.57
514.214	2574.54
518.939	3352.39
523.661	4115.22
528.381	4767.14
533.098	5222.21
537.812	6062.48
542.524	6728.02
547.233	6544.64
551.94	5895.69
556.644	4903.18
561.345	3913.36
566.044	3739.62
570.74	3254.41
575.433	2487.23
580.124	2145.03
584.812	1511.02
589.498	1146.39
594.181	1202.57
598.861	1045.22
603.539	1202.41
608.214	1246.24
612.887	1781.89
617.557	2087.61
622.224	2642.4
626.889	2936.97
631.551	3175.79
636.21	2841.9
640.867	2308.94
645.521	1743.7
650.173	1235.97
654.822	867.671
659.468	579.792
664.112	302.324
668.753	191.256
673.392	195.57
678.028	4.25293
682.661	59.2607
687.292	153.542
691.92	59.8857
696.545	150.445
701.168	195.102
705.788	93.79
710.406	122.422
715.021	62.1572
719.633	105.155
724.243	86.3809
728.85	166.281
733.455	287.8
738.056	503.025
742.656	613.806
747.252	504.75
751.846	725.954
756.438	734.394
761.027	634.524
765.613	746.304
770.196	823.835
774.777	903.291
779.356	1035.54
783.932	942.268
788.505	974.851
793.075	979.936
797.643	977.51
802.208	690.681
806.771	476.174
811.331	571.04
815.888	270.419
820.443	256.231
824.995	117.864
829.545	107.752
834.092	123.993
838.636	176.968
843.178	233.101
847.717	72.7959
852.254	32.1836
856.788	82.335
861.319	1.65918
865.848	11.2012
870.374	30.1221
874.897	21.2285
879.418	52.4922
883.936	72.9834
888.452	149.923
892.965	280.401
897.475	394.435
901.983	426.036
906.488	515.219
910.99	655.002
915.49	793.402
919.988	805.435
924.482	783.717
928.974	934.019
933.464	1137.21
937.951	1312.18
942.435	1413.74
946.917	1387.68
951.396	1439.95
955.872	1545.26
960.346	1591.93
964.817	1616.52
969.285	1860.3
973.751	1874.72
978.215	1923.23
982.675	2088.35
987.134	1829.98
991.589	1786.03
996.042	1506.71
1000.49	1276.11
1004.94	1249.25
1009.38	1173.03
1013.83	1002.37
1018.27	997.312
1022.7	857.682
1027.14	951.685
1031.57	846.055
1036	799.815
1040.43	914.013
1044.85	951.63
1049.27	1013.66
1053.69	1086.15
1058.11	1118.08
1062.52	1334.53
1066.93	1380.44
1071.34	1378.84
1075.75	1476.71
1080.15	1139.09
1084.55	932.999
1088.95	882.152
1093.35	673.465
1097.74	802.054
1102.13	626.191
1106.52	645.631
1110.9	754.428
1115.28	813.36
1119.66	868.333
1124.04	931.076
1128.41	1053.96
1132.79	1237.51
1137.16	1107.67
1141.52	1166.04
1145.89	1387.57
1150.25	1357.29
1154.61	1532.42
1158.96	1414.72
1163.32	1547.68
1167.67	1505.84
1172.02	1413.41
1176.36	1508.99
1180.71	1248.12
1185.05	1123.36
1189.38	1029.6
1193.72	1084.44
1198.05	854.656
1202.38	890.989
1206.71	549.644
1211.04	484.997
1215.36	341.252
1219.68	297.71
1224	132.44
1228.31	77.0889
1232.62	47.9053
1236.93	20.2246
1241.24	131.974
1245.54	74.9805
1249.84	88.8193
1254.14	50.3037
1258.44	58.9756
1262.73	11.3018
1267.03	15.6826
1271.31	62.2197
1275.6	28.9697
1279.88	14.585
1284.16	14.4443
1288.44	119.443
1292.72	65.7686
1296.99	118.025
1301.26	35.9648
1305.53	122.547
1309.79	13.5088
1314.06	151.032
1318.32	22.6016
1322.57	82.7256
1326.83	20.4482
1331.08	133.659
1335.33	55.9893
1339.58	141.733
1343.82	30.9307
1348.06	47.7754
1352.3	151.22
1356.54	161.818
1360.77	98.6543
1365.01	206.043
1369.23	85.4492
1373.46	229.083
1377.68	110.202
1381.9	140.402
1386.12	108.262
1390.34	133.103
1394.55	69.1289
1398.76	27.6143
1402.97	88.3018
1407.18	161.653
1411.38	82.7519
1415.58	86.4736
1419.78	28.6035
1423.97	101.526
1428.17	108.72
1432.36	93.5215
1436.54	5.54199
1440.73	112.579
1444.91	83.8662
1449.09	82.0898
1453.27	54.5889
1457.44	157.308
1461.61	76.3672
1465.78	37.0615
1469.95	229.773
1474.11	147.132
1478.27	70.499
1482.43	10.332
1486.59	234.887
1490.74	50.1397
1494.89	66.5439
1499.04	193.66
1503.19	133.981
1507.33	166.985
1511.47	123.833
1515.61	108.656
1519.75	315.57
1523.88	123.242
1528.01	63.0869
1532.14	271.55
1536.26	189.36
1540.38	137.266
1544.51	229.319
1548.62	234.362
1552.74	72.8018
1556.85	125.751
1560.96	174.652
1565.07	43.9971
1569.17	182.845
1573.27	8.16992
1577.37	0
