Measurement: Raman, 514 nm, ccw, Raman Data Processed
Mineral: Osumilite
Rruff sample: R060385
Ideal chemistry: KFe^2+^_2_(Al_5_Si_10_)O_30_
Locality: Funtanafigu Quarry, Monte Arci, near Oristano, Sardinia
Source: Michael Scott
Description: Black tabular distorted hexagonal crystals associated with colorless tridymite
Measured chemistry: (K_0.72_Na_0.15_Ca_0.01_)_Σ=0.88_(Fe^2+^_1.07_Mg_0.93_Mn_0.06_)_Σ=2.06_(Al_2.69_Fe^3+^_0.31_)_Σ=3_(Si_10.28_Al_1.72_)_Σ=12_O_30_
Pin_id: M01364
Orientation: Laser parallel to c* (0 0 1). Fiducial mark perpendicular to laser is parallel to a [1 0 0]
Raman shift (cm-1)	intensity
141.324	0
146.251	286.688
151.175	1051.35
156.096	2554.33
161.015	3194.55
165.931	2011.1
170.844	1489.13
175.755	1358.42
180.663	1547.01
185.569	1582.92
190.472	1811.13
195.373	2006.7
200.27	2177.53
205.166	1462.61
210.058	1142.5
214.948	1234.92
219.836	1002.5
224.721	978.144
229.603	1044.27
234.482	1468.32
239.359	1659.76
244.234	1772.58
249.106	1927.15
253.975	2101.2
258.841	2143.64
263.705	2804.64
268.567	3773.5
273.425	5131
278.281	5598.29
283.135	4639.51
287.986	2812.74
292.834	1396.14
297.68	487.742
302.523	222.265
307.363	64.8862
312.201	40.3916
317.037	128.297
321.869	143.031
326.699	242.012
331.527	172.666
336.351	196.457
341.174	111.938
345.993	31.6123
350.81	65.0747
355.625	199.67
360.436	561.762
365.245	1226.7
370.052	1998.27
374.856	2665.88
379.657	2871.41
384.456	2649.34
389.252	2346.57
394.045	1808.29
398.836	1474.6
403.625	1472.27
408.41	1476.34
413.193	1396.79
417.974	1433.67
422.751	1678.96
427.527	1650.7
432.299	1710.96
437.069	1979.48
441.836	2231.02
446.601	2844.71
451.363	3743.57
456.123	4928.62
460.88	6445.21
465.634	9038.49
470.386	12234.1
475.135	14556.9
479.881	12452
484.625	7524.14
489.366	3951.49
494.105	2129.03
498.84	1285.64
503.574	1210.96
508.305	1572.98
513.033	2159.98
517.758	2927.88
522.481	3654.77
527.201	4240.78
531.919	4913.51
536.634	5344.53
541.346	6057.42
546.056	6187
550.763	5753.69
555.468	4341.86
560.17	3560.99
564.869	3109.9
569.566	2617.52
574.26	2337.46
578.952	1766.14
583.641	1411.26
588.327	1310.26
593.011	1161.39
597.692	1112.72
602.37	1158.69
607.046	1354.37
611.719	1591.96
616.39	1992.74
621.058	2389.65
625.723	2883.6
630.386	3081.08
635.046	2965.21
639.703	2357
644.358	1868.77
649.01	1291.15
653.66	1007.91
658.307	757.535
662.951	485.513
667.593	319.877
672.232	36.9839
676.869	38.5523
681.503	21.2236
686.134	139.888
690.763	46.5454
695.389	105.612
700.013	26.0483
704.633	5.63574
709.252	65.4795
713.867	160.842
718.48	40.3701
723.091	165.207
727.698	265.883
732.304	201.904
736.906	407.911
741.506	499.935
746.103	555.167
750.698	573.797
755.29	639.223
759.88	740.419
764.467	869.338
769.051	806.942
773.632	1012.2
778.211	1027.07
782.788	1014.55
787.362	1005.6
791.933	1019.22
796.501	896.39
801.067	700.091
805.631	671.312
810.191	541.039
814.749	367.612
819.305	324.925
823.858	201.763
828.408	132.278
832.956	38.1724
837.501	79.4019
842.043	167.637
846.583	90.4273
851.12	115.865
855.654	98.4419
860.186	60.6992
864.716	43.561
869.242	26.6416
873.766	32.4946
878.288	62.0244
882.807	101.04
887.323	252.582
891.837	210.668
896.348	382.312
900.856	440.53
905.362	580.334
909.865	583.74
914.366	788.767
918.864	825.431
923.359	884.75
927.852	994.741
932.342	1043.42
936.829	1238.82
941.314	1424.93
945.796	1449.8
950.276	1530.44
954.753	1631.97
959.228	1685.5
963.699	1668.49
968.169	1869.81
972.635	1998.92
977.099	1979.08
981.56	2074.25
986.019	2023.42
990.475	1935
994.929	1650.85
999.38	1426.24
1003.83	1157.39
1008.27	1104.04
1012.72	984.517
1017.16	1075.52
1021.6	919.092
1026.03	885.142
1030.46	890.721
1034.89	887.753
1039.32	912.207
1043.74	1011.19
1048.17	969.7
1052.59	1116.69
1057	1224.19
1061.42	1193.2
1065.83	1441.69
1070.24	1355.66
1074.65	1547.15
1079.05	1246.21
1083.45	1001.85
1087.85	890.016
1092.25	765.734
1096.64	586.027
1101.03	675.9
1105.42	611.926
1109.8	793.218
1114.19	870.611
1118.57	824.935
1122.95	1040.95
1127.32	1062.79
1131.69	1075.83
1136.06	1227.8
1140.43	1168.21
1144.8	1230.19
1149.16	1248.98
1153.52	1356.27
1157.87	1379.33
1162.23	1468.08
1166.58	1469.06
1170.93	1458.22
1175.28	1436.03
1179.62	1332.31
1183.96	1190.63
1188.3	1248.59
1192.64	987.707
1196.97	866.891
1201.3	819.389
1205.63	676.677
1209.95	304.784
1214.28	412.916
1218.6	249.151
1222.92	219.138
1227.23	292.197
1231.55	19.1182
1235.86	68.9438
1240.16	84.6812
1244.47	31.9121
1248.77	64.0786
1253.07	23.416
1257.37	33.6289
1261.66	24.585
1265.95	67.3296
1270.24	3.27393
1274.53	53.4062
1278.81	13.1279
1283.09	36.749
1287.37	45.0762
1291.65	34.6094
1295.92	27.356
1300.19	62.2803
1304.46	58.978
1308.73	110.928
1312.99	72.9175
1317.25	103.382
1321.51	109.898
1325.77	145.963
1330.02	49.2627
1334.27	33.9971
1338.52	21.2515
1342.76	191.072
1347	87.5132
1351.24	76.167
1355.48	226.382
1359.72	183.173
1363.95	120.717
1368.18	80.8545
1372.4	187.315
1376.63	98.1226
1380.85	77.5889
1385.07	178.164
1389.29	148.568
1393.5	101.801
1397.71	118.504
1401.92	113.306
1406.13	76.5518
1410.33	154.558
1414.53	64.2519
1418.73	175.5
1422.92	99.5122
1427.12	94.0366
1431.31	92.1226
1435.5	1.4917
1439.68	66.5967
1443.87	13.6265
1448.05	139.773
1452.22	140.26
1456.4	130.97
1460.57	46.7441
1464.74	59.957
1468.91	87.1724
1473.07	140.669
1477.23	141.792
1481.39	156.798
1485.55	136.715
1489.7	143.87
1493.86	141.845
1498.01	206.856
1502.15	191.742
1506.3	111.45
1510.44	208.007
1514.58	217.144
1518.71	184.946
1522.85	131.864
1526.98	127.48
1531.11	168.258
1535.23	75.0425
1539.35	95.6284
1543.47	152.891
1547.59	137.772
1551.71	269.565
1555.82	247.093
1559.93	97.5923
1564.04	0.164551
1568.14	36.6318
1572.25	159.644
1576.35	20.6118
