Measurement: Raman, 514 nm, depolarized, Raman Data Processed
Mineral: Painite
Rruff sample: R060957
Ideal chemistry: CaZr^4+^Al_9_O_15_(BO_3_)
Locality: Ohngaing Village, Mogok, Burma
Source: Marcus Origlieri
Description: Single crystal, reddish-brown to orangish prism section, several prism forms, small transparent areas.
Pin_id: M01225
Orientation: Laser parallel to -a* (-1 0 0). Fiducial mark perpendicular to laser is parallel to c [0 0 1]
Raman shift (cm-1)	intensity
163.03	0
167.95	163.191
172.867	815.222
177.781	1658.12
182.692	3322.88
187.6	1145.33
192.506	136.842
197.409	167.151
202.309	525.4
207.206	1094.35
212.101	2210.91
216.993	3910.48
221.882	6583.82
226.768	5340.1
231.652	2013.7
236.533	618.031
241.411	342.159
246.286	51.1465
251.159	96.9902
256.028	5.55566
260.895	123.242
265.76	409.606
270.621	118.594
275.48	599.221
280.336	802.9
285.189	1101.72
290.04	797.049
294.887	640.795
299.732	590.434
304.575	1217.29
309.414	1612.08
314.251	794.774
319.085	29.9102
323.916	124.706
328.745	147.863
333.571	22
338.394	185.328
343.214	246.53
348.032	659.261
352.847	1076.01
357.659	522.679
362.468	178.156
367.275	588.944
372.079	1444.95
376.88	3822.89
381.679	5861.15
386.475	3398.03
391.268	1977.3
396.058	2388.83
400.846	3218.51
405.631	2025.94
410.413	1469.8
415.192	542.289
419.969	4.01172
424.743	117.465
429.515	902.818
434.283	2816.01
439.049	3627.09
443.813	2693.9
448.573	3002.66
453.331	1919.34
458.086	2160.81
462.838	4909.02
467.588	8105.14
472.335	5343.5
477.08	2641.53
481.821	2165.14
486.56	2360.3
491.296	3262.6
496.03	2418.86
500.761	1496.15
505.489	2007.5
510.214	2717.92
514.937	3567.42
519.657	5397.01
524.375	9435.7
529.089	12203
533.801	9617.93
538.511	7082.82
543.218	4342.94
547.922	1828.63
552.623	735.762
557.321	312.93
562.017	437.016
566.711	1652.52
571.401	3683.35
576.089	4337.57
580.775	3047.78
585.457	3253.99
590.137	4308.18
594.814	3386.34
599.489	1508.48
604.161	856.58
608.83	1212.79
613.497	2923.53
618.161	5822.9
622.822	6581.85
627.481	4220.09
632.137	1931.4
636.79	1248.67
641.441	826.977
646.089	1070.01
650.734	1578.31
655.377	1449.45
660.017	598.541
664.654	161.81
669.289	174.176
673.921	308.914
678.551	377.293
683.177	0.392578
687.802	481.609
692.423	1397.74
697.042	1738.77
701.658	1583.4
706.272	1817.62
710.883	2160.51
715.491	3031.86
720.097	3436.58
724.7	2662.89
729.301	1888.5
733.898	1540.49
738.494	1407.65
743.086	1689.81
747.676	1764.7
752.263	1840.92
756.848	2170.04
761.43	2437.23
766.01	2890.5
770.586	3736.82
775.161	4553.48
779.732	5956.42
784.301	7710.03
788.868	9648.26
793.431	10237.2
797.992	9078.26
802.551	7772.84
807.107	6512.3
811.66	5555.97
816.211	4579.91
820.759	3377.59
825.304	2422.95
829.847	1885.07
834.388	1958.31
838.925	1845.36
843.46	2130.4
847.993	2104.1
852.523	1518.45
857.05	1039.43
861.575	818.012
866.097	433.187
870.616	281.932
875.133	235.327
879.647	219.712
884.159	61.8223
888.668	148.418
893.175	95.1621
897.679	132.507
902.18	6.57422
906.679	210.492
911.175	114.606
915.669	27.0635
920.16	50.3096
924.648	120.269
929.134	132.901
933.617	98.4951
938.098	25.3721
942.576	93.8809
947.052	46.8916
951.525	7.27539
955.995	91.0772
960.463	7.46289
964.928	64.2676
969.391	244.805
973.851	316.202
978.309	682.967
982.764	2111.1
987.216	5183.6
991.666	5614.49
996.114	2223.77
1000.56	773.47
1005	578.571
1009.44	341.25
1013.88	46.667
1018.31	42.1162
1022.74	82.1221
1027.17	83.4199
1031.6	204.011
1036.03	359.691
1040.45	303.708
1044.87	523.474
1049.28	842.962
1053.7	759.459
1058.11	771.424
1062.52	957.2
1066.92	796.18
1071.33	785.917
1075.73	794.275
1080.13	812.396
1084.53	723.606
1088.92	617.344
1093.31	742.545
1097.7	592.914
1102.09	698.695
1106.47	578.439
1110.85	726.312
1115.23	686.827
1119.61	542.238
1123.98	661.786
1128.35	486.164
1132.72	554.238
1137.08	517.633
1141.45	498.996
1145.81	644.564
1150.17	516.166
1154.52	402.719
1158.88	305.051
1163.23	393.424
1167.58	433.06
1171.92	273.191
1176.27	296.527
1180.61	286.053
1184.94	295.07
1189.28	230.574
1193.61	72.4609
1197.94	258.82
1202.27	248.758
1206.6	188.131
1210.92	104.994
1215.24	141.475
1219.56	128.481
1223.88	108.01
1228.19	17.1543
1232.5	17.752
1236.81	132.627
1241.12	111.768
1245.42	98.2031
1249.72	17.043
1254.02	45.9961
1258.31	115.277
1262.61	96.8398
1266.9	10.0059
1271.19	101.066
1275.47	147.629
1279.76	185.484
1284.04	189.955
1288.32	404.981
1292.59	328.336
1296.87	574.594
1301.14	566.668
1305.4	451.467
1309.67	620.916
1313.93	924.867
1318.2	1005.8
1322.45	808.01
1326.71	694.527
1330.96	456.326
1335.22	332.404
1339.46	262.254
1343.71	112.148
1347.95	59.0371
1352.2	244.135
1356.44	189.393
1360.67	314.586
1364.91	139.588
1369.14	185.16
1373.37	189.082
1377.59	100.717
1381.82	56.7461
1386.04	83.5508
1390.26	51.9121
1394.48	22.375
1398.69	114.969
1402.9	144.959
1407.11	8.29297
1411.32	160.81
1415.52	3.56445
1419.72	5.73438
1423.92	6.63867
1428.12	74.0606
1432.32	140.078
1436.51	209.248
1440.7	48.4922
1444.89	93.4961
1449.07	122.748
1453.25	121.258
1457.43	194.01
1461.61	157.606
1465.79	244.221
1469.96	402.654
1474.13	356.316
1478.3	245.703
1482.46	93.3359
1486.63	141.256
1490.79	149.156
1494.95	179.484
1499.1	235.51
1503.26	118.049
1507.41	197
1511.56	18.7109
1515.7	72.9805
1519.85	123.672
1523.99	21.8027
1528.13	89.1836
1532.26	177.709
1536.4	115.228
1540.53	78.4863
1544.66	35.1348
1548.79	84.541
1552.91	163.639
1557.03	156.408
1561.15	62.4492
