Measurement: Raman, 514 nm, depolarized, Raman Data Processed
Mineral: Painite
Rruff sample: R060957
Ideal chemistry: CaZr^4+^Al_9_O_15_(BO_3_)
Locality: Ohngaing Village, Mogok, Burma
Source: Marcus Origlieri
Description: Single crystal, reddish-brown to orangish prism section, several prism forms, small transparent areas.
Pin_id: M01433
Orientation: Laser parallel to c* (0 0 1). Fiducial mark perpendicular to laser is parallel to a [1 0 0]
Raman shift (cm-1)	intensity
163.03	0
167.95	321.133
172.867	2468.82
177.781	7353.64
182.692	21600.6
187.6	4580.53
192.506	606.469
197.409	335.853
202.309	437.234
207.206	1467.59
212.101	2807.28
216.993	6710.16
221.882	11470.8
226.768	5259.94
231.652	1893.98
236.533	757.311
241.411	83.7793
246.286	19.3711
251.159	3.01172
256.028	81.9062
260.895	935.885
265.76	530.432
270.621	215.881
275.48	228.322
280.336	380.887
285.189	1130.13
290.04	1037.84
294.887	1168.27
299.732	1523.47
304.575	3299.1
309.414	5438.43
314.251	3171.87
319.085	985.129
323.916	73.8789
328.745	23.0664
333.571	106.982
338.394	450.65
343.214	1818.8
348.032	3896.36
352.847	5977.51
357.659	2611.5
362.468	739.174
367.275	778.58
372.079	1301.71
376.88	2831.51
381.679	4990.27
386.475	3861.75
391.268	4867.66
396.058	10845.9
400.846	15051.4
405.631	5011.29
410.413	2147.64
415.192	107.141
419.969	325.754
424.743	405.637
429.515	602.504
434.283	4276.41
439.049	5656.41
443.813	2235.27
448.573	2811.93
453.331	2450.37
458.086	4316.32
462.838	10452.7
467.588	22042.4
472.335	15517.3
477.08	9639.85
481.821	5691.97
486.56	2330.66
491.296	1950.96
496.03	1356.94
500.761	273.938
505.489	719.422
510.214	1148.98
514.937	1526.41
519.657	2058.72
524.375	4490.88
529.089	8421.99
533.801	12479.2
538.511	20354.6
543.218	14942.8
547.922	5432.81
552.623	2534.31
557.321	1082.86
562.017	1054.13
566.711	2794.66
571.401	6605.19
576.089	7463.68
580.775	6106.61
585.457	8356.01
590.137	12631.8
594.814	10001.1
599.489	4288.73
604.161	1773.73
608.83	1280.09
613.497	1790.91
618.161	3816.22
622.822	3866.83
627.481	2157.75
632.137	1258.94
636.79	1279.38
641.441	2613.07
646.089	5611.05
650.734	9049.29
655.377	8564.88
660.017	4285.02
664.654	1754.64
669.289	339.633
673.921	63.2012
678.551	374.637
683.177	425.711
687.802	310.998
692.423	95.5234
697.042	834.256
701.658	2005.66
706.272	3579.79
710.883	6626.91
715.491	12104.6
720.097	16477.8
724.7	12124.5
729.301	6760.56
733.898	4643.07
738.494	4112.94
743.086	3931.16
747.676	3960.71
752.263	4178.88
756.848	4875.83
761.43	5530.64
766.01	6555.27
770.586	8488.41
775.161	10495.4
779.732	13727.8
784.301	18861.6
788.868	24824.7
793.431	27218.6
797.992	24255.5
802.551	21087.9
807.107	17684.1
811.66	14667.6
816.211	12094
820.759	9005.52
825.304	6001.01
829.847	4928.4
834.388	4222.32
838.925	4098.84
843.46	4772.76
847.993	4645.2
852.523	3990.14
857.05	3240.53
861.575	2004.37
866.097	1377.61
870.616	1157.23
875.133	792.193
879.647	617.443
884.159	573.828
888.668	491.92
893.175	357.252
897.679	184.853
902.18	479.453
906.679	330.1
911.175	206.453
915.669	51.7266
920.16	137.734
924.648	38.4941
929.134	27.4453
933.617	151.59
938.098	99.1738
942.576	149.053
947.052	149.291
951.525	101.461
955.995	54.9492
960.463	19.8105
964.928	176.744
969.391	375.918
973.851	798.861
978.309	1763.22
982.764	5062.46
987.216	14054.6
991.666	16758.5
996.114	6128.43
1000.56	2174.23
1005	968.926
1009.44	393.576
1013.88	287.035
1018.31	83.5371
1022.74	15.3008
1027.17	35.293
1031.6	37.8301
1036.03	161.422
1040.45	667.146
1044.87	866.764
1049.28	1131.14
1053.7	1239.54
1058.11	1397.34
1062.52	1350.69
1066.92	1494.86
1071.33	1379.09
1075.73	1222.15
1080.13	1324.31
1084.53	1445.62
1088.92	1276.23
1093.31	1385.77
1097.7	1247.63
1102.09	1147.35
1106.47	1159.23
1110.85	1262.56
1115.23	1258.92
1119.61	1262.64
1123.98	1137.52
1128.35	938.803
1132.72	979.102
1137.08	878.121
1141.45	1018.32
1145.81	907.902
1150.17	937.736
1154.52	666.227
1158.88	610.945
1163.23	721.518
1167.58	681.348
1171.92	626.588
1176.27	607.467
1180.61	454.455
1184.94	793.596
1189.28	460.967
1193.61	450.848
1197.94	590.32
1202.27	318.277
1206.6	213.836
1210.92	226.926
1215.24	295.734
1219.56	68.3731
1223.88	303.809
1228.19	271.834
1232.5	260.168
1236.81	146.81
1241.12	86.7461
1245.42	135.967
1249.72	77.5098
1254.02	84.6328
1258.31	56.4492
1262.61	26.8086
1266.9	26.7148
1271.19	339.963
1275.47	27.6309
1279.76	187.629
1284.04	560.346
1288.32	556.223
1292.59	911.008
1296.87	1121.9
1301.14	1548.96
1305.4	1876.91
1309.67	2807.7
1313.93	3919.09
1318.2	5127.89
1322.45	3670.7
1326.71	2553.22
1330.96	2030.88
1335.22	1401.43
1339.46	1016.85
1343.71	731.644
1347.95	705.797
1352.2	841.607
1356.44	809.252
1360.67	722.83
1364.91	948.047
1369.14	810.838
1373.37	537.709
1377.59	490.853
1381.82	111.984
1386.04	157.352
1390.26	17.9023
1394.48	100.756
1398.69	232.207
1402.9	203.059
1407.11	286.371
1411.32	138.922
1415.52	277.506
1419.72	207.094
1423.92	102.762
1428.12	263.164
1432.32	327.848
1436.51	24.0039
1440.7	34.4004
1444.89	10.5078
1449.07	117.961
1453.25	116.016
1457.43	105.768
1461.61	249.856
1465.79	309.111
1469.96	598.537
1474.13	413.188
1478.3	332.238
1482.46	162.318
1486.63	43.3223
1490.79	417.951
1494.95	361.6
1499.1	0.964844
1503.26	210.676
1507.41	54.5488
1511.56	56.0078
1515.7	201.705
1519.85	206.957
1523.99	252.725
1528.13	100.977
1532.26	519.83
1536.4	287.264
1540.53	392.119
1544.66	158.441
1548.79	304.981
1552.91	154.225
1557.03	216.232
1561.15	0.224609
