Measurement: Raman, 514 nm, ccw, Raman Data Processed
Mineral: Paravauxite
Rruff sample: R040179
Ideal chemistry: Fe^2+^Al_2_(PO_4_)_2_(OH)_2_8H_2_O
Locality: Mina Siglo XX, Llallagua, Bolivia
Source: University of Arizona Mineral Museum
Description: Colorless short prismatic crystals in subparallel groups
Measured chemistry: (Fe_0.93_Mg_0.03_Mn_0.02_)Al_1.94_(P_2.05_O_4_)_2_((OH)_0.99_F_0.01_)_2_Â·8H_2_O
Pin_id: M01446
Orientation: Laser parallel to (-1 0 -1). Fiducial mark perpendicular to laser is parallel to b [0 1 0]
Raman shift (cm-1)	intensity
116.808	0
121.758	895.938
126.705	2597.83
131.649	4091.03
136.591	4495.75
141.529	3406.5
146.465	1950.69
151.398	487.242
156.328	125.695
161.256	220.07
166.18	907.43
171.102	1742.29
176.021	2237.81
180.937	3266.48
185.85	4075.25
190.76	4819.54
195.668	4589.61
200.572	3174.24
205.474	1086.43
210.374	643.406
215.27	531.227
220.163	1961.49
225.054	5092.38
229.942	10344.1
234.827	13994.8
239.709	11758.4
244.589	7569.62
249.465	4116.28
254.339	2781.97
259.21	2619.15
264.079	3014.5
268.944	4926.84
273.807	8558.54
278.667	14041.6
283.524	16310.1
288.378	13580.3
293.23	11427.9
298.079	9698.41
302.925	7766.66
307.768	5865.24
312.609	5031.93
317.446	4232.13
322.281	3220.51
327.113	1423.37
331.943	434.805
336.769	204.027
341.593	285.07
346.414	412.562
351.233	752.387
356.048	144.289
360.861	277.602
365.671	316.047
370.478	1515.66
375.283	2368.18
380.084	2736.07
384.883	3417.45
389.68	3778.28
394.473	5887.17
399.264	8108.85
404.052	8632.56
408.837	6183.98
413.62	3447.03
418.4	2756.11
423.177	3536.36
427.951	4608.07
432.722	5019.58
437.491	4842.46
442.257	4669.86
447.021	5618.79
451.781	7205.37
456.539	9792.13
461.294	13767.8
466.047	18161.2
470.797	22683.2
475.544	24096.6
480.288	22364.8
485.03	17946.1
489.768	12984.7
494.504	8628.38
499.238	6184.58
503.969	3573.66
508.697	2121.98
513.422	1248.42
518.144	1485.32
522.864	1793.5
527.582	3015.99
532.296	3890.87
537.008	4806.38
541.717	5416.52
546.423	5342.75
551.127	5260.09
555.828	6586.67
560.526	9251.34
565.222	14527.5
569.915	23169.9
574.605	33595.6
579.292	41165.2
583.977	41317.6
588.659	36340.6
593.339	30117.2
598.016	24485.5
602.69	17866.9
607.361	13076.4
612.03	8876.52
616.696	5792.44
621.359	3361.23
626.02	2390.37
630.678	1975.43
635.333	2034.43
639.986	1891.62
644.636	1986.8
649.284	1920.13
653.928	1744.04
658.57	1038.42
663.21	365.844
667.846	195.859
672.481	227.195
677.112	208.117
681.741	336.938
686.367	24.3594
690.99	97.6016
695.611	126.484
700.229	4.875
704.845	292.727
709.458	491.07
714.068	511.117
718.676	280.258
723.281	164.516
727.883	27.1484
732.483	282.641
737.08	244.836
741.674	10.2031
746.266	199.875
750.855	146.602
755.442	161.148
760.025	40.8281
764.607	46.1484
769.185	241.195
773.761	137.852
778.335	132.203
782.906	95.1562
787.474	321.336
792.039	202.969
796.602	531.398
801.162	172.898
805.72	607.445
810.275	885.984
814.828	357.547
819.378	589.922
823.925	303.906
828.47	569.984
833.012	1098.59
837.551	537.062
842.088	706.883
846.622	720.031
851.154	746.344
855.683	1143.31
860.209	664.406
864.733	847.43
869.254	381.633
873.773	386.312
878.289	440.023
882.803	372.719
887.314	418.477
891.822	441.391
896.328	669.203
900.831	685.164
905.332	919.992
909.83	649.742
914.325	1072.92
918.818	1282.39
923.308	1390.58
927.796	1884.01
932.281	2002.26
936.764	2085.98
941.244	2581.48
945.721	3441.09
950.196	3546.77
954.668	4272.09
959.138	5130.7
963.605	7196.46
968.07	9366.87
972.532	13904
976.991	21928.2
981.448	37075.3
985.903	66557.9
990.355	102800
994.804	104652
999.251	79844.2
1003.7	49892
1008.14	26155.8
1012.58	14047.1
1017.01	9291.04
1021.45	5619.47
1025.88	3637.41
1030.31	2667.12
1034.73	2624.39
1039.16	2202.98
1043.58	2074.25
1048	3080.99
1052.41	4684.19
1056.83	6083.74
1061.24	5862.81
1065.65	3460.45
1070.05	1756.35
1074.46	956.445
1078.86	404.148
1083.26	213.258
1087.65	158.691
1092.05	10.3203
1096.44	261.117
1100.83	474.43
1105.21	250.172
1109.6	673.023
1113.98	162.211
1118.36	259.75
1122.73	22.1328
1127.1	229.25
1131.47	446.117
1135.84	391.141
1140.21	219.906
1144.57	589.203
1148.93	875.25
1153.29	1943.91
1157.65	2706.26
1162	3203.23
1166.35	4039.79
1170.7	3742.38
1175.05	2781.42
1179.39	1536.05
1183.73	1004.77
1188.07	434.938
1192.41	455.422
1196.74	24.1562
1201.07	88.7188
1205.4	12.4453
1209.72	441.047
1214.05	138.797
1218.37	603.594
1222.69	57.4141
1227.01	79.0703
1231.32	327.82
1235.63	208.516
1239.94	23.2109
1244.24	442.766
1248.55	384.391
1252.85	38.6328
1257.15	185.062
1261.44	630.406
1265.74	278.742
1270.03	12.1016
1274.32	298.523
1278.61	443.898
1282.89	194.641
1287.17	481.531
1291.45	458.602
1295.73	469.883
1300	503.562
1304.27	544.297
1308.54	773.5
1312.81	339.992
1317.08	861.461
1321.34	806.789
1325.6	632.844
1329.85	1065.31
1334.11	450.008
1338.36	756.82
1342.61	349.422
1346.86	714.727
1351.1	756.562
1355.35	442.727
1359.59	547.734
1363.82	334.766
1368.06	680.391
1372.29	368.656
1376.52	19.6562
1380.75	193.562
1384.97	360.797
1389.2	274.016
1393.42	594.273
1397.64	323.539
1401.85	365.672
1406.07	578.742
1410.28	55.4531
1414.49	434.375
1418.69	8.48438
1422.9	280.609
1427.1	552.008
1431.3	506.375
1435.49	1265.73
1439.69	397.055
1443.88	1027.4
1448.07	906.211
1452.26	891.195
1456.44	898.008
1460.62	712.891
1464.8	514.578
1468.98	1014.27
1473.15	502.891
1477.33	386.609
1481.5	245.656
1485.66	651.852
1489.83	197.398
1493.99	181.312
1498.15	597.766
1502.31	76.4844
1506.47	436.781
1510.62	84.9609
1514.77	705.867
1518.92	615.977
1523.07	616.141
1527.21	678.086
1531.35	475.648
1535.49	546.422
1539.63	14.7266
1543.76	194.094
1547.9	497.516
1552.03	328.977
1556.15	226.328
1560.28	646.883
1564.4	3.30469
1568.52	220.953
1572.64	679.852
1576.75	399.102
