Measurement: Raman, 514 nm, depolarized, Raman Data Processed
Mineral: Paravauxite
Rruff sample: R040179
Ideal chemistry: Fe^2+^Al_2_(PO_4_)_2_(OH)_2_8H_2_O
Locality: Mina Siglo XX, Llallagua, Bolivia
Source: University of Arizona Mineral Museum
Description: Colorless short prismatic crystals in subparallel groups
Measured chemistry: (Fe_0.93_Mg_0.03_Mn_0.02_)Al_1.94_(P_2.05_O_4_)_2_((OH)_0.99_F_0.01_)_2_Â·8H_2_O
Pin_id: M00109
Orientation: Laser parallel to c* (0 0 1). Fiducial mark perpendicular to laser is parallel to a [1 0 0]
Raman shift (cm-1)	intensity
54.966	0
59.164	99.549
63.36	7.984
67.554	105.782
71.747	780.341
75.937	1576.86
80.125	1836.83
84.311	1811.43
88.496	1555.21
92.678	1551.87
96.858	1565.17
101.036	1510.84
105.212	1575.57
109.387	1927.75
113.559	2416.68
117.729	3112.91
121.897	3624.11
126.063	3375.03
130.228	2719.86
134.39	2066.58
138.55	1830.66
142.709	1562.13
146.865	1333.63
151.019	1024.92
155.171	926.366
159.322	1569.17
163.47	3201.47
167.617	4399.35
171.761	3869.84
175.904	3484.97
180.044	3051.77
184.183	2564.27
188.319	2181.52
192.454	2343.5
196.586	2932.19
200.717	2216.61
204.846	1315.65
208.972	1191.18
213.097	916.41
217.22	1163.21
221.341	1769
225.46	3308.53
229.577	6404.73
233.692	9648.51
237.805	9271.17
241.916	6310.57
246.025	3648.4
250.132	2124.4
254.237	1429.38
258.34	1246.19
262.442	1057.69
266.541	1286.77
270.639	1779.33
274.734	3107.29
278.828	5948.61
282.919	8104.22
287.009	7039.07
291.097	6512.12
295.183	6728.33
299.266	5956.82
303.348	4405.78
307.428	2916.33
311.507	1678.41
315.583	891.77
319.657	389.184
323.729	92.588
327.8	28.967
331.868	185.303
335.935	63.579
339.999	97.234
344.062	156.279
348.123	273.7
352.182	297.673
356.239	125.157
360.294	20.995
364.347	494.776
368.398	909.736
372.448	1616.08
376.495	2293.3
380.54	2574.59
384.584	2405.9
388.626	2078.34
392.666	2027
396.704	2105.79
400.74	2466.63
404.774	2724.47
408.806	2766.24
412.836	2567.87
416.865	2267.32
420.891	2089.57
424.916	1997.57
428.939	2409.31
432.959	2283.75
436.978	1968.88
440.996	1518.68
445.011	1311.16
449.024	1582.27
453.036	1941.02
457.045	2696.15
461.053	3913.15
465.059	5571.82
469.063	7364.07
473.065	9114.56
477.065	9527.35
481.063	9566.28
485.06	8650.65
489.054	7351.39
493.047	6335.26
497.038	5273.94
501.027	4193.18
505.014	3324.29
508.999	2451.18
512.982	1884.4
516.964	1482.99
520.944	1324.12
524.921	1339.45
528.897	1466.84
532.871	2062.79
536.844	2484.62
540.814	2859.16
544.783	3164.51
548.749	3259.7
552.714	3308.72
556.677	3452.04
560.638	3874.02
564.597	4663.44
568.555	5319.21
572.511	5979.31
576.464	6083.43
580.416	5613.91
584.366	4752.77
588.315	3928.46
592.261	3048.1
596.206	2129.6
600.148	1369.61
604.089	813.762
608.028	487.932
611.965	170.047
615.901	71.542
619.834	185.51
623.766	257.007
627.696	107.553
631.624	6.62
635.551	174.644
639.475	518.683
643.398	866.264
647.318	918.512
651.237	902.911
655.155	931.444
659.07	596.515
662.984	497.351
666.895	365.064
670.805	204.787
674.713	171.336
678.62	118.565
682.524	84.21
686.427	104.07
690.328	8.795
694.227	18.571
698.124	10.458
702.02	140.778
705.913	34.339
709.805	108.102
713.695	10.207
717.584	150.57
721.47	138.3
725.355	192.446
729.238	278.072
733.119	271.157
736.998	264.722
740.876	262.791
744.752	188.374
748.626	245.467
752.498	109.076
756.368	290.145
760.237	209.683
764.104	112.711
767.969	43.2
771.832	204.429
775.693	141.928
779.553	43.029
783.411	19.237
787.267	87.121
791.122	51.51
794.974	14.436
798.825	55.788
802.674	51.453
806.522	77.323
810.367	130.887
814.211	181.172
818.053	235.187
821.893	289.938
825.732	358.431
829.568	307.428
833.403	416.402
837.236	467.001
841.068	481.108
844.898	457.763
848.726	481.196
852.552	491.041
856.376	396.79
860.199	472.787
864.02	498.316
867.839	523.693
871.656	548.394
875.472	507.292
879.286	502.841
883.098	565.373
886.909	541.54
890.717	735.246
894.524	680.466
898.33	677.54
902.133	786.951
905.935	856.794
909.735	981.78
913.533	950.105
917.33	1285.26
921.124	1451.89
924.918	1556.38
928.709	1775.26
932.499	1894.32
936.286	2148.11
940.073	2360.97
943.857	2591.02
947.64	2648.17
951.421	2977.67
955.2	3353.75
958.978	3718.53
962.753	4345.17
966.527	5236.13
970.3	6285.39
974.071	8131.96
977.84	11296.8
981.607	16966
985.372	28362.4
989.136	45372.3
992.898	54830.7
996.659	43335.5
1000.42	29537.9
1004.17	17937.8
1007.93	10380.3
1011.68	6175.23
1015.43	4060.64
1019.18	2737.57
1022.93	1934.9
1026.68	1491.63
1030.42	1024.71
1034.17	847.102
1037.91	702.819
1041.65	566.867
1045.39	648.229
1049.12	791.894
1052.86	1281.14
1056.59	1940.39
1060.33	2262.49
1064.06	1645.29
1067.78	899.693
1071.51	340.544
1075.23	100.486
1078.96	55.949
1082.68	71.752
1086.4	58.494
1090.12	111.799
1093.83	101.066
1097.55	255.024
1101.26	296.514
1104.97	443.463
1108.68	344.709
1112.39	301.918
1116.1	247.62
1119.8	165.965
1123.5	22.218
1127.2	192.039
1130.9	138.764
1134.6	290.174
1138.3	245.847
1141.99	337.312
1145.69	435.783
1149.38	633.228
1153.07	913.221
1156.76	1132.62
1160.44	1691.31
1164.13	2134.75
1167.81	2398.51
1171.49	2098.92
1175.17	1648.15
1178.85	1017.71
1182.52	679.37
1186.2	444.66
1189.87	309.699
1193.54	135.388
1197.21	52.271
1200.88	0.488
1204.55	11.604
1208.21	27.268
1211.88	18.112
1215.54	11.718
1219.2	44.264
1222.86	45.436
1226.51	1.239
1230.17	49.894
1233.82	60.389
1237.47	7.243
1241.12	2.629
1244.77	76.382
1248.42	98.525
1252.06	38.182
1255.71	24.242
1259.35	59.713
1262.99	22.703
1266.63	36.27
1270.26	33.85
1273.9	60.868
1277.53	60.335
1281.16	133.351
1284.8	18.072
1288.42	90.012
1292.05	68.693
1295.68	23.981
1299.3	44.157
1302.92	62.205
1306.55	12.152
1310.16	19.131
1313.78	113.621
1317.4	168.223
1321.01	16.413
1324.62	142.101
1328.24	118.563
1331.85	66.528
1335.45	55.105
1339.06	152.372
1342.66	198.198
1346.27	130.354
1349.87	285.28
1353.47	241.962
1357.07	200.257
1360.66	187.429
1364.26	159.348
1367.85	244.069
1371.44	189.979
1375.04	202.979
1378.62	204.928
1382.21	256.522
1385.8	265.925
1389.38	172.953
1392.96	221.696
1396.54	363.674
1400.12	284.716
1403.7	203.778
1407.28	242.771
1410.85	296.335
1414.42	346.786
1417.99	267.906
1421.56	337.347
1425.13	201.468
1428.7	202.451
1432.26	289.338
1435.83	271.418
1439.39	293.343
1442.95	269.15
1446.51	266.364
1450.06	266.281
1453.62	264.869
1457.17	380.213
1460.73	298.079
1464.28	188.887
1467.83	124.251
1471.37	268.853
1474.92	254.688
1478.46	167.423
1482.01	160.72
1485.55	174.372
1489.09	197.293
1492.63	220.529
1496.16	176.326
1499.7	22.967
1503.23	208.938
1506.76	461.367
1510.29	149.211
1513.82	198.419
1517.35	0.386
1520.88	43.691
