Measurement: Raman, 514 nm, depolarized, Raman Data Processed
Mineral: Paravauxite
Rruff sample: R040179
Ideal chemistry: Fe^2+^Al_2_(PO_4_)_2_(OH)_2_8H_2_O
Locality: Mina Siglo XX, Llallagua, Bolivia
Source: University of Arizona Mineral Museum
Description: Colorless short prismatic crystals in subparallel groups
Measured chemistry: (Fe_0.93_Mg_0.03_Mn_0.02_)Al_1.94_(P_2.05_O_4_)_2_((OH)_0.99_F_0.01_)_2_Â·8H_2_O
Pin_id: M00447
Orientation: Laser parallel to (1 1 0). Fiducial mark perpendicular to laser is parallel to -c [0 0 -1]
Raman shift (cm-1)	intensity
121.683	0
125.87	305.964
130.055	895.99
134.237	1380.42
138.417	1389.69
142.596	1413.2
146.771	1004.92
150.945	413.396
155.117	35.478
159.286	74.799
163.453	1058.98
167.618	1861.98
171.781	1145.46
175.941	672.911
180.1	675.032
184.256	630.565
188.41	649.061
192.562	959.687
196.711	1656.16
200.859	1349.03
205.004	648.756
209.147	636.464
213.288	673.006
217.427	559.531
221.564	380.212
225.698	425.651
229.83	1043.33
233.96	2225.64
238.088	2435.92
242.214	1590.83
246.338	1052.92
250.459	624.005
254.579	471.42
258.696	514.398
262.811	499.047
266.924	864.199
271.035	1425.59
275.143	2514.88
279.25	4186.43
283.354	5467.45
287.456	4540.8
291.556	3793.53
295.654	3548.37
299.75	3073.71
303.843	2169.18
307.935	1503.51
312.024	843.846
316.111	667.118
320.196	346.174
324.279	104.823
328.36	13.98
332.439	56.445
336.516	60.716
340.59	171.967
344.662	113.479
348.733	146.339
352.801	44.515
356.867	30.193
360.931	5.945
364.992	143.127
369.052	293.58
373.11	317.467
377.165	457.943
381.218	539.983
385.27	631.528
389.319	969.368
393.366	1088.86
397.411	1546.37
401.454	2101.95
405.495	2646.21
409.533	2359.77
413.57	2092.83
417.604	1915.53
421.637	2677.92
425.667	3980
429.695	6111.77
433.721	7473.23
437.745	6324.39
441.767	4145.25
445.787	2675.81
449.805	1996.09
453.821	1685.96
457.834	1555.38
461.846	1774.31
465.856	2082.82
469.863	2410.91
473.868	2718.55
477.872	2785.72
481.873	2601.76
485.872	2173.51
489.869	1973.81
493.864	1660.43
497.857	1460.39
501.848	1176.2
505.837	988.596
509.824	948.473
513.809	791.468
517.792	710.177
521.772	703.544
525.751	788.057
529.728	993.414
533.702	1188.3
537.675	1556.99
541.645	1605.52
545.613	1788.81
549.58	1971.98
553.544	2072.8
557.507	2362.99
561.467	2560.25
565.425	3188.9
569.381	3458.19
573.335	3748.97
577.288	3845.37
581.238	3783.54
585.186	3791.68
589.132	3639.35
593.076	3568.72
597.018	3344.1
600.958	2971.04
604.896	2837.75
608.832	2545.84
612.766	2262.08
616.698	1838.24
620.628	1276.13
624.556	995.644
628.482	798.233
632.405	693.843
636.327	619.085
640.247	594.328
644.165	469.431
648.081	485.102
651.995	354.255
655.907	372.534
659.817	107.69
663.725	273.24
667.63	129.167
671.534	24.63
675.436	181.621
679.336	62.222
683.234	6.288
687.13	80.537
691.024	15.21
694.916	70.323
698.806	24.184
702.694	11.544
706.58	42.5
710.464	106.277
714.346	30.244
718.226	57.061
722.105	85.794
725.981	138.44
729.855	230.976
733.727	143.405
737.597	55.733
741.466	137.959
745.332	150.096
749.196	242.145
753.059	294.111
756.919	235.998
760.778	17.813
764.634	99.527
768.489	141.167
772.341	32.743
776.192	65.773
780.041	84.464
783.887	46.626
787.732	2.351
791.575	1.386
795.416	69.535
799.255	9.731
803.092	89.156
806.927	11.255
810.76	71.608
814.591	101.23
818.421	151.018
822.248	213.596
826.073	56.122
829.897	37.126
833.718	49.021
837.538	152.049
841.356	84.42
845.171	101.544
848.985	138.56
852.797	115.716
856.607	191.913
860.415	281.104
864.221	81.021
868.025	38.123
871.828	179.221
875.628	134.838
879.426	25.346
883.223	145.982
887.018	46.804
890.81	117.496
894.601	148.506
898.39	359.659
902.177	260.966
905.962	252.278
909.745	383.845
913.526	555.342
917.306	455.765
921.083	597.739
924.859	769.681
928.632	726.074
932.404	823.491
936.174	933.758
939.942	1145.73
943.708	1038.39
947.472	1471.15
951.235	1314.92
954.995	1631.5
958.754	1715.11
962.51	2125.44
966.265	2509.44
970.018	3213.64
973.769	4328.03
977.518	6182.65
981.265	9368.96
985.011	16287
988.754	26774.6
992.496	31060.4
996.236	23466.6
999.974	15713.2
1003.71	9660.11
1007.44	5307.26
1011.18	3354.64
1014.91	2172.33
1018.63	1560.28
1022.36	1158.56
1026.09	807.137
1029.81	255.955
1033.53	464.998
1037.25	284.264
1040.97	333.754
1044.68	313.471
1048.4	408.166
1052.11	652.746
1055.82	823.16
1059.53	975.156
1063.23	737.139
1066.94	438.285
1070.64	300.93
1074.34	125.359
1078.04	87.182
1081.74	59.252
1085.43	141.646
1089.12	114.297
1092.82	427.207
1096.51	260.381
1100.19	423.883
1103.88	437.484
1107.56	345.422
1111.25	329.375
1114.93	235.309
1118.61	307.648
1122.28	442.07
1125.96	33.316
1129.63	251.357
1133.3	13.852
1136.97	30.875
1140.64	85.727
1144.31	55.764
1147.97	77.498
1151.63	124.289
1155.29	266.521
1158.95	131.664
1162.61	387.164
1166.26	463.02
1169.92	439.23
1173.57	465.75
1177.22	392.42
1180.87	299.367
1184.51	116.584
1188.15	94.021
1191.8	98.236
1195.44	70.18
1199.08	148.186
1202.71	106.795
1206.35	115.596
1209.98	64.693
1213.61	18.246
1217.24	37.285
1220.87	12.26
1224.5	32.086
1228.12	142.307
1231.75	85.791
1235.37	354.021
1238.99	295.488
1242.6	247.369
1246.22	106.318
1249.83	45.293
1253.44	97.588
1257.05	183.303
1260.66	402.279
1264.27	441.525
1267.87	409.977
1271.48	307.363
1275.08	399.688
1278.68	345.809
1282.28	131.713
1285.87	3.586
1289.47	223.777
1293.06	144.262
1296.65	0
