Measurement: Raman, 514 nm, depolarized, Raman Data Processed
Mineral: Paravauxite
Rruff sample: R040179
Ideal chemistry: Fe^2+^Al_2_(PO_4_)_2_(OH)_2_8H_2_O
Locality: Mina Siglo XX, Llallagua, Bolivia
Source: University of Arizona Mineral Museum
Description: Colorless short prismatic crystals in subparallel groups
Measured chemistry: (Fe_0.93_Mg_0.03_Mn_0.02_)Al_1.94_(P_2.05_O_4_)_2_((OH)_0.99_F_0.01_)_2_Â·8H_2_O
Pin_id: M01446
Orientation: Laser parallel to (-1 0 -1). Fiducial mark perpendicular to laser is parallel to b [0 1 0]
Raman shift (cm-1)	intensity
127.941	0
132.885	767.191
137.826	1145.46
142.764	1910.23
147.699	952.598
152.631	69.6758
157.56	298.562
162.487	2628.46
167.411	4353.22
172.332	3359.27
177.25	2677.66
182.165	2814.46
187.078	3261.89
191.987	3681.14
196.894	3440.33
201.798	2222.8
206.699	495.215
211.598	270.746
216.493	600.066
221.386	2220.87
226.276	5742.51
231.163	10930.1
236.048	13393
240.929	10278.4
245.808	5630.59
250.684	2899.19
255.557	2054.13
260.428	2199.57
265.295	2947.07
270.16	4878.81
275.022	9417.4
279.882	15192.2
284.738	16889.9
289.592	12730
294.443	11308
299.291	9442.89
304.136	6725.56
308.978	4359.74
313.818	3122.78
318.655	2042.91
323.489	1288.59
328.321	766.625
333.15	343.527
337.976	201.258
342.799	496.863
347.619	144.367
352.437	406.266
357.252	258.309
362.064	253.008
366.873	285.754
371.68	1473.04
376.483	2178.57
381.284	2741.74
386.083	2746.78
390.878	3619.87
395.671	4609.41
400.461	5868.47
405.249	6185.53
410.033	5064.5
414.815	4480.75
419.594	4055.52
424.37	5275.53
429.144	6973.73
433.915	7762.41
438.683	5771.77
443.448	4350.13
448.211	3658.21
452.971	3870.37
457.728	4689.23
462.483	6758.05
467.235	8086.64
471.984	9580.47
476.73	9764.2
481.474	8569.71
486.214	6894.08
490.953	4970.85
495.688	2940.16
500.421	2037.71
505.151	1560.57
509.878	858.102
514.603	1140.05
519.325	1676.12
524.044	2534.17
528.76	3405.98
533.474	4352.7
538.185	5644.47
542.894	6773.01
547.599	6925.7
552.302	7271.03
557.003	8374.29
561.7	9879.64
566.395	12525.6
571.087	14396.2
575.777	16095.8
580.464	16853.4
585.148	15852.7
589.829	13458
594.508	11377.6
599.184	9056.74
603.858	6866.55
608.528	4736.58
613.197	2803.81
617.862	1887.1
622.525	1154.86
627.185	1036.95
631.842	1164.32
636.497	1655
641.149	2514.84
645.798	3044.7
650.445	2093.2
655.089	1710.47
659.73	1249.16
664.369	847.359
669.005	402.32
673.639	252.5
678.269	223.887
682.898	5.44141
687.523	100.621
692.146	224.188
696.766	77.6289
701.384	122.562
705.998	86.8047
710.611	224.059
715.22	262.387
719.827	398.91
724.431	305.606
729.033	143.504
733.632	616.559
738.229	469.672
742.822	348.59
747.413	376.586
752.002	144.672
756.588	432.488
761.171	401.004
765.752	24.0195
770.33	57.2773
774.905	163.094
779.478	74.2617
784.048	318.969
788.615	277.773
793.18	180.016
797.742	257.047
802.302	370.297
806.859	585.781
811.414	149.516
815.965	382.922
820.515	224.18
825.061	493.039
829.605	375.703
834.147	599.312
838.686	445.492
843.222	582.539
847.755	721.234
852.286	713.102
856.815	863.828
861.341	1133.38
865.864	741.359
870.384	725.156
874.902	581.547
879.418	467.375
883.931	860.57
888.441	901.766
892.949	1368.08
897.454	1119.27
901.956	1205.92
906.456	1544.87
910.954	1532.09
915.448	1753.87
919.941	1788.82
924.43	2380.36
928.917	2870.16
933.402	2628.98
937.884	2983.6
942.363	3609.8
946.84	3504.34
951.314	4357.63
955.786	5120.65
960.255	6151.92
964.722	7933.06
969.186	9812.38
973.647	14243.8
978.106	21662.6
982.562	37645.3
987.016	66940.7
991.467	90405
995.916	78400.6
1000.36	52752.4
1004.8	29688.2
1009.25	14996.8
1013.68	8261.66
1018.12	5216.63
1022.55	2809.01
1026.98	2633.45
1031.41	1690.82
1035.84	1176.41
1040.26	1251.97
1044.68	939.68
1049.1	1895.44
1053.52	3602.23
1057.93	4376.58
1062.34	3334.66
1066.75	1665.16
1071.15	982.695
1075.56	33.3672
1079.96	158.914
1084.36	559.227
1088.75	36.4453
1093.14	227.758
1097.53	653.055
1101.92	853.445
1106.31	1037.14
1110.69	489.875
1115.07	105.891
1119.45	68.9141
1123.82	198.227
1128.2	77.2422
1132.57	48.9609
1136.93	161.016
1141.3	100.18
1145.66	355.992
1150.02	669.742
1154.38	707.117
1158.74	1031.3
1163.09	1496.68
1167.44	1424.58
1171.79	1306.68
1176.13	1545.9
1180.48	730.242
1184.82	395.656
1189.15	291.023
1193.49	342.055
1197.82	171.055
1202.15	91.1797
1206.48	307.156
1210.81	413.703
1215.13	355.609
1219.45	10.3438
1223.77	122.977
1228.08	322.391
1232.4	98.9453
1236.71	92.6875
1241.02	325.75
1245.32	2.25781
1249.62	407.93
1253.92	163.297
1258.22	297.992
1262.52	725.805
1266.81	404.523
1271.1	230.352
1275.39	760.727
1279.68	34.6484
1283.96	521.789
1288.24	727.828
1292.52	610.492
1296.8	463.742
1301.07	441.469
1305.34	203.086
1309.61	672.617
1313.88	292.086
1318.14	397.188
1322.4	673.812
1326.66	256.289
1330.92	555.344
1335.17	220.422
1339.42	422.094
1343.67	580.703
1347.92	451.289
1352.16	675.352
1356.41	601.266
1360.64	735.695
1364.88	537.531
1369.12	136.742
1373.35	288.875
1377.58	372.203
1381.81	393.344
1386.03	370.836
1390.25	325.781
1394.47	166.508
1398.69	294.672
1402.91	317.852
1407.12	351.898
1411.33	127.352
1415.54	332.797
1419.74	168.5
1423.95	390.852
1428.15	726.547
1432.35	442.797
1436.54	687
1440.74	1119.79
1444.93	486.695
1449.12	690.172
1453.3	804.391
1457.49	824.367
1461.67	801.93
1465.85	700.195
1470.02	934.734
1474.2	353.555
1478.37	205.961
1482.54	359.953
1486.71	507.852
1490.87	407.812
1495.03	646.203
1499.19	714.078
1503.35	574.758
1507.51	200.305
1511.66	602.719
1515.81	319.703
1519.96	564.242
1524.1	666.25
1528.25	234.008
1532.39	837.125
1536.53	1119.47
1540.66	651.242
1544.8	327.281
1548.93	782.297
1553.06	1108.59
1557.18	435.422
1561.31	696.727
1565.43	685.141
1569.55	557.242
1573.67	1034.45
1577.78	11.9531
