Measurement: Raman, 514 nm, depolarized, Raman Data Processed
Mineral: Paravauxite
Rruff sample: R040179
Ideal chemistry: Fe^2+^Al_2_(PO_4_)_2_(OH)_2_8H_2_O
Locality: Mina Siglo XX, Llallagua, Bolivia
Source: University of Arizona Mineral Museum
Description: Colorless short prismatic crystals in subparallel groups
Measured chemistry: (Fe_0.93_Mg_0.03_Mn_0.02_)Al_1.94_(P_2.05_O_4_)_2_((OH)_0.99_F_0.01_)_2_Â·8H_2_O
Pin_id: M00312
Orientation: Laser parallel to a* (1 0 0). Fiducial mark perpendicular to laser is parallel to b [0 1 0]
Raman shift (cm-1)	intensity
113.559	0
117.729	221.633
121.897	398.782
126.063	1030.66
130.228	1631.69
134.39	1998.15
138.55	2175.41
142.709	2255.83
146.865	1876.15
151.019	853.394
155.171	134.064
159.322	53.737
163.47	1679.17
167.617	1173.35
171.761	580.075
175.904	315.686
180.044	430.353
184.183	930.957
188.319	1107.57
192.454	1620.88
196.586	2381.3
200.717	1459.67
204.846	886.808
208.972	682.992
213.097	578.342
217.22	696.479
221.341	549.586
225.46	889.892
229.577	2431.94
233.692	4253.68
237.805	3876.75
241.916	2201.31
246.025	1271.22
250.132	758.15
254.237	334.688
258.34	360.76
262.442	546.309
266.541	671.336
270.639	985.855
274.734	1959.88
278.828	3906.48
282.919	4677.43
287.009	3311.91
291.097	2937.51
295.183	2823.61
299.266	2339.95
303.348	1535.94
307.428	1051.89
311.507	817.708
315.583	453.252
319.657	138.457
323.729	1.419
327.8	32.808
331.868	112.966
335.935	148.562
339.999	175.324
344.062	103.612
348.123	32.648
352.182	73.178
356.239	5.877
360.294	55.129
364.347	235.766
368.398	360.478
372.448	464.716
376.495	748.479
380.54	651.904
384.584	774.629
388.626	985.459
392.666	1324.58
396.704	1562.22
400.74	1973.61
404.774	2225.35
408.806	1881.31
412.836	1647
416.865	1602.34
420.891	2357.48
424.916	3712.41
428.939	5657.05
432.959	6001.39
436.978	4705.44
440.996	3029.17
445.011	1942.6
449.024	1285.59
453.036	998.174
457.045	1110.31
461.053	992.04
465.059	923.398
469.063	934.323
473.065	1134.84
477.065	1104.85
481.063	952.34
485.06	743.589
489.054	624.34
493.047	494.808
497.038	372.617
501.027	201.906
505.014	262.256
508.999	315.062
512.982	507.492
516.964	287.226
520.944	537.855
524.921	755.971
528.897	1029.35
532.871	1429.68
536.844	1617.69
540.814	1829.29
544.783	2294.75
548.749	2523.15
552.714	2506
556.677	2638.27
560.638	3333.84
564.597	4088.75
568.555	4301.34
572.511	3687.29
576.464	3441.56
580.416	3509.91
584.366	3631.6
588.315	3192.15
592.261	2861.98
596.206	2821.63
600.148	3084.8
604.089	2693.95
608.028	2442.66
611.965	2004.7
615.901	1905.33
619.834	1713.67
623.766	1632.03
627.696	1108.3
631.624	955.137
635.551	1079.3
639.475	1296.13
643.398	1122.24
647.318	912.089
651.237	717.332
655.155	685.269
659.07	723.439
662.984	408.491
666.895	173.108
670.805	118.258
674.713	243.992
678.62	150.458
682.524	116.803
686.427	77.118
690.328	1.48
694.227	3.735
698.124	48.382
702.02	142.643
705.913	63.45
709.805	100.064
713.695	17.27
717.584	244.916
721.47	26.639
725.355	41.918
729.238	20.822
733.119	219.969
736.998	350.475
740.876	220.613
744.752	190.525
748.626	90.232
752.498	69.742
756.368	169.021
760.237	128.049
764.104	53.111
767.969	4.553
771.832	56.207
775.693	21.771
779.553	119.453
783.411	216.811
787.267	26.068
791.122	9.256
794.974	27.346
798.825	53.814
802.674	340.115
806.522	16.221
810.367	87.855
814.211	17.814
818.053	393.383
821.893	248.387
825.732	212.773
829.568	196.76
833.403	110.957
837.236	133.113
841.068	309.33
844.898	281.191
848.726	131.783
852.552	79.588
856.376	12.465
860.199	395.895
864.02	627.955
867.839	427.768
871.656	221.824
875.472	202.273
879.286	372.043
883.098	333.174
886.909	567.299
890.717	454.082
894.524	237.275
898.33	241.371
902.133	375.588
905.935	560.082
909.735	891.324
913.533	705.799
917.33	526.576
921.124	910.779
924.918	880.139
928.709	1268.19
932.499	1582.81
936.286	1388.87
940.073	1352.34
943.857	1201.04
947.64	1386.66
951.421	1912.41
955.2	2184.48
958.978	2350.24
962.753	2377.92
966.527	2885.64
970.3	3912.7
974.071	5419.95
977.84	7937.41
981.607	12435.1
985.372	19603.1
989.136	28726.9
992.898	28345.3
996.659	20695.6
1000.42	14604.8
1004.17	8694.4
1007.93	5064.33
1011.68	2884.65
1015.43	2095.41
1019.18	1476.68
1022.93	1398.48
1026.68	1160.52
1030.42	1112.81
1034.17	767.705
1037.91	760.836
1041.65	614.424
1045.39	618.492
1049.12	912.871
1052.86	1510.06
1056.59	2055.33
1060.33	1559.81
1064.06	1181.66
1067.78	562.795
1071.51	384.58
1075.23	617.043
1078.96	550.186
1082.68	493.83
1086.4	388.1
1090.12	263.07
1093.83	478.521
1097.55	544.479
1101.26	760.822
1104.97	937.57
1108.68	804.818
1112.39	482.574
1116.1	90.818
1119.8	39.523
1123.5	358.609
1127.2	328.111
1130.9	257.984
1134.6	428.135
1138.3	98.854
1141.99	59.486
1145.69	223.115
1149.38	56.672
1153.07	151.186
1156.76	266.707
1160.44	643.32
1164.13	577.801
1167.81	466.602
1171.49	186.359
1175.17	4.029
1178.85	42.502
1182.52	128.691
1186.2	340.947
1189.87	414.184
1193.54	382.875
1197.21	409.232
1200.88	87.67
1204.55	53.559
1208.21	0
