Measurement: Raman, 514 nm, depolarized, Raman Data Processed
Mineral: Paravauxite
Rruff sample: R040179
Ideal chemistry: Fe^2+^Al_2_(PO_4_)_2_(OH)_2_8H_2_O
Locality: Mina Siglo XX, Llallagua, Bolivia
Source: University of Arizona Mineral Museum
Description: Colorless short prismatic crystals in subparallel groups
Measured chemistry: (Fe_0.93_Mg_0.03_Mn_0.02_)Al_1.94_(P_2.05_O_4_)_2_((OH)_0.99_F_0.01_)_2_Â·8H_2_O
Pin_id: M00217
Orientation: Laser parallel to (0 1 1). Fiducial mark perpendicular to laser is parallel to a [1 0 0]
Raman shift (cm-1)	intensity
54.966	0
59.164	133.175
63.36	29.699
67.554	113.031
71.747	745.173
75.937	2022.64
80.125	2909.76
84.311	2907.92
88.496	2625.12
92.678	2538.81
96.858	2449.15
101.036	2499.25
105.212	2682.96
109.387	3274.08
113.559	3772.85
117.729	3720.74
121.897	3208.36
126.063	3314.9
130.228	3685.02
134.39	4106.95
138.55	4359.88
142.709	4241.72
146.865	4054.19
151.019	3558.15
155.171	3081.97
159.322	2926.86
163.47	3596.97
167.617	4855.36
171.761	4861.07
175.904	4522.12
180.044	4158.49
184.183	3502.18
188.319	3046.16
192.454	3314.23
196.586	4281.72
200.717	4430.36
204.846	3532.08
208.972	3025.39
213.097	2578.73
217.22	2031.31
221.341	1789.6
225.46	1817.41
229.577	2375.68
233.692	3155.67
237.805	3498.71
241.916	3033.39
246.025	2136.36
250.132	1593.34
254.237	1431.11
258.34	1427.5
262.442	1301.36
266.541	1437.56
270.639	1696.01
274.734	1965.63
278.828	2721.35
282.919	3356.13
287.009	3748.9
291.097	4133.63
295.183	4514.23
299.266	4282.62
303.348	3438.75
307.428	2406.61
311.507	1460.07
315.583	929.583
319.657	552.69
323.729	242.533
327.8	49.899
331.868	49.66
335.935	172.837
339.999	104.475
344.062	69.557
348.123	213.073
352.182	184.077
356.239	131.494
360.294	105.401
364.347	43.926
368.398	120.548
372.448	300.428
376.495	467.804
380.54	698.86
384.584	631.717
388.626	642.629
392.666	792.575
396.704	1025.45
400.74	1367.15
404.774	1563.63
408.806	1421.92
412.836	1459.86
416.865	1569.43
420.891	2051.61
424.916	3000.36
428.939	4962.66
432.959	6374.49
436.978	5987.84
440.996	4210.69
445.011	2487.01
449.024	1932.81
453.036	1656.05
457.045	1906.74
461.053	2490.87
465.059	3477.43
469.063	4470.4
473.065	5653.78
477.065	6092.56
481.063	6281.74
485.06	5962.29
489.054	5158.68
493.047	4499.77
497.038	3623.01
501.027	3122.4
505.014	2587.52
508.999	1859.58
512.982	1431.19
516.964	1053.88
520.944	844.19
524.921	511.441
528.897	413.719
532.871	567.028
536.844	619.388
540.814	627.267
544.783	755.377
548.749	749.017
552.714	781.695
556.677	891.003
560.638	1222.14
564.597	1454.17
568.555	1673.19
572.511	1943
576.464	1907.81
580.416	1973
584.366	1936.91
588.315	1786.79
592.261	2105.6
596.206	2561.36
600.148	2367.03
604.089	2913.62
608.028	2706.11
611.965	2454.9
615.901	2195.36
619.834	2112.79
623.766	1533.15
627.696	1322.3
631.624	766.729
635.551	612.206
639.475	646.493
643.398	356.208
647.318	264.163
651.237	213.351
655.155	194.306
659.07	32.454
662.984	34.573
666.895	72.539
670.805	143.891
674.713	123.851
678.62	110.473
682.524	2.248
686.427	1.001
690.328	85.004
694.227	1220.42
698.124	47.639
702.02	48.41
705.913	58.062
709.805	85.213
713.695	49.248
717.584	199.281
721.47	178.798
725.355	307.855
729.238	324.589
733.119	317.989
736.998	191.073
740.876	365.856
744.752	244.337
748.626	397.519
752.498	290.4
756.368	352.984
760.237	389.272
764.104	97.271
767.969	75.968
771.832	192.354
775.693	264.441
779.553	275.198
783.411	73.652
787.267	130.784
791.122	181.593
794.974	82.069
798.825	3.737
802.674	173.137
806.522	181.696
810.367	166.707
814.211	21.817
818.053	116.758
821.893	165.266
825.732	288.582
829.568	28.19
833.403	222.726
837.236	188.612
841.068	47.468
844.898	40.072
848.726	122.219
852.552	151.922
856.376	69.251
860.199	46.553
864.02	190.031
867.839	101.575
871.656	140.718
875.472	128.332
879.286	112.076
883.098	98.843
886.909	74.458
890.717	110.003
894.524	247.927
898.33	211.694
902.133	392.511
905.935	347.37
909.735	550.292
913.533	431.278
917.33	820.052
921.124	712.661
924.918	905.619
928.709	898.886
932.499	1144.26
936.286	1155.38
940.073	1456.07
943.857	1524.31
947.64	1541.49
951.421	1568.99
955.2	1843.18
958.978	2222.55
962.753	2486.25
966.527	3002.22
970.3	3676.78
974.071	4783.73
977.84	6919.27
981.607	10443.5
985.372	17185.2
989.136	28497.4
992.898	38339.2
996.659	32389.4
1000.42	21070.9
1004.17	12470.8
1007.93	7153.17
1011.68	4285.01
1015.43	2623.97
1019.18	1843.89
1022.93	1237.65
1026.68	895.774
1030.42	360.123
1034.17	251.727
1037.91	235.541
1041.65	69.992
1045.39	91.652
1049.12	153.786
1052.86	127.478
1056.59	479.2
1060.33	768.928
1064.06	651.731
1067.78	267.043
1071.51	7.182
1075.23	8.757
1078.96	100.987
1082.68	87.688
1086.4	93.289
1090.12	146.934
1093.83	364.598
1097.55	480.821
1101.26	583.428
1104.97	721.484
1108.68	510.334
1112.39	605.096
1116.1	447.205
1119.8	345.389
1123.5	223.268
1127.2	273.104
1130.9	76.148
1134.6	166.297
1138.3	319.746
1141.99	209.156
1145.69	269.242
1149.38	556.578
1153.07	507.832
1156.76	658.494
1160.44	1144.53
1164.13	1461.29
1167.81	1730.23
1171.49	1653.87
1175.17	1238.71
1178.85	985.135
1182.52	435.668
1186.2	418.619
1189.87	234.736
1193.54	137.963
1197.21	61.107
1200.88	47.084
1204.55	130.297
1208.21	61.291
1211.88	48.268
1215.54	52.146
1219.2	68.223
1222.86	49.006
1226.51	48.166
1230.17	146.014
1233.82	38.744
1237.47	127.51
1241.12	70.6
1244.77	16.281
1248.42	120.561
1252.06	72.434
1255.71	70.061
1259.35	371.785
1262.99	91.107
1266.63	139.492
1270.26	28.359
1273.9	61.572
1277.53	1.998
1281.16	13.537
1284.8	66.635
1288.42	78
1292.05	50.275
1295.68	3.189
1299.3	63.688
1302.92	133.17
1306.55	121.49
1310.16	147.236
1313.78	9.588
1317.4	191.998
1321.01	78.018
1324.62	41.529
1328.24	275.295
1331.85	203.701
1335.45	35.406
1339.06	153.67
1342.66	168.432
1346.27	76.438
1349.87	323.496
1353.47	316.611
1357.07	275.035
1360.66	783.848
1364.26	415.859
1367.85	201.533
1371.44	283.91
1375.04	245.617
1378.62	172.461
1382.21	219.928
1385.8	253.352
1389.38	247.016
1392.96	438.898
1396.54	402.27
1400.12	368.574
1403.7	413.49
1407.28	180.791
1410.85	233.143
1414.42	327.693
1417.99	315.652
1421.56	464.826
1425.13	409.283
1428.7	356.947
1432.26	258.287
1435.83	303.688
1439.39	341.576
1442.95	331.258
1446.51	296.768
1450.06	405.545
1453.62	575.912
1457.17	615.129
1460.73	480.992
1464.28	297.775
1467.83	258.936
1471.37	276.061
1474.92	208.094
1478.46	73.316
1482.01	241.352
1485.55	382.85
1489.09	58.375
1492.63	278.188
1496.16	330.646
1499.7	165.176
1503.23	371.959
1506.76	106.947
1510.29	38.602
1513.82	181.682
1517.35	0.562
1520.88	81.842
1524.4	173.74
