Measurement: Raman, 514 nm, ccw, Raman Data Processed
Mineral: Paravauxite
Rruff sample: R040179
Ideal chemistry: Fe^2+^Al_2_(PO_4_)_2_(OH)_2_8H_2_O
Locality: Mina Siglo XX, Llallagua, Bolivia
Source: University of Arizona Mineral Museum
Description: Colorless short prismatic crystals in subparallel groups
Measured chemistry: (Fe_0.93_Mg_0.03_Mn_0.02_)Al_1.94_(P_2.05_O_4_)_2_((OH)_0.99_F_0.01_)_2_Â·8H_2_O
Pin_id: M01446
Orientation: Laser parallel to (-1 0 -1). Fiducial mark perpendicular to laser is parallel to b [0 1 0]
Raman shift (cm-1)	intensity
124.232	0
129.178	235.945
134.12	563.219
139.061	1332.78
143.998	1084.64
148.932	125.629
153.864	398.023
158.792	2519.09
163.718	5891.41
168.641	6942.07
173.562	5148.9
178.479	5227.4
183.394	5178.25
188.305	4572.79
193.214	3368.51
198.12	2897.83
203.024	1681.55
207.924	971.621
212.822	1339.55
217.717	2139.46
222.609	4572.94
227.498	9595.31
232.385	15306.6
237.269	15688.5
242.149	10264.1
247.027	5512.53
251.903	3049.77
256.775	2190.39
261.645	2491.07
266.512	3907.91
271.376	7945.52
276.237	14958.7
281.096	20643.4
285.952	19701.9
290.805	15369.2
295.655	13904.9
300.502	10986.7
305.347	7170.37
310.189	4001.68
315.028	1965.5
319.864	924.777
324.698	324.43
329.528	222.965
334.356	129.043
339.182	15.7969
344.004	182.457
348.824	130.848
353.641	26.668
358.455	214.648
363.266	672.949
368.075	1413.67
372.881	2024.14
377.684	2777.35
382.484	3119.62
387.282	3034.45
392.077	3639.18
396.869	4489.75
401.658	4852.2
406.445	5716.26
411.229	5060.5
416.01	5145.75
420.788	5107.42
425.564	6493.36
430.337	7738.6
435.107	7119.27
439.875	4737.38
444.639	2915.53
449.401	1694.21
454.161	1555.27
458.917	1254.72
463.671	1107.54
468.422	1253
473.17	989.066
477.916	1166.82
482.659	1045.58
487.399	512.25
492.137	512.227
496.872	1.5
501.604	74.0039
506.333	209.719
511.06	608.691
515.784	666.344
520.505	1394.39
525.223	2390.57
529.939	3414.2
534.652	4915.87
539.363	5997.27
544.07	7151.76
548.775	7681.91
553.478	8824.55
558.177	10319.3
562.874	11284.4
567.568	11400
572.26	9020.18
576.949	5532
581.635	3306.4
586.319	2436.36
590.999	1677.89
595.677	1315.78
600.353	971.824
605.026	630.277
609.696	737.055
614.363	357.57
619.028	55.9883
623.69	35.3555
628.349	153.438
633.006	568.019
637.66	1077.06
642.311	1240.53
646.96	1136.69
651.606	1483.77
656.25	1024.29
660.89	875.887
665.528	394.34
670.164	331.371
674.797	25.2969
679.427	243.934
684.054	52.5703
688.679	109.809
693.301	162.066
697.921	120.512
702.537	264.488
707.152	443.609
711.763	402.977
716.372	964.586
720.978	566.453
725.582	520.582
730.183	602.973
734.781	517.629
739.377	341.543
743.97	630.75
748.561	453.254
753.149	183.059
757.734	323.781
762.316	7.24609
766.896	65.9102
771.474	150.805
776.048	53.3398
780.62	237.465
785.19	0.980469
789.757	78.3203
794.321	186.519
798.883	193.641
803.442	250.715
807.998	127.492
812.552	553.918
817.103	313.629
821.652	302.117
826.198	406.383
830.741	400.086
835.282	542.961
839.82	528.34
844.355	689.676
848.888	1168.05
853.419	905.664
857.946	1229.97
862.472	1629.02
866.994	1194.14
871.514	1320.36
876.032	1433.24
880.546	1066.79
885.059	1350.06
889.568	1288.13
894.075	1337.64
898.58	1902.64
903.082	1948.83
907.581	2411.72
912.078	2092.2
916.572	2674.03
921.063	2787.55
925.552	3100.61
930.039	3401.62
934.523	3466.6
939.004	4049.59
943.483	4570.87
947.959	5316.94
952.432	6035.81
956.903	7150.66
961.372	8556.76
965.838	10938.2
970.301	14165.6
974.762	19760.1
979.22	31279.8
983.676	54937.7
988.129	89747.6
992.58	100295
997.028	71734.7
1001.47	42900.9
1005.92	21943.5
1010.36	11604.2
1014.79	5852.45
1019.23	3838.59
1023.66	2403.63
1028.09	1197.6
1032.52	260.516
1036.94	625.578
1041.37	198.922
1045.79	783.844
1050.2	742.898
1054.62	1718.21
1059.03	1807.99
1063.44	1465.41
1067.85	553.875
1072.26	113.531
1076.66	300.938
1081.06	54.375
1085.45	123.172
1089.85	624.148
1094.24	459.32
1098.63	535.211
1103.02	1227.53
1107.4	972.047
1111.79	370.758
1116.17	462.031
1120.54	306.883
1124.92	136.844
1129.29	453.852
1133.66	271.828
1138.03	0.921875
1142.39	308.797
1146.75	275.875
1151.11	349.312
1155.47	287.961
1159.83	824.266
1164.18	734.141
1168.53	804.43
1172.87	691.516
1177.22	621.555
1181.56	830.047
1185.9	504.703
1190.24	226.492
1194.57	299.727
1198.9	412.375
1203.23	10.2422
1207.56	272.828
1211.89	60.0078
1216.21	227.977
1220.53	126.32
1224.85	394.203
1229.16	99.1094
1233.47	21.2656
1237.78	115.164
1242.09	250.711
1246.4	131.719
1250.7	357.844
1255	204.18
1259.3	264.617
1263.59	251.414
1267.88	327.82
1272.17	17.8984
1276.46	181.93
1280.75	400.773
1285.03	77.4062
1289.31	325.766
1293.59	128.055
1297.87	280.094
1302.14	94.9062
1306.41	416.461
1310.68	505.766
1314.94	625.789
1319.21	442.523
1323.47	275.539
1327.72	572.312
1331.98	402.797
1336.23	462.508
1340.49	51.2031
1344.73	330.148
1348.98	292.906
1353.22	608.977
1357.47	232.664
1361.7	345.961
1365.94	532.336
1370.17	646.016
1374.41	631.602
1378.64	12.8906
1382.86	545.477
1387.09	393.688
1391.31	418.07
1395.53	641.406
1399.75	629.508
1403.96	244.086
1408.17	454.867
1412.38	301.867
1416.59	281.891
1420.8	244.172
1425	219.359
1429.2	419.164
1433.4	690.383
1437.59	473.812
1441.78	602.086
1445.97	721.25
1450.16	545.391
1454.35	768.633
1458.53	790.445
1462.71	462.5
1466.89	719.891
1471.07	741.344
1475.24	581.359
1479.41	381.023
1483.58	486.219
1487.75	54.6797
1491.91	352.812
1496.07	403.141
1500.23	263.914
1504.39	336.297
1508.55	148.898
1512.7	307.445
1516.85	457.797
1520.99	313.438
1525.14	569.383
1529.28	485.422
1533.42	642.062
1537.56	523.641
1541.7	427.539
1545.83	37.4766
1549.96	422.102
1554.09	250.453
1558.22	297.625
1562.34	220.625
1566.46	328.359
1570.58	184.914
1574.7	224.516
1578.81	0.460938
