Measurement: Raman, 514 nm, ccw, Raman Data Processed
Mineral: Paravauxite
Rruff sample: R040179
Ideal chemistry: Fe^2+^Al_2_(PO_4_)_2_(OH)_2_8H_2_O
Locality: Mina Siglo XX, Llallagua, Bolivia
Source: University of Arizona Mineral Museum
Description: Colorless short prismatic crystals in subparallel groups
Measured chemistry: (Fe_0.93_Mg_0.03_Mn_0.02_)Al_1.94_(P_2.05_O_4_)_2_((OH)_0.99_F_0.01_)_2_Â·8H_2_O
Pin_id: M01446
Orientation: Laser parallel to (-1 0 -1). Fiducial mark perpendicular to laser is parallel to b [0 1 0]
Raman shift (cm-1)	intensity
121.758	0
126.705	367.332
131.649	1033.84
136.591	1805.27
141.529	2060.97
146.465	1035.98
151.398	86.0625
156.328	48.5352
161.256	2748.05
166.18	5208.67
171.102	3953.14
176.021	2250.68
180.937	1881.27
185.85	2211.43
190.76	3200
195.668	3710.59
200.572	2504.37
205.474	946.644
210.374	289.594
215.27	292.473
220.163	1236.65
225.054	3630.6
229.942	8133.25
234.827	11338
239.709	9255.15
244.589	5085.84
249.465	2806.32
254.339	1721.69
259.21	1566.22
264.079	1631.9
268.944	3085.93
273.807	6620.53
278.667	10980.9
283.524	12972.1
288.378	10929.4
293.23	8958.87
298.079	7716.47
302.925	5512.24
307.768	3564.64
312.609	1966.84
317.446	1260.03
322.281	991.582
327.113	235.316
331.943	338.594
336.769	46.4023
341.593	219.676
346.414	345.371
351.233	627.957
356.048	451.16
360.861	90.4883
365.671	703.219
370.478	1298.11
375.283	1685.76
380.084	2144.7
384.883	2200.52
389.68	2215.53
394.473	3509.66
399.264	4433.43
404.052	4958.58
408.837	4640.28
413.62	4196.44
418.4	4239.91
423.177	5442.39
427.951	7095.74
432.722	8280.01
437.491	6656.3
442.257	4832.72
447.021	3821.29
451.781	3435.31
456.539	3948.46
461.294	4970.49
466.047	6364.5
470.797	7541.21
475.544	7945.11
480.288	7439
485.03	6172.12
489.768	4656.31
494.504	3445.36
499.238	2322.57
503.969	1734.96
508.697	1415.75
513.422	1536.77
518.144	1735.76
522.864	2667.12
527.582	3358.63
532.296	4375.47
537.008	5184.25
541.717	6274.18
546.423	6306.92
551.127	6890.95
555.828	7561.31
560.526	8087.13
565.222	9525.58
569.915	9464.58
574.605	9615.56
579.292	9046.71
583.977	8415.28
588.659	7526.96
593.339	6125.99
598.016	4620.66
602.69	3365.93
607.361	2313.07
612.03	1451.65
616.696	608.699
621.359	376.379
626.02	621.809
630.678	790.141
635.333	1922.46
639.986	2255.57
644.636	2640.93
649.284	2392.66
653.928	2324.38
658.57	1267.34
663.21	1032.32
667.846	476.016
672.481	177.234
677.112	39.6484
681.741	195.844
686.367	168.539
690.99	157.723
695.611	247.973
700.229	75.3164
704.845	34.293
709.458	325.613
714.068	590.695
718.676	356.961
723.281	297.422
727.883	414.07
732.483	246.809
737.08	274.66
741.674	24.6523
746.266	152.684
750.855	173.758
755.442	104.93
760.025	13.2109
764.607	25.0898
769.185	8.41016
773.761	30.7969
778.335	166.769
782.906	51.989
787.474	175.75
792.039	259.469
796.602	212.375
801.162	81.4609
805.72	368.148
810.275	266.703
814.828	205.238
819.378	637.156
823.925	245.246
828.47	274.254
833.012	297.82
837.551	672.688
842.088	649.945
846.622	739.066
851.154	480.203
855.683	718.352
860.209	526.066
864.733	718.723
869.254	792.582
873.773	709.883
878.289	293.559
882.803	782.269
887.314	817.484
891.822	1041.66
896.328	1165.63
900.831	930.129
905.332	1252.73
909.83	1293.45
914.325	1691.28
918.818	1665.39
923.308	1889.3
927.796	2310.41
932.281	2387.36
936.764	2690.53
941.244	3286.91
945.721	3485.33
950.196	3331.34
954.668	4196.16
959.138	4742.29
963.605	6258.85
968.07	7967.59
972.532	10248.4
976.991	15769.1
981.448	27035.5
985.903	47234.8
990.355	69414.4
994.804	64866.3
999.251	43566
1003.7	25704.2
1008.14	13093.6
1012.58	6796.76
1017.01	3748.5
1021.45	2695.92
1025.88	1471.84
1030.31	1151.39
1034.73	973.07
1039.16	747.992
1043.58	805.805
1048	1372.81
1052.41	2433.77
1056.83	3714.48
1061.24	3185.48
1065.65	1788.97
1070.05	484.961
1074.46	20.2266
1078.86	114.227
1083.26	348.234
1087.65	393.047
1092.05	249.594
1096.44	69.2656
1100.83	186.453
1105.21	402.055
1109.6	228.438
1113.98	85.8203
1118.36	13.4062
1122.73	103.511
1127.1	281.633
1131.47	79.6484
1135.84	45.8359
1140.21	74.3359
1144.57	234.43
1148.93	3.27344
1153.29	501.438
1157.65	629.844
1162	821.75
1166.35	995.758
1170.7	614.945
1175.05	945.336
1179.39	367.789
1183.73	396.328
1188.07	194.977
1192.41	293.68
1196.74	162.406
1201.07	111.758
1205.4	424.562
1209.72	204.82
1214.05	120.773
1218.37	64.5938
1222.69	32.8203
1227.01	193.594
1231.32	275.305
1235.63	121.953
1239.94	238.578
1244.24	100.812
1248.55	149.719
1252.85	175.422
1257.15	177.219
1261.44	132.352
1265.74	1.40625
1270.03	101.852
1274.32	430.109
1278.61	434.625
1282.89	191.727
1287.17	73.0859
1291.45	669
1295.73	195.82
1300	289.531
1304.27	304.102
1308.54	333.531
1312.81	420.109
1317.08	557.18
1321.34	212.633
1325.6	374.594
1329.85	454.836
1334.11	653.664
1338.36	297.469
1342.61	468.742
1346.86	244.703
1351.1	470.469
1355.35	418.477
1359.59	737.484
1363.82	25.4922
1368.06	661.008
1372.29	367.352
1376.52	12.7344
1380.75	54
1384.97	10.3359
1389.2	237.078
1393.42	279.375
1397.64	304.641
1401.85	533.828
1406.07	330.156
1410.28	703.828
1414.49	490.359
1418.69	28.125
1422.9	121.094
1427.1	349.398
1431.3	541.031
1435.49	796.211
1439.69	475.18
1443.88	702.266
1448.07	763.703
1452.26	822.352
1456.44	1094.33
1460.62	457.07
1464.8	701.32
1468.98	822.711
1473.15	420.289
1477.33	793.375
1481.5	357.18
1485.66	517.734
1489.83	87.7109
1493.99	201.18
1498.15	377.039
1502.31	262.039
1506.47	365.578
1510.62	759.727
1514.77	763.742
1518.92	727.578
1523.07	665.25
1527.21	732.586
1531.35	890.812
1535.49	454.781
1539.63	336.461
1543.76	348.078
1547.9	675.93
1552.03	432.938
1556.15	855.727
1560.28	723.055
1564.4	697.719
1568.52	137.984
1572.64	404.805
1576.75	502.625
