Measurement: Raman, 514 nm, depolarized, Raman Data Processed
Mineral: Paravauxite
Rruff sample: R040179
Ideal chemistry: Fe^2+^Al_2_(PO_4_)_2_(OH)_2_8H_2_O
Locality: Mina Siglo XX, Llallagua, Bolivia
Source: University of Arizona Mineral Museum
Description: Colorless short prismatic crystals in subparallel groups
Measured chemistry: (Fe_0.93_Mg_0.03_Mn_0.02_)Al_1.94_(P_2.05_O_4_)_2_((OH)_0.99_F_0.01_)_2_Â·8H_2_O
Pin_id: M00226
Orientation: Laser parallel to b* (0 1 0). Fiducial mark perpendicular to laser is parallel to c [0 0 1]
Raman shift (cm-1)	intensity
116.097	0
120.287	133.048
124.475	749.396
128.66	1029.15
132.843	1250.05
137.024	1266.28
141.203	1256.14
145.38	1071.17
149.554	734.815
153.726	394.463
157.896	138.23
162.064	85.127
166.23	96.388
170.393	57.578
174.555	126.226
178.714	167.124
182.871	207.884
187.025	228.274
191.178	288.359
195.328	658.175
199.476	757.717
203.623	536.65
207.766	455.374
211.908	684.114
216.048	812.935
220.185	621.37
224.32	1097.33
228.453	2360.39
232.584	4334.31
236.713	5177.52
240.839	3724.03
244.964	2187.72
249.086	1137.69
253.206	634.629
257.324	291.564
261.439	258.459
265.553	315.293
269.665	372.06
273.774	718.752
277.881	1665.36
281.986	2708.86
286.089	2640.88
290.19	1626.11
294.288	1183
298.385	890.843
302.479	619.359
306.571	388.082
310.661	227
314.749	86.233
318.835	25.669
322.919	94.825
327	166.233
331.08	41.133
335.157	59.284
339.232	27.113
343.305	126.385
347.376	116.593
351.445	107.219
355.512	176.299
359.576	273.999
363.639	221.011
367.699	379.366
371.757	536.98
375.814	704.396
379.868	901.749
383.92	878.883
387.969	855.108
392.017	670.983
396.063	716.708
400.106	872.072
404.148	1347.25
408.187	1492.38
412.224	1307.37
416.26	1502.23
420.293	1806.94
424.324	2741.54
428.353	4326.03
432.379	5980.38
436.404	5674.58
440.427	3658.61
444.448	2232.48
448.466	1256.26
452.482	1029.89
456.497	663.348
460.509	586.608
464.519	279.696
468.527	392.59
472.534	455.258
476.538	397.69
480.54	388.211
484.539	133.386
488.537	164.907
492.533	78.88
496.527	3.142
500.518	36.824
504.508	118.17
508.495	25.679
512.481	37.645
516.464	36.153
520.446	21.771
524.425	77.819
528.402	348.088
532.377	393.168
536.351	315.406
540.322	620.985
544.291	574.856
548.258	563.372
552.223	718.119
556.186	924.542
560.147	1224.8
564.106	1369.34
568.063	1727.01
572.018	1714.01
575.97	1819.97
579.921	2185.87
583.87	2367.3
587.817	2572.1
591.761	2448.3
595.704	2327.17
599.645	2256.49
603.583	2140.17
607.52	2083.05
611.455	1825.88
615.387	1688.92
619.318	1323.44
623.247	1137.5
627.173	989.811
631.098	1121.15
635.02	1072.26
638.941	1144.09
642.859	1144.43
646.776	1007.17
650.691	1024.3
654.603	760.461
658.514	723.449
662.422	425.395
666.329	478.318
670.233	306.654
674.136	186.732
678.036	238.064
681.935	72.971
685.832	28.965
689.726	148.551
693.619	135.834
697.51	14.201
701.398	82.525
705.285	88.867
709.17	45.48
713.052	229.611
716.933	324.312
720.812	48.58
724.689	112.492
728.564	196.129
732.437	329.504
736.308	212.615
740.176	155.377
744.043	2.158
747.908	40.029
751.771	161.98
755.633	143.719
759.492	185.244
763.349	176.57
767.204	117.701
771.057	268.631
774.909	199.348
778.758	49.801
782.605	130.041
786.451	210.109
790.294	59.984
794.136	129.531
797.976	108.826
801.813	117.818
805.649	136.357
809.483	4.713
813.315	43.027
817.144	231.229
820.972	39.232
824.798	167.227
828.623	54.482
832.445	30.389
836.265	265.432
840.083	187.014
843.9	152.406
847.714	84.543
851.527	18.912
855.337	165.215
859.146	141.068
862.953	125.107
866.757	228.273
870.56	141.416
874.361	169.008
878.16	144.732
881.958	210.666
885.753	287.066
889.546	133.213
893.338	243.398
897.127	208.146
900.915	404.736
904.7	662.039
908.484	299.129
912.266	256.305
916.046	524.047
919.824	511.5
923.6	418.891
927.375	754.434
931.147	859.869
934.918	1057.6
938.686	855.783
942.453	959.807
946.218	941.279
949.981	1369.38
953.742	1345.4
957.501	1496.33
961.258	1534.58
965.014	1953.61
968.767	2384.71
972.519	3194.06
976.269	4443.56
980.017	6350.66
983.762	10129.6
987.507	17683.5
991.249	23713.9
994.989	19604.6
998.728	12812.4
1002.46	8263.33
1006.2	4574.91
1009.93	2766.4
1013.66	1908.55
1017.39	1211.03
1021.12	1003.81
1024.85	956.951
1028.57	840.355
1032.29	474.039
1036.01	518.006
1039.73	332.27
1043.44	546.914
1047.16	682.215
1050.87	858.773
1054.58	977.184
1058.29	895.938
1062	861.707
1065.7	810.662
1069.4	517.865
1073.11	545.383
1076.81	353.096
1080.5	370.523
1084.2	147.52
1087.89	354.484
1091.59	160.293
1095.28	565.781
1098.96	460.221
1102.65	466.023
1106.34	782.293
1110.02	419.141
1113.7	166.473
1117.38	224.408
1121.06	442.85
1124.73	551.857
1128.41	211.334
1132.08	121.271
1135.75	31.66
1139.42	252.502
1143.08	443.799
1146.75	265.514
1150.41	527.527
1154.07	559.613
1157.73	671.758
1161.39	634.221
1165.05	987.068
1168.7	590.418
1172.35	654.504
1176	439.398
1179.65	565.098
1183.3	351.6
1186.94	648.902
1190.58	106.785
1194.22	14.246
1197.86	34.363
1201.5	296.605
1205.14	358.863
1208.77	342.598
1212.4	497.924
1216.03	505.01
1219.66	473.795
1223.29	430.471
1226.91	210.031
1230.54	160.127
1234.16	218.127
1237.78	180.322
1241.4	0
