Measurement: Raman, 514 nm, depolarized, Raman Data Processed
Mineral: Pectolite
Rruff sample: R050396
Ideal chemistry: NaCa_2_Si_3_O_8_(OH)
Locality: Jeffrey Quarry, Asbestos, Quebec, Canada
Source: Marcus Origlieri
Description: Colorless to gray columnar blocky crystals
Measured chemistry: Na_1.00_Ca_2.00_Si_3.00_O_8_(OH)
Pin_id: L00632
Orientation: Laser parallel to (-1 0 -1). Fiducial mark perpendicular to laser is parallel to b [0 1 0]
Raman shift (cm-1)	intensity
111.503	0
115.22	6.65723
118.935	115.753
122.648	84.5991
126.36	183.635
130.07	260.169
133.778	504.125
137.485	545.129
141.19	820.329
144.894	1048.17
148.596	1285.21
152.296	1265.04
155.995	649.257
159.692	247.675
163.388	72.2588
167.082	159.956
170.775	113.669
174.465	103.287
178.155	75.7529
181.842	279.826
185.528	539.488
189.213	403.248
192.896	221.065
196.577	240.096
200.256	469.41
203.934	431.232
207.611	228.769
211.286	160.158
214.959	190.325
218.631	463.81
222.301	701.702
225.969	798.966
229.636	278.603
233.302	182.24
236.965	206.982
240.628	185.809
244.288	47.7451
247.947	204.797
251.604	272.818
255.26	351.019
258.915	420.052
262.567	636.425
266.218	693.019
269.868	876.507
273.516	1174.77
277.162	1201.61
280.807	836.946
284.45	375.725
288.092	240.001
291.732	114.271
295.37	186.183
299.007	214.744
302.642	200.758
306.276	204.112
309.908	471.198
313.539	931.205
317.168	1087.85
320.795	1016.88
324.421	1073.19
328.046	743.398
331.668	383.036
335.289	138.675
338.909	78.8418
342.527	12.8428
346.144	13.3184
349.759	235.588
353.372	377.798
356.984	729.763
360.594	557.65
364.203	517.519
367.81	452.562
371.415	716.588
375.019	1021.68
378.622	1475.19
382.223	949.4
385.822	285.046
389.42	295.858
393.016	138.215
396.611	123.664
400.204	283.441
403.795	661.054
407.386	1202.25
410.974	1673.68
414.561	1788.64
418.146	1249.67
421.73	623.428
425.312	377.053
428.893	231.465
432.472	3.73731
436.05	56.2051
439.626	147.553
443.201	53.4824
446.774	41.6435
450.345	83.0039
453.915	84.6943
457.483	38.7529
461.05	126.105
464.615	100.518
468.179	101.019
471.741	134.574
475.302	85.9522
478.861	187.846
482.419	118.677
485.975	135.4
489.529	92.5244
493.082	187.28
496.634	266.682
500.184	565.754
503.732	241.461
507.279	343.799
510.825	163.769
514.368	203.378
517.911	285.854
521.451	286.353
524.991	169.733
528.528	12.6963
532.065	55.169
535.599	148.162
539.132	112.811
542.664	91.1123
546.194	2.60254
549.723	64.5283
553.25	25.8057
556.775	13.1982
560.299	30.2822
563.822	79.0596
567.343	56.0938
570.862	1.36914
574.38	2.52832
577.896	69.3106
581.411	133.732
584.925	43.0566
588.437	15.0254
591.947	67.1768
595.456	107.394
598.963	11.4746
602.469	31.5527
605.973	120.768
609.476	203.049
612.977	104.673
616.477	93.9385
619.975	410.911
623.472	364.559
626.967	426.266
630.461	581.438
633.953	924.119
637.444	1431.23
640.933	2225.07
644.421	4118.99
647.907	6927.09
651.392	9942.12
654.875	8406.25
658.357	4258.19
661.837	1903.38
665.316	985.729
668.793	663.707
672.269	539.956
675.743	486.766
679.216	469.64
682.687	548.194
686.157	568.69
689.625	551.186
693.092	203.35
696.557	244.151
700.021	192.91
703.483	186.693
706.944	216.241
710.403	451.508
713.861	209.887
717.318	40.9961
720.773	150.388
724.226	143.305
727.678	82.2256
731.128	54.4609
734.577	131.773
738.025	159.456
741.47	110.114
744.915	52.8711
748.358	0.669922
751.799	121.455
755.239	84.6865
758.678	31.4189
762.115	225.257
765.551	41.6846
768.985	92.6143
772.417	215.606
775.848	204.109
779.278	172.643
782.706	97.6162
786.133	64.918
789.558	205.61
792.982	146.287
796.404	120.092
799.825	30.7031
803.245	198.535
806.663	290.365
810.079	119.244
813.494	166.826
816.907	183.133
820.319	225.287
823.73	334.58
827.139	231.957
830.547	57.1973
833.953	361.58
837.358	49.9043
840.761	182.156
844.163	96.9531
847.563	294.914
850.962	225.81
854.359	61.6699
857.755	348.353
861.15	163.004
864.543	227.49
867.934	328.91
871.324	80.3535
874.713	87.1289
878.1	86.2305
881.486	135.541
884.87	12.9395
888.253	10.1094
891.634	180.666
895.014	119.723
898.393	217.682
901.77	128.881
905.145	126.353
908.519	197.816
911.892	179.443
915.263	281.303
918.633	186.299
922.001	99.7051
925.368	252.252
928.734	164.766
932.098	67.3184
935.46	154.375
938.821	139.865
942.181	238.113
945.539	306.586
948.896	325.949
952.251	448.791
955.605	592.586
958.958	803.99
962.309	1306.69
965.658	1957.94
969.006	2788.75
972.353	2898.83
975.698	2754.45
979.042	2409.67
982.385	2011.74
985.726	1588.66
989.065	1498.54
992.403	1643.85
995.74	1518.49
999.075	1780.16
1002.41	2358.84
1005.74	2391.03
1009.07	1145.98
1012.4	1183.39
1015.73	1163.07
1019.06	1721.69
1022.38	2355.72
1025.71	2632.13
1029.03	2038.95
1032.35	1204.72
1035.67	885.352
1038.99	474.762
1042.3	473.748
1045.62	335.406
1048.93	45.1992
1052.24	219.658
1055.56	18.2969
1058.87	27.1699
1062.17	107.998
1065.48	326.478
1068.79	127.098
1072.09	397.185
1075.39	475.082
1078.69	232.455
1081.99	126.816
1085.29	419.31
1088.59	359.611
1091.88	334.791
1095.18	242.984
1098.47	16.9297
1101.76	156.514
1105.05	160.688
1108.34	218.402
1111.63	67.9023
1114.91	0
