Measurement: Raman, 514 nm, depolarized, Raman Data Processed
Mineral: Pectolite
Rruff sample: R050396
Ideal chemistry: NaCa_2_Si_3_O_8_(OH)
Locality: Jeffrey Quarry, Asbestos, Quebec, Canada
Source: Marcus Origlieri
Description: Colorless to gray columnar blocky crystals
Measured chemistry: Na_1.00_Ca_2.00_Si_3.00_O_8_(OH)
Pin_id: L01945
Orientation: Laser parallel to (1 1 0). Fiducial mark perpendicular to laser is parallel to c [0 0 1]
Raman shift (cm-1)	intensity
147.362	0
151.063	437.01
154.762	273.93
158.46	341.166
162.156	239.269
165.851	94.2012
169.544	145.264
173.235	167.766
176.925	166.961
180.613	149.418
184.3	336.492
187.985	262.873
191.668	254.248
195.35	170.598
199.03	189.84
202.709	334.693
206.386	336.123
210.061	188.185
213.735	440.039
217.407	309.246
221.078	398.867
224.747	565.666
228.414	435.416
232.08	251.992
235.744	341.928
239.407	496.918
243.068	182.133
246.728	374.547
250.386	202.018
254.042	165.514
257.697	290.353
261.35	284.721
265.001	308.103
268.651	516.441
272.3	821.838
275.947	963.656
279.592	650.82
283.236	541.467
286.878	497.789
290.518	337.565
294.157	356.635
297.795	299.07
301.431	347.588
305.065	335.478
308.698	282.49
312.329	169.791
315.958	360.291
319.586	386.824
323.213	289.721
326.838	289.094
330.461	248.398
334.083	274.508
337.703	110.393
341.321	315.695
344.938	144.453
348.554	101.518
352.168	191.914
355.78	377.818
359.391	214.137
363	17.1602
366.608	185.029
370.214	292.109
373.818	329.057
377.421	144.412
381.023	292.084
384.622	58.5117
388.221	3.96094
391.818	177.295
395.413	148.35
399.006	195.834
402.598	7.07422
406.189	148.082
409.778	398.658
413.365	194.945
416.951	385.438
420.536	61.4414
424.118	287.254
427.7	2.22461
431.279	57.2012
434.858	80.2168
438.434	46.7637
442.009	144.57
445.583	98.6133
449.155	121.115
452.725	274.504
456.294	139.18
459.861	23.8223
463.427	81.3906
466.991	71.8457
470.554	67.1055
474.115	313.639
477.675	219.342
481.233	190.49
484.79	236.352
488.345	56.7559
491.898	277.721
495.45	87.4531
499.001	87.6211
502.55	8.45508
506.097	323.717
509.643	287.654
513.187	304.545
516.73	120.133
520.271	419.414
523.811	226.334
527.349	304.801
530.886	149.094
534.421	233.117
537.955	31.0117
541.487	99.5586
545.017	8.17969
548.547	300.967
552.074	74.9258
555.6	38.3086
559.125	200.793
562.648	129.537
566.169	3.86523
569.689	191.5
573.207	240.969
576.724	122.537
580.24	4.88086
583.754	0.878906
587.266	58.5098
590.777	163.109
594.286	141.816
597.794	15.877
601.3	142.506
604.805	12.0156
608.309	2.98438
611.81	154.172
615.311	130.643
618.809	231.211
622.307	122.418
625.802	140.451
629.297	263.832
632.789	228.935
636.281	285.185
639.77	508.721
643.259	941.158
646.745	1361.75
650.231	2366.23
653.714	2130.59
657.197	1178.05
660.677	638.439
664.157	522.707
667.634	167.022
671.111	335.301
674.585	297.984
678.059	413.617
681.53	209.898
685.001	461.367
688.469	318.859
691.937	348.356
695.402	79.4883
698.867	220.914
702.329	366.176
705.791	73.3828
709.251	378.5
712.709	456.363
716.166	263.25
719.621	192.078
723.075	424.856
726.527	130.07
729.978	228.496
733.428	114.699
736.876	64.8398
740.322	134.117
743.767	90.8906
747.21	261.113
750.652	95.1719
754.093	221.238
757.532	13.4141
760.969	80.168
764.406	157.535
767.84	247.445
771.273	224.269
774.705	95.043
778.135	164.785
781.564	126.566
784.991	227.562
788.417	73.1523
791.841	15.8125
795.264	148.945
798.685	295.824
802.105	376.445
805.523	261.523
808.94	205.301
812.356	357.148
815.77	139.852
819.182	374.453
822.593	293.477
826.003	232.371
829.411	148.559
832.818	90.7422
836.223	352.57
839.627	170.055
843.029	382.625
846.43	308.414
849.829	340.43
853.227	213.527
856.623	267.305
860.018	424.828
863.412	124.723
866.804	233.191
870.194	64.4102
873.583	29.9922
876.971	189.891
880.357	165.352
883.742	460.867
887.125	20.4688
890.507	27.3438
893.888	281.863
897.267	154.898
900.644	180.027
904.02	30.3398
907.395	167.758
910.768	102.758
914.14	93.207
917.51	168.578
920.879	194.508
924.246	0.207031
927.612	310.102
930.976	293.262
934.339	282.078
937.701	187.723
941.061	265.121
944.42	319.797
947.777	76.6445
951.133	185.641
954.487	467.727
957.84	191.422
961.192	411.301
964.542	586.816
967.89	822.273
971.238	878.769
974.583	870.961
977.928	657.246
981.271	415.059
984.612	394.941
987.952	594.648
991.291	198.047
994.628	164.719
997.964	528.57
1001.3	406.461
1004.63	290.906
1007.96	265.965
1011.29	409.977
1014.62	355.262
1017.95	206.223
1021.27	886.688
1024.6	1005.97
1027.92	660.945
1031.24	208.547
1034.56	218.695
1037.88	313.324
1041.2	242.695
1044.51	13.4336
1047.83	142.988
1051.14	267.144
1054.45	99
1057.76	156.188
1061.07	176.051
1064.38	178.777
1067.68	75.3711
1070.99	350.375
1074.29	64.4375
1077.59	114.195
1080.89	249.391
1084.19	242.555
1087.49	322.609
1090.79	220.031
1094.08	118.977
1097.37	123.106
1100.66	112.836
