Measurement: Raman, 514 nm, depolarized, Raman Data Processed
Mineral: Pectolite
Rruff sample: R050396
Ideal chemistry: NaCa_2_Si_3_O_8_(OH)
Locality: Jeffrey Quarry, Asbestos, Quebec, Canada
Source: Marcus Origlieri
Description: Colorless to gray columnar blocky crystals
Measured chemistry: Na_1.00_Ca_2.00_Si_3.00_O_8_(OH)
Pin_id: M00439
Orientation: Laser parallel to -c* (0 0 -1). Fiducial mark perpendicular to laser is parallel to a [1 0 0]
Raman shift (cm-1)	intensity
135.166	0
138.864	293.304
142.56	432.577
146.254	741.253
149.947	973.793
153.638	912.056
157.328	412.526
161.017	187.042
164.703	129.069
168.389	71.0713
172.073	48.1865
175.755	135.682
179.435	78.2978
183.115	221.762
186.792	487.935
190.469	387.571
194.143	285.825
197.816	509.56
201.488	706.701
205.158	534.167
208.827	466.897
212.494	445.868
216.159	498.807
219.823	671.514
223.486	670.813
227.147	523.233
230.806	341.86
234.464	158.446
238.12	100.332
241.775	11.5586
245.429	125.839
249.081	154.232
252.731	266.623
256.38	277.019
260.027	220.439
263.673	246.84
267.317	344.14
270.96	440.33
274.601	509.433
278.241	209.519
281.879	96.3857
285.516	19.1992
289.151	22.5498
292.785	4.6084
296.417	169.904
300.048	3.0625
303.677	210.182
307.305	395.259
310.931	485.291
314.556	761.486
318.179	1020.46
321.801	1062.43
325.421	810.376
329.04	529.479
332.657	343.627
336.273	230.798
339.887	94.8213
343.5	260.562
347.111	338.315
350.72	392.15
354.329	698.318
357.935	846.178
361.54	764.464
365.144	616.023
368.746	768.959
372.347	1091.7
375.946	1579.8
379.544	1892.37
383.14	1034.75
386.735	421.495
390.328	391.631
393.919	328.981
397.51	404.216
401.098	617.361
404.686	910.206
408.271	1369.39
411.855	1953.14
415.438	2183.78
419.019	1267
422.599	602.322
426.177	203.007
429.754	47.2539
433.329	39.6094
436.903	101.803
440.475	81.3242
444.046	3.26074
447.616	67.7168
451.183	106.488
454.75	109.86
458.315	67.3652
461.878	4.35156
465.44	207.209
469	56.8369
472.559	59.8076
476.116	15.3174
479.672	34.169
483.227	11.3047
486.78	82.1904
490.331	12.4043
493.881	86.5234
497.43	257.045
500.977	328.271
504.522	169.119
508.066	144.583
511.609	166.63
515.15	141.291
518.69	74.5684
522.228	152.413
525.764	197.795
529.3	151.712
532.833	185.186
536.365	147.337
539.896	176.158
543.425	210.11
546.953	139.307
550.48	218.47
554.004	171.601
557.528	44.8408
561.05	60.5039
564.57	63.4805
568.089	33.0645
571.607	134.173
575.123	119.481
578.637	80.2744
582.15	164.477
585.662	13.9434
589.172	184.357
592.68	151.752
596.188	83.3828
599.693	352.245
603.197	228.98
606.7	113.85
610.202	155.542
613.701	383.409
617.2	389.173
620.697	488.256
624.192	416.938
627.686	677.287
631.178	846.988
634.67	929.08
638.159	1489.66
641.647	2696.5
645.134	4652.7
648.619	7374.23
652.103	9815.16
655.585	7329.48
659.066	3540.62
662.545	1757.03
666.023	1032.61
669.499	623.989
672.974	446.244
676.448	336.15
679.92	382.228
683.39	376.19
686.859	491.446
690.327	377.765
693.793	296.546
697.258	252.075
700.721	269.579
704.183	249.047
707.643	339.328
711.102	79.0762
714.56	137.935
718.016	83.8164
721.47	57.248
724.923	61.4609
728.375	189.103
731.825	111.606
735.274	206.924
738.721	28.3672
742.167	24.2832
745.611	59.4883
749.054	80.1719
752.496	8.78711
755.936	130.387
759.374	256.977
762.812	219.152
766.247	81.2519
769.681	99.3828
773.114	311.256
776.546	52.3164
779.975	349.086
783.404	25.666
786.831	130.861
790.256	18.0547
793.681	43.832
797.103	9.24805
800.524	54.9277
803.944	162.746
807.363	115.846
810.779	412.772
814.195	210.519
817.609	305.231
821.022	235.519
824.433	369.201
827.842	343.795
831.251	163.988
834.657	428.019
838.063	214.643
841.467	345.83
844.869	272.897
848.27	198.098
851.67	246.102
855.068	314.734
858.465	314.246
861.86	125.316
865.254	76.2363
868.646	138.525
872.037	300.143
875.427	197.586
878.815	105.228
882.202	218.16
885.587	112.357
888.971	116.717
892.353	226.81
895.734	8.62305
899.114	18.4531
902.492	189.713
905.869	466.783
909.244	453.684
912.618	412.865
915.99	354.185
919.361	207.947
922.731	46.9688
926.099	191.748
929.466	117.492
932.831	275.33
936.195	129.461
939.557	310.34
942.918	16.0996
946.278	1.91797
949.636	250.494
952.993	238.59
956.348	405.809
959.702	639.924
963.054	946.332
966.405	1361.12
969.755	1718.65
973.103	1834.83
976.45	1611.01
979.795	1396.39
983.139	1300.23
986.482	1160.08
989.823	1342.74
993.162	1187.17
996.501	1609.59
999.837	1626.44
1003.17	1788.47
1006.51	1559.84
1009.84	933.977
1013.17	1056.93
1016.5	1573.56
1019.83	2518.08
1023.16	3588.95
1026.48	3786.61
1029.81	2738.01
1033.13	1461.27
1036.45	713.867
1039.77	475.779
1043.09	368.098
1046.4	390.234
1049.72	114.852
1053.03	80.1055
1056.35	213.334
1059.66	76.6133
1062.97	303.166
1066.28	76.1231
1069.58	234.418
1072.89	54.4785
1076.19	354.389
1079.5	220.529
1082.8	123.816
1086.1	238.154
1089.4	104.564
1092.69	107.922
1095.99	188.592
1099.29	229.361
1102.58	15.1348
1105.87	5.16211
1109.16	209.051
1112.45	117.682
1115.74	473.598
1119.02	326.828
1122.31	293.121
1125.59	595.539
1128.87	363.457
1132.15	230.219
1135.43	12.4688
1138.71	200.781
1141.99	272.102
1145.26	467.394
1148.54	416.703
1151.81	303.363
1155.08	302.496
1158.35	484.684
1161.62	297.801
1164.88	240.773
1168.15	283.25
1171.41	329.227
1174.67	244.391
1177.93	220.949
1181.19	549.172
1184.45	394.883
1187.71	412.598
1190.96	287.137
1194.22	213.551
1197.47	200.606
1200.72	307.867
1203.97	281.496
1207.22	149.93
1210.47	343.934
1213.71	248.078
1216.96	78.5664
1220.2	45.9922
1223.44	4.47266
1226.68	89.2578
1229.92	55.375
1233.16	203.758
1236.39	0
