Measurement: Raman, 514 nm, depolarized, Raman Data Processed
Mineral: Pectolite
Rruff sample: R060101
Ideal chemistry: NaCa_2_Si_3_O_8_(OH)
Locality: West Patterson, New Jersey, USA
Source: University of Arizona Mineral Museum
Description: Tufts of white acicular sprays
Measured chemistry: Na_1.02_Ca_2.00_Si_2.99_O_8_(OH)
Pin_id: L01710
Orientation: Laser parallel to -a* (-1 0 0). Fiducial mark perpendicular to laser is parallel to b [0 1 0]
Raman shift (cm-1)	intensity
146.128	0
148.596	12.3845
151.063	43.4294
153.53	11.6708
155.995	2.62195
158.46	10.3267
160.925	24.5299
163.388	63.1945
165.851	39.7633
168.313	30.2169
170.775	49.8787
173.235	47.313
175.695	32.3685
178.155	43.6705
180.613	23.2508
183.071	89.2045
185.528	92.3092
187.985	91.9077
190.44	71.2222
192.896	0.831787
195.35	47.3649
197.803	88.5719
200.256	61.7771
202.709	14.0906
205.16	39.7761
207.611	37.449
210.061	6.4386
212.51	49.6815
214.959	114.151
217.407	0.401001
219.854	72.2655
222.301	101.371
224.747	87.1785
227.192	82.4066
229.636	125.99
232.08	95.1974
234.523	38.6421
236.965	71.6873
239.407	62.488
241.848	13.2664
244.288	34.9357
246.728	114.419
249.166	73.0386
251.604	75.3223
254.042	57.5997
256.479	74.2379
258.915	65.7106
261.35	94.546
263.784	117.488
266.218	95.955
268.651	103.132
271.084	124.342
273.516	125.686
275.947	144.085
278.377	76.1179
280.807	104.669
283.236	33.9036
285.664	93.3657
288.092	32.3706
290.518	13.5688
292.945	74.6472
295.37	46.0906
297.795	29.4695
300.219	6.78613
302.642	6.37476
305.065	95.1562
307.487	89.9705
309.908	43.5139
312.329	75.6977
314.749	94.0164
317.168	12.4519
319.586	88.1352
322.004	95.1423
324.421	86.8591
326.838	52.6326
329.253	22.3945
331.668	59.7012
334.083	34.7378
336.496	24.8713
338.909	18.8826
341.321	83.8169
343.733	17.7966
346.144	39.1252
348.554	32.135
350.963	56.8848
353.372	93.0974
355.78	30.2698
358.187	7.67725
360.594	81.178
363	14.4683
365.405	21.977
367.81	60.9099
370.214	9.26977
372.617	76.1667
375.019	29.7888
377.421	87.7898
379.822	91.7556
382.223	25.8157
384.622	77.5127
387.022	105.666
389.42	7.13916
391.818	82.3965
394.215	33.6113
396.611	45.0847
399.006	44.7642
401.401	14.0742
403.795	76.7761
406.189	110.985
408.582	104.223
410.974	87.2532
413.365	37.3101
415.756	13.3298
418.146	82.0869
420.536	102.899
422.924	58.2173
425.312	13.6389
427.7	43.0581
430.086	66.5339
432.472	50.3298
434.858	15.9304
437.242	43.2256
439.626	61.5549
442.009	66.0244
444.392	45.7131
446.774	32.1323
449.155	96.7483
451.535	96.9871
453.915	96.2039
456.294	131.901
458.672	70.1265
461.05	21.3669
463.427	103.679
465.804	33.6418
468.179	99.0811
470.554	63.2246
472.928	96.353
475.302	118.917
477.675	57.7554
480.047	80.3106
482.419	101.453
484.79	20.3716
487.16	82.9773
489.529	131.148
491.898	115.565
494.266	126.282
496.634	60.0337
499.001	15.9136
501.367	172.015
503.732	2.32324
506.097	74.4922
508.461	109.836
510.825	93.9761
513.187	108.712
515.549	102.539
517.911	59.9307
520.271	78.9731
522.631	46.2319
524.991	94.2812
527.349	90.5142
529.707	139.19
532.065	125.107
534.421	132.378
536.777	27.1758
539.132	48.3589
541.487	6.57422
543.841	76.9751
546.194	6.80371
548.547	69.5215
550.898	61.251
553.25	44.7861
555.6	49.331
557.95	73.2398
560.299	39.7666
562.648	70.7144
564.995	19.5459
567.343	185.386
569.689	29.8237
572.035	106.5
574.38	40.6602
576.724	35.1133
579.068	49.4927
581.411	60.6333
583.754	91.8897
586.095	89.772
588.437	72.9663
590.777	90.4189
593.117	70.478
595.456	130.546
597.794	29.1148
600.132	98.9248
602.469	86.7388
604.805	136.574
607.141	147.482
609.476	151.404
611.81	31.4624
614.144	189.647
616.477	74.0552
618.809	57.0044
621.141	7.28369
623.472	152.927
625.802	60.9058
628.132	91.2383
630.461	117.088
632.789	45.5601
635.117	103.384
637.444	175.174
639.77	103.979
642.096	265.466
644.421	219.377
646.745	349.981
649.069	500.854
651.392	515.307
653.714	550.97
656.036	373.488
658.357	317.471
660.677	201.6
662.997	185.278
665.316	62.2544
667.634	141.61
669.952	91.7231
672.269	144.972
674.585	69.5679
676.901	155.039
679.216	63.5649
681.53	198.915
683.844	125.983
686.157	173.156
688.469	60.52
690.781	44.7949
693.092	64.1797
695.402	72.7563
697.712	49.4487
700.021	12.3218
702.329	59.6006
704.637	104.931
706.944	126.04
709.251	1.81543
711.556	193.025
713.861	178.612
716.166	187.31
718.469	143.309
720.773	107.083
723.075	66.4004
725.377	104.004
727.678	132.969
729.978	79.0654
732.278	35.956
734.577	38.2295
736.876	37.6553
739.173	110.01
741.47	61.3174
743.767	104.339
746.063	129.648
748.358	33.4971
750.652	78.3369
752.946	124.682
755.239	163.254
757.532	142.137
759.824	50.6904
762.115	98.6641
764.406	111.304
766.695	239.536
768.985	48.8809
771.273	112.14
773.561	145.393
775.848	191.2
778.135	222.2
780.421	42.2832
782.706	48.6807
784.991	194.647
787.275	232.476
789.558	78.3555
791.841	152.791
794.123	149.828
796.404	151.449
798.685	244.281
800.965	94.8418
803.245	142.671
805.523	94.1856
807.802	125
810.079	127.65
812.356	245.899
814.632	27.125
816.907	146.71
819.182	176.335
821.456	223.44
823.73	232.494
826.003	48.9922
828.275	160.678
830.547	24.6729
832.818	79.9512
835.088	165.56
837.358	217.215
839.627	74.4531
841.895	90.7363
844.163	328.496
846.43	104.852
848.696	60.7158
850.962	9.37598
853.227	10.8926
855.491	169.286
857.755	48.3232
860.018	163.6
862.281	44.3545
864.543	72.0381
866.804	152.225
869.064	138.632
871.324	102.293
873.583	87.1016
875.842	82.3535
878.1	1.57324
880.357	53.3994
882.614	120.662
884.87	127.059
887.125	27.1992
889.38	77.0488
891.634	68.293
893.888	199.581
896.14	56.8877
898.393	40.0693
900.644	134.838
902.895	47.4219
905.145	8.41309
907.395	15.2305
909.644	78.3359
911.892	212.448
914.14	247.805
916.387	122.895
918.633	6.25098
920.879	134.792
923.124	251.512
925.368	124.969
927.612	348.549
929.855	34.7578
932.098	123.106
934.339	231.498
936.581	222.018
938.821	424.213
941.061	318.059
943.301	287.715
945.539	131.109
947.777	136.658
950.015	217.486
952.251	393.102
954.487	260.461
956.723	145.215
958.958	271.219
961.192	261.426
963.425	331.231
965.658	371.379
967.89	587.231
970.122	421.312
972.353	419.182
974.583	367.652
976.813	421.863
979.042	323.957
981.271	148.705
983.498	300.289
985.726	93.7539
987.952	312.969
990.178	26.9453
992.403	248.594
994.628	128.938
996.852	81.8398
999.075	376.398
1001.3	61.8613
1003.52	144.565
1005.74	117.09
1007.96	326.297
1010.18	299.422
1012.4	10.373
1014.62	112.312
1016.84	140.117
1019.06	193.889
1021.27	189.785
1023.49	358.961
1025.71	8.69922
1027.92	118.289
1030.13	170.787
1032.35	175.734
