Measurement: Raman, 514 nm, depolarized, Raman Data Processed
Mineral: Pectolite
Rruff sample: R060101
Ideal chemistry: NaCa_2_Si_3_O_8_(OH)
Locality: West Patterson, New Jersey, USA
Source: University of Arizona Mineral Museum
Description: Tufts of white acicular sprays
Measured chemistry: Na_1.02_Ca_2.00_Si_2.99_O_8_(OH)
Pin_id: L01384
Orientation: Laser parallel to (-1 -1 0). Fiducial mark perpendicular to laser is parallel to c [0 0 1]
Raman shift (cm-1)	intensity
122.648	0
126.36	0.259888
130.07	24.8246
133.778	1.21484
137.485	76.3035
141.19	126.573
144.894	135.697
148.596	87.8079
152.296	103.838
155.995	89.781
159.692	22.5815
163.388	94.0942
167.082	16.2183
170.775	84.3791
174.465	7.42627
178.155	94.2454
181.842	82.4568
185.528	106.224
189.213	133.057
192.896	41.9414
196.577	66.2622
200.256	111.629
203.934	108.776
207.611	52.5205
211.286	76.4517
214.959	53.0544
218.631	35.7144
222.301	73.9875
225.969	64.2422
229.636	65.3662
233.302	21.7949
236.965	29.9412
240.628	5.56152
244.288	1.01904
247.947	22.9397
251.604	28.8772
255.26	7.00806
258.915	23.7947
262.567	81.1575
266.218	70.9277
269.868	33.384
273.516	32.5774
277.162	40.7561
280.807	98.834
284.45	29.6094
288.092	1.30566
291.732	26.9722
295.37	63.8059
299.007	13.498
302.642	73.9751
306.276	11.5906
309.908	87.8108
313.539	70.3213
317.168	96.947
320.795	92.2656
324.421	74.0134
328.046	75.1636
331.668	53.9214
335.289	59.4055
338.909	37.6956
342.527	8.02295
346.144	48.9346
349.759	132.249
353.372	9.47607
356.984	29.9844
360.594	14.738
364.203	18.8159
367.81	2.86938
371.415	1.67212
375.019	55.8372
378.622	125.806
382.223	63.0315
385.822	23.2222
389.42	1.98096
393.016	7.79785
396.611	47.4675
400.204	57.2417
403.795	5.71509
407.386	78.7266
410.974	105.188
414.561	73.0564
418.146	113.175
421.73	73.9753
425.312	42.3257
428.893	55.9756
432.472	67.9668
436.05	31.7144
439.626	66.8291
443.201	9.4292
446.774	117.487
450.345	21.6318
453.915	67.21
457.483	74.9053
461.05	90.0557
464.615	124.3
468.179	66.8965
471.741	100.248
475.302	77.8984
478.861	56.5923
482.419	105.843
485.975	21.187
489.529	29.6699
493.082	27.502
496.634	65.9414
500.184	58.6103
503.732	135.463
507.279	126.967
510.825	173.432
514.368	107.806
517.911	122.129
521.451	90.2578
524.991	141.432
528.528	30.2915
532.065	61.105
535.599	122.191
539.132	131.81
542.664	18.3355
546.194	71.2319
549.723	29.6885
553.25	37.9097
556.775	82.1016
560.299	82.6733
563.822	87.5449
567.343	102.364
570.862	98.8335
574.38	12.2393
577.896	71.1592
581.411	47.606
584.925	61.4468
588.437	89.8838
591.947	142.026
595.456	87.2788
598.963	85.5083
602.469	49.3027
605.973	67.3066
609.476	67.4741
612.977	73.1807
616.477	155.128
619.975	69.0596
623.472	117.556
626.967	144.93
630.461	36.395
633.953	12.5693
637.444	325.027
640.933	280.447
644.421	345.056
647.907	611.231
651.392	750.572
654.875	610.152
658.357	217.214
661.837	93.6558
665.316	48.5
668.793	173.992
672.269	153.727
675.743	135.596
679.216	206.95
682.687	211.908
686.157	245.37
689.625	189.7
693.092	69.8272
696.557	171.5
700.021	107.565
703.483	42.0049
706.944	72.0566
710.403	37.2568
713.861	82.3516
717.318	13.0049
720.773	31.1768
724.226	20.9141
727.678	176.702
731.128	25.3564
734.577	70.5879
738.025	113.001
741.47	106.199
744.915	209.575
748.358	39.2266
751.799	143.59
755.239	197.767
758.678	100.376
762.115	124.939
765.551	119.714
768.985	249.39
772.417	20.2109
775.848	226.661
779.278	129.95
782.706	117.323
786.133	85.7637
789.558	91.5225
792.982	67.0488
796.404	151.069
799.825	51
803.245	146.807
806.663	48.7734
810.079	127.716
813.494	141.778
816.907	319.512
820.319	240.255
823.73	157.723
827.139	195.949
830.547	153.211
833.953	295.732
837.358	132.086
840.761	108.962
844.163	153.343
847.563	245.186
850.962	231.556
854.359	223.106
857.755	72.1484
861.15	40.3643
864.543	172.386
867.934	71.0977
871.324	231.081
874.713	127.482
878.1	103.634
881.486	46.7217
884.87	143.308
888.253	220.52
891.634	282.069
895.014	252.21
898.393	273.626
901.77	106.624
905.145	68.7188
908.519	166.268
911.892	2.93066
915.263	62.6143
918.633	189.532
922.001	140.274
925.368	124.287
928.734	150.87
932.098	0.380859
935.46	52.7422
938.821	115.288
942.181	12.5664
945.539	47.8574
948.896	74.4102
952.251	425.584
955.605	119.555
958.958	68.5996
962.309	144.947
965.658	210.543
969.006	299.707
972.353	358.369
975.698	290.633
979.042	133.647
982.385	251.94
985.726	157.213
989.065	140.69
992.403	235.928
995.74	112.168
999.075	231.012
1002.41	287.734
1005.74	207.09
1009.07	270.066
1012.4	240.672
1015.73	174.775
1019.06	235.932
1022.38	249.74
1025.71	304.842
1029.03	409.928
1032.35	184.033
1035.67	142.688
1038.99	0.806641
1042.3	131.096
1045.62	102.443
1048.93	340.916
1052.24	15.5684
1055.56	46.7891
1058.87	20.1367
1062.17	126.684
1065.48	59.4805
1068.79	21.9121
1072.09	179.59
1075.39	245.838
1078.69	123.305
1081.99	130.072
1085.29	136.336
1088.59	126.08
1091.88	144.207
1095.18	114.693
1098.47	119.846
1101.76	139.738
1105.05	1.31836
