Measurement: Raman, 514 nm, depolarized, Raman Data Processed
Mineral: Pectolite
Rruff sample: R060101
Ideal chemistry: NaCa_2_Si_3_O_8_(OH)
Locality: West Patterson, New Jersey, USA
Source: University of Arizona Mineral Museum
Description: Tufts of white acicular sprays
Measured chemistry: Na_1.02_Ca_2.00_Si_2.99_O_8_(OH)
Pin_id: L00594
Orientation: Laser parallel to (1 0 1). Fiducial mark perpendicular to laser is parallel to b [0 1 0]
Raman shift (cm-1)	intensity
116.458	0
120.173	39.032
123.885	30.5691
127.596	7.82886
131.306	6.36597
135.014	90.3877
138.72	61.8118
142.425	85.5666
146.128	125.61
149.83	197.347
153.53	172.112
157.228	81.4211
160.925	73.093
164.62	59.7361
168.313	63.8906
172.005	66.6934
175.695	54.186
179.384	9.47681
183.071	50.5938
186.757	123.226
190.44	86.4858
194.123	54.6435
197.803	55.5791
201.483	39.4312
205.16	2.81885
208.836	88.9663
212.51	80.0256
216.183	85.6482
219.854	46.9712
223.524	93.0786
227.192	135.081
230.858	83.1226
234.523	59.9333
238.186	74.9177
241.848	92.144
245.508	56.5698
249.166	30.158
252.823	34.5593
256.479	112.871
260.132	44.9297
263.784	112.905
267.435	59.8193
271.084	146.29
274.731	191.966
278.377	194.078
282.021	120.791
285.664	21.9468
289.305	105.632
292.945	47.8484
296.583	93.6609
300.219	38.8997
303.854	32.301
307.487	19.6404
311.119	118.857
314.749	157.189
318.377	179.963
322.004	154.778
325.629	84.3581
329.253	122.979
332.876	114.368
336.496	24.9482
340.115	52.1309
343.733	15.7693
347.349	55.6694
350.963	70.0718
354.576	47.5605
358.187	75.167
361.797	43.0242
365.405	160.871
369.012	75.4712
372.617	97.3135
376.22	96.904
379.822	102.975
383.423	57.8616
387.022	89.8115
390.619	54.1309
394.215	5.79175
397.809	133.492
401.401	85.1509
404.992	145.066
408.582	162.414
412.17	75.6084
415.756	80.229
419.341	122.249
422.924	111.436
426.506	44.667
430.086	132.157
433.665	19.0127
437.242	48.9102
440.818	3.43652
444.392	2.23486
447.964	71.6851
451.535	85.4526
455.105	70.4277
458.672	112.452
462.239	37.6494
465.804	132.737
469.367	82.3687
472.928	126.126
476.489	98.9023
480.047	173.275
483.604	51.7412
487.16	40.2671
490.714	58.8999
494.266	109.717
497.817	73.1841
501.367	102.432
504.915	159.001
508.461	75.1758
512.006	76.4492
515.549	107.453
519.091	150.654
522.631	160.182
526.17	108.278
529.707	146.244
533.243	150.644
536.777	47.5078
540.31	43.4512
543.841	59.415
547.37	2.59815
550.898	100.113
554.425	29.0581
557.95	73.3418
561.473	133.483
564.995	0.470215
568.516	91.9273
572.035	46.5503
575.552	2.7832
579.068	89.3276
582.583	84.9048
586.095	49.2925
589.607	58.3906
593.117	102.582
596.625	55.8774
600.132	4.94873
603.637	10.9468
607.141	8.07666
610.643	31.2769
614.144	112.079
617.643	121.29
621.141	70.0102
624.637	106.2
628.132	107.56
631.625	134.306
635.117	148.686
638.607	321.516
642.096	306.395
645.583	577.343
649.069	856.954
652.553	1108.35
656.036	724.365
659.517	265.12
662.997	237.958
666.475	130.573
669.952	123.995
673.427	199.882
676.901	166.04
680.373	124.823
683.844	106.864
687.313	54.8467
690.781	109.036
694.247	102.519
697.712	27.9189
701.175	57.3779
704.637	152.481
708.097	31.5879
711.556	42.2041
715.014	71.0107
718.469	60.3477
721.924	28.5938
725.377	128.497
728.828	133.119
732.278	96.6016
735.726	42.5478
739.173	29.2256
742.619	193.6
746.063	154.226
749.505	17.0459
752.946	23.7939
756.386	81.1357
759.824	55.4531
763.26	109.71
766.695	97.0557
770.129	81.7197
773.561	11.6152
776.992	22.1602
780.421	10.7549
783.849	73.4639
787.275	75.9023
790.7	76.4463
794.123	194.898
797.545	274.717
800.965	176.916
804.384	213.415
807.802	236.764
811.217	166.426
814.632	224.999
818.045	202.902
821.456	51.2832
824.867	156.481
828.275	252.641
831.682	220.321
835.088	203.885
838.492	260.041
841.895	90.7412
845.296	329.097
848.696	293.031
852.094	79.5215
855.491	46.7881
858.887	100.602
862.281	0.748047
865.673	57.4336
869.064	135.663
872.454	44.3164
875.842	70.6826
879.229	62.3389
882.614	208.855
885.998	11.0166
889.38	56.0156
892.761	128.605
896.14	198.253
899.518	62.0029
902.895	94.3164
906.27	50.5605
909.644	69.9248
913.016	88.3447
916.387	60.0137
919.756	113.242
923.124	105.051
926.49	26.1387
929.855	25.2949
933.219	66.8418
936.581	59.5801
939.941	269.225
943.301	114.326
946.658	152.109
950.015	225.815
953.369	34.4355
956.723	99.8457
960.075	135.103
963.425	251.516
966.774	361.002
970.122	567.568
973.468	433.301
976.813	324.039
980.156	399.623
983.498	458.141
986.839	256.463
990.178	324.144
993.516	179.168
996.852	233.346
1000.19	226.74
1003.52	325.894
1006.85	277.389
1010.18	360.816
1013.51	275.867
1016.84	194.533
1020.16	217.381
1023.49	120.019
1026.81	355.441
1030.13	171.443
1033.46	168.127
1036.78	201.853
1040.09	64.4688
1043.41	85.1289
1046.72	86.8828
1050.04	48.502
1053.35	255.029
1056.66	234.182
1059.97	141.322
1063.28	148.889
1066.58	178.051
1069.89	128.934
1073.19	240.816
1076.49	100.648
1079.79	188.644
1083.09	215.584
1086.39	189.426
1089.69	208.039
1092.98	226.643
1096.28	170.664
1099.57	212.584
1102.86	191.621
1106.15	85.7305
