Measurement: Raman, 514 nm, depolarized, Raman Data Processed
Mineral: Pectolite
Rruff sample: R050396
Ideal chemistry: NaCa_2_Si_3_O_8_(OH)
Locality: Jeffrey Quarry, Asbestos, Quebec, Canada
Source: Marcus Origlieri
Description: Colorless to gray columnar blocky crystals
Measured chemistry: Na_1.00_Ca_2.00_Si_3.00_O_8_(OH)
Pin_id: M00143
Orientation: Laser parallel to -b* (0 -1 0). Fiducial mark perpendicular to laser is parallel to c [0 0 1]
Raman shift (cm-1)	intensity
127.596	0
131.306	124.522
135.014	313.401
138.72	769.069
142.425	816.31
146.128	837.803
149.83	741.162
153.53	347.682
157.228	271.68
160.925	68.0352
164.62	225.973
168.313	217.769
172.005	148.816
175.695	175.779
179.384	223.408
183.071	247.188
186.757	183.56
190.44	209.703
194.123	241.381
197.803	186.785
201.483	235.844
205.16	356.856
208.836	245.088
212.51	354.748
216.183	159.051
219.854	210.834
223.524	274.074
227.192	319.889
230.858	49.1074
234.523	216.453
238.186	305.184
241.848	171.541
245.508	31.002
249.166	155.666
252.823	84.5273
256.479	195.596
260.132	175.217
263.784	282.24
267.435	170.773
271.084	303.381
274.731	304.861
278.377	405.805
282.021	253.103
285.664	86.707
289.305	85.0117
292.945	262.447
296.583	153.191
300.219	132.877
303.854	148.875
307.487	220.4
311.119	281.394
314.749	388.959
318.377	284.727
322.004	274.904
325.629	177.43
329.253	114.043
332.876	96.2129
336.496	12.6035
340.115	174.322
343.733	143.279
347.349	3.76367
350.963	210.023
354.576	304.057
358.187	198.353
361.797	77.3281
365.405	63.668
369.012	168.842
372.617	145.756
376.22	389.67
379.822	414.596
383.423	130.879
387.022	271.803
390.619	203.596
394.215	55.1602
397.809	16.5508
401.401	3.50195
404.992	3.37891
408.582	205.504
412.17	297.162
415.756	200.002
419.341	267.158
422.924	4.99805
426.506	23.8613
430.086	123.728
433.665	34.8379
437.242	39.6289
440.818	275.826
444.392	19.584
447.964	87.7031
451.535	296.525
455.105	203.484
458.672	22.6016
462.239	84.4102
465.804	19.2969
469.367	247.619
472.928	206.709
476.489	355.66
480.047	214.008
483.604	156.447
487.16	77.9375
490.714	32.627
494.266	336.002
497.817	106.074
501.367	298.857
504.915	339.346
508.461	324.533
512.006	196.428
515.549	131.018
519.091	185.293
522.631	170.283
526.17	56.9688
529.707	186.51
533.243	231.236
536.777	189.295
540.31	35.9141
543.841	109.682
547.37	224.193
550.898	164.555
554.425	2.83984
557.95	232.551
561.473	78.5
564.995	9.43555
568.516	109.01
572.035	388.371
575.552	357.826
579.068	193.365
582.583	35.6836
586.095	62.9902
589.607	164.453
593.117	93.3769
596.625	157.627
600.132	112.059
603.637	172.76
607.141	228.701
610.643	228.772
614.144	310.865
617.643	63.2598
621.141	19.0059
624.637	150.066
628.132	326.147
631.625	411.299
635.117	472.268
638.607	581.199
642.096	751.363
645.583	1071.81
649.069	1513.98
652.553	1976.06
656.036	1194.99
659.517	740.914
662.997	428.549
666.475	265.316
669.952	409.957
673.427	304.637
676.901	283.184
680.373	403.756
683.844	272.644
687.313	245.635
690.781	535.742
694.247	272.732
697.712	373.045
701.175	224.184
704.637	229.088
708.097	316.398
711.556	176.426
715.014	169.094
718.469	151.113
721.924	204.764
725.377	141.766
728.828	11.9902
732.278	155.787
735.726	291.453
739.173	205.799
742.619	21.3496
746.063	45.4434
749.505	239.779
752.946	102.49
756.386	201.834
759.824	124.539
763.26	146.377
766.695	233.49
770.129	84.5312
773.561	114.576
776.992	232.018
780.421	295.695
783.849	129.394
787.275	377.426
790.7	67.4531
794.123	100.141
797.545	202.422
800.965	49.3789
804.384	146.176
807.802	37.0801
811.217	229.164
814.632	148.18
818.045	308.984
821.456	316.793
824.867	252.164
828.275	276.006
831.682	205.586
835.088	58.1562
838.492	368.068
841.895	165.25
845.296	326.719
848.696	109.094
852.094	126.4
855.491	328.4
858.887	317.324
862.281	178.613
865.673	150.809
869.064	317.545
872.454	122.926
875.842	177.498
879.229	35.5156
882.614	13.1074
885.998	100.482
889.38	115.07
892.761	182.555
896.14	192.352
899.518	31.459
902.895	222.791
906.27	366.225
909.644	516.166
913.016	3.32031
916.387	350.373
919.756	75.8535
923.124	48.0176
926.49	155.815
929.855	305.955
933.219	99.9356
936.581	161.682
939.941	85.6777
943.301	378.393
946.658	368.672
950.015	234.916
953.369	289.576
956.723	465.682
960.075	362.715
963.425	591.107
966.774	517.393
970.122	820.338
973.468	723.84
976.813	488.603
980.156	575.617
983.498	342.758
986.839	396.44
990.178	531.32
993.516	501.449
996.852	592.625
1000.19	571.477
1003.52	622.465
1006.85	466.887
1010.18	411.031
1013.51	390.141
1016.84	555.598
1020.16	868.453
1023.49	1145.73
1026.81	825.231
1030.13	596.578
1033.46	480.644
1036.78	207.539
1040.09	171.172
1043.41	171.356
1046.72	193.582
1050.04	459.883
1053.35	219.633
1056.66	209.914
1059.97	173.246
1063.28	287.816
1066.58	94.3555
1069.89	1.875
1073.19	7.12109
1076.49	287.191
1079.79	325.609
1083.09	132.484
1086.39	282.199
1089.69	252.703
1092.98	353.961
1096.28	370.981
1099.57	273.824
1102.86	213.504
1106.15	258.723
1109.43	217.09
1112.72	153.758
1116.01	125.883
1119.29	291.852
1122.57	432.289
1125.85	402.91
1129.13	249.43
1132.41	339.531
1135.69	366.996
1138.96	190.082
1142.24	81.2383
1145.51	267.602
1148.78	448.16
1152.05	108.469
1155.32	350.461
1158.59	309.934
1161.85	411.574
1165.11	421.219
1168.38	321.242
1171.64	608.078
1174.9	369.652
1178.16	461.203
1181.41	267.644
1184.67	345.668
1187.92	306.922
1191.18	3.01562
1194.43	0
