Measurement: Raman, 514 nm, depolarized, Raman Data Processed
Mineral: Pectolite
Rruff sample: R050396
Ideal chemistry: NaCa_2_Si_3_O_8_(OH)
Locality: Jeffrey Quarry, Asbestos, Quebec, Canada
Source: Marcus Origlieri
Description: Colorless to gray columnar blocky crystals
Measured chemistry: Na_1.00_Ca_2.00_Si_3.00_O_8_(OH)
Pin_id: M00091
Orientation: Laser parallel to (0 -1 -1). Fiducial mark perpendicular to laser is parallel to a [1 0 0]
Raman shift (cm-1)	intensity
116.458	0
120.173	13.6523
123.885	76.282
127.596	129.559
131.306	466.733
135.014	979.787
138.72	1560.76
142.425	1882.5
146.128	1482.6
149.83	1038.22
153.53	598.591
157.228	202.106
160.925	119.712
164.62	13.9077
168.313	10.824
172.005	102.999
175.695	48.2168
179.384	133.48
183.071	199.21
186.757	209.962
190.44	75.3584
194.123	28.3926
197.803	61.4739
201.483	20.9622
205.16	28.1084
208.836	42.3289
212.51	33.4861
216.183	122.725
219.854	167.806
223.524	171.426
227.192	91.6294
230.858	134.714
234.523	37.5869
238.186	72.4268
241.848	42.5151
245.508	7.46826
249.166	14.2549
252.823	43.2432
256.479	94.6904
260.132	97.9243
263.784	177.372
267.435	219.21
271.084	285.754
274.731	309.575
278.377	355.151
282.021	174.434
285.664	11.5894
289.305	47.3081
292.945	93.6787
296.583	95.3467
300.219	92.8223
303.854	172.351
307.487	138.762
311.119	356.286
314.749	455.131
318.377	396.166
322.004	336.09
325.629	303.877
329.253	91.5635
332.876	98.2114
336.496	91.6021
340.115	19.4439
343.733	34.9834
347.349	114.539
350.963	132.591
354.576	210.111
358.187	272.817
361.797	177.345
365.405	134.216
369.012	326.293
372.617	425.877
376.22	594.877
379.822	565.513
383.423	268.546
387.022	144.448
390.619	259.693
394.215	138.603
397.809	167.977
401.401	302.597
404.992	339.062
408.582	435.268
412.17	427.087
415.756	354.691
419.341	236.071
422.924	87.5127
426.506	68.9976
430.086	5.58008
433.665	41.4268
437.242	75.7681
440.818	33.3252
444.392	147.35
447.964	100.662
451.535	26.3916
455.105	102.128
458.672	130.771
462.239	86.9756
465.804	82.2266
469.367	128.01
472.928	116.733
476.489	65.1982
480.047	153.742
483.604	108.125
487.16	120.518
490.714	155.597
494.266	211.262
497.817	286.351
501.367	230.249
504.915	208.834
508.461	267.252
512.006	194.816
515.549	172.013
519.091	210.803
522.631	256.147
526.17	139.059
529.707	233.208
533.243	147.274
536.777	186.308
540.31	117.066
543.841	115.407
547.37	149.802
550.898	212.683
554.425	190.61
557.95	24.8037
561.473	87.0523
564.995	51.1787
568.516	14.041
572.035	69.1191
575.552	154.305
579.068	13.2568
582.583	79.3457
586.095	6.4082
589.607	39.0967
593.117	33.1455
596.625	14.3301
600.132	142.26
603.637	32.209
607.141	143.106
610.643	95.5908
614.144	133.098
617.643	148.855
621.141	194.793
624.637	321.232
628.132	248.116
631.625	459.029
635.117	616.68
638.607	939.488
642.096	1512.46
645.583	2408.56
649.069	3473.51
652.553	3550.53
656.036	2285.7
659.517	1077.92
662.997	557.269
666.475	337.263
669.952	215.528
673.427	186.278
676.901	300.273
680.373	337.502
683.844	319.924
687.313	385.42
690.781	312.124
694.247	231.378
697.712	205.91
701.175	116.051
704.637	88.7178
708.097	157.92
711.556	171.208
715.014	160.717
718.469	102.6
721.924	126.923
725.377	128.072
728.828	140.857
732.278	93.1162
735.726	146.055
739.173	88.3818
742.619	28.6709
746.063	51.708
749.505	117.897
752.946	12.6797
756.386	164.93
759.824	124.345
763.26	27.5098
766.695	133.14
770.129	143.618
773.561	111.234
776.992	140.281
780.421	11.6885
783.849	152.523
787.275	152.255
790.7	62.6572
794.123	88.8096
797.545	132.905
800.965	114.514
804.384	111.415
807.802	242.005
811.217	83.7353
814.632	157.512
818.045	235.015
821.456	157.106
824.867	91.6299
828.275	214.144
831.682	11.9922
835.088	264.297
838.492	242.776
841.895	187.671
845.296	71.3897
848.696	234.028
852.094	175.306
855.491	75.957
858.887	195.459
862.281	181.797
865.673	58.6699
869.064	88.9512
872.454	127.608
875.842	22.7656
879.229	67.0596
882.614	38.8965
885.998	3.99414
889.38	193.863
892.761	140.625
896.14	60.8711
899.518	134.85
902.895	233.906
906.27	293.703
909.644	224.123
913.016	128.326
916.387	261.877
919.756	37.9238
923.124	187.826
926.49	9.51562
929.855	106.732
933.219	22.3184
936.581	106.174
939.941	196.606
943.301	182.643
946.658	195.652
950.015	417.18
953.369	417.316
956.723	352.574
960.075	691.42
963.425	938.139
966.774	1125.4
970.122	1063.94
973.468	1196.72
976.813	1061.66
980.156	1000.04
983.498	1085.43
986.839	880.619
990.178	943.428
993.516	820.545
996.852	900.229
1000.19	792.381
1003.52	898.106
1006.85	894.621
1010.18	626.809
1013.51	684.238
1016.84	1172.32
1020.16	1591.73
1023.49	1926.88
1026.81	1840.17
1030.13	1005.42
1033.46	706.648
1036.78	421.824
1040.09	310.861
1043.41	123.783
1046.72	64.3574
1050.04	60.2539
1053.35	72.9746
1056.66	114.09
1059.97	60.7109
1063.28	33.1055
1066.58	22.8594
1069.89	46.2031
1073.19	83.2793
1076.49	84.7969
1079.79	43.1445
1083.09	209.65
1086.39	387.268
1089.69	205.147
1092.98	17.6289
1096.28	270.91
1099.57	299.002
1102.86	263.746
1106.15	83.5664
1109.43	35.332
1112.72	270.332
1116.01	410.144
1119.29	325.688
1122.57	477.693
1125.85	402.137
1129.13	31.1914
1132.41	76.8106
1135.69	302.887
1138.96	381.062
1142.24	238.537
1145.51	178.826
1148.78	79.918
1152.05	384.019
1155.32	383.016
1158.59	165.092
1161.85	313.852
1165.11	142.678
1168.38	281.402
1171.64	237.072
1174.9	352.629
1178.16	524.525
1181.41	305.045
1184.67	31.3184
