Measurement: Raman, 514 nm, depolarized, Raman Data Processed
Mineral: Pectolite
Rruff sample: R050396
Ideal chemistry: NaCa_2_Si_3_O_8_(OH)
Locality: Jeffrey Quarry, Asbestos, Quebec, Canada
Source: Marcus Origlieri
Description: Colorless to gray columnar blocky crystals
Measured chemistry: Na_1.00_Ca_2.00_Si_3.00_O_8_(OH)
Pin_id: L01067
Orientation: Laser parallel to a* (1 0 0). Fiducial mark perpendicular to laser is parallel to -b [0 -1 0]
Raman shift (cm-1)	intensity
118.935	0
122.648	3.63477
126.36	51.0356
130.07	192.665
133.778	431.473
137.485	655.691
141.19	919.573
144.894	886.327
148.596	716.003
152.296	597.66
155.995	319.741
159.692	213.054
163.388	87.6069
167.082	2.57617
170.775	217.529
174.465	32.0063
178.155	145.188
181.842	206.004
185.528	360.673
189.213	241.183
192.896	223.885
196.577	255.527
200.256	232.246
203.934	268.498
207.611	34.8677
211.286	154.426
214.959	224.302
218.631	314.434
222.301	358.666
225.969	362.935
229.636	335.793
233.302	200.644
236.965	173.211
240.628	12.0488
244.288	123.755
247.947	13.4009
251.604	92.8281
255.26	96.3008
258.915	150.191
262.567	190.489
266.218	222.103
269.868	353.999
273.516	395.643
277.162	583.994
280.807	284.806
284.45	199.842
288.092	210.839
291.732	94.4346
295.37	95.2041
299.007	175.072
302.642	146.493
306.276	121.352
309.908	230.834
313.539	275.733
317.168	469.897
320.795	456.943
324.421	323.856
328.046	381.273
331.668	189.231
335.289	196.951
338.909	37.8555
342.527	11.8994
346.144	37.4502
349.759	45.4062
353.372	84.1436
356.984	226.407
360.594	178.509
364.203	90.458
367.81	191.513
371.415	251.799
375.019	243.364
378.622	170.716
382.223	194.693
385.822	188.362
389.42	86.3525
393.016	52.2353
396.611	80.9775
400.204	105.962
403.795	101.71
407.386	156.212
410.974	273.403
414.561	287.229
418.146	221.61
421.73	149.202
425.312	96.6699
428.893	73.9492
432.472	91.1436
436.05	87.2119
439.626	79.0898
443.201	16.9316
446.774	6.87988
450.345	17.3984
453.915	79.3603
457.483	105.7
461.05	80.9971
464.615	155.343
468.179	144.514
471.741	151.249
475.302	109.367
478.861	276.441
482.419	272.147
485.975	170.756
489.529	339.752
493.082	268.948
496.634	237.309
500.184	302.368
503.732	294.062
507.279	331.552
510.825	124.727
514.368	305.509
517.911	357.969
521.451	315.138
524.991	249.95
528.528	205.435
532.065	117.382
535.599	83.001
539.132	62.9629
542.664	108.84
546.194	54.8047
549.723	25.7764
553.25	22.0664
556.775	127.736
560.299	101.649
563.822	83.75
567.343	58.7549
570.862	48.6553
574.38	30.8857
577.896	166.233
581.411	104.093
584.925	91.6211
588.437	256.139
591.947	70.75
595.456	27.7188
598.963	212.173
602.469	67.5693
605.973	22.2979
609.476	158.629
612.977	245.549
616.477	301.413
619.975	188.28
623.472	51.2529
626.967	209.04
630.461	443.136
633.953	520.139
637.444	749.176
640.933	1075.59
644.421	2075.31
647.907	3064.91
651.392	4294.94
654.875	3339.7
658.357	1682.51
661.837	825.527
665.316	490.331
668.793	402.903
672.269	379.442
675.743	255.759
679.216	342.07
682.687	531.458
686.157	588.46
689.625	557.585
693.092	244.297
696.557	376.144
700.021	114.619
703.483	153.257
706.944	133.149
710.403	142.221
713.861	108.258
717.318	42.3076
720.773	238.85
724.226	45.5615
727.678	108.132
731.128	186.375
734.577	46.9629
738.025	69.3535
741.47	18.3438
744.915	23.2734
748.358	228.002
751.799	135.731
755.239	119.201
758.678	52.582
762.115	166.74
765.551	79.5508
768.985	165.467
772.417	126.15
775.848	99.5059
779.278	135.231
782.706	192.43
786.133	71.0215
789.558	124.147
792.982	148.185
796.404	200.422
799.825	229.082
803.245	133.777
806.663	265.705
810.079	46.8496
813.494	242.789
816.907	0.232422
820.319	213.856
823.73	176.125
827.139	139.775
830.547	102.074
833.953	62.1895
837.358	54.5625
840.761	137.4
844.163	139.777
847.563	116.893
850.962	182.978
854.359	185.816
857.755	195.049
861.15	225.17
864.543	171.656
867.934	199.951
871.324	127.125
874.713	46.6152
878.1	248.894
881.486	302.045
884.87	236.82
888.253	30.6602
891.634	220.037
895.014	73.5117
898.393	197.228
901.77	91.7383
905.145	85.0449
908.519	136.725
911.892	76.8613
915.263	21.3301
918.633	87.0469
922.001	95.8574
925.368	73
928.734	78.8574
932.098	164.92
935.46	10.8652
938.821	60.3516
942.181	242.316
945.539	257.023
948.896	334.307
952.251	394.672
955.605	412.174
958.958	722.492
962.309	953.205
965.658	921.996
969.006	1549.83
972.353	1800.69
975.698	1647.69
979.042	1367.54
982.385	898.881
985.726	888.664
989.065	584.771
992.403	574.697
995.74	699.127
999.075	602.519
1002.41	618.867
1005.74	771.801
1009.07	299.117
1012.4	415.992
1015.73	603.271
1019.06	887.131
1022.38	844.803
1025.71	1173.14
1029.03	1011.45
1032.35	565.981
1035.67	432.143
1038.99	349.242
1042.3	107.305
1045.62	0.904297
1048.93	327.607
1052.24	97.3555
1055.56	228.219
1058.87	25.1914
1062.17	97.3184
1065.48	196.527
1068.79	204.055
1072.09	86.4238
1075.39	131.859
1078.69	13.1484
1081.99	125.389
1085.29	97.3809
1088.59	0
