Measurement: Raman, 514 nm, depolarized, Raman Data Processed
Mineral: Pectolite
Rruff sample: R060101
Ideal chemistry: NaCa_2_Si_3_O_8_(OH)
Locality: West Patterson, New Jersey, USA
Source: University of Arizona Mineral Museum
Description: Tufts of white acicular sprays
Measured chemistry: Na_1.02_Ca_2.00_Si_2.99_O_8_(OH)
Pin_id: L00538
Orientation: Laser parallel to (0 -1 -1). Fiducial mark perpendicular to laser is parallel to -a [-1 0 0]
Raman shift (cm-1)	intensity
107.785	0
111.503	27.3612
115.22	0.39209
118.935	36.9891
122.648	34.4387
126.36	17.134
130.07	11.734
133.778	16.0696
137.485	19.2667
141.19	31.9313
144.894	66.8258
148.596	134.232
152.296	134.346
155.995	101.918
159.692	48.8727
163.388	10.9685
167.082	0.625
170.775	17.6125
174.465	17.517
178.155	76.176
181.842	47.5418
185.528	55.3169
189.213	72.9969
192.896	62.5765
196.577	38.9678
200.256	56.7041
203.934	88.2349
207.611	102.966
211.286	80.1299
214.959	37.2518
218.631	34.6328
222.301	64.1718
225.969	96.8655
229.636	45.7639
233.302	37.8403
236.965	10.1554
240.628	52.5841
244.288	7.30005
247.947	7.49927
251.604	7.55286
255.26	42.2957
258.915	3.45312
262.567	15.4075
266.218	63.8535
269.868	82.936
273.516	66.4388
277.162	81.699
280.807	69.8726
284.45	46.0206
288.092	0.258545
291.732	40.7004
295.37	30.0812
299.007	53.7178
302.642	14.8645
306.276	59.1585
309.908	66.2044
313.539	106.044
317.168	102.858
320.795	79.4102
324.421	122.539
328.046	70.6064
331.668	96.1572
335.289	71.8921
338.909	0.66748
342.527	82.9036
346.144	56.0557
349.759	54.5168
353.372	100.281
356.984	86.2434
360.594	70.8477
364.203	69.8296
367.81	67.3201
371.415	75.6526
375.019	87.9221
378.622	182.666
382.223	102.57
385.822	112.739
389.42	65.9202
393.016	48.9883
396.611	80.1111
400.204	99.7541
403.795	52.2957
407.386	90.7314
410.974	84.6631
414.561	168.663
418.146	116.68
421.73	121.433
425.312	4.46753
428.893	74.4377
432.472	33.585
436.05	32.0054
439.626	15.2707
443.201	16.2036
446.774	25.2976
450.345	98.5188
453.915	7.88623
457.483	47.5654
461.05	8.05347
464.615	52.5083
468.179	80.7302
471.741	18.7632
475.302	38.9734
478.861	0.793213
482.419	11.1653
485.975	126.017
489.529	6.63769
493.082	66.4067
496.634	50.8987
500.184	75.846
503.732	73.605
507.279	85.3186
510.825	63.3887
514.368	57.4263
517.911	44.5095
521.451	65.2124
524.991	107.606
528.528	26.1457
532.065	24.4966
535.599	87.1406
539.132	37.4858
542.664	40.6304
546.194	73.3857
549.723	42.6914
553.25	0.82959
556.775	84.9531
560.299	38.2456
563.822	36.1187
567.343	34.271
570.862	18.3023
574.38	18.1255
577.896	61.4224
581.411	79.3023
584.925	74.6509
588.437	45.6348
591.947	76.3066
595.456	109.224
598.963	12.7388
602.469	34.9165
605.973	12.6338
609.476	13.9707
612.977	45.8359
616.477	112.471
619.975	150.467
623.472	157.205
626.967	7.91211
630.461	122.299
633.953	120.52
637.444	111.814
640.933	264.032
644.421	349.377
647.907	446.385
651.392	667.347
654.875	567.263
658.357	382.231
661.837	198.005
665.316	179.931
668.793	38.0527
672.269	92.0269
675.743	152.069
679.216	85.9497
682.687	75.2256
686.157	173.395
689.625	104.929
693.092	82.9048
696.557	123.171
700.021	159.215
703.483	5.81641
706.944	24.7651
710.403	74.0928
713.861	134.788
717.318	58.4688
720.773	83.2495
724.226	17.5142
727.678	83.5464
731.128	71.8999
734.577	145.175
738.025	161.129
741.47	36.8911
744.915	35.6357
748.358	2.75391
751.799	78.8701
755.239	50.6279
758.678	68.583
762.115	8.70605
765.551	149.514
768.985	154.965
772.417	85.0303
775.848	119.814
779.278	183.593
782.706	125.46
786.133	4.7793
789.558	48.8291
792.982	17.7051
796.404	93.3652
799.825	164.176
803.245	265.766
806.663	185.014
810.079	128.911
813.494	225.663
816.907	167.147
820.319	99.7461
823.73	59.2139
827.139	129.394
830.547	79.0742
833.953	75.1543
837.358	225.44
840.761	128.565
844.163	193.087
847.563	180.864
850.962	164.649
854.359	62.9248
857.755	170.1
861.15	312.847
864.543	25.8223
867.934	240.294
871.324	213.994
874.713	116.983
878.1	149.799
881.486	259.893
884.87	178.649
888.253	190.639
891.634	160.773
895.014	200.217
898.393	134.207
901.77	171.085
905.145	316.94
908.519	112.044
911.892	17.5781
915.263	239.67
918.633	186.358
922.001	169.774
925.368	23.9199
928.734	164.623
932.098	15.959
935.46	125.394
938.821	87.6357
942.181	55.8486
945.539	60.2607
948.896	115.454
952.251	155.734
955.605	65.3262
958.958	302.172
962.309	128.414
965.658	62.043
969.006	172.873
972.353	291.094
975.698	129.32
979.042	159.955
982.385	161.481
985.726	212.213
989.065	98.5879
992.403	56.707
995.74	112.318
999.075	110.775
1002.41	197.459
1005.74	176.701
1009.07	240.394
1012.4	99.3418
1015.73	156.125
1019.06	159.935
1022.38	372.83
1025.71	460.041
1029.03	449.443
1032.35	328.316
1035.67	111.078
1038.99	32.793
1042.3	178.475
1045.62	128.58
1048.93	121.838
1052.24	203.113
1055.56	238.955
1058.87	126.844
1062.17	47.2148
1065.48	190.578
1068.79	394.088
1072.09	363.008
1075.39	158.656
1078.69	242.107
1081.99	355.164
1085.29	185.092
1088.59	41.1387
1091.88	164.426
1095.18	155.656
1098.47	86.5019
1101.76	248.191
1105.05	227.148
1108.34	231.6
1111.63	58.9023
1114.91	110.65
