Measurement: Raman, 514 nm, depolarized, Raman Data Processed
Mineral: Pectolite
Rruff sample: R060101
Ideal chemistry: NaCa_2_Si_3_O_8_(OH)
Locality: West Patterson, New Jersey, USA
Source: University of Arizona Mineral Museum
Description: Tufts of white acicular sprays
Measured chemistry: Na_1.02_Ca_2.00_Si_2.99_O_8_(OH)
Pin_id: M00258
Orientation: Laser parallel to c* (0 0 1). Fiducial mark perpendicular to laser is parallel to a [1 0 0]
Raman shift (cm-1)	intensity
117.697	0
121.41	60.6997
125.123	45.3104
128.833	3.50842
132.542	45.2933
136.25	87.8499
139.955	183.59
143.66	201.508
147.362	109.07
151.063	105.51
154.762	89.7714
158.46	25.7531
162.156	26.1519
165.851	6.5741
169.544	47.6262
173.235	29.5702
176.925	25.2551
180.613	0.530762
184.3	20.4441
187.985	36.4312
191.668	34.0552
195.35	123.808
199.03	46.6674
202.709	55.7249
206.386	26.8135
210.061	92.9944
213.735	23.9739
217.407	77.4783
221.078	75.0727
224.747	80.7573
228.414	91.2073
232.08	30.6924
235.744	35.2968
239.407	59.8981
243.068	20.9354
246.728	27.3433
250.386	31.714
254.042	6.68286
257.697	5.7948
261.35	2.94373
265.001	45.6791
268.651	69.1716
272.3	35.677
275.947	43.5853
279.592	52.4053
283.236	10.644
286.878	19.5571
290.518	6.40137
294.157	1.72363
297.795	24.3572
301.431	4.73389
305.065	56.2197
308.698	31.5776
312.329	71.9585
315.958	106.291
319.586	138.689
323.213	98.8603
326.838	55.4297
330.461	67.7615
334.083	48.2534
337.703	2.72485
341.321	22.6958
344.938	59.1545
348.554	67.2656
352.168	16.1575
355.78	47.53
359.391	141.83
363	98.7017
366.608	87.0335
370.214	102.082
373.818	113.081
377.421	137.96
381.023	113.727
384.622	50.4824
388.221	36.1304
391.818	27.6318
395.413	53.3552
399.006	76.4851
402.598	85.5159
406.189	144.735
409.778	129.383
413.365	244.722
416.951	171.577
420.536	122.547
424.118	45.7705
427.7	145.684
431.279	5.19092
434.858	54.3442
438.434	33.4319
442.009	6.00195
445.583	84.3979
449.155	110.418
452.725	5.76074
456.294	65.1497
459.861	6.12402
463.427	16.6377
466.991	127.549
470.554	84.634
474.115	62.1352
477.675	67.5278
481.233	88.2336
484.79	84.6946
488.345	78.3103
491.898	79.6719
495.45	41.9138
499.001	39.5161
502.55	108.553
506.097	10.4705
509.643	62.5579
513.187	30.2583
516.73	63.686
520.271	64.4194
523.811	7.26416
527.349	130.86
530.886	4.79688
534.421	86.8906
537.955	95.5859
541.487	37.2861
545.017	14.0527
548.547	40.8472
552.074	30.7676
555.6	37.9082
559.125	137.606
562.648	44.2105
566.169	29.0918
569.689	115.917
573.207	4.11719
576.724	84.9233
580.24	106.198
583.754	103.155
587.266	9.34961
590.777	118.033
594.286	37.3926
597.794	76.7676
601.3	101.393
604.805	51.4248
608.309	74.4858
611.81	67.1064
615.311	29.7564
618.809	146.065
622.307	125.429
625.802	138.312
629.297	130.894
632.789	120.332
636.281	144.748
639.77	270.94
643.259	285.065
646.745	545.441
650.231	647.394
653.714	665.877
657.197	481.644
660.677	279.773
664.157	133.784
667.634	215.15
671.111	142.574
674.585	157.287
678.059	79.1558
681.53	81.5693
685.001	95.2256
688.469	57.6372
691.937	109.773
695.402	86.4199
698.867	147.535
702.329	10.9805
705.791	8.02734
709.251	135.506
712.709	8.59521
716.166	58.0542
719.621	196.151
723.075	47.2871
726.527	70.1538
729.978	36.0303
733.428	77.0674
736.876	148.191
740.322	137.073
743.767	20.4355
747.21	79.9502
750.652	137.824
754.093	154.733
757.532	17.125
760.969	118.307
764.406	17.4404
767.84	151.103
771.273	118.188
774.705	74.1045
778.135	117.246
781.564	31.6279
784.991	72.7041
788.417	6.3291
791.841	58.6973
795.264	98.0098
798.685	95.7744
802.105	145.98
805.523	208.707
808.94	160.025
812.356	119.667
815.77	138.356
819.182	123.876
822.593	9.14648
826.003	43.8701
829.411	157.772
832.818	91.5391
836.223	105.796
839.627	153.485
843.029	79.2412
846.43	34.3291
849.829	200.389
853.227	307.777
856.623	176.096
860.018	15.2451
863.412	105.2
866.804	39.1611
870.194	127.91
873.583	124.145
876.971	248.402
880.357	59.4482
883.742	43.3594
887.125	55.0332
890.507	137.95
893.888	50.0176
897.267	53.3789
900.644	41.501
904.02	102.366
907.395	51.7549
910.768	45.5264
914.14	81.3975
917.51	102.821
920.879	91.5928
924.246	142.575
927.612	201.56
930.976	44.165
934.339	109.917
937.701	166.639
941.061	3.66211
944.42	46.9443
947.777	176.499
951.133	193.881
954.487	193.34
957.84	209.789
961.192	403.041
964.542	284.826
967.89	248.369
971.238	355.242
974.583	233.902
977.928	174.115
981.271	255.096
984.612	157.123
987.952	136.227
991.291	179.16
994.628	252.998
997.964	270.607
1001.3	410.254
1004.63	130.793
1007.96	217.898
1011.29	252.768
1014.62	173.291
1017.95	209.49
1021.27	183.834
1024.6	428.744
1027.92	266.568
1031.24	138.033
1034.56	98.2188
1037.88	147.955
1041.2	30.9316
1044.51	79.9492
1047.83	218.742
1051.14	66.5664
1054.45	140.471
1057.76	132.082
1061.07	48.3867
1064.38	280.869
1067.68	171.918
1070.99	39.2949
1074.29	108.508
1077.59	88.375
1080.89	42.5098
1084.19	25.9805
1087.49	161.57
1090.79	129.791
1094.08	89.6992
1097.37	126.154
1100.66	62.041
1103.95	216.504
1107.24	3.70117
1110.53	117.836
1113.82	164.389
1117.1	256.973
1120.38	83.0801
1123.67	43.3965
1126.95	378.361
1130.23	210.402
1133.5	245.273
1136.78	232.143
1140.05	256.572
1143.33	227.863
1146.6	375.848
1149.87	254.174
1153.14	217.203
1156.41	146.606
1159.67	287.43
1162.94	191.065
1166.2	377.481
1169.46	381.6
1172.72	289.736
1175.98	339.158
1179.24	309.135
1182.5	297.147
1185.75	404.107
1189.01	96.7617
1192.26	358.08
1195.51	154.273
1198.76	283.598
1202.01	332.494
1205.26	371.045
1208.5	383.185
1211.75	237.559
1214.99	292.252
1218.23	4.0957
1221.47	395.928
1224.71	157.664
1227.94	350.68
1231.18	0
