Measurement: Raman, 514 nm, depolarized, Raman Data Processed
Mineral: Pectolite
Rruff sample: R060101
Ideal chemistry: NaCa_2_Si_3_O_8_(OH)
Locality: West Patterson, New Jersey, USA
Source: University of Arizona Mineral Museum
Description: Tufts of white acicular sprays
Measured chemistry: Na_1.02_Ca_2.00_Si_2.99_O_8_(OH)
Pin_id: M00210
Orientation: Laser parallel to -b* (0 -1 0). Fiducial mark perpendicular to laser is parallel to c [0 0 1]
Raman shift (cm-1)	intensity
115.22	0
118.935	1.0813
122.648	16.1595
126.36	60.9426
130.07	88.6942
133.778	189.481
137.485	282.164
141.19	410.465
144.894	323.696
148.596	232.604
152.296	110.132
155.995	96.1211
159.692	61.0613
163.388	62.3417
167.082	21.2737
170.775	7.34644
174.465	32.4198
178.155	27.1492
181.842	35.3771
185.528	41.7082
189.213	46.4307
192.896	52.8158
196.577	47.1548
200.256	53.7075
203.934	57.0739
207.611	29.0663
211.286	5.84094
214.959	44.1412
218.631	57.7822
222.301	51.1191
225.969	45.249
229.636	27.7844
233.302	34.8171
236.965	4.98535
240.628	42.1392
244.288	31.8123
247.947	8.10205
251.604	42.4175
255.26	46.1218
258.915	34.0596
262.567	15.8718
266.218	61.0708
269.868	53.0078
273.516	46.0425
277.162	101.844
280.807	66.7307
284.45	33.833
288.092	25.7312
291.732	36.1641
295.37	35.8372
299.007	61.792
302.642	49.2031
306.276	58.1421
309.908	41.1245
313.539	67.8862
317.168	120.382
320.795	135.385
324.421	60.4802
328.046	74.959
331.668	4.96167
335.289	89.1875
338.909	4.00513
342.527	3.30835
346.144	19.0242
349.759	38.2647
353.372	45.4263
356.984	71.675
360.594	57.1956
364.203	62.3276
367.81	47.8603
371.415	17.29
375.019	160.622
378.622	63.6208
382.223	93.8696
385.822	57.8108
389.42	44.4014
393.016	96.5623
396.611	42.648
400.204	72.9712
403.795	133.218
407.386	155.761
410.974	98.6174
414.561	83.6523
418.146	87.8415
421.73	14.7505
425.312	79.834
428.893	12.5305
432.472	56.0972
436.05	95.9146
439.626	58.2439
443.201	87.1421
446.774	84.3513
450.345	45.5337
453.915	60.9602
457.483	9.52271
461.05	17.7898
464.615	99.8635
468.179	40.887
471.741	44.1963
475.302	105.93
478.861	119.15
482.419	74.9116
485.975	76.3232
489.529	80.0132
493.082	58.9141
496.634	81.707
500.184	135.902
503.732	73.5894
507.279	97.0864
510.825	88.4033
514.368	33.5469
517.911	153.457
521.451	107.211
524.991	100.008
528.528	74.4629
532.065	23.0356
535.599	2.19775
539.132	64.7075
542.664	85.7275
546.194	67.7046
549.723	27.249
553.25	128.407
556.775	11.8203
560.299	20.1777
563.822	75.4497
567.343	40.1069
570.862	49.9595
574.38	103.146
577.896	61.7129
581.411	40.146
584.925	56.8872
588.437	106.658
591.947	59.2476
595.456	76.2856
598.963	7.92871
602.469	86.7681
605.973	18.606
609.476	51.1343
612.977	124.965
616.477	133.575
619.975	37.6934
623.472	85.4629
626.967	90.6397
630.461	124.738
633.953	200.384
637.444	186.267
640.933	306.816
644.421	435.416
647.907	605.675
651.392	661.093
654.875	684.326
658.357	374.433
661.837	255.07
665.316	144.389
668.793	136.398
672.269	57.5161
675.743	155.341
679.216	78.7896
682.687	177.293
686.157	102.9
689.625	47.4575
693.092	133.519
696.557	64.0132
700.021	34.959
703.483	44.2036
706.944	31.9961
710.403	52.0225
713.861	130.13
717.318	182.225
720.773	100.844
724.226	138.199
727.678	10.2812
731.128	111.783
734.577	25.5088
738.025	14.1309
741.47	84.5088
744.915	93.8984
748.358	85.4873
751.799	123.894
755.239	95.0107
758.678	70.5293
762.115	127.445
765.551	150.844
768.985	57.1924
772.417	56.8242
775.848	150.037
779.278	100.304
782.706	127.765
786.133	181.316
789.558	117.327
792.982	42.4922
796.404	211.253
799.825	70.6055
803.245	177.849
806.663	227.849
810.079	58.9629
813.494	85.8887
816.907	129
820.319	153.86
823.73	243.01
827.139	200.857
830.547	270.293
833.953	31.0908
837.358	248.44
840.761	210.904
844.163	109.846
847.563	161.094
850.962	195.181
854.359	243.415
857.755	214.081
861.15	84.71
864.543	223.224
867.934	92.3467
871.324	112.965
874.713	117.22
878.1	151.623
881.486	175.894
884.87	124.44
888.253	181.179
891.634	96.6103
895.014	175.226
898.393	53.8867
901.77	8.3252
905.145	76.5967
908.519	77.0498
911.892	26.54
915.263	93.0928
918.633	239.649
922.001	13.5508
925.368	72.5947
928.734	9.79199
932.098	42.4424
935.46	105.237
938.821	75.5293
942.181	126.971
945.539	30.2734
948.896	241.16
952.251	139.353
955.605	269.527
958.958	233.742
962.309	321.475
965.658	314.275
969.006	479.701
972.353	404.957
975.698	325.443
979.042	353.602
982.385	281.926
985.726	122.615
989.065	182.502
992.403	167.326
995.74	255.846
999.075	231.144
1002.41	294.238
1005.74	387.746
1009.07	255.529
1012.4	143.865
1015.73	189.074
1019.06	267.725
1022.38	405.664
1025.71	269.644
1029.03	93.7812
1032.35	242.279
1035.67	349.457
1038.99	117.346
1042.3	24.0566
1045.62	227.201
1048.93	174.656
1052.24	99.6856
1055.56	132.404
1058.87	252.879
1062.17	18.8652
1065.48	153.533
1068.79	117.391
1072.09	89.5293
1075.39	134.783
1078.69	69.7676
1081.99	174.135
1085.29	192.066
1088.59	83.8809
1091.88	17.1406
1095.18	358.359
1098.47	97.3477
1101.76	202.719
1105.05	196.217
1108.34	23.8672
1111.63	201.252
1114.91	315.783
1118.2	298.344
1121.48	418.852
1124.76	185.201
1128.04	203.935
1131.32	175.127
1134.6	208.717
1137.87	180.016
1141.15	262.394
1144.42	89.3223
1147.69	257.508
1150.96	161.435
1154.23	239.984
1157.5	94.0684
1160.76	252.703
1164.03	15.1152
1167.29	180.441
1170.55	126.662
1173.81	253.637
1177.07	53.6094
1180.33	0
