Measurement: Raman, 514 nm, depolarized, Raman Data Processed
Mineral: Pharmacosiderite
Rruff sample: R050574
Ideal chemistry: KFe^3+^_4_(As^5+^O_4_)_3_(OH)_4_6-7H_2_O
Locality: Cornwall, England
Source: University of Arizona Mineral Museum
Description: Druse of bluish-green cubes
Measured chemistry: K_1.27_(Fe^3+^_3.73_Fe^2+^_0.27_)_Σ=4_(As_1.00_O_4_)_3_(OH)_4_·6H_2_O
Pin_id: M00719
Orientation: Laser parallel to a* (1 0 0). Fiducial mark perpendicular to laser is parallel to c [0 0 1]
Raman shift (cm-1)	intensity
214.062	0
217.744	139.977
221.425	199.6
225.104	476.201
228.781	571.045
232.456	884.408
236.129	1784.84
239.801	2109.11
243.471	1568.54
247.14	1532.95
250.806	1404.08
254.471	1229.05
258.134	1582.24
261.796	1660.19
265.456	1730.99
269.114	1336.81
272.77	1204.53
276.425	1222.27
280.077	1169.05
283.729	1355.76
287.378	1315.81
291.026	989.994
294.672	1012.85
298.316	806.49
301.959	931.838
305.6	909.812
309.239	462.322
312.876	313.293
316.512	206.684
320.146	279.398
323.779	49.3262
327.409	41.3887
331.038	38.5996
334.666	96.9434
338.291	165.58
341.915	26.0215
345.538	87.3301
349.158	158.639
352.777	43.9141
356.394	63.9727
360.01	125.295
363.624	37.1973
367.236	95.5547
370.846	264.719
374.455	263.295
378.062	396.068
381.668	824.871
385.272	881.625
388.874	1396.39
392.474	1424.19
396.073	1256.81
399.67	1349.18
403.266	1123.47
406.86	1001.77
410.452	814.051
414.043	676.381
417.631	711.344
421.219	892.731
424.804	1005.56
428.388	827.969
431.97	701.564
435.551	1224.8
439.13	1214.93
442.707	1257.9
446.283	1596.64
449.857	2177.44
453.429	2685.45
457	3411.33
460.569	4664.23
464.137	6665.16
467.703	10197
471.267	16134.1
474.83	23145.2
478.39	25632.9
481.95	20198.8
485.508	13436.3
489.064	9247.66
492.618	6696.69
496.171	4924.06
499.722	4220.38
503.272	3159.66
506.82	2470.68
510.366	2298.35
513.911	2016.22
517.454	1607.43
520.996	1659.14
524.535	1348.37
528.074	1109
531.61	774.316
535.146	667.113
538.679	521.424
542.211	626.023
545.741	642.883
549.27	518.842
552.797	271.9
556.323	514.506
559.846	489.129
563.369	492.695
566.889	482.356
570.409	371.209
573.926	307.879
577.442	278.248
580.956	566.047
584.469	248.01
587.98	434.969
591.49	357.029
594.998	299.959
598.504	249.719
602.009	374.844
605.513	604.203
609.014	227.461
612.514	374.6
616.013	418.688
619.51	632.646
623.005	919.578
626.499	1281.49
629.992	647.291
633.482	703.047
636.971	473.801
640.459	398.629
643.945	791.365
647.43	955.109
650.913	591.662
654.394	466.004
657.874	500.129
661.352	56.0293
664.829	141.691
668.304	90.0898
671.777	187.998
675.25	53.1973
678.72	60.8965
682.189	15.4746
685.656	80.8125
689.122	69.2461
692.587	170.262
696.049	56.4609
699.511	20.9414
702.97	238.023
706.429	78.375
709.885	160.648
713.34	49.5781
716.794	193.207
720.246	120.859
723.697	130.996
727.146	179.219
730.593	244.219
734.039	448.848
737.484	336.43
740.926	147.797
744.368	269.957
747.808	231.91
751.246	560.68
754.683	604.25
758.118	521.648
761.552	717.852
764.984	774.875
768.415	927.715
771.845	964.371
775.272	1635.85
778.699	1987.15
782.123	2788.27
785.547	3841.21
788.968	4752.97
792.389	4881.61
795.807	4124.6
799.225	3457.97
802.641	2652.09
806.055	1956.59
809.468	1738.41
812.879	1424.59
816.289	1258.92
819.697	1249.48
823.104	1128.15
826.509	1106.39
829.913	995.512
833.315	1089.57
836.716	1053.98
840.116	1137.06
843.514	1393.94
846.91	1586.18
850.305	1619.84
853.699	1742.02
857.091	2703.84
860.481	3132.16
863.87	3213.48
867.258	3356.59
870.644	3388.39
874.029	3790.19
877.412	4495.28
880.793	4902.77
884.174	4717.89
887.553	3908.05
890.93	3241.39
894.306	2264.74
897.68	1444.11
901.053	1144.5
904.425	815.922
907.795	367.57
911.163	491.254
914.53	298.965
917.896	184.711
921.26	43.4922
924.623	24.3125
927.985	226.18
931.345	257.555
934.703	40.4766
938.06	33.4727
941.416	277.668
944.77	77.9453
948.122	220.578
951.474	8.16797
954.824	87.9609
958.172	44.8242
961.519	167.613
964.864	227.359
968.208	61.1914
971.551	68.1328
974.892	304.758
978.232	389.109
981.571	141.602
984.908	18.1992
988.243	267.117
991.577	256.258
994.91	258.336
998.241	521.027
1001.57	966.223
1004.9	635.531
1008.23	285.184
1011.55	177.508
1014.88	445.043
1018.2	411.496
1021.52	397.047
1024.84	555.644
1028.16	506.188
1031.48	364.836
1034.79	180.301
1038.11	458.305
1041.42	245.949
1044.73	131.617
1048.04	350.293
1051.35	435.609
1054.66	207.316
1057.96	209.031
1061.27	332.723
1064.57	427.922
1067.87	174.449
1071.17	159.547
1074.47	502.809
1077.77	490.312
1081.07	480.926
1084.36	227.34
1087.65	284.328
1090.95	162.887
1094.24	261.457
1097.53	279.25
1100.81	180.129
1104.1	247.629
1107.38	160.184
1110.67	137.551
1113.95	447.883
1117.23	555.18
1120.51	160.394
1123.79	550.531
1127.07	266.586
1130.34	225.59
1133.62	41.5391
1136.89	111.453
1140.16	55.7852
1143.43	41.4219
1146.7	206.738
1149.97	133.953
1153.23	62.9141
1156.5	271.641
1159.76	113.324
1163.02	319.961
1166.28	507.57
1169.54	114.016
1172.8	79.1602
1176.06	292.254
1179.31	310.305
1182.57	235.301
1185.82	327.238
1189.07	138.137
1192.32	132
1195.57	52.3398
1198.81	2.90234
1202.06	188.769
1205.3	255.309
1208.55	97.8203
1211.79	230.32
1215.03	431.832
1218.27	149.723
1221.51	307.414
1224.74	613.531
1227.98	7.37891
1231.21	212.758
1234.44	519.867
1237.67	338.297
1240.9	266.215
1244.13	562.144
1247.36	520.113
1250.59	434.035
1253.81	347.969
1257.03	461.035
1260.26	264.551
1263.47	697.184
1266.69	312.844
1269.91	351.945
1273.13	603.734
1276.34	629.207
1279.56	983.902
1282.77	324.68
1285.98	636.383
1289.19	401.906
1292.4	636.199
1295.61	516.973
1298.81	546.785
1302.02	636.012
1305.22	716.269
1308.42	952.559
1311.62	738.269
1314.82	591.606
1318.02	737.984
1321.22	508.402
1324.41	659.394
1327.61	391.695
1330.8	358.293
1333.99	201.344
1337.18	298.106
1340.37	591.93
1343.56	182.832
1346.75	374.141
1349.93	711.121
1353.12	353.25
1356.3	454.242
1359.48	283.43
1362.66	802.648
1365.84	520.363
1369.02	388.902
1372.19	449.301
1375.37	632.5
1378.54	465.566
1381.71	525.32
1384.88	622.223
1388.06	574.606
1391.22	378.695
1394.39	202.891
1397.56	323.336
1400.72	125.121
1403.88	266.137
1407.05	259.816
1410.21	387.527
1413.37	224.867
1416.53	212.367
1419.68	257.731
1422.84	144.016
1425.99	406.902
1429.15	396.535
1432.3	491.051
1435.45	622.422
1438.6	733.324
1441.75	840.504
1444.9	1148.83
1448.04	1260.38
1451.19	1172.23
1454.33	1275.26
1457.47	1068.74
1460.61	1067.52
1463.75	721.543
1466.89	645.969
1470.03	704.434
1473.16	440.805
1476.3	593.316
1479.43	529.481
1482.56	527.402
1485.69	476.887
1488.83	481.711
1491.95	187.914
1495.08	22.5625
1498.21	73.7227
1501.33	47.8711
1504.45	297.894
1507.58	5.04297
1510.7	31.2852
1513.82	175.852
1516.94	522.609
1520.05	423.574
1523.17	428.805
1526.29	129.344
1529.4	444.746
1532.51	124.883
1535.62	480.473
1538.73	400.934
1541.84	387.363
1544.95	329.891
1548.06	38.8594
1551.16	124.715
1554.26	494.379
1557.37	201.106
1560.47	1.29297
