Measurement: Raman, 514 nm, depolarized, Raman Data Processed
Mineral: Pharmacosiderite
Rruff sample: R050574
Ideal chemistry: KFe^3+^_4_(As^5+^O_4_)_3_(OH)_4_6-7H_2_O
Locality: Cornwall, England
Source: University of Arizona Mineral Museum
Description: Druse of bluish-green cubes
Measured chemistry: K_1.27_(Fe^3+^_3.73_Fe^2+^_0.27_)_Σ=4_(As_1.00_O_4_)_3_(OH)_4_·6H_2_O
Pin_id: M00886
Orientation: Laser parallel to c* (0 0 1). Fiducial mark perpendicular to laser is parallel to -a [-1 0 0]
Raman shift (cm-1)	intensity
166.034	0
170.973	20.3088
175.91	12.9941
180.843	234.74
185.774	461.823
190.701	640.07
195.625	591.42
200.546	249.035
205.463	72.3484
210.378	114.355
215.29	236.978
220.198	672.075
225.104	1367.47
230.006	2557.75
234.905	3451.29
239.801	3323.37
244.694	2715.01
249.584	2094.21
254.471	1882.81
259.355	1755.34
264.236	1567.16
269.114	1390.65
273.988	1464.79
278.86	1733.57
283.729	2075.93
288.594	1706.73
293.457	1413.96
298.316	1195.59
303.173	1180.61
308.026	948.003
312.876	624.727
317.724	270.003
322.568	88.6326
327.409	103.266
332.248	44.6963
337.083	119.92
341.915	51.2283
346.745	21.5559
351.571	101.661
356.394	143.082
361.215	342.645
366.032	481.35
370.846	875.358
375.658	1356.69
380.466	1648.44
385.272	1990.59
390.074	1987.02
394.874	1760.33
399.67	1437.55
404.464	1334.68
409.255	1183.11
414.043	1163.76
418.827	1180.6
423.609	1289.58
428.388	1377.71
433.164	1716.96
437.937	2040.33
442.707	2487.79
447.475	3152.34
452.239	4222.96
457	5965.66
461.759	9366.43
466.514	15909.3
471.267	26287.6
476.017	32813.7
480.764	28490.1
485.508	18964.7
490.249	11901.3
494.987	7963.82
499.722	5838.57
504.455	4287.73
509.184	3492.35
513.911	2829.89
518.635	2305.08
523.356	1911.27
528.074	1684.42
532.789	1551.65
537.501	1299.51
542.211	1243.24
546.918	1019.79
551.621	884.226
556.323	795.767
561.021	757.239
565.716	616.446
570.409	611.856
575.098	496.079
579.785	449.976
584.469	345.906
589.15	378.946
593.829	351.745
598.504	218.297
603.177	295.589
607.847	179.642
612.514	187.477
617.179	120.336
621.84	73.3096
626.499	24.418
631.155	12.6582
635.809	4.26465
640.459	7.4314
645.107	6.8457
649.752	40.4526
654.394	16.5437
659.033	45.4268
663.67	8.30957
668.304	17.9512
672.935	47.7437
677.563	27.0576
682.189	77.376
686.812	6.53686
691.432	0.01123
696.049	35.1709
700.664	79.085
705.276	155.762
709.885	188.213
714.492	100.446
719.096	151.469
723.697	151.29
728.295	134.919
732.891	144.366
737.484	193.638
742.074	192.75
746.661	160.711
751.246	165.532
755.828	192.221
760.408	208.716
764.984	329.99
769.559	409.46
774.13	510.641
778.699	742.796
783.265	1058.55
787.828	1257.95
792.389	1176.06
796.947	937.938
801.502	824.019
806.055	700.202
810.605	579.656
815.152	622.178
819.697	636.012
824.239	778.466
828.779	871.404
833.315	1092.32
837.85	1398.52
842.381	1887.98
846.91	2644.7
851.436	3601.67
855.96	4291.89
860.481	5371.39
865	5880.15
869.515	6724.19
874.029	7496.61
878.539	7591.45
883.047	6434.64
887.553	4644.15
892.055	2958.03
896.556	1804.34
901.053	1169.13
905.548	673.471
910.041	379.32
914.53	194.72
919.018	147.636
923.502	24.8193
927.985	7.34814
932.464	9.84473
936.941	33.7153
941.416	11.0771
945.887	69.7168
950.357	117.99
954.824	94.7861
959.288	98.1499
963.749	136.981
968.208	156.648
972.665	126.184
977.119	186.054
981.571	318.278
986.02	305.772
990.466	396.31
994.91	488.416
999.351	434.101
1003.79	353.612
1008.23	389.207
1012.66	399.551
1017.09	455.448
1021.52	498.187
1025.95	435.429
1030.37	503.823
1034.79	427.503
1039.21	456.619
1043.63	309.278
1048.04	345.97
1052.45	310.638
1056.86	299.985
1061.27	230.752
1065.67	204.967
1070.07	125.472
1074.47	148.937
1078.87	179.88
1083.26	180.79
1087.65	196.939
1092.04	158.703
1096.43	64.8359
1100.81	97.1968
1105.19	110.145
1109.57	57.9399
1113.95	16.8608
1118.33	132.921
1122.7	100.885
1127.07	3.80322
1131.43	29.96
1135.8	58.5371
1140.16	13.7315
1144.52	45.7373
1148.88	10.2685
1153.23	20.2705
1157.59	45.5674
1161.94	48.0801
1166.28	20.2398
1170.63	22.9248
1174.97	20.6939
1179.31	52.0752
1183.65	0.927246
1187.99	23.1343
1192.32	48.3242
1196.65	24.6592
1200.98	11.8872
1205.3	28.3042
1209.63	66.0772
1213.95	82.6816
1218.27	23.9126
1222.59	73.3306
1226.9	44.4131
1231.21	16.728
1235.52	109.195
1239.83	93.5151
1244.13	138.262
1248.43	97.9072
1252.73	76.5283
1257.03	82.3159
1261.33	62.1143
1265.62	96.0708
1269.91	159.422
1274.2	131.294
1278.49	83.1968
1282.77	180.141
1287.05	162.485
1291.33	188.435
1295.61	115.46
1299.88	221.54
1304.15	218.628
1308.42	123.63
1312.69	191.628
1316.96	160.969
1321.22	218.506
1325.48	199.537
1329.74	242.156
1333.99	193.602
1338.25	135.239
1342.5	53.1382
1346.75	76.354
1350.99	117.464
1355.24	147.934
1359.48	164.537
1363.72	157.594
1367.96	203.84
1372.19	171.342
1376.43	144.489
1380.66	153.387
1384.88	105.684
1389.11	194.286
1393.34	147.018
1397.56	152.942
1401.78	100.771
1405.99	217.268
1410.21	99.8745
1414.42	196.931
1418.63	175.245
1422.84	172.492
1427.05	165.454
1431.25	202.278
1435.45	260.346
1439.65	283.819
1443.85	99.6685
1448.04	165.631
1452.23	151.872
1456.42	155.252
1460.61	215.811
1464.8	88.5068
1468.98	74.2886
1473.16	166.205
1477.34	45.2895
1481.52	43.5562
1485.69	52.9253
1489.87	15.3062
1494.04	33.7998
1498.21	6.45117
1502.37	48.978
1506.54	87.439
1510.7	101.061
1514.86	102.532
1519.02	90.5273
1523.17	82.8613
1527.32	77.0254
1531.47	21.1084
1535.62	76.0156
1539.77	109.148
1543.91	54.3052
1548.06	83.4033
1552.19	104.374
1556.33	31.7637
1560.47	14.1753
