Measurement: Raman, 514 nm, depolarized, Raman Data Processed
Mineral: Phenakite
Rruff sample: R040132
Ideal chemistry: Be_2_SiO_4_
Locality: Krager√∏, Telemark, Norway
Source: University of Arizona Mineral Museum
Description: Colorless fragments
Measured chemistry: Be_2.02_Si_0.99_O_4_
Pin_id: L00330
Orientation: Laser parallel to -c* (0 0 -1). Fiducial mark perpendicular to laser is parallel to -a [-1 0 0]
Raman shift (cm-1)	intensity
106.604	0
110.777	51.92
114.949	320.462
119.119	418.385
123.286	229.345
127.452	103.346
131.615	63.11
135.777	134.746
139.937	99.598
144.094	116.997
148.25	134.929
152.403	66.77
156.555	176.321
160.705	1580.94
164.853	571.956
168.998	119.594
173.142	19.204
177.284	89.747
181.424	29.441
185.562	76.737
189.698	213.385
193.831	211.303
197.963	230.708
202.093	163.755
206.221	257.176
210.347	269.657
214.472	225.508
218.594	995.895
222.714	5439.4
226.832	572.229
230.948	278.148
235.063	122.967
239.175	155.601
243.286	223.195
247.394	137.709
251.501	177.379
255.605	364.496
259.708	141.798
263.808	87.254
267.907	167.947
272.004	23.234
276.099	646.645
280.192	664.787
284.283	185.977
288.372	259.098
292.459	188.08
296.544	143.101
300.627	147.674
304.709	255.076
308.788	142.214
312.865	101.011
316.941	200.709
321.015	195.166
325.086	158.27
329.156	154.38
333.224	147.181
337.29	146.851
341.354	118.354
345.416	150.298
349.476	309.286
353.534	210.938
357.591	244.376
361.645	204.562
365.698	177.891
369.748	238.208
373.797	154.907
377.844	329.404
381.889	1990.25
385.932	2059.45
389.973	381.619
394.012	115.789
398.049	196.703
402.084	231.56
406.118	172.537
410.15	164.388
414.179	293.462
418.207	202.42
422.233	172.502
426.257	229.213
430.279	273.001
434.299	257.104
438.318	379.079
442.334	1275.79
446.349	1974.42
450.361	355.723
454.372	286.893
458.381	113.073
462.388	290.102
466.394	367.254
470.397	220.013
474.398	39.778
478.398	58.951
482.396	377.94
486.391	349.125
490.385	152.188
494.377	27.518
498.368	96.365
502.356	144.346
506.342	144.408
510.327	55.608
514.31	105.698
518.291	172.785
522.27	943.909
526.247	2371
530.222	548.058
534.196	193.012
538.167	132.29
542.137	104.266
546.105	135.035
550.071	107.744
554.035	119.227
557.998	146.839
561.958	91.284
565.917	137.728
569.874	121.9
573.829	128.228
577.782	145.002
581.733	171.665
585.683	37.741
589.63	124.301
593.576	31.271
597.52	128.804
601.462	307.31
605.402	113.731
609.341	170.083
613.277	276.369
617.212	352.349
621.145	51.501
625.076	134.476
629.006	180.389
632.933	105.973
636.859	18.479
640.783	22.94
644.705	232.468
648.625	207.614
652.543	122.52
656.46	37.689
660.375	202.789
664.288	303.821
668.199	328.101
672.108	249.568
676.016	217.979
679.921	175.806
683.825	410.617
687.727	577.144
691.628	233.014
695.526	27.359
699.423	79.257
703.318	233.688
707.211	178.051
711.102	7.684
714.992	113.477
718.879	49.525
722.765	4.465
726.649	68.361
730.532	8.071
734.412	155.652
738.291	10.925
742.168	29.51
746.043	191.763
749.916	113.914
753.788	87.132
757.658	80.4
761.526	53.635
765.392	436.852
769.257	240.056
773.119	123.251
776.98	432.128
780.839	235.311
784.697	668.49
788.552	861.434
792.406	327.07
796.258	147.818
800.108	150.933
803.957	511.522
807.804	624.687
811.649	217.765
815.492	21.141
819.333	105.405
823.173	42.045
827.011	78.708
830.847	134.565
834.681	67.837
838.514	48.873
842.345	34.41
846.174	187.723
850.001	220.661
853.827	354.125
857.651	497.693
861.473	461.395
865.293	643.754
869.112	1399.68
872.928	3709.59
876.744	22281.7
880.557	33124.2
884.369	6437.38
888.178	2031.8
891.987	1244.35
895.793	945.812
899.598	764.998
903.401	559.413
907.202	443.329
911.001	746.422
914.799	1751.65
918.595	2436.97
922.389	2972.4
926.182	2818.02
929.972	943.669
933.761	709.464
937.549	1065.36
941.334	1291.37
945.118	1447.57
948.9	3984.84
952.681	5054.73
956.459	1373.2
960.236	719.904
964.012	476.714
967.785	373.627
971.557	285.396
975.327	260.763
979.095	184.131
982.862	141.952
986.627	58.256
990.39	274.414
994.152	372.076
997.912	381.284
1001.67	279.519
1005.43	299.204
1009.18	656.465
1012.93	1125.18
1016.68	1580.85
1020.43	2275.81
1024.18	1461.24
1027.93	500.846
1031.67	370.51
1035.42	190.554
1039.16	350.544
1042.9	400.784
1046.63	100.937
1050.37	111.945
1054.11	132.759
1057.84	103.138
1061.57	413.603
1065.3	365.484
1069.03	256.044
1072.75	227.009
1076.47	107.655
1080.2	78.696
1083.92	89.46
1087.64	220.588
1091.36	190.372
1095.07	102.522
1098.79	193.539
1102.5	64.315
1106.21	24.93
1109.92	95.742
1113.62	186.58
1117.33	197.081
1121.04	317.83
1124.74	268.918
1128.44	9.83
1132.14	38.348
1135.83	42.938
1139.53	143.902
1143.22	124.994
1146.92	253.328
1150.61	163.475
1154.3	104.947
1157.98	49.506
1161.67	98.459
1165.35	70.172
1169.04	67.457
1172.72	272.098
1176.4	162.871
1180.07	202.838
1183.75	172.855
1187.42	222.758
1191.1	163.07
1194.77	83.049
1198.44	352.592
1202.1	331.541
1205.77	580.174
1209.43	478.648
1213.1	427.285
1216.76	135.693
1220.42	253.799
1224.07	502.021
1227.73	643.264
1231.38	630.137
1235.04	538.139
1238.69	503.693
1242.34	408.783
1245.99	242.586
1249.63	363.578
1253.28	205.799
1256.92	449.543
1260.56	452.93
1264.2	635.617
1267.84	627.891
1271.48	539.734
1275.11	220.725
1278.74	182.623
1282.38	154.143
1286.01	214.283
1289.63	55.521
1293.26	352.143
1296.89	463.75
1300.51	192.996
1304.13	257.094
1307.75	77.129
1311.37	146.877
1314.99	21.309
1318.6	133.41
1322.22	188.275
1325.83	311.77
1329.44	416.242
1333.05	410.439
1336.66	514.252
1340.26	347.857
1343.87	401.402
1347.47	295.131
1351.07	318.754
1354.67	301.416
1358.27	492.336
1361.86	533.676
1365.46	690.277
1369.05	749.99
1372.64	375.152
1376.23	132.93
1379.82	241.896
1383.41	290.938
1386.99	296.348
1390.57	350.053
1394.16	385.629
1397.74	508.293
1401.32	667.676
1404.89	506.977
1408.47	446.41
1412.04	387.658
1415.61	298.766
1419.18	31.574
1422.75	49.99
1426.32	187.455
1429.89	52.83
1433.45	202.447
1437.01	0
