Measurement: Raman, 514 nm, depolarized, Raman Data Processed
Mineral: Phenakite
Rruff sample: R040132
Ideal chemistry: Be_2_SiO_4_
Locality: Krager√∏, Telemark, Norway
Source: University of Arizona Mineral Museum
Description: Colorless fragments
Measured chemistry: Be_2.02_Si_0.99_O_4_
Pin_id: L00303
Orientation: Laser parallel to -a* (-1 0 0). Fiducial mark perpendicular to laser is parallel to c [0 0 1]
Raman shift (cm-1)	intensity
113.559	0
117.729	141.175
121.897	63.923
126.063	151.892
130.228	107.541
134.39	66.989
138.55	142.976
142.709	135.98
146.865	115.628
151.019	153.629
155.171	282.432
159.322	467.927
163.47	490.614
167.617	78.268
171.761	155.684
175.904	133.819
180.044	99.418
184.183	89.938
188.319	120.356
192.454	243.381
196.586	264.706
200.717	283.411
204.846	213.932
208.972	209.847
213.097	270.665
217.22	1009.97
221.341	2970.92
225.46	1075.09
229.577	814.019
233.692	451.614
237.805	137.467
241.916	123.193
246.025	259.472
250.132	322.189
254.237	298.688
258.34	200.781
262.442	36.095
266.541	108.1
270.639	13.975
274.734	312.422
278.828	555.405
282.919	267.903
287.009	108.998
291.097	167.291
295.183	347.248
299.266	268.056
303.348	72.392
307.428	183.521
311.507	155.282
315.583	74.062
319.657	161.301
323.729	176.188
327.8	69.936
331.868	71.761
335.935	101.43
339.999	100.937
344.062	324.96
348.123	402.955
352.182	91.462
356.239	161.047
360.294	85.176
364.347	101.049
368.398	122.261
372.448	154.166
376.495	173.714
380.54	565.186
384.584	1135.65
388.626	263.932
392.666	187.066
396.704	74.565
400.74	140.098
404.774	180.394
408.806	127.112
412.836	64.881
416.865	120.547
420.891	167.976
424.916	117.797
428.939	148.101
432.959	60.902
436.978	119.596
440.996	690.598
445.011	1592.48
449.024	277.532
453.036	129.035
457.045	82.492
461.053	211.721
465.059	182.241
469.063	147.229
473.065	90.821
477.065	204.593
481.063	226.776
485.06	126.933
489.054	161.329
493.047	73.159
497.038	14.436
501.027	8.629
505.014	75.164
508.999	159.403
512.982	70.095
516.964	58.601
520.944	424.978
524.921	1339.94
528.897	317.293
532.871	56.529
536.844	22.432
540.814	26.578
544.783	49.834
548.749	134.561
552.714	15.466
556.677	102.727
560.638	118.559
564.597	105.975
568.555	81.215
572.511	74.749
576.464	330.352
580.416	224.313
584.366	126.892
588.315	116.768
592.261	61.978
596.206	673.065
600.148	1553.37
604.089	285.307
608.028	193.932
611.965	282.494
615.901	464.729
619.834	363.35
623.766	302.113
627.696	410.933
631.624	389.598
635.551	298.394
639.475	237.386
643.398	236.44
647.318	205.355
651.237	304.432
655.155	363.634
659.07	222.466
662.984	184.195
666.895	201.369
670.805	190.264
674.713	18.039
678.62	91.865
682.524	271.683
686.427	391.576
690.328	101.552
694.227	150.761
698.124	150.896
702.02	261.105
705.913	141.393
709.805	58.69
713.695	11.689
717.584	21.979
721.47	77.73
725.355	42.497
729.238	222.804
733.119	223.214
736.998	103.764
740.876	35.572
744.752	24.811
748.626	56.007
752.498	166.905
756.368	77.848
760.237	108.844
764.104	440.007
767.969	291.277
771.832	202.736
775.693	674.369
779.553	486.091
783.411	437.898
787.267	679.791
791.122	301.772
794.974	73.844
798.825	126.093
802.674	118.523
806.522	211.056
810.367	123.679
814.211	146.394
818.053	269.224
821.893	32.148
825.732	35.159
829.568	8.359
833.403	183.04
837.236	186.261
841.068	259.557
844.898	252.927
848.726	305.71
852.552	380.018
856.376	563.854
860.199	847.826
864.02	1039.2
867.839	1323.33
871.656	3417.07
875.472	16647.6
879.286	44818.2
883.098	11172.6
886.909	3207.12
890.717	1471.99
894.524	967.968
898.33	971.67
902.133	976.432
905.935	728.656
909.735	676.071
913.533	1115.2
917.33	2003.78
921.124	1472.44
924.918	2012.25
928.709	727.6
932.499	672.747
936.286	1137.92
940.073	1123.14
943.857	898.85
947.64	2531.31
951.421	4563.7
955.2	1370.77
958.978	466.121
962.753	102.229
966.527	157.832
970.3	196.571
974.071	101.883
977.84	47.184
981.607	37.12
985.372	78.748
989.136	124.136
992.898	239.623
996.659	305.84
1000.42	425.664
1004.17	594.171
1007.93	204.798
1011.68	460.252
1015.43	546.269
1019.18	972.502
1022.93	928.092
1026.68	433.886
1030.42	99.669
1034.17	175.007
1037.91	30.267
1041.65	145.397
1045.39	280.428
1049.12	125.692
1052.86	303.153
1056.59	1.958
1060.33	15.722
1064.06	40.925
1067.78	53.31
1071.51	327.4
1075.23	311.275
1078.96	235.317
1082.68	279.288
1086.4	232.821
1090.12	177.24
1093.83	150.866
1097.55	84.33
1101.26	277.517
1104.97	340.461
1108.68	13.293
1112.39	66.005
1116.1	31.285
1119.8	141.157
1123.5	303.438
1127.2	255.603
1130.9	355.961
1134.6	157.934
1138.3	127.682
1141.99	81.343
1145.69	23.086
1149.38	35.749
1153.07	305.182
1156.76	216.073
1160.44	189.762
1164.13	190.689
1167.81	92.04
1171.49	52.502
1175.17	212.455
1178.85	312.548
1182.52	312.265
1186.2	301.748
1189.87	232.729
1193.54	129.549
1197.21	10.909
1200.88	148.433
1204.55	336.66
1208.21	210.406
1211.88	440.083
1215.54	448.992
1219.2	334.195
1222.86	137.919
1226.51	176.642
1230.17	205.49
1233.82	463.798
1237.47	591.938
1241.12	689.507
1244.77	480.094
1248.42	251.054
1252.06	417.141
1255.71	373.914
1259.35	170.357
1262.99	453.541
1266.63	429.66
1270.26	615.518
1273.9	811.061
1277.53	646.459
1281.16	631.484
1284.8	255.156
1288.42	279.412
1292.05	308.887
1295.68	181.238
1299.3	276.906
1302.92	273.391
1306.55	100.195
1310.16	296.848
1313.78	473.375
1317.4	186.824
1321.01	121.615
1324.62	248.119
1328.24	184.922
1331.85	141.287
1335.45	196.9
1339.06	373.145
1342.66	559.732
1346.27	406.098
1349.87	332.695
1353.47	279.467
1357.07	86.197
1360.66	252.738
1364.26	450.721
1367.85	288.457
1371.44	295.301
1375.04	272.648
1378.62	530.57
1382.21	558.777
1385.8	391.916
1389.38	459.994
1392.96	419.357
1396.54	316.764
1400.12	330.557
1403.7	96.746
1407.28	402.512
1410.85	414.252
1414.42	428.123
1417.99	748.432
1421.56	565.123
1425.13	328.354
1428.7	0.596
