Measurement: Raman, 514 nm, ccw, Raman Data Processed
Mineral: Phenakite
Rruff sample: R050137
Ideal chemistry: Be_2_SiO_4_
Locality: Mount Antero area, Chaffee County, Colorado, USA
Source: Dave Bunk Minerals
Description: Colorless tabular hexagonal crystal
Measured chemistry: Be_2.00_Si_1.00_O_4_
Pin_id: L01371
Orientation: Laser parallel to a* (1 0 0). Fiducial mark perpendicular to laser is parallel to -c [0 0 -1]
Raman shift (cm-1)	intensity
60.91	0
65.85	62.23
70.787	653.079
75.721	1170.17
80.654	1121.68
85.584	382.71
90.512	143.878
95.438	207.19
100.362	336.664
105.284	570.954
110.203	244.543
115.12	591.627
120.035	1849.05
124.948	439.3
129.858	119.963
134.766	28.5957
139.672	1.19873
144.576	135.898
149.478	729.092
154.377	2172.11
159.274	5953.77
164.169	3284.32
169.061	347.949
173.951	115.485
178.839	70.1323
183.725	42.877
188.609	7.18408
193.49	128.54
198.369	27.3662
203.246	167.337
208.12	1176.05
212.992	4332.51
217.862	13203.2
222.73	17831.4
227.595	2716.34
232.458	480.81
237.319	63.6611
242.178	74.5947
247.034	282.468
251.888	736.477
256.739	601.725
261.588	222.883
266.435	633.227
271.28	1641.27
276.123	3177.15
280.963	1518.74
285.8	55.2109
290.636	8.46045
295.469	46.0293
300.3	72.8257
305.128	25.8691
309.954	28.7256
314.778	54.5835
319.6	62.7627
324.419	85.1079
329.236	36.1567
334.05	46.0801
338.862	166.045
343.672	475.039
348.479	645.267
353.284	20.4585
358.087	92.8823
362.887	60.1909
367.685	226.861
372.481	1375.23
377.274	4989.14
382.065	12664.7
386.854	3608.93
391.64	438.066
396.424	159.293
401.205	93.1182
405.984	108.491
410.761	171.603
415.535	119.503
420.307	280.151
425.077	677.268
429.844	899.747
434.609	1788.81
439.371	5606.89
444.131	10325.5
448.888	2049.35
453.643	501.538
458.396	599.023
463.146	1458.15
467.894	434.981
472.64	362.358
477.383	493.203
482.124	1193.79
486.862	398.079
491.598	69.0996
496.331	59.249
501.062	149.598
505.791	30.9341
510.517	311.437
515.24	1545.24
519.962	4812.91
524.68	9106.46
529.397	1927.93
534.111	458.305
538.822	257.563
543.531	157.491
548.238	44.9707
552.942	39.8809
557.643	9.4126
562.343	119.232
567.039	34.7808
571.734	266.243
576.425	389.09
581.115	64.0718
585.802	162.601
590.486	239.06
595.168	718.68
599.848	1362.33
604.524	406.903
609.199	888.136
613.871	2065.08
618.541	810.401
623.208	202.694
627.872	23.2236
632.534	115.464
637.194	76.8779
641.851	32.5693
646.506	212.795
651.158	264.676
655.807	503.373
660.454	1059.89
665.099	1710.24
669.741	1781.42
674.381	773.429
679.018	1429.28
683.652	3212
688.284	2044.56
692.914	705.792
697.541	762.664
702.165	1307.85
706.787	604.923
711.406	25.8804
716.023	64.3599
720.638	44.8115
725.249	148.616
729.859	170.555
734.465	15.9497
739.07	28.1079
743.671	130.66
748.27	59.8325
752.867	4.00879
757.461	341.47
762.053	1211.88
766.641	1368.89
771.228	1634.95
775.812	3310.26
780.393	2766.27
784.972	4589.18
789.548	2477.85
794.121	862.628
798.692	1439.55
803.261	2955.6
807.827	2179.78
812.39	492.103
816.951	197.602
821.509	47.2685
826.064	19.1201
830.617	66.2197
835.168	178.611
839.716	201.188
844.261	406.938
848.804	675.407
853.344	1095.88
857.881	2092.7
862.416	4214.46
866.948	12251.5
871.478	47062.7
876.005	157822
880.53	146984
885.052	30569.9
889.571	10205
894.088	5797.14
898.602	4139.92
903.113	3513.36
907.622	4177.33
912.128	8243.82
916.632	15360.9
921.133	17040
925.631	15434.3
930.127	5543.52
934.62	6267.34
939.111	8417.93
943.599	10310.5
948.084	26101
952.567	24187.4
957.047	6366.16
961.524	2264.1
965.999	1284.42
970.471	928.962
974.941	651.322
979.408	511.063
983.872	430.183
988.333	651.359
992.792	1468.47
997.249	1513.18
1001.7	1295.97
1006.15	2114.27
1010.6	4180.35
1015.05	5987.12
1019.49	8631.61
1023.93	5098.12
1028.37	1688.57
1032.8	790.276
1037.24	467.222
1041.66	212.906
1046.09	43.8193
1050.52	105.378
1054.94	128.173
1059.36	49.2598
1063.77	4.87012
1068.19	50.459
1072.6	31.7344
1077.01	39.9219
1081.41	84.0254
1085.82	96.8379
1090.22	34.2207
1094.61	38.6465
1099.01	29.5703
1103.4	57.0918
1107.79	58.8252
1112.18	288.618
1116.56	53.5381
1120.94	129.624
1125.32	60.8145
1129.7	87.6045
1134.07	97.6279
1138.44	0.182617
1142.81	73.1973
1147.18	165.543
1151.54	40.3613
1155.9	45.4717
1160.26	38.9131
1164.61	20.4922
1168.96	112.363
1173.31	34.794
1177.66	56.9004
1182	142.533
1186.34	132.073
1190.68	199.007
1195.02	126.975
1199.35	215.806
1203.68	179.677
1208.01	382.595
1212.33	117.85
1216.65	329.973
1220.97	218.386
1225.29	260.043
1229.6	215.431
1233.91	271.975
1238.22	161.38
1242.53	94.6445
1246.83	194.27
1251.13	271.228
1255.43	220.039
1259.72	171.705
1264.01	117.637
1268.3	220.948
1272.59	249.197
1276.87	50.4414
1281.15	101.684
1285.43	42.4951
1289.7	54.5176
1293.98	122.481
1298.25	51.5527
1302.51	166.682
1306.78	37.7168
1311.04	120.987
1315.3	88.4688
1319.56	73.7353
1323.81	222.535
1328.06	267.342
1332.31	103.124
1336.55	272.851
1340.79	140.556
1345.03	364.273
1349.27	201.964
1353.5	251.724
1357.73	154.541
1361.96	123.39
1366.19	77.2051
1370.41	273.992
1374.63	306.776
1378.85	193.775
1383.06	97.4678
1387.27	417.019
1391.48	15.6211
1395.69	65.3389
1399.89	4.92481
1404.09	187.781
1408.29	116.029
1412.48	151.773
1416.68	213.1
1420.87	84.3057
1425.05	145.71
1429.24	151.116
1433.42	101.495
1437.6	191.8
1441.77	81.2061
1445.94	170.862
1450.11	170.747
1454.28	192.419
1458.44	147.056
1462.61	126.731
1466.76	78.4531
1470.92	167.222
1475.07	225.04
1479.22	138.935
1483.37	174.924
1487.52	45.0147
1491.66	135.024
1495.8	125.356
1499.93	189.838
1504.06	12.4717
1508.19	168.788
1512.32	149.191
1516.45	75.6133
1520.57	158.129
1524.69	246.737
1528.8	288.42
1532.92	137.166
1537.03	117.973
1541.14	127.772
1545.24	86.1269
1549.34	116.2
1553.44	176.573
1557.54	241.717
1561.63	16.083
1565.72	53.4238
1569.81	30.3438
1573.9	46.0166
