Measurement: Raman, 514 nm, ccw, Raman Data Processed
Mineral: Phenakite
Rruff sample: R050137
Ideal chemistry: Be_2_SiO_4_
Locality: Mount Antero area, Chaffee County, Colorado, USA
Source: Dave Bunk Minerals
Description: Colorless tabular hexagonal crystal
Measured chemistry: Be_2.00_Si_1.00_O_4_
Pin_id: L00964
Orientation: Laser parallel to -c* (0 0 -1). Fiducial mark perpendicular to laser is parallel to a [1 0 0]
Raman shift (cm-1)	intensity
69.553	0
74.488	427.896
79.421	614.367
84.352	392.956
89.281	55.9067
94.207	75.876
99.131	73.3252
104.053	269.617
108.973	115.154
113.891	242.68
118.806	696.439
123.72	467.99
128.631	49.897
133.539	59.7517
138.446	9.62256
143.35	131.517
148.252	411.24
153.152	1262.12
158.05	4170.65
162.945	4715.83
167.838	538.914
172.729	44.5034
177.618	23.5366
182.504	19.2573
187.388	10.9915
192.27	16.1118
197.149	43.7954
202.027	105.23
206.902	469.4
211.775	1919.96
216.645	6150.27
221.513	16164.2
226.379	2947.46
231.243	360.094
236.104	116.047
240.963	73.8618
245.82	129.16
250.674	566.696
255.527	772.746
260.376	174.31
265.224	280.562
270.069	778.336
274.912	2475.1
279.753	1980.52
284.591	178.487
289.427	1.71948
294.261	84.9175
299.092	38.335
303.921	88.4805
308.748	12.3491
313.572	4.94604
318.394	10.9924
323.214	20.9431
328.032	86.9822
332.847	68.3557
337.659	115.726
342.47	262.75
347.278	827.768
352.083	230.165
356.887	101.791
361.688	60.0442
366.486	111.132
371.282	835.052
376.076	2620.82
380.868	10183.3
385.657	5428.76
390.444	612.976
395.228	117.223
400.01	105.357
404.79	48.3867
409.567	72.2041
414.342	78.7222
419.114	108.714
423.885	444.421
428.652	613.155
433.418	842.046
438.18	2709.53
442.941	8922.3
447.699	2567.21
452.455	465.462
457.208	334.584
461.959	1386.37
466.708	695.77
471.454	194.163
476.197	329.986
480.939	904.476
485.678	414.181
490.414	81.8906
495.148	146.72
499.88	43.2747
504.609	125.529
509.335	189.719
514.06	872.424
518.781	2861.12
523.501	8922.8
528.218	2659.48
532.932	451.152
537.644	141.815
542.354	73.3223
547.061	124.962
551.766	4.5896
556.468	58.8005
561.168	73.6516
565.865	0.127441
570.56	21.5835
575.253	108.92
579.943	85.3433
584.63	15.9148
589.315	104.2
593.998	352.37
598.678	1214.9
603.355	312.495
608.031	593.393
612.703	1633.47
617.373	1282.59
622.041	307.007
626.706	139.284
631.369	64.3948
636.029	68.3489
640.687	97.9092
645.342	72.6157
649.995	128.195
654.645	316.639
659.293	743.947
663.938	1299.12
668.581	1559.17
673.221	612.083
677.859	698.873
682.494	1904.65
687.126	1953.2
691.756	540.764
696.384	415.176
701.009	773.394
705.632	624.496
710.252	150.518
714.869	52.3857
719.484	16.229
724.097	5.6416
728.707	76.7959
733.314	54.98
737.919	52.77
742.521	39.9746
747.121	72.3618
751.718	78.5811
756.313	292.772
760.905	601.055
765.494	1087.31
770.081	919.615
774.666	1562.8
779.248	1765.6
783.827	2670.87
788.404	2332.18
792.978	829.524
797.55	804.92
802.119	1902.42
806.685	1972.02
811.249	682.701
815.811	78.4761
820.37	96.3691
824.926	28.436
829.479	163.82
834.031	106.393
838.579	215.131
843.125	192.028
847.668	479.079
852.209	756.421
856.747	1284.5
861.283	2501.8
865.816	6236.67
870.346	22094.7
874.874	81890.7
879.399	142793
883.921	34168
888.441	9348.71
892.959	4801.38
897.473	3287.61
901.986	2559.23
906.495	2810.25
911.002	4778.66
915.506	11169.5
920.008	11492.7
924.507	13558.6
929.004	4564.49
933.497	3122.88
937.989	4845.03
942.477	5566.21
946.963	14068.5
951.446	22163.8
955.927	6544.91
960.405	2196.78
964.881	1069.75
969.353	624.857
973.824	446.423
978.291	235.404
982.756	293.403
987.218	463.386
991.678	1076.13
996.135	1241.4
1000.59	1120.56
1005.04	1507.4
1009.49	3196.99
1013.94	5221.02
1018.38	8854.76
1022.82	6900.95
1027.26	2479.14
1031.69	971.234
1036.13	463.341
1040.56	249.968
1044.99	184.691
1049.41	121.978
1053.83	1.01416
1058.25	96.186
1062.67	0.449707
1067.09	43.8272
1071.5	59.794
1075.9	26.6504
1080.31	12.1973
1084.71	11.1836
1089.12	64.5547
1093.52	12.0879
1097.91	65.0727
1102.3	6.76807
1106.69	125.418
1111.08	1.12549
1115.47	128.058
1119.85	98.3106
1124.23	121.368
1128.6	38.4228
1132.98	81.8745
1137.35	28.7471
1141.72	8.48047
1146.08	160.184
1150.45	10.6299
1154.81	3.32227
1159.17	17.8027
1163.52	3.24512
1167.87	63.8926
1172.22	117.132
1176.57	141.464
1180.91	87.5938
1185.26	205.214
1189.6	117.339
1193.93	183.685
1198.27	21.1216
1202.6	166.382
1206.92	251.293
1211.25	249.096
1215.57	231.751
1219.89	213.189
1224.21	201.57
1228.52	102.754
1232.83	161.689
1237.14	191.169
1241.45	139.711
1245.75	42.3145
1250.05	78.3491
1254.35	126.841
1258.65	234.177
1262.94	129.967
1267.23	38.3052
1271.52	153.901
1275.8	45.896
1280.08	138.326
1284.36	101.998
1288.64	12.1538
1292.91	115.586
1297.18	130.397
1301.45	4.07324
1305.71	101.793
1309.97	24.9844
1314.23	100.78
1318.49	72.25
1322.74	1.31201
1327	114.098
1331.24	196.428
1335.49	174.731
1339.73	145.98
1343.97	207.19
1348.21	107.409
1352.44	117.715
1356.68	201.367
1360.91	70.293
1365.13	88.7505
1369.36	170.105
1373.58	141.017
1377.79	191.451
1382.01	109.83
1386.22	157.147
1390.43	239.059
1394.64	165.348
1398.84	32.064
1403.04	138.518
1407.24	123.99
1411.44	121.691
1415.63	134.6
1419.82	129.927
1424.01	148.068
1428.19	5.30273
1432.37	113.902
1436.55	37.6035
1440.73	155.122
1444.9	130.735
1449.07	68.5781
1453.24	219.567
1457.4	113.42
1461.57	98.5415
1465.72	164.731
1469.88	210.857
1474.04	125.974
1478.19	25.9634
1482.33	63.1016
1486.48	71.2222
1490.62	26.395
1494.76	31.6797
1498.9	17.229
1503.03	84.0747
1507.16	135.973
1511.29	14.8677
1515.42	90.8643
1519.54	98.0566
1523.66	173.371
1527.78	187.834
1531.89	149.81
1536	285.101
1540.11	86.1108
1544.21	125.955
1548.32	170.58
1552.42	163.166
1556.52	1.18652
1560.61	165.099
1564.7	130.936
1568.79	28.6719
1572.88	122.135
1576.96	0
