Measurement: Raman, 514 nm, depolarized, Raman Data Processed
Mineral: Phenakite
Rruff sample: R040046
Ideal chemistry: Be_2_SiO_4_
Locality: San Miguel de Piracicaba, Minas Gerais, Brazil
Source: University of Arizona Mineral Museum
Description: Colorless crystal fragments
Measured chemistry: Be_2.02_Si_0.99_O_4_
Pin_id: M00041
Orientation: Laser parallel to -b* (0 -1 0). Fiducial mark perpendicular to laser is parallel to -c [0 0 -1]
Raman shift (cm-1)	intensity
103.064	0
107.252	49.774
111.437	59.49
115.62	90.125
119.801	143.951
123.98	105.546
128.157	89.678
132.331	64.705
136.503	58.219
140.673	90.664
144.841	75.191
149.007	10.281
153.17	47.097
157.331	42.462
161.49	78.099
165.647	748.843
169.801	58.698
173.953	51.171
178.104	16.392
182.251	4.607
186.397	38.082
190.541	64.081
194.682	79.311
198.821	90.294
202.958	94.587
207.093	93.988
211.225	90.534
215.356	116.195
219.484	159.19
223.61	1682.7
227.734	2378.1
231.855	486.461
235.975	829.325
240.092	106.935
244.207	111.711
248.32	117.17
252.431	80.858
256.539	130.603
260.646	203.681
264.75	74.504
268.852	106.301
272.952	1.476
277.05	116.076
281.146	444.593
285.239	265.962
289.33	94.177
293.419	78.179
297.506	93.014
301.591	371.216
305.674	136.807
309.755	56.854
313.833	46.428
317.909	83.147
321.983	95.611
326.055	60.772
330.125	44.786
334.193	32.688
338.258	82.115
342.322	80.357
346.383	72.331
350.442	426.304
354.499	209.852
358.554	54.416
362.607	71.111
366.658	92.521
370.706	72.812
374.753	77.999
378.797	139.118
382.839	180.74
386.879	726.903
390.917	349.754
394.953	116.37
398.987	55.158
403.018	63.856
407.048	142.345
411.075	72.145
415.1	129.57
419.124	145.395
423.145	129.919
427.164	101.99
431.18	70.714
435.195	114.493
439.208	126.894
443.219	216.699
447.227	1832.35
451.233	744.616
455.238	217.505
459.24	45.045
463.24	55.01
467.238	252.673
471.234	228.719
475.228	102.627
479.22	75.698
483.21	326.7
487.197	300.236
491.183	158.478
495.166	75.557
499.148	45.02
503.127	63.12
507.104	55.485
511.08	66.445
515.053	37.265
519.024	100.073
522.993	168.275
526.96	1001.76
530.925	814.438
534.888	193.724
538.848	62.248
542.807	51.613
546.764	36.321
550.718	36.868
554.671	78.146
558.622	97.259
562.57	59.435
566.516	3.745
570.461	7.966
574.403	62.082
578.344	162.074
582.282	149.439
586.218	13.649
590.152	2.588
594.084	66.375
598.014	81.429
601.943	1464.37
605.869	419.023
609.793	97.751
613.715	136.351
617.635	237.484
621.553	120.292
625.468	79.534
629.382	30.674
633.294	13.666
637.204	34.174
641.112	29.161
645.018	0.762
648.922	31.47
652.823	15.329
656.723	33.672
660.621	65.663
664.517	73.627
668.411	113.808
672.302	193.89
676.192	32.727
680.08	93.986
683.966	169.27
687.849	448.689
691.731	322.844
695.611	102.727
699.489	148.027
703.364	211.282
707.238	297.202
711.11	130.213
714.98	12.652
718.848	17.771
722.713	20.873
726.577	32.83
730.439	93.112
734.299	97.544
738.157	15.024
742.013	36.512
745.867	71.208
749.719	82.721
753.569	146.966
757.417	29.785
761.263	49.401
765.107	233.576
768.949	537.429
772.789	250.638
776.627	359.869
780.463	619.947
784.298	294.869
788.13	931.492
791.96	415.014
795.789	168.742
799.615	63.474
803.439	80.187
807.262	277.764
811.083	144.784
814.901	82.613
818.718	2.774
822.532	58.107
826.345	29.442
830.156	135.262
833.965	70.996
837.772	76.745
841.577	20.541
845.38	80.386
849.181	38.314
852.98	142.354
856.777	213.49
860.573	392.724
864.366	500.062
868.157	1022.43
871.947	2231.98
875.734	7348.02
879.52	44107.6
883.304	22227.4
887.086	4747.45
890.865	2043.97
894.643	1372.86
898.419	914.369
902.194	750.929
905.966	567.613
909.736	595.616
913.504	855.554
917.271	2064.62
921.035	1737.49
924.798	2041.65
928.559	1134.13
932.317	597.754
936.074	876.519
939.829	1656.45
943.582	1074.59
947.334	1410.47
951.083	4450.54
954.83	2266.25
958.576	621.136
962.319	430.21
966.061	318.453
969.801	254.544
973.539	265.731
977.275	210.43
981.009	230.311
984.741	87.346
988.472	168.9
992.2	248.051
995.927	312.071
999.651	208.26
1003.37	150.363
1007.1	253.512
1010.81	590.849
1014.53	572.943
1018.25	700.706
1021.96	856.705
1025.67	371.911
1029.38	185.301
1033.09	125.848
1036.8	174.546
1040.5	228.431
1044.2	82.489
1047.9	79.734
1051.6	107.137
1055.3	39.687
1058.99	158.391
1062.68	105.257
1066.38	103.268
1070.07	73.375
1073.75	126.567
1077.44	142.916
1081.12	54.462
1084.8	102.153
1088.48	52.988
1092.16	24.96
1095.84	155.052
1099.51	43.186
1103.18	19.419
1106.86	95.782
1110.52	34.728
1114.19	21.856
1117.86	74.57
1121.52	129.415
1125.18	145.681
1128.84	96.523
1132.5	85.787
1136.15	78.156
1139.81	80.363
1143.46	158.857
1147.11	113.364
1150.76	139.909
1154.41	64.706
1158.05	8.157
1161.7	10.043
1165.34	89.232
1168.98	124.832
1172.61	93.292
1176.25	119.128
1179.88	124.886
1183.52	167.867
1187.15	119.507
1190.78	79.039
1194.4	161.632
1198.03	154.284
1201.65	270.995
1205.27	227.765
1208.89	143.59
1212.51	101.472
1216.13	136.751
1219.74	218.948
1223.35	291.989
1226.96	386.115
1230.57	233.014
1234.18	246.263
1237.78	241.566
1241.39	155.355
1244.99	242.25
1248.59	117.725
1252.19	222.254
1255.78	232.646
1259.38	216.246
1262.97	293.795
1266.56	161.298
1270.15	141.703
1273.74	56.645
1277.32	73.928
1280.91	3.869
1284.49	87.837
1288.07	140.949
1291.65	124.751
1295.22	64.844
1298.8	7.37
1302.37	2.568
1305.94	2.471
1309.51	97.547
1313.08	61.285
1316.65	57.115
1320.21	72.939
1323.77	72.761
1327.34	151.582
1330.89	36.408
1334.45	116.255
1338.01	121.128
1341.56	98.041
1345.11	130.079
1348.66	133.042
1352.21	137.163
1355.76	181.393
1359.3	292.8
1362.85	138.418
1366.39	101.075
1369.93	215.099
1373.46	155.202
1377	108.494
1380.54	171.807
1384.07	171.227
1387.6	133.691
1391.13	183.203
1394.65	254.747
1398.18	280.332
1401.7	223.792
1405.23	152.797
1408.75	220.908
1412.27	13.65
1415.78	0.741
1419.3	107.395
1422.81	158.417
1426.32	175.042
1429.83	172.702
1433.34	148.387
1436.85	187.083
1440.35	244.609
1443.86	245.107
1447.36	226.744
1450.86	188.151
1454.36	229.262
1457.85	270.111
1461.35	191.429
1464.84	122.08
1468.33	275.04
1471.82	308.228
1475.31	291.428
1478.8	335.312
1482.28	250.448
1485.76	336.428
1489.24	223.688
1492.72	172.595
1496.2	239.955
1499.67	137.063
1503.15	15.515
1506.62	237.68
1510.09	101.65
1513.56	0
