Measurement: Raman, 514 nm, ccw, Raman Data Processed
Mineral: Phenakite
Rruff sample: R050137
Ideal chemistry: Be_2_SiO_4_
Locality: Mount Antero area, Chaffee County, Colorado, USA
Source: Dave Bunk Minerals
Description: Colorless tabular hexagonal crystal
Measured chemistry: Be_2.00_Si_1.00_O_4_
Pin_id: L01371
Orientation: Laser parallel to a* (1 0 0). Fiducial mark perpendicular to laser is parallel to -c [0 0 -1]
Raman shift (cm-1)	intensity
60.91	0
65.85	6.021
70.787	517.091
75.721	1149.6
80.654	965.004
85.584	264.079
90.512	97.8989
95.438	231.446
100.362	269.971
105.284	398.125
110.203	210.139
115.12	836.904
120.035	1799.52
124.948	415.953
129.858	189.213
134.766	245.192
139.672	3.45654
144.576	165.422
149.478	3.00879
154.377	154.499
159.274	57.1977
164.169	103.357
169.061	54.7471
173.951	73.4185
178.839	31.6401
183.725	71.2788
188.609	59.2852
193.49	29.5044
198.369	133.894
203.246	27.502
208.12	703.773
212.992	2796.04
217.862	8765.11
222.73	12103.5
227.595	2229.82
232.458	553.21
237.319	123.048
242.178	19.0825
247.034	201.012
251.888	338.573
256.739	348.44
261.588	154.496
266.435	214.159
271.28	227.821
276.123	199.116
280.963	359.7
285.8	303.476
290.636	1030.56
295.469	2635.03
300.3	702.977
305.128	138.605
309.954	34.3994
314.778	99.4658
319.6	93.604
324.419	17.5874
329.236	119.54
334.05	139.014
338.862	54.1836
343.672	390.995
348.479	302.256
353.284	11.5415
358.087	52.9844
362.887	96.9907
367.685	63.0464
372.481	28.3691
377.274	69.1982
382.065	33.4653
386.854	38.0039
391.64	131.592
396.424	35.9238
401.205	8.75488
405.984	113.82
410.761	174.143
415.535	142.044
420.307	35.812
425.077	214.993
429.844	250.112
434.609	556.276
439.371	1371.12
444.131	2104.81
448.888	678.377
453.643	107.638
458.396	143.338
463.146	165.38
467.894	249.386
472.64	712.867
477.383	2202.46
482.124	1817.09
486.862	416.503
491.598	108.055
496.331	90.5518
501.062	93.7383
505.791	70.1973
510.517	210.281
515.24	269.464
519.962	641.075
524.68	838.093
529.397	277.869
534.111	175.44
538.822	166.035
543.531	275.406
548.238	168.042
552.942	159.418
557.643	165.367
562.343	189.625
567.039	164.548
571.734	281.487
576.425	388.245
581.115	254.144
585.802	495.544
590.486	2029.77
595.168	7396.68
599.848	11670.5
604.524	1909.27
609.199	535.877
613.871	414.808
618.541	262.381
623.208	98.7998
627.872	6.01758
632.534	41.5083
637.194	31.6118
641.851	79.5513
646.506	9.73145
651.158	59.2427
655.807	44.563
660.454	70.0791
665.099	66.3623
669.741	74.5459
674.381	259.598
679.018	467.648
683.652	1116.32
688.284	1033.29
692.914	722.168
697.541	1119.79
702.165	748.656
706.787	472.512
711.406	42.3325
716.023	30.126
720.638	99.8589
725.249	110.465
729.859	221.07
734.465	130.665
739.07	45.8032
743.671	39.731
748.27	42.9824
752.867	264.709
757.461	1060.48
762.053	3107.54
766.641	3307.88
771.228	1477.22
775.812	1893.34
780.393	2395.91
784.972	4605.78
789.548	2480.59
794.121	520.085
798.692	345.289
803.261	265.905
807.827	196.513
812.39	12.4385
816.951	71.3457
821.509	95.0591
826.064	96.7119
830.617	93.6016
835.168	217.73
839.716	466.157
844.261	670.844
848.804	1187.8
853.344	1691.02
857.881	3230.19
862.416	6496
866.948	18507.1
871.478	70408.7
876.005	232446
880.53	215106
885.052	44870.1
889.571	14550.9
894.088	8174.24
898.602	8868.96
903.113	3938.61
907.622	3324
912.128	4155.01
916.632	4925.8
921.133	2909.04
925.631	2019.57
930.127	2465.71
934.62	4054.99
939.111	5225.82
943.599	6915.31
948.084	15689.8
952.567	12428.2
957.047	2846.83
961.524	1013.95
965.999	375.812
970.471	523.519
974.941	160.09
979.408	204.936
983.872	68.0527
988.333	141.435
992.792	270.116
997.249	352.934
1001.7	472.153
1006.15	865.774
1010.6	1622.21
1015.05	838.531
1019.49	318.292
1023.93	41.4082
1028.37	6.55078
1032.8	34.9121
1037.24	47.2578
1041.66	25.2354
1046.09	110.879
1050.52	114.857
1054.94	106.418
1059.36	9.09668
1063.77	64.8623
1068.19	51.3594
1072.6	974.318
1077.01	22.9355
1081.41	12.1943
1085.82	62.458
1090.22	170.147
1094.61	29.1611
1099.01	41.5
1103.4	131.122
1107.79	113.69
1112.18	120.256
1116.56	294.813
1120.94	143.356
1125.32	15.125
1129.7	35.2969
1134.07	119.682
1138.44	101.875
1142.81	83.7324
1147.18	145.456
1151.54	101.074
1155.9	117.581
1160.26	48.0273
1164.61	115.524
1168.96	58.8906
1173.31	1.29004
1177.66	60.4346
1182	174.959
1186.34	143.243
1190.68	77.6221
1195.02	228.066
1199.35	406.719
1203.68	331.452
1208.01	415.871
1212.33	229.258
1216.65	260.341
1220.97	110.501
1225.29	237.167
1229.6	161.555
1233.91	248.223
1238.22	143.209
1242.53	228.097
1246.83	132.884
1251.13	140.572
1255.43	176.318
1259.72	287.821
1264.01	78.2139
1268.3	119.381
1272.59	127.951
1276.87	139.748
1281.15	102.657
1285.43	32.3242
1289.7	83.5342
1293.98	10.9375
1298.25	91.6172
1302.51	143.88
1306.78	0.917969
1311.04	216.593
1315.3	152.102
1319.56	87.5107
1323.81	279.862
1328.06	125.241
1332.31	305.627
1336.55	275.964
1340.79	127.527
1345.03	119.915
1349.27	54.2861
1353.5	215.523
1357.73	243.912
1361.96	85.3799
1366.19	154.799
1370.41	98.1797
1374.63	190.553
1378.85	213.923
1383.06	246.286
1387.27	106.665
1391.48	170.06
1395.69	126.85
1399.89	53.7022
1404.09	91.2803
1408.29	117.881
1412.48	157.478
1416.68	117.267
1420.87	57.0664
1425.05	93.415
1429.24	160.579
1433.42	26.7676
1437.6	138.116
1441.77	180.748
1445.94	159.847
1450.11	227.435
1454.28	227.688
1458.44	151.973
1462.61	217.314
1466.76	187.649
1470.92	102.012
1475.07	146.426
1479.22	80.9033
1483.37	185.441
1487.52	225.035
1491.66	130.245
1495.8	51.8584
1499.93	214.221
1504.06	126.238
1508.19	195.839
1512.32	267.117
1516.45	195.607
1520.57	189.334
1524.69	257.766
1528.8	74.0732
1532.92	79.3291
1537.03	128.965
1541.14	16.1787
1545.24	219.066
1549.34	150.272
1553.44	215.486
1557.54	138.784
1561.63	169.369
1565.72	145.185
1569.81	5.04688
1573.9	21.9561
