Measurement: Raman, 514 nm, depolarized, Raman Data Processed
Mineral: Phenakite
Rruff sample: R050137
Ideal chemistry: Be_2_SiO_4_
Locality: Mount Antero area, Chaffee County, Colorado, USA
Source: Dave Bunk Minerals
Description: Colorless tabular hexagonal crystal
Measured chemistry: Be_2.00_Si_1.00_O_4_
Pin_id: L00964
Orientation: Laser parallel to -c* (0 0 -1). Fiducial mark perpendicular to laser is parallel to a [1 0 0]
Raman shift (cm-1)	intensity
69.553	0
74.488	256.051
79.421	298.712
84.352	361.04
89.281	3.90869
94.207	161.989
99.131	14.6992
104.053	287.335
108.973	136.551
113.891	237.049
118.806	569.685
123.72	505.961
128.631	36.5505
133.539	16.9575
138.446	91.511
143.35	95.3323
148.252	382.88
153.152	1321.69
158.05	4309.97
162.945	4588.68
167.838	566.25
172.729	25.6309
177.618	70.8848
182.504	23.0947
187.388	12.9082
192.27	84.8542
197.149	41.9194
202.027	30.7632
206.902	511.257
211.775	2127.65
216.645	6641.99
221.513	18193.9
226.379	2948.01
231.243	570.605
236.104	97.3823
240.963	10.2363
245.82	211.062
250.674	516.711
255.527	655.182
260.376	235.554
265.224	307.819
270.069	804.892
274.912	2482.62
279.753	1825.18
284.591	289.456
289.427	16.8416
294.261	112.898
299.092	7.14575
303.921	26.5747
308.748	42.9055
313.572	52.6846
318.394	4.18115
323.214	61.1113
328.032	84.6426
332.847	63.5366
337.659	144.474
342.47	261.841
347.278	513.102
352.083	104.624
356.887	110.457
361.688	114.639
366.486	102.788
371.282	878.879
376.076	2847.9
380.868	11168.8
385.657	5547.87
390.444	722.652
395.228	199.352
400.01	115.972
404.79	136.517
409.567	180.984
414.342	70.4561
419.114	120.535
423.885	487.31
428.652	740.859
433.418	1085.17
438.18	3290.91
442.941	10035.5
447.699	2725.39
452.455	464.635
457.208	448.017
461.959	1268.29
466.708	575.534
471.454	191.885
476.197	289.657
480.939	1024.39
485.678	460.293
490.414	192.667
495.148	1.84766
499.88	52.4043
504.609	166.783
509.335	227.18
514.06	784.61
518.781	2891
523.501	9456.34
528.218	2851.65
532.932	464.922
537.644	184.145
542.354	60.3213
547.061	126.447
551.766	115.532
556.468	89.5644
561.168	48.4756
565.865	77.21
570.56	52.8047
575.253	217.628
579.943	125.32
584.63	14.9019
589.315	81.6387
593.998	360.261
598.678	1283.74
603.355	514.316
608.031	570.215
612.703	1593.04
617.373	1255.14
622.041	175.523
626.706	104.733
631.369	124.678
636.029	161.144
640.687	63.1333
645.342	94.5498
649.995	159.816
654.645	264.933
659.293	866.901
663.938	1311.72
668.581	1643.4
673.221	748.944
677.859	794.349
682.494	2005.62
687.126	2164.1
691.756	564.127
696.384	429.956
701.009	570.592
705.632	410.173
710.252	71.4492
714.869	40.1519
719.484	0.697754
724.097	16.8179
728.707	93.3359
733.314	55.8296
737.919	3.54297
742.521	107.614
747.121	80.6675
751.718	121.509
756.313	68.7241
760.905	485.875
765.494	1061.83
770.081	804.287
774.666	1729.93
779.248	1948.26
783.827	3013.48
788.404	2505.83
792.978	691.248
797.55	851.743
802.119	2005.32
806.685	2295
811.249	486.818
815.811	231.753
820.37	96.8477
824.926	110.168
829.479	75.7241
834.031	98.5029
838.579	282.57
843.125	237.918
847.668	458.451
852.209	785.18
856.747	1373.65
861.283	2606.82
865.816	6459.16
870.346	23315.6
874.874	88942.6
879.399	156382
883.921	36104.3
888.441	10021.7
892.959	5121.65
897.473	3403.75
901.986	3201.32
906.495	2879.44
911.002	5073.99
915.506	11341.9
920.008	12231.3
924.507	15149.5
929.004	5178.66
933.497	3687.2
937.989	5382.13
942.477	6094.4
946.963	15492.4
951.446	24679.3
955.927	7048.73
960.405	2363.89
964.881	1038.38
969.353	653.82
973.824	440.373
978.291	225.572
982.756	251.337
987.218	448.148
991.678	854.587
996.135	1172.59
1000.59	1054.65
1005.04	1664.85
1009.49	3223.44
1013.94	5486.62
1018.38	8874.08
1022.82	7186.7
1027.26	2661.6
1031.69	1038.57
1036.13	452.614
1040.56	171.941
1044.99	75.5278
1049.41	112.683
1053.83	47.2964
1058.25	36.3716
1062.67	4.42236
1067.09	0.63916
1071.5	1.59131
1075.9	39.0347
1080.31	39.6352
1084.71	3.3999
1089.12	96.8237
1093.52	77.7764
1097.91	65.6782
1102.3	33.2764
1106.69	96.0386
1111.08	5.39893
1115.47	39.8042
1119.85	214.211
1124.23	79.5967
1128.6	86.9316
1132.98	26.7627
1137.35	55.4297
1141.72	30.416
1146.08	3.79199
1150.45	54.7383
1154.81	49.3662
1159.17	81.5762
1163.52	94.5459
1167.87	25.6328
1172.22	152.242
1176.57	65.1367
1180.91	119.379
1185.26	197.96
1189.6	87.2295
1193.93	105.636
1198.27	182.877
1202.6	266.978
1206.92	195.691
1211.25	244.516
1215.57	214.309
1219.89	341.883
1224.21	246.477
1228.52	138.953
1232.83	132.846
1237.14	166.806
1241.45	221.603
1245.75	261.062
1250.05	253.779
1254.35	198.281
1258.65	276.581
1262.94	298.868
1267.23	235.941
1271.52	165.876
1275.8	95.3652
1280.08	200.333
1284.36	78.9053
1288.64	45.999
1292.91	71.0107
1297.18	28.2861
1301.45	47.7793
1305.71	67.3818
1309.97	157.99
1314.23	110.381
1318.49	103.194
1322.74	164.712
1327	173.976
1331.24	267.188
1335.49	180.365
1339.73	192.515
1343.97	174.625
1348.21	187.757
1352.44	79.1269
1356.68	107.346
1360.91	131.643
1365.13	213.952
1369.36	133.228
1373.58	184.473
1377.79	220.713
1382.01	175.954
1386.22	102.641
1390.43	152.87
1394.64	23.1396
1398.84	137.435
1403.04	134.564
1407.24	159.221
1411.44	87.0049
1415.63	30.5098
1419.82	103.39
1424.01	196.553
1428.19	110.189
1432.37	4.3125
1436.55	229.989
1440.73	83.2832
1444.9	49.5322
1449.07	50.8291
1453.24	76.6084
1457.4	58.5342
1461.57	71.7451
1465.72	268.006
1469.88	115.32
1474.04	147.529
1478.19	114.917
1482.33	159.336
1486.48	39.6699
1490.62	105.835
1494.76	84.5498
1498.9	4.06348
1503.03	75.2314
1507.16	7.55566
1511.29	145.842
1515.42	76.3262
1519.54	76.9092
1523.66	155.638
1527.78	218.152
1531.89	91.3223
1536	175.431
1540.11	205.524
1544.21	163.403
1548.32	45.085
1552.42	66.6162
1556.52	230.824
1560.61	71.4678
1564.7	129.382
1568.79	76.9238
1572.88	121.873
1576.96	0
