Measurement: Raman, 514 nm, ccw, Raman Data Processed
Mineral: Phenakite
Rruff sample: R050137
Ideal chemistry: Be_2_SiO_4_
Locality: Mount Antero area, Chaffee County, Colorado, USA
Source: Dave Bunk Minerals
Description: Colorless tabular hexagonal crystal
Measured chemistry: Be_2.00_Si_1.00_O_4_
Pin_id: L01371
Orientation: Laser parallel to a* (1 0 0). Fiducial mark perpendicular to laser is parallel to -c [0 0 -1]
Raman shift (cm-1)	intensity
60.91	0
65.85	6.01221
70.787	692.896
75.721	710.091
80.654	1028.16
85.584	217.199
90.512	154.211
95.438	204.267
100.362	215.703
105.284	637.414
110.203	142.258
115.12	636.427
120.035	1866.93
124.948	480.666
129.858	175.204
134.766	201.864
139.672	202.504
144.576	260.796
149.478	204.213
154.377	914.803
159.274	1743.05
164.169	1101.03
169.061	190.837
173.951	12.5088
178.839	46.0835
183.725	59.8071
188.609	9.17578
193.49	2.39062
198.369	43.9287
203.246	40.1538
208.12	442.902
212.992	2154.19
217.862	6591.98
222.73	9068.64
227.595	5293.85
232.458	3442.36
237.319	319.68
242.178	34.5669
247.034	439.531
251.888	833.661
256.739	1144.88
261.588	386.504
266.435	407.567
271.28	1022.5
276.123	2237.06
280.963	1482.82
285.8	359.884
290.636	340.161
295.469	518.785
300.3	271.756
305.128	137.439
309.954	16.3403
314.778	254.961
319.6	76.5957
324.419	19.0776
329.236	52.7417
334.05	241.041
338.862	656.294
343.672	1960.47
348.479	2083.17
353.284	265.953
358.087	34.7451
362.887	45.3398
367.685	134.456
372.481	515.338
377.274	1792.57
382.065	4039.62
386.854	1204.55
391.64	205.92
396.424	76.415
401.205	69.5117
405.984	15.8716
410.761	19.1045
415.535	121.214
420.307	85.9438
425.077	363.241
429.844	547.757
434.609	1824.93
439.371	5490.94
444.131	9012.65
448.888	2021.87
453.643	415.817
458.396	457.19
463.146	889.376
467.894	314.128
472.64	304.335
477.383	556.842
482.124	787.132
486.862	244.804
491.598	113.979
496.331	38.0562
501.062	113.751
505.791	108.49
510.517	173.512
515.24	1113.25
519.962	3297.23
524.68	5294.98
529.397	1248.58
534.111	355.92
538.822	159.218
543.531	146.892
548.238	115.102
552.942	144.65
557.643	114.947
562.343	113.987
567.039	210.704
571.734	725.538
576.425	1081.27
581.115	291.516
585.802	132.759
590.486	572.446
595.168	1965.92
599.848	2810.69
604.524	769.071
609.199	749.572
613.871	1784.49
618.541	774.871
623.208	167.11
627.872	34.8428
632.534	43.3906
637.194	69.2622
641.851	79.2481
646.506	99.5859
651.158	3.43897
655.807	100.267
660.454	228.788
665.099	409.185
669.741	536.466
674.381	294.633
679.018	733.681
683.652	1394.58
688.284	976.033
692.914	665.821
697.541	1302.35
702.165	2174.04
706.787	859.696
711.406	218.412
716.023	24.0259
720.638	234.513
725.249	747.909
729.859	1080.22
734.465	265.441
739.07	59.5523
743.671	32.5649
748.27	28.5117
752.867	229.977
757.461	348.34
762.053	1193.65
766.641	1679.73
771.228	2295.7
775.812	4667.65
780.393	2959.9
784.972	2837.76
789.548	1378.24
794.121	538.375
798.692	568.942
803.261	1130.65
807.827	640.484
812.39	87.4248
816.951	49.418
821.509	110.645
826.064	1.40332
830.617	147.858
835.168	88.1484
839.716	272.543
844.261	208.055
848.804	552.692
853.344	827.844
857.881	1545.81
862.416	3258.93
866.948	9631.2
871.478	36860.6
876.005	113415
880.53	100169
885.052	21940.7
889.571	7194.9
894.088	3919.57
898.602	3024.53
903.113	2554.8
907.622	3442.66
912.128	7084.12
916.632	11933.1
921.133	8786.88
925.631	6384.44
930.127	4171.33
934.62	6902.19
939.111	8617.91
943.599	7373.35
948.084	13775.3
952.567	11250.7
957.047	3089.77
961.524	1152.73
965.999	578.83
970.471	505.264
974.941	341.619
979.408	332.223
983.872	336.708
988.333	670.581
992.792	1047.81
997.249	922.432
1001.7	723.34
1006.15	1078.37
1010.6	1810.08
1015.05	2432.05
1019.49	3122.63
1023.93	1866.63
1028.37	654.287
1032.8	184.161
1037.24	181.916
1041.66	135.713
1046.09	104.704
1050.52	75.3652
1054.94	57.1191
1059.36	121.519
1063.77	40.5762
1068.19	109.436
1072.6	79.5947
1077.01	4.69238
1081.41	51.7852
1085.82	71.9668
1090.22	32.125
1094.61	58.5293
1099.01	42.9893
1103.4	46.5215
1107.79	112.092
1112.18	64.6943
1116.56	78.3066
1120.94	44.1016
1125.32	118.386
1129.7	55.8779
1134.07	38.3574
1138.44	138.86
1142.81	116.283
1147.18	127.541
1151.54	55.1543
1155.9	11.4541
1160.26	17.874
1164.61	72.3574
1168.96	129.673
1173.31	37.7822
1177.66	5.34375
1182	86.2978
1186.34	202.733
1190.68	241.148
1195.02	45.0068
1199.35	261.074
1203.68	154.996
1208.01	224.576
1212.33	172.589
1216.65	162.446
1220.97	158.219
1225.29	189.83
1229.6	170.418
1233.91	97.9102
1238.22	235.308
1242.53	216.608
1246.83	220.174
1251.13	155.614
1255.43	167.623
1259.72	187.488
1264.01	234.203
1268.3	186.923
1272.59	197.547
1276.87	101.286
1281.15	40.3877
1285.43	36.7861
1289.7	149.398
1293.98	42.0596
1298.25	37.5537
1302.51	10.0723
1306.78	38.3672
1311.04	227.721
1315.3	81.876
1319.56	220.369
1323.81	162.012
1328.06	172.577
1332.31	137.131
1336.55	285.44
1340.79	152.055
1345.03	235.724
1349.27	68.3652
1353.5	90.041
1357.73	191.676
1361.96	73.3223
1366.19	277.923
1370.41	118.513
1374.63	246.105
1378.85	203.73
1383.06	224.362
1387.27	42.8486
1391.48	79.3447
1395.69	92.8486
1399.89	120.298
1404.09	117.887
1408.29	113.756
1412.48	17.3369
1416.68	5.27148
1420.87	124.241
1425.05	288.18
1429.24	81.46
1433.42	36.7793
1437.6	29.1631
1441.77	238.801
1445.94	193.649
1450.11	97.2773
1454.28	182.787
1458.44	12.2568
1462.61	90.7051
1466.76	219.185
1470.92	95.6973
1475.07	135.253
1479.22	114.858
1483.37	279.519
1487.52	116.252
1491.66	143.071
1495.8	249.122
1499.93	146.126
1504.06	100.416
1508.19	47.0488
1512.32	137.173
1516.45	191.435
1520.57	171.096
1524.69	211.266
1528.8	114.398
1532.92	189.536
1537.03	22.7461
1541.14	68.8887
1545.24	116.875
1549.34	185.461
1553.44	312.897
1557.54	62.1992
1561.63	39.5723
1565.72	73.7061
1569.81	187.629
1573.9	0.856445
