Measurement: Raman, 514 nm, depolarized, Raman Data Processed
Mineral: Phenakite
Rruff sample: R050137
Ideal chemistry: Be_2_SiO_4_
Locality: Mount Antero area, Chaffee County, Colorado, USA
Source: Dave Bunk Minerals
Description: Colorless tabular hexagonal crystal
Measured chemistry: Be_2.00_Si_1.00_O_4_
Pin_id: L01371
Orientation: Laser parallel to a* (1 0 0). Fiducial mark perpendicular to laser is parallel to -c [0 0 -1]
Raman shift (cm-1)	intensity
60.91	0
65.85	1.95166
70.787	604.253
75.721	753.467
80.654	991.028
85.584	392.537
90.512	370.638
95.438	142.664
100.362	270.373
105.284	459.929
110.203	183.653
115.12	648.538
120.035	1807.69
124.948	529.938
129.858	135.202
134.766	160.273
139.672	52.4419
144.576	164.044
149.478	203.637
154.377	833.709
159.274	2127.64
164.169	1384.47
169.061	121.605
173.951	89.9214
178.839	56.1182
183.725	24.1245
188.609	164.527
193.49	84.5176
198.369	62.669
203.246	135.335
208.12	640.63
212.992	2643.79
217.862	8362.79
222.73	12328.1
227.595	3988.33
232.458	2077.52
237.319	278.454
242.178	33.8438
247.034	368.393
251.888	700.922
256.739	725.387
261.588	267.535
266.435	415.335
271.28	898.425
276.123	1996.78
280.963	1301.27
285.8	286.307
290.636	513.135
295.469	1091.58
300.3	393.512
305.128	39.8638
309.954	121.549
314.778	90.6099
319.6	67.8325
324.419	33.1323
329.236	50.4019
334.05	133.796
338.862	412.944
343.672	980.966
348.479	1364.83
353.284	165.82
358.087	60.6435
362.887	48.8574
367.685	120.897
372.481	532.37
377.274	1889.29
382.065	4850.36
386.854	1439.39
391.64	158.128
396.424	94.6611
401.205	67.0557
405.984	45.564
410.761	1.94629
415.535	33.8408
420.307	25.7363
425.077	289.303
429.844	609.242
434.609	1517.07
439.371	4194.8
444.131	7743.25
448.888	1621.02
453.643	271.123
458.396	408.17
463.146	754.104
467.894	321.387
472.64	363.081
477.383	973.396
482.124	1043.09
486.862	294.905
491.598	78.9228
496.331	132.696
501.062	172.535
505.791	114.555
510.517	205.773
515.24	804.738
519.962	2566.84
524.68	5094.74
529.397	1221.49
534.111	307.979
538.822	211.592
543.531	114.387
548.238	13.3984
552.942	135.407
557.643	147.323
562.343	284.634
567.039	1242.1
571.734	1186.53
576.425	759.855
581.115	398.027
585.802	195.406
590.486	824.629
595.168	3040.66
599.848	5129.6
604.524	960.43
609.199	714.176
613.871	1511.68
618.541	762.507
623.208	30.1533
627.872	63.5024
632.534	59.8164
637.194	56.0772
641.851	43.7192
646.506	122.092
651.158	13.3018
655.807	98.937
660.454	391.994
665.099	687.898
669.741	552.656
674.381	381.274
679.018	753.779
683.652	1668.56
688.284	1298.51
692.914	728.573
697.541	912.384
702.165	1690.7
706.787	710.926
711.406	156.062
716.023	40.1123
720.638	170.074
725.249	375.945
729.859	612.75
734.465	29.4927
739.07	131.044
743.671	117.668
748.27	91.0845
752.867	91.7554
757.461	452.438
762.053	1552.72
766.641	2254
771.228	1789.19
775.812	3697.49
780.393	2782.31
784.972	3644.11
789.548	1925.36
794.121	600.951
798.692	524.06
803.261	1363.65
807.827	792.246
812.39	90.0562
816.951	7.00195
821.509	38.9199
826.064	57.2725
830.617	93.7163
835.168	20.3809
839.716	167.238
844.261	330.314
848.804	686.578
853.344	1010.02
857.881	2094.18
862.416	4238.09
866.948	12176.2
871.478	45618.6
876.005	152524
880.53	148968
885.052	31133.2
889.571	9973.55
894.088	5597.75
898.602	3884.28
903.113	2957.34
907.622	3557.15
912.128	6267.41
916.632	10951.1
921.133	8960.21
925.631	7467.68
930.127	3937.05
934.62	6054.58
939.111	7603.27
943.599	7541.21
948.084	16674.4
952.567	15004.9
957.047	3765.45
961.524	1471.74
965.999	741.199
970.471	486.412
974.941	278.826
979.408	223.311
983.872	287.87
988.333	474.707
992.792	892.931
997.249	897.318
1001.7	673.597
1006.15	1197.27
1010.6	2286.64
1015.05	2734.05
1019.49	3653.3
1023.93	2058.99
1028.37	815.438
1032.8	193.538
1037.24	225.23
1041.66	38.9756
1046.09	109.158
1050.52	121.504
1054.94	51.9522
1059.36	138.514
1063.77	57.3789
1068.19	29.123
1072.6	37.623
1077.01	3.78613
1081.41	35.1572
1085.82	35.583
1090.22	34.0674
1094.61	35.3916
1099.01	12.0264
1103.4	146.38
1107.79	103.698
1112.18	110.956
1116.56	93.2031
1120.94	46.4443
1125.32	49.6172
1129.7	101.714
1134.07	83.7314
1138.44	151.507
1142.81	65.1641
1147.18	46.3477
1151.54	35.9404
1155.9	128.916
1160.26	18.0225
1164.61	46.5254
1168.96	127.116
1173.31	63.8135
1177.66	195.344
1182	51.8506
1186.34	110.231
1190.68	163.586
1195.02	102.231
1199.35	323.779
1203.68	191.966
1208.01	227.34
1212.33	206.976
1216.65	603.496
1220.97	199.509
1225.29	189.615
1229.6	121.857
1233.91	162.37
1238.22	127.904
1242.53	178.537
1246.83	146.265
1251.13	210.877
1255.43	163.366
1259.72	192.753
1264.01	155.399
1268.3	323.815
1272.59	236.895
1276.87	122.278
1281.15	72.8643
1285.43	64.2598
1289.7	59.2754
1293.98	45.3242
1298.25	81.8867
1302.51	72.6592
1306.78	18.9404
1311.04	69.1289
1315.3	52.2588
1319.56	103.462
1323.81	250.831
1328.06	49.5713
1332.31	120.827
1336.55	124.158
1340.79	135.532
1345.03	50.9619
1349.27	33.8164
1353.5	209.551
1357.73	99.8037
1361.96	79.0078
1366.19	136.333
1370.41	122.69
1374.63	242.06
1378.85	200.446
1383.06	83.7588
1387.27	159.031
1391.48	44.8672
1395.69	163.633
1399.89	49.1406
1404.09	129.775
1408.29	90.4014
1412.48	166.194
1416.68	48.377
1420.87	56.3916
1425.05	189.163
1429.24	44.4697
1433.42	169.991
1437.6	28.3193
1441.77	280.766
1445.94	115.238
1450.11	75.5273
1454.28	240.387
1458.44	146.141
1462.61	183.975
1466.76	1.51562
1470.92	45.3232
1475.07	2.79785
1479.22	191.186
1483.37	102.164
1487.52	48.377
1491.66	155.713
1495.8	151.713
1499.93	133.751
1504.06	106.008
1508.19	139.315
1512.32	79.916
1516.45	5.47559
1520.57	286.213
1524.69	105.507
1528.8	202.486
1532.92	207.617
1537.03	29.4209
1541.14	149.595
1545.24	186.936
1549.34	139.321
1553.44	213.216
1557.54	88.5977
1561.63	123.108
1565.72	239.283
1569.81	398.01
1573.9	190.613
