Measurement: Raman, 514 nm, depolarized, Raman Data Processed
Mineral: Phenakite
Rruff sample: R040046
Ideal chemistry: Be_2_SiO_4_
Locality: San Miguel de Piracicaba, Minas Gerais, Brazil
Source: University of Arizona Mineral Museum
Description: Colorless crystal fragments
Measured chemistry: Be_2.02_Si_0.99_O_4_
Pin_id: L00327
Orientation: Laser parallel to c* (0 0 1). Fiducial mark perpendicular to laser is parallel to a [1 0 0]
Raman shift (cm-1)	intensity
82.916	0
87.101	5.935
91.284	75.918
95.465	88.616
99.644	70.324
103.82	65.523
107.995	75.356
112.168	84.479
116.339	179.679
120.508	91.957
124.675	23.611
128.84	15.68
133.003	27.692
137.164	77.023
141.323	103.114
145.48	49.419
149.635	69.159
153.788	81.378
157.939	613.396
162.088	1741.89
166.235	313.323
170.38	30.783
174.523	24.601
178.664	35.393
182.803	18.632
186.94	6.291
191.076	26.887
195.209	21.348
199.34	49.789
203.47	29.806
207.597	31.354
211.722	17.989
215.846	176.126
219.967	3332.81
224.087	4101.48
228.204	193.61
232.32	81.37
236.434	11.013
240.545	1.472
244.655	13.666
248.763	7.17
252.869	113.318
256.973	158.918
261.075	3.531
265.175	12.961
269.273	17.259
273.369	202.418
277.463	713.419
281.556	386.249
285.646	34.915
289.734	31.396
293.821	6.698
297.905	11.816
301.988	17.629
306.069	0.182
310.147	4.427
314.224	9.275
318.299	21.784
322.372	35.727
326.443	46.543
330.512	10.169
334.579	54.654
338.645	5.158
342.708	37.439
346.769	156.053
350.829	101.397
354.887	26.889
358.942	47.324
362.996	56.402
367.048	28.702
371.098	21.921
375.146	53.162
379.192	326.264
383.236	3640.62
387.279	1147.01
391.319	164.202
395.358	125.34
399.394	48.274
403.429	21.426
407.462	24.295
411.493	74.563
415.522	72.483
419.549	40.458
423.575	108.816
427.598	208.709
431.619	203.04
435.639	108.601
439.657	302.354
443.673	2536.05
447.687	1302.3
451.699	175.432
455.709	88.759
459.717	79.377
463.724	412.809
467.728	242.905
471.731	77.235
475.732	37.607
479.731	95.9
483.728	329.083
487.723	158.253
491.716	44.355
495.708	20.726
499.697	71.432
503.685	17.66
507.671	75.331
511.655	46.011
515.637	113.297
519.617	221.752
523.596	1757.98
527.572	1803.01
531.547	206.979
535.52	93.433
539.491	78.902
543.46	22.328
547.427	35.709
551.393	19.048
555.356	55.345
559.318	37.7
563.278	13.417
567.236	60.134
571.192	65.586
575.147	28.727
579.099	42.844
583.05	5.434
586.999	56.59
590.946	26.808
594.891	101.425
598.834	342.358
602.776	210.396
606.715	87.19
610.653	115.843
614.589	450.467
618.523	358.059
622.456	93.621
626.386	61.181
630.315	58.726
634.242	27.23
638.167	22.726
642.09	17.183
646.012	24.607
649.931	46.997
653.849	64.222
657.765	95.365
661.679	222.54
665.592	299.831
669.502	508.034
673.411	210.276
677.318	39.497
681.223	192.699
685.126	624.883
689.028	563.055
692.927	133.208
696.825	32.343
700.721	130.376
704.616	234.39
708.508	61.437
712.399	16.482
716.288	28.159
720.175	2.936
724.06	44.884
727.944	40.999
731.825	10.284
735.705	8.568
739.584	43.279
743.46	6.892
747.334	33.663
751.207	9.307
755.078	6.97
758.947	3.645
762.815	178.685
766.68	412.029
770.544	136.389
774.406	219.769
778.267	560.169
782.125	315.59
785.982	821.03
789.837	735.401
793.69	276.979
797.542	56.722
801.391	183.24
805.239	726.176
809.085	478.807
812.93	133.473
816.772	49.187
820.613	42.937
824.452	71.722
828.29	75.545
832.125	97.406
835.959	16.321
839.791	87.278
843.621	111.287
847.45	128.366
851.277	149.939
855.102	248.747
858.925	324.092
862.746	516.507
866.566	969.01
870.384	1914.87
874.2	5814.85
878.015	39832.5
881.828	28950
885.639	5559.23
889.448	2345.16
893.256	1380.53
897.061	967.685
900.865	759.071
904.668	613.294
908.468	620.453
912.267	960.794
916.064	2386.39
919.86	2551.05
923.653	4180.8
927.445	2630.03
931.236	774.93
935.024	750.903
938.811	1177.5
942.596	1058.08
946.379	1525.31
950.161	6634.61
953.94	4848.04
957.719	1224.64
961.495	627.179
965.27	364.812
969.043	246.451
972.814	147.202
976.583	160.022
980.351	137.911
984.117	157.819
987.882	161.848
991.644	195.234
995.405	301.769
999.165	315.745
1002.92	339.124
1006.68	422.455
1010.43	692.393
1014.18	1148.48
1017.93	1776.2
1021.68	2646.71
1025.43	1348.27
1029.18	558.218
1032.92	293.483
1036.66	208.11
1040.4	106.312
1044.14	103.684
1047.88	71.099
1051.62	37.583
1055.35	51.145
1059.08	48.587
1062.81	81.627
1066.54	28.371
1070.27	39.094
1073.99	17.129
1077.72	70.621
1081.44	63.382
1085.16	82.155
1088.88	70.021
1092.59	0.137
1096.31	31.981
1100.02	2.218
1103.73	30.439
1107.44	40.29
1111.15	100.043
1114.86	42.734
1118.57	30.396
1122.27	132.045
1125.97	69.71
1129.67	7.34
1133.37	68.929
1137.07	20.939
1140.76	61.917
1144.45	20.367
1148.15	30.118
1151.84	9.518
1155.53	35.236
1159.21	16.407
1162.9	11.837
1166.58	36.6
1170.26	31.95
1173.94	38.28
1177.62	71.389
1181.3	15.509
1184.97	53.134
1188.65	47.282
1192.32	132.552
1195.99	143.604
1199.66	120.011
1203.33	31.372
1206.99	112.516
1210.65	66.763
1214.32	102.659
1217.98	74.108
1221.64	103.468
1225.29	114.872
1228.95	186.458
1232.6	181.831
1236.26	103.975
1239.91	48.018
1243.56	94.039
1247.2	151.944
1250.85	130.376
1254.49	140.278
1258.13	177.145
1261.78	158.793
1265.41	177.344
1269.05	100.872
1272.69	150.326
1276.32	113.611
1279.95	30.72
1283.59	72.761
1287.21	106.253
1290.84	176.255
1294.47	110.291
1298.09	39.815
1301.72	3.688
1305.34	22.225
1308.96	10.454
1312.58	66.256
1316.19	0.039
1319.81	55.795
1323.42	77.213
1327.03	104.028
1330.64	10.801
1334.25	14.738
1337.86	85.604
1341.46	24.634
1345.07	44
1348.67	21.632
1352.27	79.886
1355.87	132.197
1359.46	107.476
1363.06	62.655
1366.65	132.787
1370.25	161.929
1373.84	44.957
1377.43	124.942
1381.02	81.895
1384.6	99.787
1388.18	111.379
1391.77	140.212
1395.35	100.455
1398.93	116.585
1402.51	148.644
1406.08	60.526
1409.66	48.79
1413.23	40.895
1416.8	56.151
1420.37	126.96
1423.94	83.625
1427.51	107.657
1431.08	144.69
1434.64	229.017
1438.2	201.042
1441.76	135.903
1445.32	197.328
1448.88	112.373
1452.43	108.519
1455.99	59.703
1459.54	153.447
1463.09	186.945
1466.64	160.273
1470.19	226.973
1473.74	208.238
1477.28	259.198
1480.83	128.716
1484.37	133.044
1487.91	32.773
1491.45	13.132
1494.98	78.963
1498.52	35.905
1502.05	73.74
1505.59	108.924
1509.12	77.57
1512.65	91.807
1516.17	179.109
1519.7	157.57
1523.23	93.94
1526.75	165.922
1530.27	51.889
1533.79	1.132
