Measurement: Raman, 514 nm, ccw, Raman Data Processed
Mineral: Phenakite
Rruff sample: R050137
Ideal chemistry: Be_2_SiO_4_
Locality: Mount Antero area, Chaffee County, Colorado, USA
Source: Dave Bunk Minerals
Description: Colorless tabular hexagonal crystal
Measured chemistry: Be_2.00_Si_1.00_O_4_
Pin_id: L00964
Orientation: Laser parallel to -c* (0 0 -1). Fiducial mark perpendicular to laser is parallel to a [1 0 0]
Raman shift (cm-1)	intensity
69.553	0
74.488	460.102
79.421	292.669
84.352	303.194
89.281	15.8813
94.207	72.0686
99.131	51.4148
104.053	296.804
108.973	108.913
113.891	300.796
118.806	578.805
123.72	431.637
128.631	141.817
133.539	95.2527
138.446	110.13
143.35	122.35
148.252	432.211
153.152	1312.95
158.05	4353.75
162.945	4531.32
167.838	562.767
172.729	83.0779
177.618	68.1533
182.504	17.6699
187.388	39.498
192.27	57.0198
197.149	73.322
202.027	105.374
206.902	573.851
211.775	2194.07
216.645	7060.96
221.513	18842.3
226.379	3080.27
231.243	503.524
236.104	143.575
240.963	40.834
245.82	225.988
250.674	577.878
255.527	761.544
260.376	259.034
265.224	203.365
270.069	779.536
274.912	2405.17
279.753	1385.27
284.591	156.225
289.427	68.0454
294.261	11.7522
299.092	44.6526
303.921	7.83569
308.748	25.8596
313.572	46.8018
318.394	48.9844
323.214	33.5974
328.032	21.855
332.847	84.9087
337.659	92.4976
342.47	72.3479
347.278	294.762
352.083	92.2625
356.887	90.0254
361.688	16.5559
366.486	149.429
371.282	905.864
376.076	2993.24
380.868	10823.5
385.657	5506.71
390.444	692.894
395.228	214.013
400.01	160.073
404.79	65.0847
409.567	202.411
414.342	60.3828
419.114	167.254
423.885	441.088
428.652	727.891
433.418	1159.72
438.18	3856.85
442.941	12269.3
447.699	3285.48
452.455	517.622
457.208	466.38
461.959	1056.91
466.708	670.278
471.454	164.672
476.197	242.774
480.939	1046.42
485.678	468.207
490.414	166.269
495.148	15.3066
499.88	29.8462
504.609	133.586
509.335	155.297
514.06	766.981
518.781	2714.64
523.501	8063.28
528.218	2481.89
532.932	408.476
537.644	122.723
542.354	1.55762
547.061	71.0581
551.766	137.525
556.468	0.046875
561.168	1.34131
565.865	142.694
570.56	134.009
575.253	170.682
579.943	158.495
584.63	3.19434
589.315	106.455
593.998	544.951
598.678	1031.05
603.355	402.433
608.031	501.552
612.703	1671.85
617.373	1349.03
622.041	250.946
626.706	166.715
631.369	105.704
636.029	121.402
640.687	147.135
645.342	113.947
649.995	175.073
654.645	431.75
659.293	910.13
663.938	1321.37
668.581	1632.48
673.221	803.448
677.859	789.292
682.494	2127
687.126	2251.35
691.756	601.118
696.384	298.75
701.009	538.016
705.632	399.19
710.252	40.7319
714.869	38.894
719.484	19.4976
724.097	23.9756
728.707	87.5166
733.314	82.1196
737.919	35.0269
742.521	47.1148
747.121	33.0732
751.718	126.019
756.313	244.717
760.905	606.44
765.494	1274.16
770.081	1000.78
774.666	2424.26
779.248	2277.81
783.827	3193.67
788.404	2730.6
792.978	795.609
797.55	915.738
802.119	2030
806.685	2372.37
811.249	616.884
815.811	185.612
820.37	128.591
824.926	131.716
829.479	76.0215
834.031	54.5352
838.579	170.3
843.125	227.275
847.668	560.424
852.209	872.639
856.747	1368.01
861.283	2650.72
865.816	6792.92
870.346	24403
874.874	91402.2
879.399	161587
883.921	37111.1
888.441	10375.5
892.959	5217.17
897.473	3530.39
901.986	2832.01
906.495	2828.08
911.002	4514.71
915.506	9608.74
920.008	11643.2
924.507	15368
929.004	5228.17
933.497	3960.55
937.989	6639.6
942.477	6512.45
946.963	16180.3
951.446	25331.6
955.927	7079.81
960.405	2335.82
964.881	1132.43
969.353	747.676
973.824	469.595
978.291	375.835
982.756	242.8
987.218	554.899
991.678	871.555
996.135	1169.77
1000.59	1180.85
1005.04	1492.4
1009.49	3302.04
1013.94	5409.2
1018.38	8807.04
1022.82	6920.71
1027.26	2543.54
1031.69	1069.46
1036.13	539.09
1040.56	133.51
1044.99	281.138
1049.41	126.877
1053.83	82.894
1058.25	101.595
1062.67	35.3325
1067.09	2.8335
1071.5	29.7588
1075.9	96.4438
1080.31	26.8193
1084.71	87.7642
1089.12	31.2617
1093.52	31.8198
1097.91	39.3579
1102.3	86.1108
1106.69	66.2729
1111.08	114.669
1115.47	30.0239
1119.85	186.38
1124.23	139.745
1128.6	149.106
1132.98	49.4248
1137.35	92.6699
1141.72	143.931
1146.08	124.024
1150.45	101.589
1154.81	12.6641
1159.17	69.9404
1163.52	83.4097
1167.87	79.8516
1172.22	66.9165
1176.57	129.794
1180.91	147.865
1185.26	143.549
1189.6	105.854
1193.93	121.798
1198.27	221.89
1202.6	179.708
1206.92	318.897
1211.25	179.373
1215.57	318.495
1219.89	193.546
1224.21	198.19
1228.52	164.774
1232.83	195.972
1237.14	198.612
1241.45	180.181
1245.75	253.242
1250.05	210.438
1254.35	199.493
1258.65	130.409
1262.94	267.723
1267.23	134.83
1271.52	199.281
1275.8	109.534
1280.08	126.786
1284.36	125.829
1288.64	85.8574
1292.91	102.283
1297.18	44.4966
1301.45	16.9898
1305.71	119.382
1309.97	118.216
1314.23	57.813
1318.49	2.67871
1322.74	169.384
1327	185.109
1331.24	231.761
1335.49	164.369
1339.73	252.068
1343.97	150.63
1348.21	100.319
1352.44	212.161
1356.68	247.877
1360.91	156.577
1365.13	246.273
1369.36	264.954
1373.58	165.644
1377.79	62.2944
1382.01	142.89
1386.22	183.501
1390.43	104.13
1394.64	285.782
1398.84	114.65
1403.04	175.445
1407.24	161.439
1411.44	161.622
1415.63	12.999
1419.82	134.409
1424.01	189.544
1428.19	80.7983
1432.37	165.438
1436.55	78.4522
1440.73	141.058
1444.9	63.6943
1449.07	126.59
1453.24	153.682
1457.4	73.6309
1461.57	42.2319
1465.72	71.8648
1469.88	144.464
1474.04	25.2808
1478.19	48.7983
1482.33	15.52
1486.48	172.606
1490.62	182.181
1494.76	104.601
1498.9	46.2075
1503.03	102.207
1507.16	67.3115
1511.29	84.9961
1515.42	164.941
1519.54	107.141
1523.66	70.5107
1527.78	146.7
1531.89	77.8252
1536	187.402
1540.11	78.3164
1544.21	193.057
1548.32	183.16
1552.42	173.085
1556.52	19.7451
1560.61	51.5478
1564.7	38.6045
1568.79	143.239
1572.88	48.7764
1576.96	0
