Measurement: Raman, 514 nm, ccw, Raman Data Processed
Mineral: Phenakite
Rruff sample: R050137
Ideal chemistry: Be_2_SiO_4_
Locality: Mount Antero area, Chaffee County, Colorado, USA
Source: Dave Bunk Minerals
Description: Colorless tabular hexagonal crystal
Measured chemistry: Be_2.00_Si_1.00_O_4_
Pin_id: L00964
Orientation: Laser parallel to -c* (0 0 -1). Fiducial mark perpendicular to laser is parallel to a [1 0 0]
Raman shift (cm-1)	intensity
69.553	0
74.488	277.321
79.421	270.401
84.352	267.627
89.281	53.8154
94.207	58.5986
99.131	147.576
104.053	217.156
108.973	169.655
113.891	220.63
118.806	486.509
123.72	444.199
128.631	103.133
133.539	37.4243
138.446	154.447
143.35	73.1472
148.252	367.519
153.152	1254.77
158.05	4446.91
162.945	4679.8
167.838	440.604
172.729	34.2068
177.618	96.5813
182.504	15.3423
187.388	42.3137
192.27	77.6904
197.149	66.8767
202.027	90.5571
206.902	602.947
211.775	2016.12
216.645	6500.46
221.513	18926.7
226.379	2965.51
231.243	376.192
236.104	114.484
240.963	114.108
245.82	104.582
250.674	542.804
255.527	643.626
260.376	72.5459
265.224	227.113
270.069	780.466
274.912	2547.08
279.753	1908.21
284.591	173.173
289.427	47.0017
294.261	6.33203
299.092	59.1638
303.921	89.4749
308.748	23.3977
313.572	48.5813
318.394	48.9976
323.214	8.09717
328.032	20.4241
332.847	9.36133
337.659	32.6123
342.47	191.617
347.278	592.667
352.083	41.0073
356.887	1.62109
361.688	70.7549
366.486	130.086
371.282	760.34
376.076	2904.53
380.868	11574.7
385.657	5368.04
390.444	635.533
395.228	110.495
400.01	64.4004
404.79	40.2256
409.567	184.039
414.342	73.7964
419.114	210.516
423.885	425.207
428.652	781.876
433.418	949.858
438.18	3018.27
442.941	9598.69
447.699	2455.69
452.455	385.598
457.208	307.481
461.959	1371.75
466.708	594.983
471.454	182.245
476.197	294.021
480.939	942.858
485.678	358.83
490.414	16.0073
495.148	71.7808
499.88	28.5166
504.609	10.103
509.335	208.451
514.06	865.424
518.781	3015.39
523.501	10475.3
528.218	2785.28
532.932	487.226
537.644	145.151
542.354	76.0566
547.061	63.9438
551.766	27.8096
556.468	64.4175
561.168	18.5034
565.865	101.31
570.56	29.0859
575.253	203.575
579.943	53.2681
584.63	40.3784
589.315	100.469
593.998	448.797
598.678	1491.09
603.355	413.359
608.031	508.517
612.703	1395.97
617.373	1069.58
622.041	228.963
626.706	63.1914
631.369	62.1919
636.029	65.8882
640.687	108.406
645.342	53.7534
649.995	105.933
654.645	273.958
659.293	940.827
663.938	1461.54
668.581	1739.1
673.221	782.511
677.859	830.773
682.494	2120.89
687.126	2087.98
691.756	587.74
696.384	380.438
701.009	782.007
705.632	500.454
710.252	39.2178
714.869	53.7476
719.484	30.5029
724.097	36.1631
728.707	31.1314
733.314	87.4741
737.919	28.6436
742.521	15.4238
747.121	126.929
751.718	3.83691
756.313	231.347
760.905	614.769
765.494	1216.15
770.081	797.318
774.666	1672.92
779.248	1739.3
783.827	2914.87
788.404	2625.32
792.978	753.814
797.55	771.368
802.119	2405.99
806.685	2169.69
811.249	609.476
815.811	165.373
820.37	8.60352
824.926	18.5405
829.479	135.833
834.031	50.4619
838.579	195.416
843.125	328.522
847.668	408.727
852.209	711.495
856.747	1290.82
861.283	2487.74
865.816	6453.53
870.346	23481.9
874.874	87459
879.399	158915
883.921	35665.8
888.441	10060.1
892.959	5157.69
897.473	3518.5
901.986	2859.8
906.495	2981.67
911.002	5161.05
915.506	12239.9
920.008	12464
924.507	15393.3
929.004	4746.23
933.497	3461.06
937.989	5005.77
942.477	5759.87
946.963	15606
951.446	24868.2
955.927	7008.65
960.405	2156.77
964.881	1056.13
969.353	697.291
973.824	427.662
978.291	400.74
982.756	278.185
987.218	427.1
991.678	718.528
996.135	1250.95
1000.59	1073.32
1005.04	1647.19
1009.49	3227.62
1013.94	5495.43
1018.38	9272.96
1022.82	7188.76
1027.26	2569.75
1031.69	1095.34
1036.13	611.037
1040.56	222.65
1044.99	89.6167
1049.41	168.554
1053.83	61.167
1058.25	16.9541
1062.67	130.38
1067.09	50.9722
1071.5	56.7007
1075.9	23.4326
1080.31	96.5312
1084.71	10.4243
1089.12	93.6899
1093.52	89.8516
1097.91	81.9741
1102.3	13.311
1106.69	34.9297
1111.08	120.795
1115.47	72.4268
1119.85	70.0977
1124.23	47.207
1128.6	79.3701
1132.98	60.9541
1137.35	83.5293
1141.72	21
1146.08	34.667
1150.45	97.4463
1154.81	46.2275
1159.17	10.5479
1163.52	13.9854
1167.87	118.393
1172.22	63.8398
1176.57	48.0547
1180.91	186.773
1185.26	204.512
1189.6	158.657
1193.93	142.661
1198.27	162.739
1202.6	202.199
1206.92	110.87
1211.25	325.954
1215.57	266.31
1219.89	198.163
1224.21	283.36
1228.52	179.625
1232.83	180.606
1237.14	225.908
1241.45	201.086
1245.75	176.132
1250.05	230.042
1254.35	92.5654
1258.65	153.871
1262.94	110.38
1267.23	140.755
1271.52	135.909
1275.8	219.106
1280.08	188.374
1284.36	132.678
1288.64	160.055
1292.91	110.985
1297.18	76.7519
1301.45	76.8711
1305.71	0.364258
1309.97	21.1934
1314.23	111.706
1318.49	37.5635
1322.74	17.3379
1327	192.047
1331.24	149.694
1335.49	109.292
1339.73	94.9443
1343.97	226.487
1348.21	184.996
1352.44	223.507
1356.68	109.083
1360.91	189.894
1365.13	183.096
1369.36	175.904
1373.58	316.668
1377.79	7.42188
1382.01	157.141
1386.22	148.897
1390.43	213.709
1394.64	157.543
1398.84	15.3369
1403.04	75.2647
1407.24	45.2451
1411.44	169.395
1415.63	443.804
1419.82	140.287
1424.01	135.325
1428.19	57.1553
1432.37	2.95117
1436.55	7.17871
1440.73	148.328
1444.9	92.4336
1449.07	77.8799
1453.24	173.019
1457.4	250.296
1461.57	0.858398
1465.72	168.052
1469.88	122.039
1474.04	64.043
1478.19	97.1084
1482.33	207.19
1486.48	21.5732
1490.62	109.765
1494.76	56.3545
1498.9	101.851
1503.03	120.559
1507.16	70.8477
1511.29	9.80176
1515.42	19.9209
1519.54	35.2139
1523.66	97.459
1527.78	69.0742
1531.89	137.898
1536	217.048
1540.11	118.256
1544.21	100.105
1548.32	99.8545
1552.42	220.572
1556.52	73.1699
1560.61	100.047
1564.7	71.999
1568.79	73.0215
1572.88	0.842773
1576.96	0
