Measurement: Raman, 514 nm, depolarized, Raman Data Processed
Mineral: Phillipsite-Ca
Rruff sample: R050078
Ideal chemistry: Ca_3_(Si_10_Al_6_)O_32_12H_2_O
Locality: Grant County, Oregon, USA
Source: Rock Currier
Description: White tabular hexagonal
Measured chemistry: (Ca_0.90_K_0.75_[box]_0.25_Na_0.10_)_Σ=2_(Si_5.35_Al_2.65_)_Σ=8_O_16_·6H_2_O
Pin_id: L00386
Orientation: Laser parallel to a* (1 0 0). Fiducial mark perpendicular to laser is parallel to b [0 1 0]
Raman shift (cm-1)	intensity
273.276	0
276.912	391.441
280.545	229.129
284.178	159.006
287.809	37.6035
291.438	91.959
295.067	66.0215
298.693	214.127
302.319	227.859
305.943	1.91406
309.566	135.451
313.187	259.361
316.807	326.402
320.426	414.728
324.043	471.285
327.659	332.74
331.273	102.869
334.886	82.2109
338.498	141.537
342.108	106.969
345.717	16.2168
349.324	88.8945
352.931	138.908
356.535	85.1172
360.139	13.1035
363.741	144.084
367.341	235.209
370.94	484.365
374.538	476.688
378.135	875.16
381.73	1254.47
385.323	1719.07
388.916	2035.44
392.506	2668.71
396.096	3162.05
399.684	3688.45
403.271	4165.94
406.856	4766.58
410.44	5728.31
414.022	6759.16
417.603	7665.69
421.183	8206.5
424.761	8512.47
428.338	8306.03
431.914	7970.15
435.488	8021.32
439.061	8626.37
442.632	9904.38
446.202	12342.5
449.77	15249.3
453.337	18287.5
456.903	22182.7
460.467	25482.2
464.03	29083.5
467.592	31947.3
471.152	32437.4
474.711	32820
478.268	33465
481.824	31637.7
485.378	28811.9
488.932	24876.2
492.483	20190.5
496.034	15739.3
499.582	12041.2
503.13	9143.04
506.676	7091.41
510.221	5701.25
513.764	4695.1
517.306	4053.96
520.846	3540.82
524.385	3145.69
527.923	2796.57
531.459	2430.57
534.994	2036.89
538.527	1534.09
542.059	1357.28
545.59	817.861
549.119	952.25
552.647	711.144
556.173	326.805
559.698	306.762
563.222	225.75
566.744	228.793
570.264	244.898
573.784	196.947
577.302	67.0039
580.818	9.94141
584.333	23.9453
587.847	89.6973
591.359	10.377
594.87	55.5801
598.379	51.0527
601.887	152.307
605.394	61.0488
608.899	354.885
612.402	20.2363
615.905	78.3691
619.406	310.416
622.905	409.299
626.403	423.273
629.9	561.266
633.395	572.322
636.889	582.369
640.381	426.309
643.872	505.17
647.361	494.91
650.849	590.492
654.336	452.926
657.821	470.361
661.305	488.481
664.787	530.49
668.268	109.592
671.748	138.166
675.226	154.565
678.703	100.416
682.178	302.307
685.652	77.5176
689.124	345.742
692.595	211.772
696.065	289.803
699.533	470.326
702.999	488.842
706.465	601.039
709.929	679.416
713.391	728.635
716.852	939.199
720.311	846.365
723.77	751.57
727.226	771.949
730.681	915.225
734.135	847.131
737.588	1051.51
741.039	1067.92
744.488	1040.06
747.936	1011.88
751.383	1277.57
754.828	1250.74
758.272	1340.11
761.714	1608.8
765.155	1441.53
768.595	1251.25
772.033	1142.76
775.469	974.58
778.904	812.529
782.338	731.844
785.77	709.76
789.201	638.023
792.631	488.285
796.059	494.002
799.485	423.356
802.91	91.3106
806.334	228.461
809.756	157.572
813.177	43.9023
816.596	32.4668
820.014	120.809
823.431	2.35156
826.846	61.1914
830.259	227.754
833.671	79.4453
837.082	26.748
840.491	45.5957
843.899	48.8867
847.306	124.853
850.71	98.5527
854.114	146.424
857.516	147.986
860.917	52.7461
864.316	289.057
867.713	110.549
871.11	128.795
874.505	177.906
877.898	86.7949
881.29	137.545
884.68	60.0352
888.069	51.0742
891.457	173.365
894.843	228.414
898.228	81.8086
901.611	257.481
904.993	158.812
908.373	94.875
911.752	140.656
915.129	118.199
918.505	181.527
921.88	227.641
925.253	67.5273
928.625	135.199
931.995	245.469
935.364	312.703
938.731	331.566
942.097	396.957
945.461	419.508
948.824	420.848
952.186	752.684
955.546	718.719
958.904	659.098
962.261	840.199
965.617	723.59
968.971	790.34
972.324	921.254
975.675	960.281
979.025	1052.23
982.374	1098.23
985.72	1083.36
989.066	1190.21
992.41	1240.47
995.753	1422.45
999.094	1536.16
1002.43	1483.71
1005.77	1394.82
1009.11	1772.01
1012.44	1485.96
1015.78	1596.97
1019.11	1351.72
1022.44	1840.59
1025.77	1798.18
1029.1	2138.57
1032.42	2100.18
1035.75	2418.38
1039.07	2579.02
1042.4	2597.45
1045.72	2451.74
1049.04	2616.47
1052.35	2627.63
1055.67	2627.97
1058.98	3026.77
1062.3	3134.32
1065.61	3371.24
1068.92	3631.95
1072.23	3885.29
1075.54	3942.87
1078.84	3901.58
1082.15	4139.5
1085.45	4307.15
1088.75	4314.15
1092.05	3967.55
1095.35	3956.84
1098.65	4099.7
1101.94	3696.89
1105.24	3733.09
1108.53	3666.14
1111.82	3438.73
1115.11	3219.12
1118.4	3085.09
1121.69	3279.2
1124.97	3042.9
1128.26	2807.28
1131.54	2691.91
1134.82	2586.54
1138.1	2163.59
1141.38	2212.77
1144.66	1889.28
1147.93	1998.48
1151.21	1710.37
1154.48	1297.74
1157.75	1324.75
1161.02	894.652
1164.29	1062.23
1167.55	992.785
1170.82	834.488
1174.08	574.418
1177.34	328.414
1180.61	470.523
1183.86	496.82
1187.12	270.156
1190.38	323.16
1193.63	85.8242
1196.89	127.625
1200.14	35.5234
1203.39	25.5898
1206.64	68.6641
1209.88	229.539
1213.13	18.4688
1216.37	281.598
1219.62	269.57
1222.86	171.566
1226.1	289.617
1229.34	117.644
1232.57	190.301
1235.81	76.2188
1239.04	31.5195
1242.28	230.215
1245.51	22.5117
1248.74	369.074
1251.97	175.441
1255.19	40.7227
1258.42	96.0117
1261.64	100.019
1264.86	40.0312
1268.09	183.422
1271.3	32.0547
1274.52	161.793
1277.74	26.3281
1280.95	146.016
1284.17	18.2383
1287.38	153.781
1290.59	13.1797
1293.8	164.602
1297.01	433.523
1300.21	252.879
1303.42	202.137
1306.62	300.231
1309.82	167.023
1313.02	328.133
1316.22	242.676
1319.42	311.07
1322.61	474.504
1325.81	122.332
1329	388.723
1332.19	73.0781
1335.38	445.293
1338.57	297.992
1341.76	256.742
1344.94	160.688
1348.12	332.82
1351.31	138.82
1354.49	307.406
1357.67	205.406
1360.85	549.129
1364.02	274
1367.2	134.457
1370.37	151.684
1373.54	210.609
1376.71	484.688
1379.88	330.234
1383.05	603.106
1386.22	346.887
1389.38	326.047
1392.54	158.148
1395.7	125.754
1398.87	418.996
1402.02	353.215
1405.18	129.797
1408.34	1.48438
1411.49	2.79297
1414.64	481.703
1417.8	205.984
1420.94	42.5
1424.09	358.731
1427.24	77.9023
1430.38	244.586
1433.53	166.191
1436.67	104.43
1439.81	402.387
1442.95	253.711
1446.09	232.43
1449.23	589.648
1452.36	481
1455.49	261.887
1458.63	426.863
1461.76	204.859
1464.89	284.625
1468.01	34.3203
1471.14	213.703
1474.26	353.559
1477.39	314.293
1480.51	256.078
1483.63	68.9961
1486.75	383.977
1489.86	519.387
1492.98	280.676
1496.09	239.445
1499.21	72.8828
1502.32	216.852
1505.43	311.25
1508.54	157.148
1511.64	164.984
1514.75	149.523
1517.85	43.7148
1520.95	81.8398
1524.05	220.102
1527.15	240.769
1530.25	386.723
1533.35	178.359
1536.44	61.7227
1539.53	218.625
1542.62	379.977
1545.72	89.0703
1548.8	536.461
1551.89	324.762
1554.98	427.598
1558.06	231.789
1561.14	369.816
1564.23	423.301
1567.31	261.234
1570.38	1.28906
