Measurement: Raman, 514 nm, depolarized, Raman Data Processed
Mineral: Phillipsite-Ca
Rruff sample: R050078
Ideal chemistry: Ca_3_(Si_10_Al_6_)O_32_12H_2_O
Locality: Grant County, Oregon, USA
Source: Rock Currier
Description: White tabular hexagonal
Measured chemistry: (Ca_0.90_K_0.75_[box]_0.25_Na_0.10_)_Σ=2_(Si_5.35_Al_2.65_)_Σ=8_O_16_·6H_2_O
Pin_id: L01729
Orientation: Laser parallel to -b* (0 -1 0). Fiducial mark perpendicular to laser is parallel to c [0 0 1]
Raman shift (cm-1)	intensity
267.215	0
270.852	212.35
274.488	142.096
278.123	99.3359
281.756	160.182
285.388	77.8633
289.019	188.478
292.648	232.394
296.276	340.565
299.902	1379.66
303.527	1000.18
307.151	718.348
310.773	735.6
314.394	1163.4
318.013	640.475
321.631	710.014
325.248	551.598
328.864	578.654
332.478	562.014
336.09	269.637
339.701	174.537
343.311	68.1699
346.92	117.566
350.527	34.5391
354.132	162.225
357.737	106.76
361.34	78.8516
364.941	201.871
368.541	250.894
372.14	293.68
375.737	463.885
379.333	838.606
382.928	1083.18
386.521	1338.03
390.113	1652.63
393.703	2132.28
397.292	2355.99
400.88	2812.76
404.466	3413.62
408.051	4192.56
411.634	4766.1
415.216	5774.11
418.797	6520.58
422.376	7290.49
425.954	7132.9
429.53	7031.98
433.105	7114.02
436.679	7369.84
440.251	7995.47
443.822	9546.13
447.391	11612
450.96	14416.6
454.526	17013.4
458.091	20673
461.655	24075.2
465.218	27212.5
468.779	29170.9
472.338	30191.8
475.897	30806.8
479.454	30284.9
483.009	29132.4
486.563	26625.9
490.116	22727.2
493.667	18528.4
497.217	14225.4
500.765	11009.3
504.312	8107.83
507.858	6315.24
511.402	5002.01
514.945	3985.94
518.486	3528.82
522.026	3095.69
525.565	2776.14
529.102	2416.01
532.638	2138.91
536.172	1862
539.705	1333.45
543.236	1280.65
546.766	829.455
550.295	748.846
553.822	777.396
557.348	380.951
560.873	464.602
564.396	420.293
567.917	110.014
571.438	87.6465
574.957	150.195
578.474	88.7285
581.99	250
585.504	157.82
589.018	119.853
592.529	263.266
596.04	17.4844
599.549	12.4922
603.056	78.3164
606.562	92.0469
610.067	103.785
613.57	225.459
617.072	133.967
620.572	116.385
624.071	287.793
627.569	306.234
631.065	196.551
634.56	132.834
638.053	287.133
641.545	455.443
645.035	250.873
648.524	386.125
652.012	212.445
655.498	343.453
658.983	300.102
662.466	391.045
665.948	455.279
669.428	300.695
672.907	31.2715
676.385	294.227
679.861	365.519
683.336	202.168
686.809	268.041
690.281	391.315
693.752	282.754
697.221	465.838
700.688	665.08
704.155	617.504
707.619	532.475
711.083	632.049
714.545	671.846
718.005	960.156
721.464	926.553
724.922	584.648
728.378	880.488
731.833	669.785
735.286	944.531
738.738	978.223
742.189	867.643
745.638	798.688
749.085	1082.33
752.531	963.127
755.976	1170.62
759.419	1342.21
762.861	1285.49
766.302	1092.19
769.741	1150.51
773.178	1094.79
776.614	813.481
780.049	971.723
783.482	599.172
786.914	771.963
790.345	559.479
793.773	468.652
797.201	349.785
800.627	327.213
804.052	196.537
807.475	178.246
810.897	180.232
814.317	127.082
817.736	132.113
821.153	59.666
824.569	121.635
827.984	30.5332
831.397	92.1016
834.808	159.519
838.219	91.0566
841.627	78.8769
845.035	0.970703
848.441	110.607
851.845	23.4043
855.248	59.8965
858.65	55.6738
862.05	87.9688
865.448	287.93
868.846	203.412
872.241	118.453
875.636	26.9141
879.029	96.0996
882.42	216.412
885.81	14.7812
889.199	67.3867
892.586	77.8965
895.971	121.773
899.356	91.584
902.738	162.481
906.12	82.9844
909.5	14.0488
912.878	97.6992
916.255	86.9902
919.63	205.935
923.004	232.551
926.377	244.834
929.748	162.815
933.118	306.525
936.486	401.484
939.853	35.7949
943.218	436.707
946.582	456.666
949.945	388.541
953.306	473.908
956.665	585.879
960.023	624.752
963.38	718.072
966.735	669.223
970.089	895.479
973.441	824.894
976.792	932.029
980.141	1010.74
983.489	963.766
986.836	985.586
990.181	1121.32
993.524	1260.97
996.866	1189.88
1000.21	1399.13
1003.55	1272.81
1006.88	1464.89
1010.22	1654.25
1013.55	1370.81
1016.89	1623.41
1020.22	1863.32
1023.55	1766.59
1026.88	1701.76
1030.21	2197
1033.53	2221.97
1036.86	2077.27
1040.18	1968.74
1043.5	2206.12
1046.82	2400.91
1050.14	2221.61
1053.46	2343.66
1056.78	2448.09
1060.09	2529.4
1063.4	2835.45
1066.71	3005.42
1070.02	3293.71
1073.33	3491.81
1076.64	3405.46
1079.94	3436.76
1083.25	3861.79
1086.55	3671.35
1089.85	3517.75
1093.15	3319.48
1096.45	3786.53
1099.75	3439.18
1103.04	3353.27
1106.34	3323.22
1109.63	3489.61
1112.92	3188.91
1116.21	2885.61
1119.5	2873.7
1122.78	2881.82
1126.07	2926.66
1129.35	2593.75
1132.63	2447.97
1135.92	2386.96
1139.19	2222.72
1142.47	2208.22
1145.75	1768.03
1149.02	1730.1
1152.3	1387.65
1155.57	1303.02
1158.84	1158.84
1162.11	946.699
1165.38	968.668
1168.64	613.348
1171.91	959.465
1175.17	573.723
1178.43	484.641
1181.69	443.672
1184.95	395.789
1188.21	283.227
1191.46	285.574
1194.72	182.766
1197.97	258.879
1201.22	172
1204.47	39.7227
1207.72	256.578
1210.97	58.1211
1214.21	74.5469
1217.46	160.32
1220.7	128.938
1223.94	48.3125
1227.18	1.85547
1230.42	139.465
1233.65	198.578
1236.89	170.598
1240.12	251.656
1243.35	174.269
1246.59	57.0234
1249.81	227.394
1253.04	62.2344
1256.27	51.3203
1259.49	106.18
1262.72	30.4492
1265.94	41.3594
1269.16	26.7461
1272.38	154.695
1275.59	333.875
1278.81	55.2773
1282.03	284.758
1285.24	10.3555
1288.45	129.227
1291.66	209.832
1294.87	261.312
1298.08	179.828
1301.28	355
1304.48	451.656
1307.69	124.371
1310.89	125.133
1314.09	271.535
1317.29	549.961
1320.48	342.371
1323.68	236.785
1326.87	129.176
1330.06	430.742
1333.26	279.648
1336.44	209.418
1339.63	140.582
1342.82	276.727
1346	340.527
1349.19	293.984
1352.37	391.629
1355.55	366.809
1358.73	323.016
1361.9	453.391
1365.08	551.019
1368.26	472.773
1371.43	661.844
1374.6	478.5
1377.77	118.617
1380.94	436.695
1384.11	617.469
1387.27	306.981
1390.43	270.223
1393.6	146.793
1396.76	262.945
1399.92	212.512
1403.08	204.094
1406.23	296.078
1409.39	167.699
1412.54	246.566
1415.69	213.938
1418.85	135.457
1421.99	5.27344
1425.14	194.859
1428.29	425.094
1431.43	255.047
1434.58	186.586
1437.72	384.207
1440.86	152.91
1444	343.117
1447.13	373.414
1450.27	317.941
1453.4	154.391
1456.54	340.66
1459.67	94.3203
1462.8	257.394
1465.93	46.3438
1469.06	336.191
1472.18	234.488
1475.31	239.688
1478.43	285.914
1481.55	178.352
1484.67	269.41
1487.79	200.43
1490.9	360.535
1494.02	8.30078
1497.13	242.644
1500.24	173.902
1503.35	331.688
1506.46	13.6055
1509.57	451.269
1512.68	300.035
1515.78	350.426
1518.88	319.656
1521.99	508.832
1525.09	176.738
1528.18	183.508
1531.28	247.391
1534.38	155.152
1537.47	115.894
1540.56	257.848
1543.66	534.516
1546.74	292.668
1549.83	413.559
1552.92	710.445
1556.01	506.488
1559.09	490.356
1562.17	55.9648
1565.25	161.613
1568.33	156.754
1571.41	0.835938
