Measurement: Raman, 514 nm, depolarized, Raman Data Processed
Mineral: Phillipsite-Ca
Rruff sample: R050078
Ideal chemistry: Ca_3_(Si_10_Al_6_)O_32_12H_2_O
Locality: Grant County, Oregon, USA
Source: Rock Currier
Description: White tabular hexagonal
Measured chemistry: (Ca_0.90_K_0.75_[box]_0.25_Na_0.10_)_Σ=2_(Si_5.35_Al_2.65_)_Σ=8_O_16_·6H_2_O
Pin_id: L00730
Orientation: Laser parallel to -c* (0 0 -1). Fiducial mark perpendicular to laser is parallel to a [1 0 0]
Raman shift (cm-1)	intensity
241.714	0
245.361	1.55469
249.007	71.209
252.651	170.174
256.294	434.289
259.936	795.934
263.576	222.518
267.215	67.3652
270.852	201.111
274.488	145.014
278.123	281.602
281.756	213.16
285.388	270.824
289.019	94.0527
292.648	91.6914
296.276	205.174
299.902	470.299
303.527	225.549
307.151	282.094
310.773	416.209
314.394	276.31
318.013	526.471
321.631	463.578
325.248	379.455
328.864	354.414
332.478	435.478
336.09	179.654
339.701	119.875
343.311	138.334
346.92	137.062
350.527	79.9688
354.132	161.045
357.737	212.818
361.34	27.543
364.941	274.078
368.541	56.0781
372.14	65.1797
375.737	429.584
379.333	560.773
382.928	644.965
386.521	919.191
390.113	1370.65
393.703	1875.85
397.292	2011.12
400.88	2332.24
404.466	2955.01
408.051	3409.15
411.634	4025.03
415.216	4921.27
418.797	5261.94
422.376	5689.31
425.954	5717.67
429.53	5738.56
433.105	5484.15
436.679	5794.42
440.251	6306.22
443.822	7377.53
447.391	9068.31
450.96	11339.8
454.526	13847.2
458.091	16601
461.655	19625.3
465.218	22168.6
468.779	23769.9
472.338	24814.5
475.897	25022
479.454	24986.9
483.009	23582.3
486.563	21391.4
490.116	18199.9
493.667	14818.1
497.217	11517
500.765	8218.98
504.312	6327.12
507.858	4835.79
511.402	3713.64
514.945	3023.69
518.486	2775.44
522.026	2364.28
525.565	2101.17
529.102	1750.56
532.638	1640.81
536.172	1474.67
539.705	1145.24
543.236	895.449
546.766	681.961
550.295	462.988
553.822	675.828
557.348	439.672
560.873	163.832
564.396	197.914
567.917	100.473
571.438	225.09
574.957	185.512
578.474	82.8867
581.99	9.42969
585.504	31.8672
589.018	92.9609
592.529	167.945
596.04	111.723
599.549	141.34
603.056	23.0859
606.562	23.4102
610.067	112.227
613.57	175.195
617.072	158.519
620.572	23.1211
624.071	256.289
627.569	258.684
631.065	413.106
634.56	44.2812
638.053	360.402
641.545	17.3008
645.035	163.316
648.524	72.3828
652.012	406.008
655.498	189.91
658.983	124.117
662.466	277.773
665.948	51.3086
669.428	306.199
672.907	234.023
676.385	53.7344
679.861	174.406
683.336	60.6016
686.809	241.894
690.281	407.43
693.752	243.613
697.221	191.852
700.688	395.523
704.155	369.711
707.619	188.523
711.083	486.371
714.545	527.852
718.005	377.445
721.464	629.758
724.922	444.148
728.378	557.863
731.833	552.285
735.286	643.656
738.738	473.594
742.189	699.648
745.638	827.246
749.085	849.312
752.531	780.473
755.976	998.406
759.419	798.988
762.861	854.523
766.302	742.465
769.741	788.773
773.178	439.426
776.614	874.207
780.049	501.602
783.482	509.644
786.914	267.695
790.345	378.504
793.773	368.043
797.201	216.109
800.627	214.621
804.052	279.199
807.475	272.234
810.897	202.348
814.317	148.086
817.736	31.3516
821.153	45.418
824.569	258.641
827.984	254.582
831.397	50.6484
834.808	267.453
838.219	226.676
841.627	153.398
845.035	235.445
848.441	160.219
851.845	229.551
855.248	230.359
858.65	457.965
862.05	367.414
865.448	183.707
868.846	109.824
872.241	393.422
875.636	401.602
879.029	258.199
882.42	645.609
885.81	292.828
889.199	161.852
892.586	121.309
895.971	153.059
899.356	35.1758
902.738	18.0742
906.12	243.75
909.5	25.2461
912.878	111.418
916.255	37.5703
919.63	72.3867
923.004	121.969
926.377	344.633
929.748	37.1914
933.118	10.2812
936.486	149.023
939.853	238.047
943.218	476.289
946.582	434.144
949.945	365.887
953.306	210.961
956.665	585.359
960.023	620.422
963.38	375.965
966.735	536.547
970.089	571.531
973.441	578.113
976.792	666.109
980.141	606.816
983.489	711.144
986.836	713.914
990.181	656.465
993.524	582.676
996.866	825.707
1000.21	989.938
1003.55	1052.31
1006.88	938.738
1010.22	954.344
1013.55	1023.18
1016.89	1175.19
1020.22	1189.41
1023.55	1516.84
1026.88	1368.32
1030.21	1688.39
1033.53	1531.98
1036.86	1531.19
1040.18	1443.8
1043.5	1760.15
1046.82	1821.26
1050.14	1855.18
1053.46	1774.55
1056.78	1988.43
1060.09	1930.46
1063.4	2070.11
1066.71	2335.81
1070.02	2350.19
1073.33	2337.81
1076.64	2629.7
1079.94	3095.84
1083.25	2746.72
1086.55	3107.12
1089.85	2809.72
1093.15	2643.32
1096.45	2790.23
1099.75	2799.73
1103.04	2997.52
1106.34	2443.87
1109.63	2508.57
1112.92	2264.36
1116.21	2340.82
1119.5	2337.68
1122.78	2391.7
1126.07	2288.76
1129.35	2159.57
1132.63	1903.55
1135.92	1750.8
1139.19	1740.86
1142.47	1912.25
1145.75	1251.75
1149.02	1227.06
1152.3	1193.96
1155.57	1032.23
1158.84	925.406
1162.11	582.906
1165.38	1065.26
1168.64	635.598
1171.91	662.856
1175.17	536.348
1178.43	31.1016
1181.69	147.144
1184.95	310.633
1188.21	364.199
1191.46	297.188
1194.72	275.426
1197.97	40.9766
1201.22	53.7656
1204.47	131.762
1207.72	24.9648
1210.97	227.371
1214.21	81.9102
1217.46	231.566
1220.7	134.262
1223.94	259.051
1227.18	279.016
1230.42	30.0664
1233.65	645.246
1236.89	286.59
1240.12	335.074
1243.35	330.027
1246.59	192.707
1249.81	268.535
1253.04	132.566
1256.27	208.062
1259.49	129.613
1262.72	259.875
1265.94	158.582
1269.16	13.3789
1272.38	225.144
1275.59	126.762
1278.81	90.5039
1282.03	420.144
1285.24	247.129
1288.45	38.3203
1291.66	13.0977
1294.87	283.574
1298.08	386.32
1301.28	270.188
1304.48	159.191
1307.69	211.328
1310.89	99.6016
1314.09	245.988
1317.29	267.469
1320.48	592.109
1323.68	357.914
1326.87	63.8086
1330.06	221.777
1333.26	223.418
1336.44	179.926
1339.63	374.117
1342.82	264.906
1346	168.598
1349.19	292.641
1352.37	342.09
1355.55	439.586
1358.73	415.926
1361.9	158.637
1365.08	645.246
1368.26	53.1016
1371.43	259.988
1374.6	516.852
1377.77	54.832
1380.94	183.594
1384.11	559.773
1387.27	513.062
1390.43	126.562
1393.6	192.668
1396.76	99.168
1399.92	23.2578
1403.08	332.312
1406.23	460.5
1409.39	69.6641
1412.54	110.824
1415.69	215.68
1418.85	71.1484
1421.99	592.684
1425.14	35.1484
1428.29	424.336
1431.43	401.965
1434.58	262.102
1437.72	335.84
1440.86	277.113
1444	683.539
1447.13	572.418
1450.27	497.191
1453.4	445.625
1456.54	698.152
1459.67	413.867
1462.8	398.961
1465.93	419.273
1469.06	369.828
1472.18	618.406
1475.31	629.273
1478.43	220.66
1481.55	525.922
1484.67	473.43
1487.79	461.117
1490.9	373.824
1494.02	375.535
1497.13	335.219
1500.24	487.144
1503.35	564.312
1506.46	419.688
1509.57	364.238
1512.68	353.828
1515.78	504.981
1518.88	494.777
1521.99	312.297
1525.09	520.848
1528.18	383.277
1531.28	442.262
1534.38	394.781
1537.47	478.231
1540.56	173.977
1543.66	263.668
1546.74	359.793
1549.83	287.914
1552.92	219.719
1556.01	156.019
1559.09	98.3203
1562.17	48.9766
1565.25	12.1641
1568.33	3.02344
1571.41	0
