Measurement: Raman, 514 nm, depolarized, Raman Data Processed
Mineral: Phillipsite-Ca
Rruff sample: R050078
Ideal chemistry: Ca_3_(Si_10_Al_6_)O_32_12H_2_O
Locality: Grant County, Oregon, USA
Source: Rock Currier
Description: White tabular hexagonal
Measured chemistry: (Ca_0.90_K_0.75_[box]_0.25_Na_0.10_)_Σ=2_(Si_5.35_Al_2.65_)_Σ=8_O_16_·6H_2_O
Pin_id: L01141
Orientation: Laser parallel to (1 0 1). Fiducial mark perpendicular to laser is parallel to -b [0 -1 0]
Raman shift (cm-1)	intensity
273.276	0
276.912	97.7852
280.545	104.117
284.178	172.273
287.809	180.565
291.438	14.209
295.067	341.377
298.693	43.3438
302.319	33.2539
305.943	150.988
309.566	250.098
313.187	317.459
316.807	475.469
320.426	390.166
324.043	421.098
327.659	306.816
331.273	235.123
334.886	165.898
338.498	221.113
342.108	36.7891
345.717	57.9824
349.324	94.793
352.931	333.188
356.535	76.5684
360.139	273.85
363.741	191.537
367.341	293.49
370.94	555.629
374.538	461.918
378.135	897.303
381.73	1143.37
385.323	1291.96
388.916	2003.41
392.506	2949.02
396.096	2970.83
399.684	3437.06
403.271	4034.09
406.856	5054.84
410.44	6128.23
414.022	7389.4
417.603	8441.46
421.183	9401.3
424.761	9210.08
428.338	8565.69
431.914	8142.12
435.488	7728.9
439.061	8201.69
442.632	8999.65
446.202	10705.4
449.77	12931.1
453.337	15610.7
456.903	18840.6
460.467	22414.8
464.03	25529.8
467.592	28071.6
471.152	30257.3
474.711	31808.8
478.268	32564.1
481.824	32408.2
485.378	30592
488.932	27152.3
492.483	22503.7
496.034	17626.5
499.582	13293.1
503.13	9929.53
506.676	7424.83
510.221	5795.31
513.764	4828.99
517.306	4237.69
520.846	3577.4
524.385	3336.35
527.923	2981.85
531.459	2407.05
534.994	2111.13
538.527	1770.43
542.059	1234.62
545.59	974.934
549.119	954.084
552.647	564.037
556.173	537.66
559.698	268.5
563.222	308.654
566.744	34.4121
570.264	60.8008
573.784	214.369
577.302	171.904
580.818	92.6367
584.333	65.5234
587.847	75.2969
591.359	110.012
594.87	179.617
598.379	60.8867
601.887	394.424
605.394	60.6719
608.899	55.4941
612.402	289.893
615.905	144.93
619.406	548.904
622.905	384.828
626.403	585.752
629.9	459.68
633.395	297.658
636.889	242.69
640.381	498.652
643.872	419.549
647.361	384.328
650.849	454.023
654.336	535.559
657.821	365
661.305	254.522
664.787	144.07
668.268	211.978
671.748	38.707
675.226	152.285
678.703	73.0098
682.178	14.4492
685.652	52.7754
689.124	136.81
692.595	144.059
696.065	210.883
699.533	195.197
702.999	302.949
706.465	389.326
709.929	403.959
713.391	583.096
716.852	550.231
720.311	517.144
723.77	596.877
727.226	766.82
730.681	947.41
734.135	804.635
737.588	696.729
741.039	879.66
744.488	833.102
747.936	841.818
751.383	1006.16
754.828	1065.6
758.272	1395.58
761.714	1398.16
765.155	1423.44
768.595	1422.85
772.033	1275.49
775.469	1346.91
778.904	1202.65
782.338	914.527
785.77	845.148
789.201	755.988
792.631	699.652
796.059	489.076
799.485	108.953
802.91	623.033
806.334	275.685
809.756	41.8145
813.177	113.523
816.596	200.447
820.014	78.9863
823.431	144.268
826.846	156.123
830.259	54.6523
833.671	56.4941
837.082	129.147
840.491	13.418
843.899	82.1406
847.306	245.685
850.71	91.5684
854.114	209.07
857.516	155.275
860.917	538.316
864.316	254.098
867.713	147.59
871.11	332.781
874.505	237.693
877.898	230.332
881.29	115.606
884.68	39.4316
888.069	74.8711
891.457	64.2481
894.843	197.973
898.228	266.359
901.611	23.5293
904.993	117.154
908.373	213.486
911.752	29.5234
915.129	211.219
918.505	65.4141
921.88	110.394
925.253	252.242
928.625	44.6172
931.995	77.3164
935.364	221.891
938.731	180.371
942.097	485.469
945.461	492.238
948.824	466.695
952.186	569.684
955.546	563.859
958.904	434.062
962.261	630.481
965.617	615.574
968.971	597.551
972.324	677.473
975.675	828.106
979.025	827.164
982.374	795.617
985.72	738.16
989.066	872.562
992.41	794.93
995.753	948.621
999.094	1315.89
1002.43	1642.96
1005.77	1439.66
1009.11	1386.1
1012.44	1453.07
1015.78	1399.69
1019.11	1551.11
1022.44	1890.88
1025.77	1786.01
1029.1	2158.13
1032.42	2067.32
1035.75	2125.39
1039.07	2183.54
1042.4	2548.05
1045.72	2370.12
1049.04	2154.5
1052.35	2166.84
1055.67	2713.7
1058.98	2939.33
1062.3	3283.04
1065.61	3393.11
1068.92	3538.26
1072.23	3891.69
1075.54	3882.28
1078.84	4001.27
1082.15	4198.36
1085.45	4473.88
1088.75	4419.97
1092.05	4277.92
1095.35	4240.16
1098.65	4155.68
1101.94	4231.52
1105.24	4002.58
1108.53	3987.71
1111.82	3824.65
1115.11	3569.91
1118.4	3279.41
1121.69	3622.3
1124.97	3309.18
1128.26	3223.3
1131.54	2841.57
1134.82	2684.03
1138.1	2756.76
1141.38	2208.75
1144.66	2316.93
1147.93	2061.34
1151.21	1791.98
1154.48	1533.87
1157.75	1584.86
1161.02	1097.82
1164.29	1061.33
1167.55	966.148
1170.82	814.172
1174.08	434.402
1177.34	680.828
1180.61	441.473
1183.86	102.301
1187.12	224.352
1190.38	391.59
1193.63	52.0195
1196.89	100.625
1200.14	131.375
1203.39	246.238
1206.64	35.7891
1209.88	63.0273
1213.13	127.519
1216.37	15.1289
1219.62	126.277
1222.86	67.6406
1226.1	199.934
1229.34	209.754
1232.57	118.293
1235.81	233.875
1239.04	241.41
1242.28	11.8203
1245.51	263.414
1248.74	304.055
1251.97	73.7969
1255.19	193.5
1258.42	381.434
1261.64	222.172
1264.86	161.473
1268.09	307.898
1271.3	251.121
1274.52	578.258
1277.74	505.359
1280.95	335.394
1284.17	169.215
1287.38	66.7578
1290.59	82.3398
1293.8	51.1602
1297.01	186.566
1300.21	269.215
1303.42	618.664
1306.62	392.523
1309.82	450.973
1313.02	611.285
1316.22	394.555
1319.42	626.731
1322.61	650.789
1325.81	406.742
1329	391.644
1332.19	480.332
1335.38	324.113
1338.57	361.637
1341.76	157.156
1344.94	320.172
1348.12	172.426
1351.31	343.621
1354.49	239.078
1357.67	82.6797
1360.85	157.184
1364.02	301.457
1367.2	93.4727
1370.37	195.836
1373.54	262.551
1376.71	287.453
1379.88	432.199
1383.05	509.539
1386.22	141.266
1389.38	245.914
1392.54	24.875
1395.7	370.688
1398.87	185.441
1402.02	178.75
1405.18	450.981
1408.34	454.129
1411.49	352.227
1414.64	269.984
1417.8	427.586
1420.94	75.8711
1424.09	226.934
1427.24	25.6367
1430.38	193.981
1433.53	289.945
1436.67	538.574
1439.81	505.512
1442.95	589.082
1446.09	730.574
1449.23	687.562
1452.36	970.043
1455.49	761.867
1458.63	679.086
1461.76	884.758
1464.89	491.656
1468.01	371.879
1471.14	406.066
1474.26	366.477
1477.39	393.527
1480.51	217.613
1483.63	256.754
1486.75	125.266
1489.86	259.586
1492.98	386.707
1496.09	365.566
1499.21	241.371
1502.32	389.082
1505.43	166.398
1508.54	55.3711
1511.64	49.3086
1514.75	317.727
1517.85	190.988
1520.95	92.0703
1524.05	412.371
1527.15	523.121
1530.25	300.285
1533.35	389.984
1536.44	499.602
1539.53	589.188
1542.62	542.106
1545.72	316.555
1548.8	535.336
1551.89	524.07
1554.98	525.938
1558.06	299.426
1561.14	0.980469
1564.23	171.902
1567.31	194.797
1570.38	415.805
