Measurement: Raman, 514 nm, depolarized, Raman Data Processed
Mineral: Polylithionite
Rruff sample: R050132
Ideal chemistry: KLi_2_AlSi_4_O_10_F_2_
Locality: Brown Derby mine, Ohio City, Gunnison County, Colorado, USA
Source: Dave Bunk Minerals
Description: Purple scaly aggregate, polytype 2M1
Measured chemistry: (K_0.90_Rb_0.10_)(Li_0.62_Al_0.38_)_3_(Si_0.93_Al_0.07_)_4_O_10_(F_0.69_(OH)_0.31_)_2_
Pin_id: M00149
Orientation: Laser parallel to -b* (0 -1 0). Fiducial mark perpendicular to laser is parallel to -c [0 0 -1]
Raman shift (cm-1)	intensity
126.749	0
131.668	52.8027
136.585	64.8047
141.5	149.639
146.412	130.041
151.321	295.197
156.229	593.67
161.134	1269.07
166.036	2987.3
170.936	5375.05
175.834	7907.45
180.729	9134.87
185.622	8438.86
190.512	7052.34
195.4	6241.54
200.286	4968.28
205.169	3797.44
210.049	3713.97
214.928	3701.74
219.803	3273.04
224.677	3405.96
229.548	4474.53
234.416	5744.76
239.282	7225.78
244.146	8565.41
249.007	10210.9
253.866	13716.3
258.722	17658.7
263.576	15307.9
268.427	9445.95
273.276	5214.51
278.123	3061.33
282.967	1965.92
287.809	1518.6
292.648	1324.47
297.485	951.146
302.319	989.832
307.151	720.576
311.98	571.07
316.807	351.236
321.631	559.732
326.454	359.707
331.273	215.922
336.09	164.213
340.905	153.539
345.717	183.66
350.527	185.672
355.334	65.2832
360.139	30.0977
364.941	472.621
369.741	497.523
374.538	1132.34
379.333	1280.23
384.126	1614.79
388.916	1687.01
393.703	2164.92
398.488	2465.63
403.271	2717.14
408.051	2445.45
412.828	1556.59
417.603	1500.56
422.376	910.535
427.146	822.562
431.914	421.586
436.679	640.516
441.442	160.316
446.202	400.949
450.96	317.394
455.715	456.644
460.467	483.668
465.218	707.461
469.965	705.016
474.711	650.312
479.454	328.356
484.194	71.7812
488.932	120.008
493.667	61.8633
498.4	1.07031
503.13	343.516
507.858	125.121
512.583	81.5273
517.306	201.625
522.026	339.609
526.744	279.644
531.459	675.781
536.172	653.973
540.882	944.394
545.59	1119.39
550.295	1507.77
554.998	1823.44
559.698	2110.57
564.396	2215.71
569.091	1513.75
573.784	1121.66
578.474	671.441
583.162	460.012
587.847	422.523
592.529	488.91
597.209	650.164
601.887	814.289
606.562	1083.28
611.235	1072.14
615.905	1529.88
620.572	1689.54
625.237	1694.46
629.9	1272.52
634.56	1327.92
639.217	1050.03
643.872	1156.97
648.524	1130.77
653.174	1068.04
657.821	1020.75
662.466	869.152
667.108	1046.56
671.748	1338.25
676.385	1741.65
681.02	2487.37
685.652	3766.26
690.281	5458.97
694.908	8766.22
699.533	13376
704.155	19573.1
708.774	23674
713.391	19188.7
718.005	11235.1
722.617	5686.34
727.226	3604.41
731.833	2163.3
736.437	1904
741.039	1920.52
745.638	2359.86
750.234	2173
754.828	1957.19
759.419	1685.11
764.008	1076.68
768.595	886.121
773.178	651.801
777.759	656.594
782.338	245.254
786.914	327.414
791.488	598.582
796.059	104.078
800.627	192.894
805.193	61.2344
809.756	6.875
814.317	10.375
818.875	248.32
823.431	54.6289
827.984	143.008
832.534	123.293
837.082	45.0898
841.627	113.297
846.17	296.348
850.71	720.613
855.248	581.656
859.783	814.473
864.316	523.07
868.846	310.449
873.373	182.633
877.898	380.609
882.42	126.391
886.94	212.984
891.457	3.38672
895.971	275.457
900.483	578.328
904.993	227.031
909.5	351.574
914.004	666.953
918.505	118.82
923.004	417.016
927.501	52.4141
931.995	117.953
936.486	57.6602
940.975	228.656
945.461	395.129
949.945	180.816
954.426	432.469
958.904	614.406
963.38	101.773
967.853	261.981
972.324	474.254
976.792	150.004
981.258	393.539
985.72	606.219
990.181	667
994.639	590.918
999.094	1043.96
1003.55	931.133
1008	928.445
1012.44	752.906
1016.89	1076.53
1021.33	1001.3
1025.77	682.242
1030.21	625.988
1034.64	738.301
1039.07	855.812
1043.5	1038.15
1047.93	1637.32
1052.35	1971
1056.78	2133.86
1061.19	2229.68
1065.61	2198.69
1070.02	1915.51
1074.43	1613.04
1078.84	2047.98
1083.25	1923.81
1087.65	2252.99
1092.05	2245.59
1096.45	1994.08
1100.85	2385.97
1105.24	2796.68
1109.63	2785.74
1114.02	2934.01
1118.4	3087.48
1122.78	3552.14
1127.16	3721.58
1131.54	4091.65
1135.92	4068.93
1140.29	3380.4
1144.66	1753.09
1149.02	842.969
1153.39	599.051
1157.75	329.344
1162.11	438.93
1166.46	222.719
1170.82	360.883
1175.17	287.254
1179.52	28.2031
1183.86	308.922
1188.21	55.5508
1192.55	100.789
1196.89	35.5078
1201.22	122.875
1205.55	216.535
1209.88	20.6797
1214.21	334.715
1218.54	23.1094
1222.86	362.16
1227.18	102.57
1231.5	209.004
1235.81	255.473
1240.12	480.078
1244.43	220.809
1248.74	395.785
1253.04	0.058594
1257.34	146.484
1261.64	280.137
1265.94	763.816
1270.23	722.914
1274.52	597.137
1278.81	193.496
1283.1	180.008
1287.38	317.644
1291.66	344.418
1295.94	312.644
1300.21	517.68
1304.48	744.809
1308.75	749.516
1313.02	509.898
1317.29	856.809
1321.55	673.894
1325.81	402.879
1330.06	459.648
1334.32	336.852
1338.57	280.707
1342.82	276.535
1347.06	211.398
1351.31	406.164
1355.55	265.168
1359.79	310.781
1364.02	150.727
1368.26	505.176
1372.49	248.316
1376.71	522.172
1380.94	239.379
1385.16	267.723
1389.38	493.269
1393.6	314.754
1397.81	259.562
1402.02	259.082
1406.23	177.551
1410.44	229.519
1414.64	437.445
1418.85	74.4219
1423.04	184.613
1427.24	473.844
1431.43	564.91
1435.62	898.637
1439.81	1099.6
1444	1503.99
1448.18	1380.29
1452.36	1745.75
1456.54	1360.52
1460.71	1294.34
1464.89	1284.68
1469.06	1025.68
1473.22	810.246
1477.39	827.844
1481.55	622.574
1485.71	348.336
1489.86	389.242
1494.02	278.559
1498.17	32.3398
1502.32	341.703
1506.46	230.848
1510.61	204.871
1514.75	323.856
1518.88	398.582
1523.02	173.918
1527.15	334.875
1531.28	580.574
1535.41	489.996
1539.53	320.836
1543.66	349.359
1547.78	281.672
1551.89	525.742
1556.01	519.144
1560.12	205.109
1564.23	213.957
1568.33	331.676
1572.43	0
