Measurement: Raman, 514 nm, depolarized, Raman Data Processed
Mineral: Polylithionite
Rruff sample: R050132
Ideal chemistry: KLi_2_AlSi_4_O_10_F_2_
Locality: Brown Derby mine, Ohio City, Gunnison County, Colorado, USA
Source: Dave Bunk Minerals
Description: Purple scaly aggregate, polytype 2M1
Measured chemistry: (K_0.90_Rb_0.10_)(Li_0.62_Al_0.38_)_3_(Si_0.93_Al_0.07_)_4_O_10_(F_0.69_(OH)_0.31_)_2_
Pin_id: L01426
Orientation: Laser parallel to -a* (-1 0 0). Fiducial mark perpendicular to laser is parallel to -b [0 -1 0]
Raman shift (cm-1)	intensity
157.455	0
162.359	27.4375
167.261	1181.48
172.161	3621.84
177.058	6761.56
181.952	8369.8
186.845	7461.11
191.734	6491.53
196.622	5927.65
201.507	4530.63
206.389	3018.21
211.269	2688.64
216.147	2657.45
221.022	2097.89
225.895	2174.94
230.765	3183.53
235.633	4491.71
240.498	5869.7
245.361	7653.63
250.222	9941.07
255.08	13954.4
259.936	19875.6
264.789	18647.9
269.64	10898.8
274.488	5665.84
279.334	2989.61
284.178	1886.46
289.019	1127.23
293.857	820.934
298.693	582.592
303.527	615.922
308.358	242.033
313.187	200.965
318.013	43.3906
322.837	102.902
327.659	188.797
332.478	87.8633
337.294	12.0059
342.108	260.09
346.92	420.74
351.729	313.199
356.535	63.7383
361.34	177.883
366.141	408.971
370.94	844.781
375.737	1379.06
380.531	1678
385.323	2154.44
390.113	2812.32
394.9	3062.08
399.684	3731.22
404.466	4177.43
409.245	3787.46
414.022	2846.85
418.797	2087.61
423.569	1738.75
428.338	1276.28
433.105	1288.24
437.87	1167.65
442.632	1252.53
447.391	1337.92
452.149	1136
456.903	1077.56
461.655	1133.79
466.405	1105.7
471.152	1070.57
475.897	1329.07
480.639	1157.4
485.378	749.373
490.116	522.49
494.85	82.4414
499.582	45.9531
504.312	180.109
509.039	36.5391
513.764	58.416
518.486	318.623
523.206	706.91
527.923	746.775
532.638	692.262
537.35	631.443
542.059	993.527
546.766	1394.62
551.471	1819.93
556.173	2279.81
560.873	2424.89
565.57	2672.28
570.264	1928.32
574.957	1499.34
579.646	788.387
584.333	579.543
589.018	254.764
593.7	433.99
598.379	437.217
603.056	655.688
607.73	918.555
612.402	1250.67
617.072	1134.33
621.739	1408.46
626.403	1467.68
631.065	1417.56
635.724	1747.64
640.381	1347.77
645.035	984.053
649.687	682.047
654.336	1135.61
658.983	1257.66
663.627	1197.83
668.268	1183.88
672.907	1667.63
677.544	2049.77
682.178	3254.77
686.809	4621.18
691.438	6846.12
696.065	10282.6
700.688	15727.2
705.31	23519.1
709.929	29739
714.545	24597.7
719.158	13798
723.77	7099.69
728.378	4470.53
732.984	3002.91
737.588	2759.1
742.189	2674.26
746.787	3271.85
751.383	3583.08
755.976	3232.19
760.567	2637.15
765.155	2131.45
769.741	1399.55
774.324	1193.21
778.904	1052.88
783.482	926.562
788.058	764.514
792.631	914.039
797.201	635.805
801.769	361.988
806.334	257.75
810.897	63.7305
815.457	104.953
820.014	29.2266
824.569	26.4922
829.122	186.641
833.671	102.359
838.219	175.453
842.763	198.426
847.306	55.7031
851.845	3.6875
856.382	71.2148
860.917	7.78516
865.448	57.4844
869.978	254.441
874.505	112.336
879.029	4.49219
883.55	43.3242
888.069	45.5859
892.586	13.6406
897.1	80.168
901.611	397.043
906.12	473.309
910.626	254.981
915.129	458.09
919.63	520.625
924.129	368.672
928.625	459.316
933.118	561.641
937.609	384.582
942.097	217.336
946.582	637.199
951.065	623.254
955.546	517.488
960.023	733.57
964.499	673.414
968.971	984.086
973.441	910.09
977.909	1008.9
982.374	983.875
986.836	885.559
991.295	917.93
995.753	960.07
1000.21	1091.04
1004.66	803.961
1009.11	1089.76
1013.55	1141.96
1018	1313.97
1022.44	1245.45
1026.88	948.402
1031.32	1094.14
1035.75	1006.58
1040.18	1490.26
1044.61	1798.25
1049.04	2038.27
1053.46	2756.44
1057.88	3002.52
1062.3	2740.22
1066.71	2774.45
1071.13	2631.18
1075.54	2433.74
1079.94	2282.73
1084.35	2504.84
1088.75	2390.24
1093.15	2288.99
1097.55	2681.63
1101.94	2494.46
1106.34	2815.4
1110.73	2905.48
1115.11	3296.31
1119.5	3878.82
1123.88	4066.86
1128.26	4230.32
1132.63	4618.34
1137.01	4603.81
1141.38	3607.27
1145.75	1647.48
1150.12	961.406
1154.48	517.098
1158.84	303.68
1163.2	557.844
1167.55	66.1523
1171.91	305.133
1176.26	200.289
1180.61	266.516
1184.95	136.223
1189.29	219.191
1193.63	131.848
1197.97	408.383
1202.31	48.3594
1206.64	129.219
1210.97	62.0508
1215.29	254.004
1219.62	363.168
1223.94	16.0898
1228.26	142.84
1232.57	173.551
1236.89	95.8672
1241.2	90.0586
1245.51	377.398
1249.81	103.652
1254.12	277.723
1258.42	252.504
1262.72	375.438
1267.01	165.203
1271.3	131.191
1275.59	58.3945
1279.88	28.3867
1284.17	116.746
1288.45	107.527
1292.73	332.059
1297.01	261.125
1301.28	454.434
1305.55	514.996
1309.82	439.387
1314.09	381.027
1318.35	152.148
1322.61	246.363
1326.87	396.547
1331.13	261.078
1335.38	290.746
1339.63	380.758
1343.88	495.488
1348.12	348.945
1352.37	605.672
1356.61	326.871
1360.85	485.215
1365.08	374.731
1369.31	374.316
1373.54	308.992
1377.77	220.59
1381.99	237.82
1386.22	294.894
1390.43	618.426
1394.65	53.5898
1398.87	215.812
1403.08	346.676
1407.29	115.305
1411.49	128.32
1415.69	276.898
1419.89	381.312
1424.09	259.617
1428.29	185.055
1432.48	506.734
1436.67	326.277
1440.86	187.68
1445.04	266.664
1449.23	288.188
1453.4	40.043
1457.58	429.547
1461.76	504.18
1465.93	236.543
1470.1	159.039
1474.26	160.223
1478.43	218.316
1482.59	9.81641
1486.75	365.723
1490.9	218.332
1495.06	154.41
1499.21	253.055
1503.35	383.168
1507.5	337.207
1511.64	75.5664
1515.78	318.965
1519.92	451.562
1524.05	398.434
1528.18	247.297
1532.31	505.172
1536.44	250.227
1540.56	338.195
1544.69	384.867
1548.8	115.41
1552.92	456.734
1557.03	418.953
1561.14	0.585938
1565.25	244.906
1569.36	0.589844
