Measurement: Raman, 514 nm, depolarized, Raman Data Processed
Mineral: Polylithionite
Rruff sample: R050132
Ideal chemistry: KLi_2_AlSi_4_O_10_F_2_
Locality: Brown Derby mine, Ohio City, Gunnison County, Colorado, USA
Source: Dave Bunk Minerals
Description: Purple scaly aggregate, polytype 2M1
Measured chemistry: (K_0.90_Rb_0.10_)(Li_0.62_Al_0.38_)_3_(Si_0.93_Al_0.07_)_4_O_10_(F_0.69_(OH)_0.31_)_2_
Pin_id: L00606
Orientation: Laser parallel to (1 0 1). Fiducial mark perpendicular to laser is parallel to -b [0 -1 0]
Raman shift (cm-1)	intensity
157.455	0
162.359	67.2559
167.261	1389.47
172.161	3875.77
177.058	7493.95
181.952	8461.93
186.845	6920.47
191.734	6031.67
196.622	5208.14
201.507	3591.7
206.389	2388.51
211.269	2428.47
216.147	2237.8
221.022	1845.85
225.895	2300.21
230.765	3499.62
235.633	4712.84
240.498	6617
245.361	8538.11
250.222	11315.9
255.08	16009.8
259.936	21613.7
264.789	19017
269.64	11127.8
274.488	5698.41
279.334	3060.59
284.178	1929.51
289.019	1063.95
293.857	857.97
298.693	586.635
303.527	566.233
308.358	278.644
313.187	129.998
318.013	79.2656
322.837	216.019
327.659	274.943
332.478	32.0674
337.294	145.621
342.108	241.154
346.92	363.822
351.729	370.997
356.535	162.828
361.34	87.7969
366.141	519.273
370.94	920.519
375.737	1442.2
380.531	2090.42
385.323	2766.07
390.113	3385.12
394.9	3744.53
399.684	4207.7
404.466	4257.21
409.245	3660
414.022	2691.13
418.797	1937.63
423.569	1373.51
428.338	1300.8
433.105	1149.54
437.87	1231.62
442.632	1131.75
447.391	1021.68
452.149	1032.34
456.903	857.859
461.655	954.135
466.405	931.291
471.152	1115.21
475.897	1072.23
480.639	803.525
485.378	555.309
490.116	142.731
494.85	85.7461
499.582	124.398
504.312	109.152
509.039	181.688
513.764	428.342
518.486	680.195
523.206	625.731
527.923	589.981
532.638	480.002
537.35	596.959
542.059	707.262
546.766	957.193
551.471	1469.43
556.173	2054.46
560.873	2389.07
565.57	2113.33
570.264	1690.07
574.957	1212.14
579.646	625.438
584.333	310.955
589.018	39.8066
593.7	405.057
598.379	353.623
603.056	682.742
607.73	974.285
612.402	1167.23
617.072	1426.8
621.739	1725.25
626.403	2184.38
631.065	2447.62
635.724	2662
640.381	2037.96
645.035	1644.84
649.687	1162.41
654.336	1279.36
658.983	1193.63
663.627	1227.21
668.268	1518.01
672.907	1718
677.544	2249.41
682.178	3494.62
686.809	5026.46
691.438	7342.16
696.065	11351
700.688	17508.3
705.31	26446.7
709.929	33549.3
714.545	26714.7
719.158	15046.1
723.77	7803.66
728.378	4764.51
732.984	3260.45
737.588	2646.93
742.189	2776.92
746.787	3219.02
751.383	3322.95
755.976	2861.48
760.567	2409.45
765.155	1713.98
769.741	1264.85
774.324	962.871
778.904	811.846
783.482	840.738
788.058	742.213
792.631	750.125
797.201	425.519
801.769	256.619
806.334	148.356
810.897	54.7793
815.457	16.875
820.014	136.231
824.569	5.99219
829.122	179.658
833.671	141.109
838.219	141.201
842.763	65.8848
847.306	50.7285
851.845	188.486
856.382	99.3769
860.917	16.3633
865.448	66.8027
869.978	66.8398
874.505	70.4434
879.029	26.7441
883.55	83.9746
888.069	70.8164
892.586	50.1465
897.1	96.2305
901.611	148.387
906.12	453.682
910.626	530.248
915.129	718.107
919.63	460.228
924.129	423.715
928.625	481.676
933.118	621.031
937.609	446.826
942.097	552.795
946.582	641.184
951.065	411.59
955.546	717.732
960.023	849.365
964.499	845.217
968.971	824.615
973.441	896.82
977.909	892.104
982.374	949.338
986.836	1391.92
991.295	1375.16
995.753	1333.4
1000.21	1210.95
1004.66	1426.42
1009.11	1295.77
1013.55	1218.52
1018	1521.54
1022.44	1233.89
1026.88	1390.33
1031.32	1309.83
1035.75	1267.15
1040.18	1375.4
1044.61	1675.96
1049.04	2200.71
1053.46	2823.97
1057.88	3303.14
1062.3	3299.7
1066.71	3060.81
1071.13	2768.12
1075.54	2683.57
1079.94	3076.28
1084.35	4373.68
1088.75	3577.09
1093.15	2893.98
1097.55	2913.62
1101.94	3022.28
1106.34	3195.48
1110.73	3694.18
1115.11	3998.78
1119.5	4221.98
1123.88	4713.1
1128.26	5097.1
1132.63	5369.99
1137.01	5126.45
1141.38	3933.55
1145.75	2111.32
1150.12	1112.77
1154.48	470.69
1158.84	503.416
1163.2	233.941
1167.55	338.697
1171.91	294.141
1176.26	111.428
1180.61	50.5488
1184.95	55.4648
1189.29	55.0391
1193.63	21.1309
1197.97	22.2129
1202.31	16.0488
1206.64	73.0156
1210.97	222.477
1215.29	34.7656
1219.62	56.123
1223.94	52.6738
1228.26	197.519
1232.57	74.9551
1236.89	144.643
1241.2	123.807
1245.51	205.824
1249.81	184.371
1254.12	35.6328
1258.42	249.139
1262.72	237.305
1267.01	131.658
1271.3	151.842
1275.59	81.043
1279.88	57.8848
1284.17	73.0566
1288.45	341.967
1292.73	234.383
1297.01	347.644
1301.28	263.158
1305.55	529.969
1309.82	290.656
1314.09	251.885
1318.35	351.471
1322.61	257.25
1326.87	324.103
1331.13	561.637
1335.38	175.346
1339.63	387.602
1343.88	400.01
1348.12	284.379
1352.37	197.842
1356.61	430.688
1360.85	188.014
1365.08	102.647
1369.31	360.369
1373.54	460.815
1377.77	294.486
1381.99	205.088
1386.22	252.635
1390.43	117.49
1394.65	85.1816
1398.87	342.232
1403.08	176.432
1407.29	160.303
1411.49	251.264
1415.69	219.504
1419.89	184.766
1424.09	483.494
1428.29	507.984
1432.48	351.705
1436.67	757.42
1440.86	560.416
1445.04	549.273
1449.23	649.896
1453.4	420.473
1457.58	447.299
1461.76	302.07
1465.93	499.471
1470.1	285.129
1474.26	120.891
1478.43	308.842
1482.59	88.9727
1486.75	209.664
1490.9	260.957
1495.06	347.519
1499.21	135.969
1503.35	177.215
1507.5	194.815
1511.64	621.604
1515.78	55.127
1519.92	263.188
1524.05	12.6953
1528.18	357.148
1532.31	273.477
1536.44	143.074
1540.56	244.648
1544.69	129.848
1548.8	76.5352
1552.92	267.383
1557.03	253.262
1561.14	464.965
1565.25	318.656
1569.36	30.2539
