Measurement: Raman, 514 nm, depolarized, Raman Data Processed
Mineral: Polylithionite
Rruff sample: R050132
Ideal chemistry: KLi_2_AlSi_4_O_10_F_2_
Locality: Brown Derby mine, Ohio City, Gunnison County, Colorado, USA
Source: Dave Bunk Minerals
Description: Purple scaly aggregate, polytype 2M1
Measured chemistry: (K_0.90_Rb_0.10_)(Li_0.62_Al_0.38_)_3_(Si_0.93_Al_0.07_)_4_O_10_(F_0.69_(OH)_0.31_)_2_
Pin_id: M00120
Orientation: Laser parallel to c* (0 0 1). Fiducial mark perpendicular to laser is parallel to -a [-1 0 0]
Raman shift (cm-1)	intensity
95.948	0
100.883	168.404
105.815	175.855
110.744	225.408
115.671	222.891
120.596	243.346
125.519	301.652
130.439	318.012
135.356	489.262
140.271	371.91
145.184	588.428
150.094	563.953
155.002	498.916
159.908	716.258
164.811	885.086
169.711	1251.11
174.61	1459.4
179.505	1681.07
184.399	1370.64
189.29	1112.3
194.178	1106.12
199.064	1021.12
203.948	857.266
208.829	689.516
213.708	783.836
218.585	660.656
223.459	551.188
228.33	560.883
233.199	661.424
238.066	1056.01
242.93	1270.43
247.792	1848.91
252.651	2061.61
257.508	3726.4
262.363	4424.46
267.215	3181.3
272.064	1780.6
276.912	999.141
281.756	454.744
286.598	378.272
291.438	469.633
296.276	452.746
301.111	295.547
305.943	145.978
310.773	171.988
315.601	157.5
320.426	223.49
325.248	250.943
330.068	33.8438
334.886	49.8926
339.701	97.3164
344.514	6.41211
349.324	122.123
354.132	12.1074
358.938	44.2109
363.741	168.594
368.541	255.387
373.339	150.629
378.135	404.205
382.928	546.594
387.718	868.654
392.506	1076.17
397.292	1416.1
402.075	1611.39
406.856	1626
411.634	1458.89
416.41	1034.39
421.183	405.418
425.954	419.004
430.722	716.795
435.488	441.773
440.251	457.93
445.012	610.246
449.77	340.787
454.526	258.391
459.28	403.894
464.03	410.736
468.779	478.688
473.525	562.727
478.268	655.586
483.009	385.062
487.747	352.221
492.483	199.916
497.217	36.2344
501.948	101.242
506.676	160.486
511.402	114.475
516.125	136.172
520.846	125.377
525.565	235.387
530.281	335.402
534.994	230.59
539.705	388.008
544.413	444.779
549.119	729.793
553.822	907.861
558.523	1055.96
563.222	1033.22
567.917	970.731
572.611	536.857
577.302	396.094
581.99	172.623
586.676	96.625
591.359	290.553
596.04	10.3828
600.718	178.119
605.394	230.822
610.067	266.615
614.737	173.654
619.406	438.728
624.071	497.803
628.734	570.832
633.395	272.807
638.053	349.883
642.708	339.617
647.361	184.023
652.012	49.4199
656.66	75.0234
661.305	337.629
665.948	256.254
670.588	615.684
675.226	391.025
679.861	670.416
684.494	1324.33
689.124	2055.15
693.752	2942.67
698.377	4497.55
702.999	6834.58
707.619	9695.94
712.237	10271.2
716.852	6467.1
721.464	3224.77
726.074	1941.49
730.681	1236.83
735.286	1023.43
739.888	952.752
744.488	1092.58
749.085	1097.3
753.68	1202.11
758.272	773.055
762.861	636.121
767.448	410.926
772.033	160.203
776.614	498.344
781.194	341.332
785.77	340.168
790.345	303.914
794.916	261.371
799.485	275.66
804.052	196.777
808.616	31.8164
813.177	200.91
817.736	53.0234
822.292	42.0781
826.846	176.418
831.397	177.285
835.945	57.3281
840.491	82.7031
845.035	230.094
849.576	174.344
854.114	143.219
858.65	315.625
863.183	174.582
867.713	207.129
872.241	86.2656
876.767	243.098
881.29	135.363
885.81	131.766
890.328	191.594
894.843	139.707
899.356	269.41
903.866	599.777
908.373	321.246
912.878	508.172
917.38	318.746
921.88	451.289
926.377	324.293
930.872	112.969
935.364	452.582
939.853	160.019
944.34	441.285
948.824	577.559
953.306	512.527
957.785	586.617
962.261	419.887
966.735	238.719
971.207	409.488
975.675	267.391
980.141	211.906
984.605	398.43
989.066	422.644
993.524	309.266
997.98	198.699
1002.43	284.465
1006.88	130.516
1011.33	123.793
1015.78	436.359
1020.22	10.9141
1024.66	290.598
1029.1	273.121
1033.53	30.75
1037.97	73.8711
1042.4	334.719
1046.82	170.051
1051.25	397.414
1055.67	687.484
1060.09	397.356
1064.51	567.961
1068.92	454.223
1073.33	294.176
1077.74	726.43
1082.15	639.625
1086.55	515.176
1090.95	853.168
1095.35	752.328
1099.75	594.519
1104.14	682.91
1108.53	736.543
1112.92	782.633
1117.31	927.062
1121.69	738.625
1126.07	761.293
1130.45	552.125
1134.82	388.059
1139.19	212.082
1143.57	257.191
1147.93	130.66
1152.3	236.285
1156.66	194.688
1161.02	392.203
1165.38	67.7031
1169.73	91.6289
1174.08	176.203
1178.43	204.484
1182.78	21.168
1187.12	39.8203
1191.46	192.328
1195.8	149.606
1200.14	3.89453
1204.47	76.7734
1208.8	272.5
1213.13	352.641
1217.46	456.746
1221.78	210.863
1226.1	131.445
1230.42	521.227
1234.73	233.488
1239.04	236.309
1243.35	239.512
1247.66	303.785
1251.97	249.637
1256.27	388.484
1260.57	246.109
1264.86	292.394
1269.16	321.859
1273.45	335.469
1277.74	419.328
1282.03	102.172
1286.31	70.9141
1290.59	660.297
1294.87	357.551
1299.14	370.113
1303.42	566.695
1307.69	282.566
1311.95	124.648
1316.22	317.961
1320.48	476.262
1324.74	437.195
1329	176.34
1333.26	111.32
1337.51	494.25
1341.76	427.684
1346	386.269
1350.25	29.7188
1354.49	497.777
1358.73	197.352
1362.96	83.8633
1367.2	249.469
1371.43	355.078
1375.66	411.922
1379.88	12.4102
1384.11	23.1406
1388.33	215.746
1392.54	75.7383
1396.76	185.621
1400.97	211.883
1405.18	179.477
1409.39	423.102
1413.59	40.207
1417.8	126.535
1421.99	8.89062
1426.19	138.852
1430.38	256.195
1434.58	338.832
1438.77	407.922
1442.95	297.723
1447.13	226.316
1451.32	407.727
1455.49	434.09
1459.67	318.644
1463.84	196.629
1468.01	299.082
1472.18	340.426
1476.35	119.332
1480.51	194.309
1484.67	217.316
1488.83	343.977
1492.98	46.7148
1497.13	38.3984
1501.28	455.148
1505.43	14.2812
1509.57	417.727
1513.71	163.922
1517.85	295.606
1521.99	219.012
1526.12	52.2969
1530.25	482.769
1534.38	314.57
1538.5	90.0586
1542.62	137.316
1546.74	199.18
1550.86	220.176
1554.98	141.117
1559.09	183.168
1563.2	256.879
1567.31	85.8477
