Measurement: Raman, 514 nm, ccw, Raman Data Processed
Mineral: Pyrite
Rruff sample: R050070
Ideal chemistry: Fe^2+^(S_2_)^2-^
Locality: Mina San Jose de Huanzala, Minero de Huallanca District, Department de Huanuco, Peru
Source: Rock Currier
Description: Brass-yellow metallic cube
Measured chemistry: Fe_1.00_S_2.00_
Pin_id: L00728
Orientation: Laser parallel to c* (0 0 1). Fiducial mark perpendicular to laser is parallel to a [1 0 0]
Raman shift (cm-1)	intensity
127.849	0
132.777	428.296
137.702	859.6
142.624	453.771
147.544	1100.9
152.461	477.716
157.375	292.237
162.287	212.348
167.197	61.9028
172.104	211.658
177.008	48.3159
181.91	31.2651
186.809	320.172
191.706	447.034
196.6	784.118
201.491	1010.89
206.38	534.61
211.267	447.336
216.151	98.8906
221.032	95.4287
225.911	66.3979
230.787	167.926
235.66	142.538
240.531	28.02
245.4	39.1562
250.266	320.763
255.129	3181.19
259.99	323.14
264.848	130.732
269.703	14.0405
274.556	37.8071
279.407	51.916
284.255	63.3877
289.1	21.7451
293.942	139.051
298.783	169.316
303.62	177.52
308.455	121.17
313.288	276.11
318.117	223.849
322.945	301.123
327.769	587.726
332.591	2159.38
337.411	7459.4
342.228	24704.8
347.042	17198.4
351.854	2993.74
356.663	1074.83
361.47	1511.63
366.274	4051.53
371.075	16148.6
375.874	62684.5
380.67	129472
385.464	19869.2
390.255	4361
395.043	1980.26
399.829	1190.29
404.613	836.657
409.393	488.113
414.172	666.748
418.947	853.016
423.72	2091.23
428.49	6080.84
433.258	6263.83
438.024	1018.26
442.786	350.465
447.546	78.1167
452.304	175.084
457.059	93.4736
461.811	174.312
466.56	19.6831
471.308	131.264
476.052	62.689
480.794	70.1074
485.533	57.4917
490.27	224.973
495.004	48.5635
499.736	2.93506
504.465	47.9492
509.191	110.342
513.915	130.322
518.636	69.0825
523.354	202.861
528.07	204.805
532.784	73.6392
537.494	161.785
542.203	184.013
546.908	272.29
551.611	283.769
556.311	321.571
561.009	360.548
565.704	370.379
570.397	350.609
575.087	316.218
579.774	198.426
584.459	114.381
589.141	157.029
593.821	26.2222
598.498	62.5093
603.172	107.553
607.844	3.13769
612.513	90.7056
617.18	72.9375
621.844	61.9692
626.505	51.2012
631.164	23.167
635.82	44.1836
640.473	20.1787
645.124	120.535
649.773	55.814
654.418	62.501
659.062	0.279785
663.702	27.8916
668.34	86.9888
672.975	79.0688
677.608	52.147
682.238	80.5102
686.866	108.276
691.49	17.2075
696.113	30.9121
700.732	56.4853
705.349	118.954
709.964	181.931
714.576	139.777
719.185	249.114
723.792	123.397
728.396	247.62
732.997	285.781
737.596	287.877
742.192	248.907
746.785	241.129
751.376	249.916
755.965	385.123
760.551	572.308
765.134	615.26
769.714	661.231
774.292	633.286
778.867	489.052
783.44	445.709
788.01	412.717
792.578	456.118
797.142	506.236
801.705	682.56
806.264	507.306
810.821	391.134
815.376	372.284
819.927	221.911
824.476	187.178
829.023	272.584
833.567	404.789
838.108	499.819
842.647	286.292
847.183	356.127
851.716	295.416
856.247	452.488
860.776	455.403
865.301	508.229
869.824	419.969
874.345	240.625
878.862	115.061
883.377	102.353
887.89	6.69873
892.4	13.3335
896.907	88.1733
901.412	109.745
905.914	96.5669
910.413	108.31
914.91	113.003
919.404	94.73
923.896	6.55127
928.385	291.222
932.871	195.217
937.355	487.229
941.836	396.271
946.315	760.298
950.79	230.326
955.264	336.377
959.734	323.457
964.202	418.652
968.668	282.985
973.131	323.456
977.591	449.027
982.048	472.373
986.503	491.666
990.955	437.525
995.405	684.054
999.852	521.126
1004.3	614.278
1008.74	601.51
1013.18	688.843
1017.61	640.535
1022.05	557.825
1026.48	449.087
1030.91	462.167
1035.33	457.97
1039.76	395.266
1044.18	487.065
1048.6	566.188
1053.01	657.426
1057.42	427.256
1061.84	488.508
1066.24	647.221
1070.65	623.871
1075.05	543.729
1079.45	800.725
1083.85	656.952
1088.24	672.165
1092.63	457.04
1097.02	477.935
1101.41	595.388
1105.8	483.171
1110.18	740.521
1114.56	345.313
1118.93	381.269
1123.31	430.143
1127.68	386.393
1132.04	330.12
1136.41	342.22
1140.77	279.453
1145.13	238.257
1149.49	254.183
1153.85	233.156
1158.2	248.229
1162.55	214.733
1166.9	196.263
1171.24	66.1719
1175.58	117.825
1179.92	120.59
1184.26	210.119
1188.6	105.939
1192.93	159.891
1197.26	127.584
1201.58	85.6987
1205.9	2.50488
1210.23	65.106
1214.55	13.6562
1218.86	42.5947
1223.17	1.70068
1227.48	10.1289
1231.79	9.80566
1236.1	18.0615
1240.4	178.519
1244.7	95.1367
1249	12.9292
1253.29	2.11914
1257.59	14.9546
1261.88	40.727
1266.16	88.1489
1270.45	50.5596
1274.73	42.4751
1279.01	36.3789
1283.28	97.1592
1287.56	122.971
1291.83	121.598
1296.1	0.739258
1300.36	142.588
1304.63	108.811
1308.89	153.387
1313.15	59.8926
1317.4	50.6938
1321.65	65.3413
1325.9	40.8496
1330.15	150.204
1334.4	114.348
1338.64	64.2598
1342.88	113.893
1347.12	107.216
1351.35	142.032
1355.58	94.9199
1359.81	189.125
1364.04	123.225
1368.26	61.7339
1372.48	194.801
1376.7	88.4946
1380.92	58.4355
1385.13	40.0449
1389.34	181.246
1393.55	131.955
1397.76	139.783
1401.96	175.582
1406.16	81.4624
1410.36	34.3018
1414.55	111.971
1418.75	120.793
1422.94	185.495
1427.12	53.5776
1431.31	261.083
1435.49	124.942
1439.67	53.2109
1443.85	209.817
1448.02	141.486
1452.19	205.706
1456.36	133.259
1460.53	169.084
1464.69	92.3809
1468.85	149.403
1473.01	80.0098
1477.17	191.31
1481.32	194.169
1485.47	106.164
1489.62	47.355
1493.76	207.565
1497.91	178.172
1502.05	188.036
1506.18	233.793
1510.32	37.2539
1514.45	425.921
1518.58	41.8721
1522.71	62.9751
1526.83	20.5352
1530.95	109.354
1535.07	101.635
1539.19	182.262
1543.3	226.796
