Measurement: Raman, 514 nm, ccw, Raman Data Processed
Mineral: Pyrite
Rruff sample: R050070
Ideal chemistry: Fe^2+^(S_2_)^2-^
Locality: Mina San Jose de Huanzala, Minero de Huallanca District, Department de Huanuco, Peru
Source: Rock Currier
Description: Brass-yellow metallic cube
Measured chemistry: Fe_1.00_S_2.00_
Pin_id: L00728
Orientation: Laser parallel to c* (0 0 1). Fiducial mark perpendicular to laser is parallel to a [1 0 0]
Raman shift (cm-1)	intensity
127.849	0
132.777	293.955
137.702	775.018
142.624	321.525
147.544	1110.22
152.461	291.936
157.375	289.973
162.287	644.601
167.197	131.7
172.104	222.221
177.008	165.733
181.91	132.4
186.809	339.002
191.706	427.837
196.6	820.477
201.491	1023.99
206.38	456.382
211.267	510.639
216.151	574.555
221.032	1.03174
225.911	55.1875
230.787	25.8696
235.66	29.4302
240.531	50.1738
245.4	14.103
250.266	294.783
255.129	3250.51
259.99	361.853
264.848	198.947
269.703	197.717
274.556	260.611
279.407	56.9849
284.255	135.862
289.1	74.4839
293.942	174.349
298.783	128.355
303.62	206.845
308.455	254.853
313.288	221.193
318.117	593.857
322.945	741.49
327.769	1272.64
332.591	5211.04
337.411	21374.9
342.228	76773.8
347.042	50714.7
351.854	4781.37
356.663	1950.72
361.47	2096.71
366.274	4311.61
371.075	16607.4
375.874	65025.2
380.67	144596
385.464	22657.2
390.255	4968.19
395.043	2400.18
399.829	1381.21
404.613	804.019
409.393	800.564
414.172	1258.53
418.947	686.568
423.72	969.422
428.49	2219.87
433.258	2175.08
438.024	505.603
442.786	157.19
447.546	103.752
452.304	114.933
457.059	58.6289
461.811	0.493652
466.56	113.499
471.308	97.4873
476.052	53.5312
480.794	43.6006
485.533	66.6641
490.27	77.7012
495.004	122.726
499.736	5.80029
504.465	82.5415
509.191	145.986
513.915	138.061
518.636	81.1816
523.354	156.928
528.07	132.837
532.784	153.875
537.494	123.244
542.203	94.6763
546.908	168.088
551.611	300.853
556.311	508.816
561.009	399.599
565.704	302.518
570.397	293.616
575.087	362.898
579.774	305.337
584.459	104.919
589.141	30.5977
593.821	125.068
598.498	99.0195
603.172	203.123
607.844	114.891
612.513	90.0903
617.18	155.761
621.844	140.755
626.505	51.1968
631.164	163.811
635.82	10.6465
640.473	39.9522
645.124	5.49316
649.773	28.6196
654.418	12.603
659.062	60.7266
663.702	17.0112
668.34	65.6934
672.975	70.3731
677.608	94.0518
682.238	139.745
686.866	47.5776
691.49	47.314
696.113	64.6421
700.732	50.0107
705.349	35.5483
709.964	91.4902
714.576	241.417
719.185	133.328
723.792	162.215
728.396	227.322
732.997	203.908
737.596	166.761
742.192	210.639
746.785	302.759
751.376	305.51
755.965	344.08
760.551	550.502
765.134	552.987
769.714	724.845
774.292	683.722
778.867	559.623
783.44	146.573
788.01	438.12
792.578	680.168
797.142	577.211
801.705	700.694
806.264	593.557
810.821	472.512
815.376	450.716
819.927	171.934
824.476	141.489
829.023	236.282
833.567	444.215
838.108	450.576
842.647	281.788
847.183	257.43
851.716	283.975
856.247	341.424
860.776	342.778
865.301	443.04
869.824	400.21
874.345	366.893
878.862	68.103
883.377	8.68555
887.89	33.4673
892.4	38.4033
896.907	52.2998
901.412	1.42627
905.914	24.8926
910.413	100.228
914.91	103.533
919.404	119.12
923.896	82.0854
928.385	188.733
932.871	276.093
937.355	155.092
941.836	200.805
946.315	269.825
950.79	278.871
955.264	261.975
959.734	355.092
964.202	321.461
968.668	415.901
973.131	346.315
977.591	464.706
982.048	441.099
986.503	526.493
990.955	538.88
995.405	581.332
999.852	487.873
1004.3	516.6
1008.74	642.706
1013.18	663.064
1017.61	684.193
1022.05	574.457
1026.48	512.592
1030.91	546.452
1035.33	409.706
1039.76	637.947
1044.18	491.077
1048.6	536.42
1053.01	575.193
1057.42	644.999
1061.84	633.71
1066.24	791.365
1070.65	666.903
1075.05	692.716
1079.45	631.057
1083.85	633.099
1088.24	620
1092.63	555.03
1097.02	560.607
1101.41	548.769
1105.8	454.819
1110.18	456.083
1114.56	488.768
1118.93	455.694
1123.31	418.602
1127.68	446.014
1132.04	401.097
1136.41	394.483
1140.77	332.525
1145.13	238.647
1149.49	238.219
1153.85	266.92
1158.2	186.16
1162.55	195.377
1166.9	216.815
1171.24	136.182
1175.58	198.328
1179.92	54.9858
1184.26	53.3935
1188.6	123.285
1192.93	1.05518
1197.26	22.9229
1201.58	22.7163
1205.9	33.5869
1210.23	67.1411
1214.55	11.7876
1218.86	59.0185
1223.17	5.79248
1227.48	55.3198
1231.79	84.397
1236.1	51.0161
1240.4	15.5513
1244.7	5.62988
1249	56.2871
1253.29	77.0952
1257.59	51.6313
1261.88	71.2022
1266.16	82.687
1270.45	53.9976
1274.73	0.074707
1279.01	42.6143
1283.28	39.5562
1287.56	37.1699
1291.83	97.9604
1296.1	65.5439
1300.36	218.946
1304.63	242.271
1308.89	8.49805
1313.15	59.6323
1317.4	168.67
1321.65	105.269
1325.9	31.9688
1330.15	72.7632
1334.4	108.483
1338.64	33.2671
1342.88	101.532
1347.12	162.649
1351.35	126.912
1355.58	96.8652
1359.81	79.2632
1364.04	98.5386
1368.26	181.539
1372.48	44.7832
1376.7	155.78
1380.92	78.1856
1385.13	125.225
1389.34	158.312
1393.55	89.5396
1397.76	94.8906
1401.96	246.473
1406.16	234.188
1410.36	124.823
1414.55	136.473
1418.75	199.592
1422.94	107.95
1427.12	82.6299
1431.31	181.625
1435.49	159.942
1439.67	173.069
1443.85	146.015
1448.02	127.525
1452.19	84.1289
1456.36	203.077
1460.53	197.31
1464.69	134.807
1468.85	0.926758
1473.01	64.9487
1477.17	99.7363
1481.32	112.213
1485.47	118.486
1489.62	123.21
1493.76	225.619
1497.91	83.9853
1502.05	134.446
1506.18	143.25
1510.32	129.341
1514.45	55.3408
1518.58	37.3477
1522.71	117.608
1526.83	124.596
1530.95	225.046
1535.07	151.386
1539.19	1.39404
1543.3	29.3833
