Measurement: Raman, 514 nm, depolarized, Raman Data Processed
Mineral: Pyrite
Rruff sample: R050070
Ideal chemistry: Fe^2+^(S_2_)^2-^
Locality: Mina San Jose de Huanzala, Minero de Huallanca District, Department de Huanuco, Peru
Source: Rock Currier
Description: Brass-yellow metallic cube
Measured chemistry: Fe_1.00_S_2.00_
Pin_id: L00728
Orientation: Laser parallel to c* (0 0 1). Fiducial mark perpendicular to laser is parallel to a [1 0 0]
Raman shift (cm-1)	intensity
127.849	0
132.777	252.931
137.702	552.48
142.624	292.603
147.544	1378.14
152.461	116.316
157.375	319.996
162.287	690.772
167.197	229.675
172.104	217.801
177.008	122.326
181.91	33.9824
186.809	381.728
191.706	539.29
196.6	937.509
201.491	1161.71
206.38	639.746
211.267	538.952
216.151	133.835
221.032	22.5244
225.911	5.62598
230.787	85.5933
235.66	13.5898
240.531	41.7539
245.4	49.0688
250.266	335.367
255.129	3258.81
259.99	430.58
264.848	60.1167
269.703	152.368
274.556	235.416
279.407	125.568
284.255	44.1782
289.1	10.8335
293.942	106.568
298.783	204.237
303.62	193.876
308.455	247.412
313.288	197.414
318.117	242.612
322.945	464.721
327.769	907.019
332.591	3418
337.411	13151.4
342.228	51821.4
347.042	37609.8
351.854	5196.03
356.663	1559.94
361.47	1840.01
366.274	4191.51
371.075	15022.1
375.874	61089.3
380.67	148604
385.464	23470
390.255	4731.18
395.043	2209.1
399.829	1375.25
404.613	817.863
409.393	550.129
414.172	518.757
418.947	658.114
423.72	1426.38
428.49	4207.52
433.258	4732.65
438.024	892.741
442.786	445.277
447.546	307.397
452.304	132.065
457.059	26.9443
461.811	84.9209
466.56	162.044
471.308	134.809
476.052	189.533
480.794	50.3804
485.533	108.728
490.27	123.781
495.004	128.889
499.736	127.928
504.465	268.63
509.191	330.062
513.915	207.463
518.636	219.094
523.354	444.356
528.07	384.982
532.784	362.035
537.494	379.498
542.203	386.005
546.908	451.264
551.611	538.769
556.311	578.776
561.009	719.82
565.704	657.584
570.397	662.285
575.087	608.275
579.774	475.084
584.459	209.605
589.141	224.651
593.821	71.4551
598.498	147.412
603.172	90.5469
607.844	144.877
612.513	68.5811
617.18	66.5142
621.844	139.971
626.505	105.603
631.164	8.48926
635.82	320.468
640.473	4.49707
645.124	67.4473
649.773	35.6343
654.418	104.862
659.062	24.4673
663.702	61.6074
668.34	61.4409
672.975	17.8061
677.608	74.8877
682.238	27.9497
686.866	16.0581
691.49	69.1001
696.113	50.6567
700.732	11.479
705.349	65.4082
709.964	114.29
714.576	229.106
719.185	171.848
723.792	187.509
728.396	188.414
732.997	248.568
737.596	259.956
742.192	170.241
746.785	270.507
751.376	264.821
755.965	341.242
760.551	436.077
765.134	602.079
769.714	721.872
774.292	729.887
778.867	590.329
783.44	450.189
788.01	472.315
792.578	655.646
797.142	646.04
801.705	607.004
806.264	683.898
810.821	578.531
815.376	416.081
819.927	284.384
824.476	163.391
829.023	395.255
833.567	511.269
838.108	571.375
842.647	386.892
847.183	258.305
851.716	303.573
856.247	317.696
860.776	453.677
865.301	481.519
869.824	408.819
874.345	240.793
878.862	26.231
883.377	27.5454
887.89	58.7041
892.4	12.3706
896.907	32.4512
901.412	14.1396
905.914	68.5019
910.413	44.1255
914.91	49.4839
919.404	121.941
923.896	55.9819
928.385	74.1348
932.871	323.506
937.355	213.034
941.836	469.544
946.315	161.982
950.79	200.667
955.264	283.655
959.734	277.94
964.202	344.224
968.668	325.618
973.131	350.154
977.591	360.72
982.048	429.28
986.503	546.679
990.955	661.147
995.405	528.56
999.852	573.7
1004.3	568.985
1008.74	682.094
1013.18	579.258
1017.61	555.892
1022.05	662.625
1026.48	528.183
1030.91	532.278
1035.33	458.368
1039.76	472.315
1044.18	547.279
1048.6	556.915
1053.01	574.745
1057.42	652.784
1061.84	674.787
1066.24	688.414
1070.65	692.384
1075.05	659.004
1079.45	661.099
1083.85	730.684
1088.24	586.673
1092.63	490.99
1097.02	681.642
1101.41	562.21
1105.8	549.127
1110.18	536.777
1114.56	372.468
1118.93	541.576
1123.31	447.756
1127.68	367.839
1132.04	290.761
1136.41	362.664
1140.77	234.762
1145.13	392.292
1149.49	302.677
1153.85	177.669
1158.2	328.935
1162.55	183.43
1166.9	240.098
1171.24	115.8
1175.58	178.509
1179.92	192.218
1184.26	106.918
1188.6	96.9634
1192.93	72.2876
1197.26	49.5347
1201.58	65.3101
1205.9	5.1084
1210.23	27.9458
1214.55	23.7598
1218.86	117.55
1223.17	91.3188
1227.48	38.0478
1231.79	8.92529
1236.1	65.354
1240.4	9.85693
1244.7	84.2847
1249	157.591
1253.29	102.786
1257.59	41.2158
1261.88	44.398
1266.16	190.278
1270.45	126.915
1274.73	40.5195
1279.01	102.034
1283.28	102.179
1287.56	213.377
1291.83	179.767
1296.1	153.115
1300.36	139.376
1304.63	142.58
1308.89	179.691
1313.15	118.78
1317.4	149.256
1321.65	153.864
1325.9	255.194
1330.15	249.995
1334.4	182.98
1338.64	217.78
1342.88	256.094
1347.12	173.497
1351.35	333.087
1355.58	235.679
1359.81	426.2
1364.04	257.831
1368.26	138.843
1372.48	307.62
1376.7	219.998
1380.92	444.258
1385.13	187.005
1389.34	188.143
1393.55	187.618
1397.76	82.875
1401.96	209.216
1406.16	33.5855
1410.36	82.8613
1414.55	72.9048
1418.75	183.963
1422.94	132.885
1427.12	70.251
1431.31	267.538
1435.49	208.911
1439.67	296.744
1443.85	310.724
1448.02	167.693
1452.19	147.651
1456.36	155.647
1460.53	246.805
1464.69	91.1836
1468.85	69.0234
1473.01	27.1548
1477.17	16.4487
1481.32	58.064
1485.47	177.619
1489.62	23.5337
1493.76	167.792
1497.91	79.2446
1502.05	96.7602
1506.18	41.2417
1510.32	59.4458
1514.45	71.1626
1518.58	2.04981
1522.71	107.835
1526.83	94.0977
1530.95	33.3188
1535.07	227.631
1539.19	124.882
1543.3	114.001
