Measurement: Raman, 514 nm, ccw, Raman Data Processed
Mineral: Pyrite
Rruff sample: R050070
Ideal chemistry: Fe^2+^(S_2_)^2-^
Locality: Mina San Jose de Huanzala, Minero de Huallanca District, Department de Huanuco, Peru
Source: Rock Currier
Description: Brass-yellow metallic cube
Measured chemistry: Fe_1.00_S_2.00_
Pin_id: L00728
Orientation: Laser parallel to c* (0 0 1). Fiducial mark perpendicular to laser is parallel to a [1 0 0]
Raman shift (cm-1)	intensity
127.849	0
132.777	287.456
137.702	835.226
142.624	358.221
147.544	1197.32
152.461	453.917
157.375	685.501
162.287	578.795
167.197	344.461
172.104	222.208
177.008	97.2041
181.91	202.862
186.809	850.646
191.706	959.64
196.6	1430.8
201.491	1618.57
206.38	1580.83
211.267	574.061
216.151	98.5063
221.032	72.8682
225.911	1.6582
230.787	25.3975
235.66	4.68066
240.531	81.7285
245.4	3.37158
250.266	339.396
255.129	7177.21
259.99	852.662
264.848	483.679
269.703	470.705
274.556	511.874
279.407	81.7026
284.255	25.3784
289.1	73.8975
293.942	44.2148
298.783	193.316
303.62	299.469
308.455	284.384
313.288	292.838
318.117	236.485
322.945	607.109
327.769	1195.2
332.591	5085.72
337.411	21111.4
342.228	71932.4
347.042	46469.3
351.854	5413.27
356.663	1901.09
361.47	1945.43
366.274	3935.51
371.075	14647.6
375.874	55207.1
380.67	118598
385.464	18153.8
390.255	3865.96
395.043	1714.17
399.829	1069.45
404.613	676.832
409.393	540.243
414.172	569.945
418.947	630.739
423.72	759.394
428.49	1257.89
433.258	1267.58
438.024	622.688
442.786	429.444
447.546	492.992
452.304	468.652
457.059	458.229
461.811	552.995
466.56	726.385
471.308	780.658
476.052	781.532
480.794	817.673
485.533	959.855
490.27	1183.16
495.004	1230.34
499.736	1429.81
504.465	1553.88
509.191	1569.46
513.915	1599.44
518.636	1839.5
523.354	1961.33
528.07	2029.07
532.784	2145.29
537.494	2143.44
542.203	2381.95
546.908	2584.4
551.611	2779.2
556.311	3023.1
561.009	3088.44
565.704	3106.61
570.397	3180.03
575.087	3192.95
579.774	2252.15
584.459	1277.58
589.141	413.156
593.821	218.615
598.498	128.889
603.172	48.6001
607.844	115.607
612.513	61.0029
617.18	54.1382
621.844	1.02197
626.505	23.1045
631.164	28.1509
635.82	4.70361
640.473	42.3335
645.124	29.6226
649.773	16.0879
654.418	22.6987
659.062	18.9399
663.702	71.2407
668.34	20.3623
672.975	63.0356
677.608	2.25977
682.238	156.662
686.866	25.2153
691.49	66.9219
696.113	86.8491
700.732	47.605
705.349	196.222
709.964	226.706
714.576	323.052
719.185	204.25
723.792	216.292
728.396	234.175
732.997	252.891
737.596	178.437
742.192	239.88
746.785	249.49
751.376	285.581
755.965	320.51
760.551	347.661
765.134	619.972
769.714	549.162
774.292	590.776
778.867	479.516
783.44	371.647
788.01	450.001
792.578	600.793
797.142	548.606
801.705	561.167
806.264	512.248
810.821	443.502
815.376	426.26
819.927	224.997
824.476	105.772
829.023	180.797
833.567	327.526
838.108	356.82
842.647	305.621
847.183	188.388
851.716	251.999
856.247	267.296
860.776	384.236
865.301	236.786
869.824	338.826
874.345	221.737
878.862	6.47314
883.377	71.0796
887.89	12.2764
892.4	17.1836
896.907	87.689
901.412	108.768
905.914	61.9365
910.413	114.314
914.91	54.4497
919.404	152.019
923.896	45.9575
928.385	185.205
932.871	202.71
937.355	218.305
941.836	217.099
946.315	195.839
950.79	290.606
955.264	440.418
959.734	326.284
964.202	361.283
968.668	319.312
973.131	337.42
977.591	428.603
982.048	413.848
986.503	554.133
990.955	579.349
995.405	469.814
999.852	648.269
1004.3	734.967
1008.74	619.565
1013.18	599.03
1017.61	617.656
1022.05	469.869
1026.48	376.153
1030.91	573.845
1035.33	405.592
1039.76	284.224
1044.18	758.953
1048.6	954.806
1053.01	557.782
1057.42	559.876
1061.84	639.098
1066.24	638.121
1070.65	577.685
1075.05	633.074
1079.45	458.81
1083.85	531.988
1088.24	584.178
1092.63	600.269
1097.02	519.454
1101.41	380.834
1105.8	527.231
1110.18	489.876
1114.56	520.63
1118.93	476.611
1123.31	399.62
1127.68	373.384
1132.04	481.938
1136.41	246.031
1140.77	351.336
1145.13	331.505
1149.49	269.595
1153.85	238.915
1158.2	254.8
1162.55	282.792
1166.9	176.016
1171.24	118.37
1175.58	97.7686
1179.92	62.7998
1184.26	108.276
1188.6	67.731
1192.93	51.3203
1197.26	3.73047
1201.58	144.411
1205.9	163.689
1210.23	124.162
1214.55	20.5098
1218.86	30.5015
1223.17	85.0615
1227.48	15.854
1231.79	111.651
1236.1	18.2495
1240.4	50.5459
1244.7	2.51367
1249	133.055
1253.29	130.46
1257.59	145.341
1261.88	107.935
1266.16	127.616
1270.45	25.2759
1274.73	42.127
1279.01	21.9077
1283.28	56.1133
1287.56	67.6025
1291.83	109.918
1296.1	108.151
1300.36	84.2915
1304.63	33.3901
1308.89	52.1773
1313.15	153.798
1317.4	128.333
1321.65	70.6919
1325.9	0.944336
1330.15	139.03
1334.4	143.835
1338.64	107.755
1342.88	86.6773
1347.12	195.526
1351.35	156.602
1355.58	279.818
1359.81	129.704
1364.04	174.017
1368.26	215.199
1372.48	115.927
1376.7	161.992
1380.92	97.2168
1385.13	119.688
1389.34	140.51
1393.55	28.1797
1397.76	96.8955
1401.96	191.348
1406.16	45.1934
1410.36	91.0727
1414.55	139.286
1418.75	107.172
1422.94	145.546
1427.12	103.714
1431.31	159.315
1435.49	100.928
1439.67	49.8135
1443.85	353.046
1448.02	153.515
1452.19	128.678
1456.36	123.744
1460.53	146.565
1464.69	25.7334
1468.85	40.7417
1473.01	66.2886
1477.17	117.835
1481.32	57.9585
1485.47	111.703
1489.62	156.015
1493.76	109.596
1497.91	75.3877
1502.05	97.0229
1506.18	176.685
1510.32	46.0693
1514.45	79.1709
1518.58	68.3735
1522.71	205.094
1526.83	70.7612
1530.95	136.931
1535.07	212.612
1539.19	133.693
1543.3	62.1226
