Measurement: Raman, 514 nm, depolarized, Raman Data Processed
Mineral: Pyrite
Rruff sample: R050070
Ideal chemistry: Fe^2+^(S_2_)^2-^
Locality: Mina San Jose de Huanzala, Minero de Huallanca District, Department de Huanuco, Peru
Source: Rock Currier
Description: Brass-yellow metallic cube
Measured chemistry: Fe_1.00_S_2.00_
Pin_id: L00302
Orientation: Laser parallel to c* (0 0 1). Fiducial mark perpendicular to laser is parallel to -a [-1 0 0]
Raman shift (cm-1)	intensity
236.434	0
240.545	463.219
244.655	348.92
248.763	194.102
252.869	122.506
256.973	166.244
261.075	306.236
265.175	329.008
269.273	216.836
273.369	235.539
277.463	330.531
281.556	553.449
285.646	645.422
289.734	450.01
293.821	334.125
297.905	261.035
301.988	302.164
306.069	262.906
310.147	43.494
314.224	79.795
318.299	47.82
322.372	35.232
326.443	11.322
330.512	134.014
334.579	389.531
338.645	530.699
342.708	1054.97
346.769	1778.63
350.829	1925.74
354.887	1631.64
358.942	980.754
362.996	614.904
367.048	308.105
371.098	434.602
375.146	771.061
379.192	2113.3
383.236	2695.59
387.279	3258.32
391.319	2538.77
395.358	1226.98
399.394	482.396
403.429	15.945
407.462	3.178
411.493	45.328
415.522	5.143
419.549	146.895
423.575	39.393
427.598	90.838
431.619	276.477
435.639	426.877
439.657	375.768
443.673	345.193
447.687	479.197
451.699	472.27
455.709	293.199
459.717	162.575
463.724	215.775
467.728	180.27
471.731	295.679
475.732	306.636
479.731	396.429
483.728	524.732
487.723	477.179
491.716	517.763
495.708	532.235
499.697	747.408
503.685	762.869
507.671	695.869
511.655	676.893
515.637	912.211
519.617	867.901
523.596	871.516
527.572	1067.37
531.547	1134.51
535.52	1208.8
539.491	1256.97
543.46	1203.6
547.427	1164.19
551.393	1237.08
555.356	1234.24
559.318	1350.38
563.278	1284.01
567.236	1254.66
571.192	1507.53
575.147	1446.63
579.099	1104.2
583.05	868.272
586.999	685.846
590.946	363.355
594.891	249.814
598.834	194.212
602.776	219.11
606.715	292.44
610.653	264.276
614.589	321.57
618.523	192.015
622.456	267.75
626.386	268.175
630.315	172.787
634.242	178.088
638.167	136.163
642.09	181.114
646.012	22.244
649.931	155.57
653.849	189.706
657.765	8.176
661.679	61.897
665.592	117.97
669.502	24.795
673.411	33.727
677.318	21.246
681.223	85.849
685.126	99.443
689.028	21.739
692.927	45.039
696.825	58.402
700.721	31.867
704.616	76.771
708.508	63.643
712.399	21.512
716.288	37.159
720.175	80.404
724.06	90.036
727.944	145.011
731.825	65.147
735.705	113.881
739.584	59.341
743.46	80.007
747.334	84.065
751.207	144.041
755.078	119.578
758.947	99.719
762.815	107.357
766.68	57.698
770.544	117.037
774.406	65.84
778.267	64.35
782.125	84.197
785.982	29.504
789.837	101.369
793.69	101.883
797.542	2.047
801.391	168.727
805.239	113.065
809.085	96.243
812.93	98.906
816.772	97.183
820.613	74.057
824.452	10.965
828.29	18.983
832.125	4.179
835.959	78.392
839.791	8.565
843.621	88.335
847.45	54.07
851.277	9.173
855.102	135.367
858.925	48.446
862.746	3.005
866.566	74.232
870.384	164.144
874.2	39.299
878.015	3.113
881.828	11.184
885.639	63.674
889.448	115.662
893.256	93.804
897.061	80.093
900.865	4.042
904.668	118.707
908.468	175.305
912.267	275.682
916.064	119.603
919.86	66.474
923.653	77.3
927.445	6.47
931.236	90.027
935.024	189.992
938.811	192.911
942.596	189.1
946.379	163.43
950.161	145.929
953.94	118.182
957.719	138.417
961.495	226.606
965.27	145.78
969.043	116.449
972.814	96.844
976.583	134.622
980.351	281.397
984.117	327.771
987.882	253.928
991.644	199.899
995.405	272.97
999.165	261.572
1002.92	322.37
1006.68	275.83
1010.43	277.748
1014.18	244.145
1017.93	231.839
1021.68	257.69
1025.43	176.16
1029.18	279.388
1032.92	386.504
1036.66	338.935
1040.4	394.766
1044.14	338.561
1047.88	388.056
1051.62	274.257
1055.35	419.613
1059.08	341.768
1062.81	343.027
1066.54	294.364
1070.27	325.866
1073.99	148.128
1077.72	308.767
1081.44	393.012
1085.16	316.858
1088.88	283.371
1092.59	285.207
1096.31	232.51
1100.02	270.469
1103.73	241.58
1107.44	357.219
1111.15	277.58
1114.86	173.689
1118.57	181.487
1122.27	220.127
1125.97	197.569
1129.67	82.041
1133.37	111.946
1137.07	229.877
1140.76	135.135
1144.45	14.828
1148.15	56.493
1151.84	85.604
1155.53	6.291
1159.21	39.274
1162.9	66.221
1166.58	180.931
1170.26	86.36
1173.94	83.127
1177.62	42.135
1181.3	87.583
1184.97	29.866
1188.65	133.677
1192.32	139.596
1195.99	137.187
1199.66	69.731
1203.33	151.765
1206.99	164.122
1210.65	124.589
1214.32	72.008
1217.98	145.508
1221.64	157.874
1225.29	244.869
1228.95	226.771
1232.6	171.518
1236.26	86.463
1239.91	115.727
1243.56	129.855
1247.2	41.852
1250.85	207.699
1254.49	241.402
1258.13	261.956
1261.78	277.335
1265.41	184.513
1269.05	202.301
1272.69	180.358
1276.32	140.831
1279.95	83.518
1283.59	257.689
1287.21	315.489
1290.84	212.351
1294.47	124.432
1298.09	69.376
1301.72	14.367
1305.34	13.263
1308.96	21.077
1312.58	20.249
1316.19	75.119
1319.81	128.644
1323.42	200.528
1327.03	141.431
1330.64	104.646
1334.25	152.892
1337.86	77.489
1341.46	40.192
1345.07	50.383
1348.67	27.904
1352.27	258.478
1355.87	154.696
1359.46	271.512
1363.06	257.855
1366.65	231.65
1370.25	189.907
1373.84	133.408
1377.43	77.211
1381.02	287.817
1384.6	207.241
1388.18	336.865
1391.77	329.267
1395.35	340.23
1398.93	353.308
1402.51	224.101
1406.08	207.609
1409.66	282.633
1413.23	182.664
1416.8	174.021
1420.37	286.238
1423.94	126.066
1427.51	174.478
1431.08	311.518
1434.64	250.738
1438.2	251.967
1441.76	349.121
1445.32	127.194
1448.88	326.72
1452.43	103.091
1455.99	231.499
1459.54	189.716
1463.09	193.628
1466.64	180.664
1470.19	318.04
1473.74	319.617
1477.28	162.689
1480.83	247.781
1484.37	86.058
1487.91	20.058
1491.45	171.96
1494.98	16.969
1498.52	52.992
1502.05	0.007
1505.59	97.566
1509.12	258.323
1512.65	215.254
1516.17	201.222
1519.7	148.621
