Measurement: Raman, 514 nm, depolarized, Raman Data Processed
Mineral: Pyrite
Rruff sample: R050190
Ideal chemistry: Fe^2+^(S_2_)^2-^
Locality: Huanzala mine, Huallanca District, Dos de Mayo Province, Huanuco Department, Peru
Source: Dave Bunk Minerals
Description: Brass yellow modified cubes with typical pyrite striations
Measured chemistry: Fe_1.00_S_2.00_
Pin_id: L00393
Orientation: Laser parallel to b* (0 1 0). Fiducial mark perpendicular to laser is parallel to [1 0 1]
Raman shift (cm-1)	intensity
172.452	0
176.594	59.867
180.734	194.834
184.872	313.279
189.008	463.482
193.143	353.574
197.275	634.674
201.405	991.094
205.534	1047
209.66	769.355
213.784	201.859
217.907	403.643
222.027	163.35
226.146	386.965
230.263	298.576
234.377	336.828
238.49	408.682
242.601	263.014
246.709	271.779
250.816	232.117
254.921	333.449
259.024	56.221
263.125	146.174
267.224	21.381
271.321	117.828
275.416	86.258
279.51	13.711
283.601	63.49
287.69	26.416
291.778	61.555
295.863	31.824
299.947	4.506
304.029	43.35
308.108	68.793
312.186	209.041
316.262	52.664
320.336	290.311
324.408	166.18
328.478	1164.92
332.546	1336.39
336.612	4709.12
340.677	10047
344.739	13710.1
348.799	9808.53
352.858	5975.6
356.915	3520.09
360.969	2476.23
365.022	2646.26
369.073	3954.22
373.122	11226.3
377.169	23392.8
381.215	27533
385.258	18581.4
389.299	9871.21
393.339	4651.11
397.376	2569.75
401.412	1513.91
405.446	1161.88
409.478	993.881
413.508	652.344
417.536	755.965
421.562	755.219
425.586	1451.7
429.609	1988
433.629	1869.17
437.648	1524.13
441.665	1285.32
445.68	932.607
449.693	630.652
453.704	516.006
457.713	221.854
461.721	319.244
465.726	136.74
469.73	224.18
473.731	108.887
477.731	163.494
481.729	94.186
485.725	102.562
489.72	16.543
493.712	203.801
497.703	15.846
501.691	321.848
505.678	194.039
509.663	248.4
513.646	191.797
517.627	306.207
521.607	309.592
525.584	274.402
529.56	136.98
533.534	140.756
537.506	195.09
541.476	363.9
545.444	473.543
549.41	385.055
553.375	202.354
557.337	454.342
561.298	379.004
565.257	486.346
569.214	412.707
573.17	464.793
577.123	700.844
581.075	327.59
585.024	191.391
588.972	179.127
592.918	81.84
596.863	129.459
600.805	166.016
604.746	52.637
608.685	43.225
612.621	78.982
616.557	149.244
620.49	166.557
624.421	213.133
628.351	200.928
632.279	211.375
636.205	282.965
640.129	180.455
644.051	157.264
647.972	92.412
651.89	78.193
655.807	100.127
659.722	92.018
663.636	124.697
667.547	25.766
671.457	23.674
675.365	119.576
679.271	135.604
683.175	69.832
687.077	49.121
690.978	11.234
694.877	73.777
698.774	34.652
702.669	73.547
706.562	121.107
710.454	37.383
714.344	83.367
718.232	130.164
722.118	44.939
726.002	109.996
729.885	123.676
733.766	35.553
737.645	330.391
741.522	155.105
745.397	121.238
749.271	211.242
753.143	36.598
757.013	203.508
760.881	272.232
764.748	62.924
768.613	6.184
772.476	173.332
776.337	341.01
780.196	773.641
784.054	124.016
787.91	296.775
791.764	270.994
795.616	355.137
799.467	269.766
803.316	232.662
807.163	290.533
811.008	264.461
814.851	267.553
818.693	786.912
822.533	690.008
826.371	181.676
830.208	192.918
834.042	167.879
837.875	195.438
841.706	286.451
845.536	179.459
849.363	77.904
853.189	19.611
857.013	82.213
860.836	98.291
864.656	223.129
868.475	275.475
872.292	194.852
876.108	10.615
879.922	151.926
883.733	4.406
887.544	43.625
891.352	49.871
895.159	43.924
898.964	204.83
902.767	203.916
906.568	126.145
910.368	186.504
914.166	235.996
917.962	188.359
921.757	99.992
925.55	274.066
929.341	235.92
933.13	348.09
936.918	340.391
940.703	346.82
944.488	106.375
948.27	248.059
952.051	201.869
955.83	325.811
959.607	453.896
963.383	327.133
967.156	191.588
970.928	328.088
974.699	429.824
978.468	325.656
982.234	353.74
986	459.023
989.763	492.447
993.525	246.043
997.285	466.682
1001.04	491.928
1004.8	541.477
1008.55	445.123
1012.31	579.676
1016.06	667.646
1019.81	659.186
1023.56	646.254
1027.31	456.566
1031.05	473.125
1034.79	718.059
1038.53	601.465
1042.27	737.795
1046.01	611.654
1049.75	736.436
1053.48	696.203
1057.22	739.279
1060.95	639.42
1064.68	605.564
1068.4	851.111
1072.13	771.525
1075.86	722.057
1079.58	708.848
1083.3	756.07
1087.02	710.436
1090.74	655.527
1094.45	611.193
1098.17	566.113
1101.88	609.09
1105.59	361.527
1109.3	538.789
1113.01	745.955
1116.71	368.498
1120.42	405.355
1124.12	639.82
1127.82	180.748
1131.52	264.553
1135.22	252.492
1138.91	255.371
1142.61	178.926
1146.3	13.805
1149.99	157.932
1153.68	3.121
1157.37	25.49
1161.06	25.711
1164.74	159.41
1168.42	106.607
1172.1	42.209
1175.78	159.178
1179.46	69.004
1183.14	155.646
1186.81	232.887
1190.48	164.768
1194.15	107.268
1197.83	23.305
1201.49	233.969
1205.16	31.568
1208.82	147.529
1212.49	104.268
1216.15	269.08
1219.81	224.365
1223.46	103.613
1227.12	269.791
1230.78	224.418
1234.43	271.205
1238.08	133.051
1241.73	280.746
1245.38	251.225
1249.03	188.057
1252.67	156.006
1256.31	110.854
1259.95	125.219
1263.6	232.271
1267.23	111.984
1270.87	251.258
1274.51	253.697
1278.14	285.129
1281.77	195.357
1285.4	331.418
1289.03	234.973
1292.66	139.045
1296.28	312.824
1299.91	26.25
1303.53	84.465
1307.15	113.555
1310.77	38.43
1314.38	22.904
1318	23.287
1321.61	113.365
1325.23	89.168
1328.84	20.771
1332.45	178.977
1336.06	176.85
1339.66	139.799
1343.27	55.068
1346.87	126.941
1350.47	8.469
1354.07	209.518
1357.67	42.74
1361.26	105.377
1364.86	321.664
1368.45	220.469
1372.04	272.797
1375.63	271.928
1379.22	179.188
1382.81	357.166
1386.39	422.195
1389.98	288.607
1393.56	405.064
1397.14	307.48
1400.72	383.842
1404.3	421.213
1407.87	459.828
1411.45	456.639
1415.02	418.076
1418.59	283.613
1422.16	641.213
1425.73	331.576
1429.29	351.963
1432.86	161.527
1436.42	102.736
1439.98	324.578
1443.54	396.973
1447.1	298.914
1450.66	300.754
1454.21	652.1
1457.77	552.693
1461.32	154.814
1464.87	349.852
1468.42	65.246
1471.96	211.549
1475.51	274.357
1479.06	152.209
1482.6	147.48
1486.14	108.078
1489.68	110.312
1493.22	94.236
1496.75	77.256
1500.29	227.713
1503.82	187.131
1507.35	133.371
1510.88	167.016
1514.41	156.586
1517.94	152.439
