Measurement: Raman, 514 nm, ccw, Raman Data Processed
Mineral: Pyrope
Rruff sample: R060445
Ideal chemistry: Mg_3_Al_2_(SiO_4_)_3_
Locality: Tanzania
Source: Gemological Institute of America
Description: Deep red water worn pebble, variety rhodolite
Measured chemistry: (Mg_1.83_Fe_1.08_Ca_0.07_Mn_0.02_)_Î£=3_Al_2.00_(Si_1.00_O_4_)_3_
Pin_id: L00835
Orientation: Laser parallel to a* (1 0 0). Fiducial mark perpendicular to laser is parallel to -c [0 0 -1]
Raman shift (cm-1)	intensity
61.448	0
66.421	41.1132
71.392	37.4677
76.36	279.475
81.325	285.291
86.287	109.232
91.246	43.192
96.203	37.0866
101.156	333.508
106.107	553.973
111.055	700.879
116.001	827.744
120.944	731.792
125.883	805.997
130.821	860.032
135.755	868.796
140.686	915.461
145.615	997.894
150.541	801.952
155.464	852.39
160.385	733.849
165.303	783.372
170.218	675.981
175.13	916.777
180.039	1265.94
184.946	1321.55
189.85	1119.75
194.751	921.311
199.649	830.956
204.545	799.529
209.438	762.455
214.328	757.692
219.215	604.151
224.1	578.504
228.982	624.528
233.861	651.794
238.737	793.127
243.611	779.904
248.482	944.329
253.35	998.669
258.216	943.877
263.078	1013.92
267.938	1075.76
272.795	1135.37
277.65	1203.73
282.502	1202.89
287.351	1255.79
292.197	1262.08
297.041	1283.23
301.881	1388.87
306.72	1528.91
311.555	1747.74
316.388	1907.16
321.218	2270.22
326.045	2987.8
330.869	4102.88
335.691	6041.32
340.51	7894.74
345.327	10127.6
350.14	14678
354.951	19763.9
359.76	16507.2
364.565	10134.2
369.368	7493.74
374.168	6196.86
378.966	4120.55
383.76	2278.84
388.552	1212.8
393.342	727.294
398.128	445.358
402.912	333.98
407.693	225.252
412.472	130.186
417.248	83.8057
422.021	37.0129
426.792	5.77075
431.559	1.97998
436.324	12.5273
441.087	46.6716
445.847	52.6567
450.604	21.4831
455.358	37.3064
460.11	5.91455
464.859	10.6977
469.605	5.90308
474.349	51.6809
479.09	90.6326
483.828	150.793
488.564	238.215
493.297	237.858
498.027	386.685
502.755	548.726
507.48	615.913
512.202	622.239
516.922	769.715
521.639	927.284
526.353	1072.92
531.065	1080.96
535.774	1189.72
540.48	1593.85
545.184	2621.57
549.885	4601.38
554.583	8846.08
559.279	12494.9
563.972	8461.96
568.662	3869.83
573.35	1947.55
578.035	1060.2
582.718	795.21
587.398	636.7
592.075	566.466
596.75	498.481
601.422	469.092
606.091	459.805
610.758	468.778
615.422	611.57
620.083	415.384
624.742	268.41
629.398	291.079
634.051	391.767
638.702	407.623
643.351	579.869
647.996	411.928
652.639	192.326
657.28	225.972
661.917	130.806
666.553	70.3884
671.185	69.6067
675.815	57.4363
680.442	26.8088
685.067	30.3179
689.689	42.1824
694.309	28.8059
698.926	12.7937
703.54	33.2256
708.151	1.9751
712.761	19.7293
717.367	61.1631
721.971	10.7229
726.572	15.1003
731.171	8.74243
735.767	12.2168
740.36	13.4924
744.951	84.5098
749.539	12.2507
754.125	34.7935
758.708	77.134
763.288	21.7402
767.866	18.9268
772.442	35.6577
777.014	19.0405
781.584	6.18823
786.152	4.81226
790.717	47.9873
795.279	71.6426
799.839	5.82007
804.396	140.477
808.951	90.509
813.503	178.626
818.053	174.753
822.599	161.847
827.144	84.3481
831.686	261.544
836.225	212.312
840.761	422.382
845.295	461.766
849.827	727.696
854.356	1235.87
858.882	2003.95
863.406	2865.24
867.927	3102.04
872.446	2374.2
876.962	1967.07
881.476	2036.08
885.987	2548.74
890.495	3200.43
895.001	4323.15
899.505	5841.08
904.005	8742.87
908.504	14939
912.999	29125.2
917.493	58010.1
921.983	84140.1
926.471	60594.3
930.957	29670.3
935.44	15391.5
939.92	8655.14
944.398	5381.05
948.874	3535.35
953.346	2499.05
957.817	1834.19
962.285	1410.88
966.75	1176.13
971.213	1144.89
975.673	938.089
980.13	1186.99
984.586	1128.81
989.038	1233.8
993.488	1095.1
997.936	876.917
1002.38	818.688
1006.82	541.69
1011.26	460.602
1015.7	434.031
1020.14	571.647
1024.57	660.163
1029	733.21
1033.43	824.018
1037.85	763.05
1042.27	908.16
1046.69	1140.5
1051.11	1267.05
1055.53	1311.8
1059.94	1022.75
1064.35	630.884
1068.76	409.172
1073.16	224.602
1077.56	210.165
1081.96	89.8518
1086.36	108.652
1090.75	97.5588
1095.15	26.5576
1099.54	71.6387
1103.92	64.7559
1108.31	0.069824
1112.69	26.198
1117.07	55.4692
1121.45	38.2949
1125.82	39.3555
1130.2	85.7158
1134.57	30.5105
1138.93	6.60181
1143.3	42.9273
1147.66	34.4773
1152.02	85.634
1156.38	5.55713
1160.73	41.2197
1165.09	22.7676
1169.44	96.2207
1173.79	68.5784
1178.13	150.842
1182.47	295.996
1186.81	298.035
1191.15	259.95
1195.49	245.735
1199.82	326.394
1204.15	177.686
1208.48	282.268
1212.8	155.617
1217.13	247.879
1221.45	145.084
1225.77	273.242
1230.08	293.082
1234.39	207.104
1238.7	178.389
1243.01	284.388
1247.32	217.054
1251.62	218.193
1255.92	176.858
1260.22	243.683
1264.52	200.555
1268.81	280.621
1273.1	277.851
1277.39	289.418
1281.68	256.865
1285.96	319.221
1290.24	335.858
1294.52	265.177
1298.8	268.978
1303.07	246.661
1307.35	183.762
1311.62	316.088
1315.88	206.389
1320.15	235.202
1324.41	232.961
1328.67	171.447
1332.92	97.8987
1337.18	156.116
1341.43	93.2046
1345.68	56.7632
1349.93	76.8923
1354.17	118.347
1358.42	77.5781
1362.66	65.5762
1366.89	32.2749
1371.13	51.7231
1375.36	18.9688
1379.59	140.046
1383.82	61.1143
1388.05	6.17822
1392.27	9.20898
1396.49	23.2319
1400.71	1.13525
1404.93	42.9956
1409.14	68.7925
1413.35	2.52832
1417.56	10.7905
1421.77	139.767
1425.97	44.4956
1430.17	0.153809
1434.37	116.547
1438.57	126.765
1442.76	134.751
1446.96	169.543
1451.15	73.1416
1455.33	212.554
1459.52	93.5498
1463.7	87.916
1467.88	143.943
1472.06	107.087
1476.23	87.3789
1480.41	66.0864
1484.58	130.508
1488.75	205.634
1492.91	156.168
1497.08	142.937
1501.24	63.1514
1505.4	193.955
1509.55	94.1221
1513.71	71.7353
1517.86	109.441
1522.01	113.497
1526.15	90.1357
1530.3	131.963
1534.44	113.212
1538.58	78.1016
1542.72	50.2549
1546.85	92.5376
1550.99	143.221
1555.12	132.289
1559.24	12.8154
1563.37	84.79
1567.49	100.251
1571.62	0.133789
1575.73	31.7105
