Measurement: Raman, 514 nm, depolarized, Raman Data Processed
Mineral: Pyromorphite
Rruff sample: R050027
Ideal chemistry: Pb^2+^_5_(PO_4_)_3_Cl
Locality: Yangshuo, Guangxi Autonomous Region, China
Source: Eugene Schlepp
Description: Light green hexagonal prismatic hoppered single crystals
Measured chemistry: Pb_5.00_(P_1.00_O_4_)_3_Cl_1.00_
Pin_id: M00303
Orientation: Laser parallel to -c* (0 0 -1). Fiducial mark perpendicular to laser is parallel to a [1 0 0]
Raman shift (cm-1)	intensity
49.184	0
53.401	67.901
57.617	143.005
61.83	264.196
66.041	206.733
70.25	5.169
74.456	21.808
78.661	1.958
82.863	179
87.064	1332.54
91.262	2874.65
95.458	2484.94
99.652	3572.08
103.843	9464.78
108.033	12753.9
112.22	8923.42
116.406	5981.41
120.589	4405.81
124.77	3714.8
128.949	3317
133.126	3228.09
137.301	3228.23
141.473	3568.3
145.644	4255.03
149.812	5291.3
153.979	6237.44
158.143	6447.53
162.305	6000.61
166.465	5225.67
170.623	4519.74
174.778	4083.16
178.932	3686.46
183.083	3321.06
187.233	3066.24
191.38	2836.35
195.525	2754.74
199.669	2588.21
203.81	2533.4
207.949	2444.07
212.085	2334.72
216.22	2159.16
220.353	1926.33
224.483	1583.13
228.612	1350.37
232.738	1114.35
236.863	1010.47
240.985	878.079
245.105	804.707
249.223	705.806
253.339	667.39
257.453	606.04
261.565	513.735
265.675	451.46
269.783	420.203
273.888	328.956
277.992	267.71
282.093	232.543
286.193	166.378
290.29	140
294.386	100.128
298.479	30.157
302.57	48.501
306.659	17.852
310.746	12.249
314.831	6.769
318.914	61.824
322.995	4.318
327.074	53.649
331.151	40.172
335.226	19.487
339.299	19.955
343.37	2.355
347.438	11.382
351.505	9.214
355.57	11.53
359.632	29.563
363.693	33.362
367.751	37.847
371.808	84.911
375.862	145.814
379.914	297.662
383.965	532.402
388.013	1148.03
392.06	1629.59
396.104	1359.11
400.146	871.614
404.186	988.104
408.225	1526.6
412.261	2436.07
416.295	3521.49
420.327	2997.87
424.357	1621.2
428.386	758.496
432.412	384.714
436.436	221.845
440.458	133.875
444.478	97.779
448.496	99.52
452.513	73.07
456.527	69.424
460.539	42.336
464.549	42.574
468.557	53.447
472.563	57.171
476.567	39.685
480.57	32.249
484.57	15.703
488.568	6.642
492.564	12.869
496.558	9.033
500.551	3.124
504.541	46.074
508.529	26.464
512.515	50.866
516.5	50.533
520.482	58.163
524.462	72.617
528.441	90.233
532.417	118.626
536.391	297.797
540.364	810.184
544.334	904.587
548.303	533.667
552.269	575.928
556.234	605.376
560.197	382.09
564.157	357.26
568.116	557.641
572.073	1577.48
576.027	1952.24
579.98	1006.39
583.931	482.469
587.88	352.995
591.827	258.444
595.772	246.301
599.715	215.583
603.656	232.157
607.595	227.05
611.532	210.434
615.468	190.485
619.401	171.522
623.332	161.862
627.262	155.9
631.189	127.524
635.115	152.582
639.039	90.517
642.96	82.723
646.88	81.768
650.798	86.886
654.714	68.213
658.628	49.344
662.54	62.597
666.45	63.402
670.358	35.095
674.264	10.64
678.169	8.101
682.071	29.934
685.972	9.92
689.87	19.02
693.767	15.296
697.662	30.118
701.555	10.717
705.446	22.84
709.335	25.289
713.222	1.083
717.107	44.178
720.99	13.604
724.872	20.327
728.751	26.347
732.629	24.713
736.504	63.416
740.378	59.479
744.25	52.883
748.12	36.569
751.988	37.789
755.854	19.366
759.719	6.992
763.581	63.58
767.442	83.083
771.3	113.527
775.157	143.919
779.012	167.272
782.865	192.448
786.716	234.454
790.565	294.576
794.413	301.441
798.258	359.005
802.102	288.751
805.943	213.915
809.783	138.487
813.621	124.791
817.457	258.755
821.292	283.849
825.124	283.473
828.954	221.449
832.783	87.26
836.61	91.143
840.435	55.131
844.258	67.955
848.079	171.877
851.898	270.649
855.715	139.135
859.531	83.035
863.345	69.276
867.157	84.928
870.967	140.016
874.775	173.207
878.581	271.783
882.386	454.898
886.188	563.552
889.989	790.281
893.788	1081.78
897.585	1427.04
901.38	2033.01
905.174	3450.57
908.965	6826.63
912.755	15582.7
916.543	41685
920.329	47227.5
924.113	22920.4
927.895	10593.6
931.676	6391.14
935.454	6134.99
939.231	7919.19
943.006	10799.7
946.78	11804.6
950.551	9139.72
954.32	6108.22
958.088	3849.08
961.854	2660.28
965.618	2039.83
969.38	1744.72
973.141	1614.95
976.9	1625.54
980.656	1605.47
984.411	1584.8
988.165	1586.49
991.916	1689.55
995.665	1954
999.413	2580.82
1003.16	3553.01
1006.9	4778.53
1010.65	5252.41
1014.39	4633.67
1018.12	3656.17
1021.86	2795.31
1025.6	2150.68
1029.33	1653.39
1033.06	1327.69
1036.79	1117.57
1040.52	1070.64
1044.25	1130.27
1047.97	1001.22
1051.69	735.272
1055.41	667.1
1059.13	646.526
1062.85	676.623
1066.57	664.072
1070.28	734.926
1073.99	741.8
1077.7	692.239
1081.41	688.296
1085.12	685.047
1088.82	680.74
1092.52	677.632
1096.22	626.715
1099.92	584.595
1103.62	563.871
1107.32	448.027
1111.01	359.801
1114.7	324.808
1118.39	340.932
1122.08	339.46
1125.77	262.603
1129.45	269.183
1133.14	256.764
1136.82	268.133
1140.5	325.739
1144.18	419.194
1147.85	434.757
1151.53	456.998
1155.2	407.686
1158.87	227.377
1162.54	143.599
1166.21	103.7
1169.88	33.774
1173.54	9.673
1177.2	14.354
1180.86	3.351
1184.52	20.316
1188.18	47.793
1191.83	27.379
1195.49	53.117
1199.14	46.191
1202.79	29.613
1206.44	12.027
1210.08	44.99
1213.73	35.162
1217.37	24.27
1221.01	17.874
1224.65	26.759
1228.29	9.348
1231.93	6.819
1235.56	16.78
1239.19	34.146
1242.83	8.481
1246.46	6.968
1250.08	8.88
1253.71	9.966
1257.33	35.393
1260.96	16.289
1264.58	37.364
1268.19	31.715
1271.81	57.214
1275.43	77.74
1279.04	78
1282.65	56.85
1286.27	57.363
1289.87	84.695
1293.48	82.575
1297.09	76.164
1300.69	102.634
1304.29	94.806
1307.89	115.089
1311.49	103.75
1315.09	137.126
1318.68	120.254
1322.28	142.834
1325.87	137.495
1329.46	142.885
1333.05	116.318
1336.63	118.717
1340.22	104.421
1343.8	133.898
1347.38	66.274
1350.96	89.139
1354.54	73.392
1358.12	58.901
1361.69	83.093
1365.26	25.014
1368.83	66.992
1372.4	63.13
1375.97	60.013
1379.54	67.44
1383.1	30.216
1386.66	3.76
1390.23	32.181
1393.79	31.904
1397.34	34.488
1400.9	57.777
1404.45	40.209
1408.01	36.037
1411.56	33.707
1415.11	43.267
1418.66	5.755
1422.2	9.556
1425.75	17.019
1429.29	14.549
1432.83	52.338
1436.37	49.841
1439.91	51.25
1443.44	54.822
1446.98	64.495
1450.51	37.772
1454.04	23.072
1457.57	23.014
1461.1	52.439
1464.63	47.529
1468.15	44.47
1471.67	49.466
1475.19	26.008
1478.71	55.648
1482.23	104.65
1485.75	89.272
1489.26	88.71
1492.78	130.154
1496.29	99.735
1499.8	79.395
1503.31	19.447
1506.81	20.484
1510.32	21.07
1513.82	34.53
1517.32	0
