Measurement: Raman, 514 nm, ccw, Raman Data Processed
Mineral: Pyrope
Rruff sample: R060441
Ideal chemistry: Mg_3_Al_2_(SiO_4_)_3_
Locality: Apache County, Arizona, USA
Source: Gemological Institute of America
Description: Deep red fragment
Measured chemistry: (Mg_1.83_Fe_0.75_Ca_0.39_Mn_0.03_)_Σ=3_(Al_1.95_Cr_0.05_)_Σ=2_(Si_1.00_O_4_)_3_
Pin_id: L00962
Orientation: Laser parallel to a [1 0 0]. Fiducial mark perpendicular to laser is parallel to -c* (0 0 -1)
Raman shift (cm-1)	intensity
62.899	0
67.89	67.4238
72.879	133.294
77.864	146.682
82.846	6.25163
87.824	64.8568
92.8	112.449
97.773	306.137
102.742	813.46
107.708	1317.34
112.672	1553.92
117.632	2100.46
122.589	2008.46
127.543	2070.05
132.494	2200.24
137.441	2157.57
142.386	2267.86
147.328	2155.68
152.266	1985.54
157.202	1747.47
162.134	1358.93
167.063	1163.06
171.99	1208.88
176.913	1481.73
181.833	2079.8
186.75	2488.48
191.664	2234.41
196.575	1982.82
201.483	1776.45
206.388	1842.29
211.29	1848.07
216.189	1811.29
221.085	1771.2
225.977	1678.67
230.867	1599.03
235.754	1736.86
240.638	1814.38
245.518	1980.75
250.396	1975.58
255.271	1933.15
260.143	2020.09
265.011	2019.56
269.877	2016.06
274.74	1979.52
279.6	1970.45
284.457	2025.89
289.31	2476.86
294.161	2100.58
299.009	2301.9
303.854	2432.02
308.696	2722.41
313.535	2998.17
318.371	3328.95
323.204	3765.48
328.034	4638.51
332.861	6246.95
337.686	8696.75
342.507	11565.9
347.325	15172.2
352.141	21142.9
356.953	29735.7
361.763	34573
366.569	27993.9
371.373	19544.3
376.174	14147.4
380.972	10470.1
385.767	7336.34
390.559	5145.02
395.348	3388.05
400.134	2179.4
404.918	1413.07
409.698	1005.06
414.476	674.483
419.25	236.554
424.022	92.2808
428.791	50.3281
433.557	103.617
438.32	125.506
443.081	72.655
447.838	162.644
452.593	98.3572
457.344	17.3137
462.093	148.72
466.839	287.079
471.582	482.289
476.323	458.632
481.06	564.916
485.795	606.203
490.526	590.092
495.255	721.509
499.981	905.421
504.705	1259.78
509.425	1707.55
514.143	1632.68
518.857	2027.13
523.569	2331.86
528.278	2661.81
532.985	2940.95
537.688	3370.44
542.389	4489.19
547.087	6664.57
551.782	11157.6
556.474	18573.5
561.164	22877.1
565.851	14967.1
570.535	7094.32
575.216	3525.49
579.894	2252.92
584.57	1607.4
589.243	1402.19
593.913	1188.13
598.58	1096.24
603.245	988.818
607.907	1019.77
612.566	998.938
617.222	1088.65
621.875	935.481
626.526	1030.94
631.174	1104.51
635.82	1511.51
640.462	2102.62
645.102	2054.99
649.739	1674.63
654.373	1390.51
659.005	1086.62
663.634	828.956
668.26	516.137
672.884	330.26
677.504	260.214
682.122	105.344
686.738	130.512
691.35	27.3179
695.96	22.6419
700.567	45.7844
705.172	80.8731
709.774	85.032
714.373	30.0234
718.969	72.5708
723.563	83.5293
728.154	45.928
732.743	73.4121
737.328	19.0325
741.912	3.78687
746.492	1.44019
751.07	12.8289
755.645	34.4832
760.217	73.5093
764.787	37.9436
769.354	50.8254
773.918	72.2324
778.48	104.187
783.039	134.726
787.596	181.879
792.15	211.674
796.701	235.14
801.25	212.307
805.796	456.204
810.339	457.863
814.88	723.106
819.418	1044.76
823.953	1442.51
828.486	1922.6
833.016	2019.65
837.544	2130.17
842.069	2465.2
846.591	3123.21
851.111	4036.3
855.628	5334.52
860.143	6491.82
864.655	6714.57
869.164	5818.84
873.671	5220.79
878.176	5267.09
882.677	5792.06
887.176	7015.01
891.673	8894.52
896.167	11867.7
900.658	16965
905.147	27986.2
909.633	49924
914.117	89402.6
918.598	122467
923.077	102771
927.553	59306.6
932.026	32974
936.497	19058.2
940.966	12128.1
945.431	8081.86
949.895	5724.35
954.355	4370.44
958.814	3750.39
963.269	3280.94
967.723	2966.82
972.173	2612.97
976.621	2434.7
981.067	2275.7
985.51	2150.25
989.951	1885.82
994.389	1571.71
998.824	1213.89
1003.26	1100.97
1007.69	1142.34
1012.12	1385.97
1016.54	1754.86
1020.96	2372.89
1025.38	2658.7
1029.8	2810.87
1034.22	2789.94
1038.63	2795.52
1043.04	2899.56
1047.45	3128.05
1051.86	2967.96
1056.26	2499.28
1060.66	1671.99
1065.06	975.053
1069.45	755.467
1073.85	183.973
1078.24	213.219
1082.63	179.533
1087.01	120.121
1091.4	108.963
1095.78	10.0542
1100.16	67.3357
1104.53	86.2852
1108.91	30.0408
1113.28	4.99146
1117.65	185.114
1122.01	55.0259
1126.38	57.3774
1130.74	92.3303
1135.1	75.1306
1139.45	29.7969
1143.81	12.6773
1148.16	48.5549
1152.51	60.5325
1156.86	25.1609
1161.2	101.384
1165.54	211.346
1169.88	255.026
1174.22	298.153
1178.56	378.48
1182.89	399.513
1187.22	424.606
1191.55	434.638
1195.87	449.352
1200.19	414.697
1204.52	449.801
1208.83	367.557
1213.15	343.253
1217.46	475.8
1221.78	358.581
1226.08	423.88
1230.39	389.906
1234.69	360.656
1239	330.082
1243.3	363.533
1247.59	326.319
1251.89	288.158
1256.18	324.502
1260.47	332.664
1264.76	397.503
1269.04	410.798
1273.33	403.491
1277.61	455.923
1281.88	418.196
1286.16	426.554
1290.43	353.331
1294.7	330.451
1298.97	347.943
1303.24	296.461
1307.51	349.049
1311.77	291.412
1316.03	233.342
1320.28	212.962
1324.54	211.104
1328.79	153.975
1333.04	130.462
1337.29	69.1887
1341.54	60.8159
1345.78	91.2481
1350.02	5.29443
1354.26	64.8472
1358.5	84.9043
1362.73	10.553
1366.96	51.9238
1371.19	40.0527
1375.42	14.9805
1379.65	17.9038
1383.87	21.1924
1388.09	29.6582
1392.31	54.5278
1396.52	34.5105
1400.74	48.5166
1404.95	40.5281
1409.16	13.4805
1413.37	53.3181
1417.57	53.0071
1421.77	111.505
1425.97	14.8286
1430.17	86.9917
1434.37	48.0352
1438.56	59.1135
1442.75	21.2175
1446.94	81.3833
1451.13	111.158
1455.31	103.346
1459.5	102.873
1463.68	137.848
1467.85	166.219
1472.03	174.337
1476.2	137.287
1480.37	193.872
1484.54	231.709
1488.71	162.24
1492.88	209.981
1497.04	181.444
1501.2	124.757
1505.36	190.164
1509.51	203.01
1513.66	237.835
1517.82	85.1233
1521.97	188.903
1526.11	132.295
1530.26	90.9619
1534.4	143.596
1538.54	110.907
1542.68	83.4822
1546.82	60.2273
1550.95	53.4448
1555.08	201.556
1559.21	15.6633
1563.34	89.8455
1567.46	4.31372
1571.59	66.4946
1575.71	4.29443
