Measurement: Raman, 514 nm, depolarized, Raman Data Processed
Mineral: Pyromorphite
Rruff sample: R050015
Ideal chemistry: Pb^2+^_5_(PO_4_)_3_Cl
Locality: Bunker Hill mine, Shoshone County, Idaho, USA
Source: Eugene Schlepp
Description: Yellowish green prismatic hexagonal single crystals
Measured chemistry: Pb_5.00_((P_0.88_As_0.12_)O_4_)_3_Cl_1.00_
Pin_id: M00344
Orientation: Laser parallel to -a* (-1 0 0). Fiducial mark perpendicular to laser is parallel to -c [0 0 -1]
Raman shift (cm-1)	intensity
82.863	0
87.064	659.819
91.262	1191.64
95.458	1096.74
99.652	3104.41
103.843	9815.03
108.033	7792.51
112.22	3929.47
116.406	2871.55
120.589	1789.68
124.77	1159.08
128.949	1187.98
133.126	1453.2
137.301	1683.64
141.473	1993.73
145.644	2599.31
149.812	2907.14
153.979	2808.66
158.143	2867.35
162.305	3164.17
166.465	3255.04
170.623	3492.66
174.778	4386.26
178.932	4895.81
183.083	4764.14
187.233	4253.8
191.38	3671.87
195.525	2953.78
199.669	2062.97
203.81	1799.59
207.949	1467.04
212.085	1043.94
216.22	834.861
220.353	649.5
224.483	474.702
228.612	317.459
232.738	176.733
236.863	120.461
240.985	14.472
245.105	136.298
249.223	106.915
253.339	131.818
257.453	146.932
261.565	198.902
265.675	197.473
269.783	125.622
273.888	149.964
277.992	134.952
282.093	55.804
286.193	8.643
290.29	10.628
294.386	88.316
298.479	176.232
302.57	296.003
306.659	443.011
310.746	804.11
314.831	1014.02
318.914	1335.62
322.995	1526.81
327.074	1717.02
331.151	1961.28
335.226	2087.1
339.299	2162.03
343.37	2360.89
347.438	2328.55
351.505	1873.92
355.57	1481.72
359.632	1364.6
363.693	1322.39
367.751	1419.62
371.808	1575.44
375.862	1813.59
379.914	2146.59
383.965	2633.5
388.013	3528.08
392.06	4094.09
396.104	3607.98
400.146	3098.07
404.186	3601.34
408.225	4965.01
412.261	5085.66
416.295	3955.63
420.327	2759.19
424.357	1914.19
428.386	1572.52
432.412	1292.69
436.436	1044.52
440.458	791.861
444.478	686.532
448.496	634.055
452.513	532.636
456.527	451.408
460.539	471.913
464.549	412.512
468.557	440.607
472.563	307.599
476.567	270.125
480.57	374.63
484.57	309.893
488.568	291.299
492.564	305.203
496.558	303.853
500.551	323.864
504.541	292.18
508.529	250.913
512.515	350.393
516.5	386.626
520.482	412.115
524.462	262.218
528.441	320.622
532.417	460.561
536.391	564.685
540.364	569.418
544.334	637.566
548.303	797.426
552.269	983.615
556.234	796.709
560.197	575.442
564.157	509.461
568.116	645.412
572.073	921.305
576.027	795.571
579.98	427.793
583.931	335.899
587.88	335.023
591.827	314.194
595.772	321.441
599.715	286.419
603.656	283.391
607.595	302.276
611.532	323.401
615.468	224.029
619.401	242.411
623.332	238.779
627.262	199.528
631.189	180.931
635.115	116.236
639.039	146.728
642.96	165.321
646.88	67.562
650.798	8.694
654.714	32.437
658.628	29.141
662.54	79.665
666.45	7.768
670.358	23.327
674.264	40.655
678.169	11.057
682.071	28.629
685.972	28.179
689.87	11.325
693.767	51.276
697.662	58.826
701.555	55.607
705.446	46.9
709.335	88.242
713.222	70.784
717.107	73.323
720.99	11.177
724.872	69.823
728.751	12.3
732.629	38.519
736.504	44.056
740.378	99.033
744.25	187.598
748.12	166.094
751.988	221.476
755.854	320.007
759.719	503.672
763.581	653.376
767.442	886.155
771.3	1193.53
775.157	1735.53
779.012	2743.29
782.865	3030
786.716	3189.03
790.565	3037.57
794.413	3000.7
798.258	3373.05
802.102	3954.81
805.943	6432.51
809.783	9419.2
813.621	21266.2
817.457	33163.1
821.292	20878.6
825.124	12213.5
828.954	8251.85
832.783	5404.36
836.61	4458.81
840.435	4037.57
844.258	4598.26
848.079	6150
851.898	6011.6
855.715	3257.04
859.531	1493.73
863.345	838.874
867.157	788.294
870.967	744.727
874.775	716.608
878.581	619.105
882.386	412.359
886.188	345.137
889.989	376.352
893.788	482.142
897.585	627.537
901.38	877.56
905.174	1675.13
908.965	3484.33
912.755	8284.1
916.543	18715.5
920.329	19407.4
924.113	11119.9
927.895	6732.91
931.676	6616.43
935.454	9250.48
939.231	13565.1
943.006	16470.2
946.78	14645.8
950.551	9902.03
954.32	6628.76
958.088	4466.04
961.854	3237.73
965.618	2362.04
969.38	1851.14
973.141	1700.64
976.9	1568.71
980.656	1633.48
984.411	1517.92
988.165	1394.81
991.916	1257.5
995.665	1204.85
999.413	1421.85
1003.16	1809.51
1006.9	2047.84
1010.65	2332.84
1014.39	2334.26
1018.12	2229.09
1021.86	1907.18
1025.6	1700.37
1029.33	1479.59
1033.06	1355.41
1036.79	1061.85
1040.52	940.546
1044.25	938.996
1047.97	763.732
1051.69	669.215
1055.41	586.559
1059.13	581.314
1062.85	518.984
1066.57	406.398
1070.28	340.038
1073.99	323.329
1077.7	337.554
1081.41	348.883
1085.12	379.225
1088.82	329.19
1092.52	287.174
1096.22	167.356
1099.92	111.707
1103.62	93.428
1107.32	133.533
1111.01	21.412
1114.7	9.353
1118.39	0.705
1122.08	217.008
1125.77	2.01
1129.45	38.281
1133.14	15.014
1136.82	82.559
1140.5	180.052
1144.18	215.535
1147.85	207.451
1151.53	77.921
1155.2	33.632
1158.87	17.874
1162.54	33.974
1166.21	19.139
1169.88	8.745
1173.54	51.462
1177.2	2.732
1180.86	108.697
1184.52	1.096
1188.18	45.223
1191.83	30.797
1195.49	47.81
1199.14	13.245
1202.79	20.48
1206.44	2.04
1210.08	36.447
1213.73	9.627
1217.37	20.655
1221.01	126.678
1224.65	91.476
1228.29	105.577
1231.93	143.901
1235.56	102.333
1239.19	107.279
1242.83	82.818
1246.46	105.97
1250.08	93.492
1253.71	124.767
1257.33	118.039
1260.96	167.914
1264.58	142.728
1268.19	152.06
1271.81	199.095
1275.43	181.991
1279.04	97.826
1282.65	118.876
1286.27	110.313
1289.87	186.181
1293.48	112.984
1297.09	93.133
1300.69	207.774
1304.29	102.382
1307.89	49.886
1311.49	119.594
1315.09	155.56
1318.68	164.937
1322.28	177.795
1325.87	191.514
1329.46	171.003
1333.05	147.303
1336.63	131.081
1340.22	50.234
1343.8	13.3
1347.38	132.648
1350.96	128.444
1354.54	78.5
1358.12	126.737
1361.69	218.811
1365.26	155.047
1368.83	103.851
1372.4	36.328
1375.97	57.241
1379.54	77.167
1383.1	87.593
1386.66	89.688
1390.23	145.236
1393.79	215.144
1397.34	193.416
1400.9	121.818
1404.45	126.951
1408.01	98.569
1411.56	38.984
1415.11	102.293
1418.66	104.74
1422.2	51.331
1425.75	112.34
1429.29	170.864
1432.83	169.803
1436.37	100.068
1439.91	277.011
1443.44	153.506
1446.98	127.85
1450.51	121.96
1454.04	160.253
1457.57	86.18
1461.1	121.025
1464.63	166.477
1468.15	146.987
1471.67	169.36
1475.19	161.512
1478.71	213.073
1482.23	124.576
1485.75	177.081
1489.26	72.851
1492.78	53.011
1496.29	92.917
1499.8	83.602
1503.31	54.293
1506.81	138.248
1510.32	149.36
1513.82	151.322
1517.32	0
