Measurement: Raman, 514 nm, ccw, Raman Data Processed
Mineral: Pyrope
Rruff sample: R040159
Ideal chemistry: Mg_3_Al_2_(SiO_4_)_3_
Locality: Meronitz, Bohemia
Source: University of Arizona Mineral Museum
Description: Deep red crystal fragments
Measured chemistry: (Mg_2.17_Fe^2+^_0.47_Ca_0.34_Mn_0.02_)_Σ=3_(Al_1.86_Cr_0.11_Ti_0.03_)_Σ=2_((Si_0.99_Al_0.01_)_Σ=1_O_4_)_3_; trace amounts of Rb?
Pin_id: L01351
Orientation: Laser parallel to (1 1 1). Fiducial mark perpendicular to laser is parallel to [-1 1 0]
Raman shift (cm-1)	intensity
88.228	0
93.183	199.721
98.135	55.2544
103.085	135.117
108.032	534.882
112.976	747.697
117.917	1081.23
122.856	829.678
127.792	612.735
132.725	760.842
137.656	805.053
142.583	654.128
147.508	687.277
152.431	558.045
157.35	217.237
162.267	28.2246
167.181	44.5547
172.092	60.8667
177.001	34.7788
181.907	175.265
186.81	530.616
191.711	1074.58
196.608	1699.47
201.503	2072.17
206.395	2330.34
211.285	2343.38
216.172	1926.06
221.056	1480.4
225.937	1003.39
230.816	957.05
235.692	899.927
240.565	1021.52
245.436	1024.3
250.304	1064.45
255.169	1115.91
260.031	1138.42
264.891	1126.96
269.748	1003.72
274.602	1099.45
279.454	1026.24
284.303	1006.84
289.149	1252.07
293.992	1139.2
298.833	1288.93
303.671	1434.85
308.507	1638.17
313.339	2028.31
318.169	2425.68
322.996	2578.52
327.821	2714.33
332.643	3240.53
337.462	4421.23
342.279	6127.4
347.092	9405
351.904	14798.1
356.712	22868.6
361.518	26944.6
366.321	21364
371.121	13763.8
375.919	8978.12
380.714	6230.8
385.506	4171.9
390.296	2761.3
395.083	1790.36
399.867	1235.91
404.649	773.452
409.428	515.704
414.204	272.478
418.978	126.686
423.749	65.832
428.517	30.0244
433.282	97.8589
438.045	130.582
442.806	119.056
447.563	12.7339
452.318	98.8936
457.07	280.628
461.82	614.208
466.567	797.169
471.311	1096.72
476.053	1352.61
480.792	1744.85
485.528	2284.43
490.262	2105.38
494.992	1906.54
499.721	2162.83
504.446	3039.22
509.169	3893.67
513.89	3380.18
518.607	2824.73
523.322	2871.29
528.035	2934.84
532.745	3285.71
537.452	3973.85
542.156	5646.2
546.858	8527.94
551.557	14083.8
556.254	21484.6
560.947	20828.7
565.639	11375.4
570.327	5467.56
575.013	2993.53
579.697	2155.78
584.377	1736.26
589.055	1564.13
593.731	1461.09
598.403	1264.66
603.074	987.678
607.741	955.01
612.406	748.974
617.068	913.759
621.728	950.41
626.385	1379.06
631.039	2197.29
635.691	3491.18
640.34	5198.97
644.987	5098.15
649.63	3002.71
654.272	1807.66
658.91	1204
663.546	823.711
668.18	502.797
672.81	342.255
677.439	196.084
682.064	67.2651
686.687	59.6555
691.307	81.196
695.925	26.7698
700.54	56.9412
705.153	38.2918
709.763	28.7087
714.37	101.228
718.974	57.7805
723.577	21.5898
728.176	30.4932
732.773	17.2847
737.367	18.0273
741.959	1.28296
746.548	16.8748
751.134	68.8794
755.718	37.136
760.299	50.79
764.878	12.5486
769.454	39.4961
774.028	30.0691
778.598	39.2915
783.167	148.211
787.732	165.852
792.295	229.237
796.856	271.391
801.414	291.336
805.969	355.099
810.522	481.703
815.072	702.173
819.62	872.448
824.165	1165.21
828.707	1492.31
833.247	1913.41
837.784	2273.57
842.319	3309.59
846.851	4983.71
851.381	7913.04
855.908	12011.9
860.432	14798
864.954	13210
869.473	9852.07
873.99	7504.64
878.504	6325.31
883.015	6152.81
887.524	6828.71
892.031	8386.59
896.535	10371.3
901.036	14365.7
905.535	23330.5
910.031	41908.7
914.524	70845.7
919.015	88065.3
923.504	65240.5
927.99	36016.3
932.473	19954.8
936.954	12056.9
941.432	7589.59
945.908	5140.95
950.381	3771.18
954.852	2946.67
959.32	2596.14
963.785	2177.38
968.248	1906.5
972.708	1735.79
977.166	1631.68
981.622	1536.65
986.074	1444.52
990.525	1293.37
994.972	949.358
999.417	786.458
1003.86	656.399
1008.3	690.739
1012.74	883.56
1017.17	1093.08
1021.61	1559.57
1026.04	1958.18
1030.46	2088.79
1034.89	2532.81
1039.31	2871.28
1043.73	3731.2
1048.15	4676.52
1052.56	5346.2
1056.97	4376.23
1061.38	2730.59
1065.79	1566.27
1070.19	906.252
1074.6	445.514
1079	335.053
1083.39	248.849
1087.79	164.88
1092.18	140.179
1096.57	11.7007
1100.96	44.4397
1105.34	3.32227
1109.72	6.2749
1114.1	50.7554
1118.48	44.2932
1122.85	46.229
1127.22	72.9827
1131.6	71.3591
1135.96	75.5544
1140.33	38.5701
1144.69	32.1746
1149.05	73.3279
1153.4	45.7571
1157.76	122.358
1162.11	132.545
1166.46	77.4314
1170.81	130.104
1175.15	177.554
1179.49	179.75
1183.83	200.675
1188.17	229.316
1192.5	285.669
1196.84	256.722
1201.16	258.572
1205.49	214.914
1209.82	364.941
1214.14	346.281
1218.46	174.049
1222.77	320.138
1227.09	275.323
1231.4	254.307
1235.71	316.845
1240.02	291.115
1244.32	299.342
1248.62	250.251
1252.92	335.953
1257.22	312.227
1261.51	253.697
1265.81	342.116
1270.1	212.519
1274.38	271.004
1278.67	268.481
1282.95	391.484
1287.23	305.812
1291.51	173.654
1295.78	196.242
1300.05	255.339
1304.32	211.446
1308.59	232.996
1312.86	190.11
1317.12	184.189
1321.38	165.415
1325.63	93.269
1329.89	106.677
1334.14	83.5137
1338.39	50.51
1342.64	41.8843
1346.88	36.5732
1351.13	109.078
1355.37	25.8223
1359.61	86.1291
1363.84	31.3779
1368.07	101.986
1372.3	6.25366
1376.53	22.7209
1380.76	26.1621
1384.98	59.9519
1389.2	57.8345
1393.42	19.7463
1397.64	11.6855
1401.85	9.4812
1406.06	28.2932
1410.27	17.6633
1414.47	50.115
1418.68	81.7271
1422.88	77.1497
1427.08	131.371
1431.27	85.4307
1435.47	92.3916
1439.66	67.3894
1443.85	14.1526
1448.03	65.9468
1452.22	68.4292
1456.4	29.6741
1460.58	30.3486
1464.76	9.16211
1468.93	151.858
1473.1	137.31
1477.27	60.5317
1481.44	123.534
1485.6	171.369
1489.77	124.442
1493.92	168.473
1498.08	102.448
1502.24	146.261
1506.39	82.5635
1510.54	136.821
1514.69	152.567
1518.83	162.359
1522.97	147.638
1527.12	72.4248
1531.25	56.2529
1535.39	88.1414
1539.52	17.6685
1543.65	118.246
1547.78	28.0347
1551.91	65.0315
1556.03	80.8567
1560.15	9.41333
1564.27	130.388
1568.39	63.7625
1572.5	129.913
1576.61	0
