Measurement: Raman, 514 nm, depolarized, Raman Data Processed
Mineral: Pyrope
Rruff sample: R060445
Ideal chemistry: Mg_3_Al_2_(SiO_4_)_3_
Locality: Tanzania
Source: Gemological Institute of America
Description: Deep red water worn pebble, variety rhodolite
Measured chemistry: (Mg_1.83_Fe_1.08_Ca_0.07_Mn_0.02_)_Î£=3_Al_2.00_(Si_1.00_O_4_)_3_
Pin_id: L00835
Orientation: Laser parallel to a* (1 0 0). Fiducial mark perpendicular to laser is parallel to -c [0 0 -1]
Raman shift (cm-1)	intensity
61.448	0
66.421	19.753
71.392	70.7874
76.36	250.807
81.325	142.857
86.287	39.7775
91.246	37.3711
96.203	90.2731
101.156	443.836
106.107	876.217
111.055	904.399
116.001	1164.89
120.944	1179.47
125.883	1342.14
130.821	1371.85
135.755	1553.41
140.686	1613.56
145.615	1609.7
150.541	1636.72
155.464	1521.47
160.385	1343.65
165.303	1389.32
170.218	1248.51
175.13	1351.99
180.039	1527.57
184.946	1630.7
189.85	1543.03
194.751	1425.94
199.649	1634.21
204.545	1926.73
209.438	2137.01
214.328	1753.99
219.215	1183.2
224.1	1010.87
228.982	900.795
233.861	948.471
238.737	961.116
243.611	1014.48
248.482	1086.6
253.35	1175.99
258.216	1126.61
263.078	1205.4
267.938	1322.31
272.795	1267.31
277.65	1271.82
282.502	1280.79
287.351	1312.07
292.197	1272.32
297.041	1287.65
301.881	1461.53
306.72	1606.54
311.555	1896.2
316.388	2445.28
321.218	2445.92
326.045	2804.08
330.869	3677.07
335.691	5198.81
340.51	6882.28
345.327	9326.44
350.14	14090.3
354.951	20013.8
359.76	16718.2
364.565	9888.37
369.368	6904.43
374.168	5563.34
378.966	3727.09
383.76	2114.74
388.552	1133.3
393.342	633.668
398.128	374.836
402.912	305.812
407.693	155.735
412.472	114.599
417.248	105.483
422.021	17.2398
426.792	15.2349
431.559	7.20166
436.324	39.8774
441.087	30.1831
445.847	20.9775
450.604	109.529
455.358	60.9927
460.11	13.7734
464.859	4.90479
469.605	75.374
474.349	227.257
479.09	420.553
483.828	852.249
488.564	822.362
493.297	497.918
498.027	776.837
502.755	1520.09
507.48	1949.64
512.202	1129.48
516.922	882.593
521.639	896.992
526.353	1049.61
531.065	1140.15
535.774	1234.04
540.48	1553.28
545.184	2669.95
549.885	4633.79
554.583	8736.68
559.279	12694.6
563.972	8953.75
568.662	4047.51
573.35	1981.43
578.035	1189.46
582.718	807.621
587.398	782.167
592.075	774.347
596.75	543.688
601.422	440.632
606.091	468.164
610.758	420.187
615.422	467.702
620.083	312.872
624.742	214.749
629.398	429.375
634.051	801.501
638.702	1447.25
643.351	1651.65
647.996	895.609
652.639	543.931
657.28	265.635
661.917	178.073
666.553	44.6533
671.185	88.8472
675.815	29.6118
680.442	94.8755
685.067	28.4448
689.689	6.67676
694.309	39.8057
698.926	2.96973
703.54	33.8975
708.151	26.1489
712.761	33.9985
717.367	66.5776
721.971	31.1821
726.572	2.39209
731.171	34.729
735.767	14.9619
740.36	105.974
744.951	38.7373
749.539	41.2627
754.125	4.53076
758.708	31.3828
763.288	12.0112
767.866	37.7808
772.442	18.0386
777.014	27.5811
781.584	40.8789
786.152	38.0395
790.717	29.2114
795.279	35.6191
799.839	17.7021
804.396	30.8174
808.951	177.079
813.503	205.669
818.053	218.297
822.599	271.574
827.144	252.17
831.686	345.354
836.225	459.349
840.761	592.283
845.295	779.22
849.827	1161.7
854.356	2050.92
858.882	3466.39
863.406	5421.68
867.927	6108.95
872.446	4214.73
876.962	3114.49
881.476	2700.8
885.987	3000.68
890.495	3697.13
895.001	5069.36
899.505	7054.59
904.005	9675.48
908.504	15432.6
912.999	29691.9
917.493	58522.6
921.983	86299.4
926.471	63729.9
930.957	31414.2
935.44	16006.8
939.92	9055.38
944.398	5666.38
948.874	3670.78
953.346	2675.63
957.817	1809.01
962.285	1426.05
966.75	1242.81
971.213	1074.23
975.673	1101.45
980.13	1004.14
984.586	1181.18
989.038	1203.43
993.488	1132.98
997.936	870.547
1002.38	840.504
1006.82	533.484
1011.26	477.951
1015.7	505.416
1020.14	584.882
1024.57	672.71
1029	840.135
1033.43	930.914
1037.85	1186.65
1042.27	1463.49
1046.69	1801.4
1051.11	2435.55
1055.53	2753.93
1059.94	2253.55
1064.35	1342.4
1068.76	681.492
1073.16	447.75
1077.56	333.17
1081.96	259.734
1086.36	253.434
1090.75	59.271
1095.15	96.2261
1099.54	64.1977
1103.92	32.2407
1108.31	56.4082
1112.69	5.63184
1117.07	27.1186
1121.45	6.93652
1125.82	24.334
1130.2	8.53857
1134.57	83.6533
1138.93	13.563
1143.3	78.6489
1147.66	19.4224
1152.02	23.8486
1156.38	5.40967
1160.73	8.021
1165.09	94.4849
1169.44	10.311
1173.79	245.639
1178.13	270.468
1182.47	168.214
1186.81	308.725
1191.15	360.131
1195.49	252.381
1199.82	268.53
1204.15	327.914
1208.48	287.638
1212.8	313.172
1217.13	308.458
1221.45	259.225
1225.77	253.925
1230.08	234.265
1234.39	354.291
1238.7	322.059
1243.01	193.567
1247.32	126.658
1251.62	280.151
1255.92	200.023
1260.22	343.199
1264.52	314.978
1268.81	321.276
1273.1	378.481
1277.39	402.658
1281.68	333.345
1285.96	414.31
1290.24	373.331
1294.52	259.052
1298.8	339.862
1303.07	331.176
1307.35	344.177
1311.62	376.932
1315.88	250.352
1320.15	250.855
1324.41	291.794
1328.67	183.532
1332.92	153.073
1337.18	154.46
1341.43	68.6777
1345.68	219.696
1349.93	40.8838
1354.17	176.258
1358.42	42.2881
1362.66	27.8755
1366.89	103.561
1371.13	110.803
1375.36	143.148
1379.59	84.7109
1383.82	127.279
1388.05	129.538
1392.27	48.8315
1396.49	83.1782
1400.71	110.501
1404.93	51.8975
1409.14	139.167
1413.35	65.9233
1417.56	28.668
1421.77	64.9595
1425.97	183.871
1430.17	107.781
1434.37	104.435
1438.57	191.856
1442.76	139.855
1446.96	259.627
1451.15	219.539
1455.33	175.553
1459.52	242.964
1463.7	144.627
1467.88	175.764
1472.06	45.5903
1476.23	212.466
1480.41	148.824
1484.58	53.0303
1488.75	163.673
1492.91	213.51
1497.08	90.2398
1501.24	275.959
1505.4	280.079
1509.55	57.7935
1513.71	230.18
1517.86	152.045
1522.01	184.397
1526.15	133.579
1530.3	186.235
1534.44	112.299
1538.58	70.7295
1542.72	167.633
1546.85	90.8486
1550.99	119.522
1555.12	91.9951
1559.24	204.193
1563.37	34.3779
1567.49	145.808
1571.62	10.4639
1575.73	56.1191
