Measurement: Raman, 514 nm, depolarized, Raman Data Processed
Mineral: Pyromorphite
Rruff sample: R050085
Ideal chemistry: Pb^2+^_5_(PO_4_)_3_Cl
Locality: Bunker Hill mine, Shoshone County, Idaho, USA
Source: Eugene Schlepp
Description: Group of orange hexagonal prisms
Measured chemistry: Pb_5.00_(P_0.96_As_0.04_O_4_)_3_Cl_1.00_
Pin_id: L00335
Orientation: Laser parallel to c* (0 0 1). Fiducial mark perpendicular to laser is parallel to a [1 0 0]
Raman shift (cm-1)	intensity
51.274	0
55.47	4.763
59.664	132.353
63.855	279.875
68.045	87.586
72.233	291.15
76.418	708.817
80.602	1636.59
84.784	6220.01
88.964	16871.6
93.142	17801.7
97.318	10697.3
101.492	11486.5
105.664	18548.3
109.834	18913.5
114.002	11066.9
118.168	6388.64
122.332	3926.88
126.495	2781.42
130.655	2203.8
134.813	1995.13
138.97	1938.9
143.124	2254.02
147.277	2832.1
151.427	3758.42
155.576	4462.11
159.723	4663.86
163.867	4296.55
168.01	3456.26
172.151	2768.25
176.29	2390.03
180.427	2155.46
184.562	2076.41
188.696	1956.69
192.827	1893.48
196.956	1921.77
201.084	1721.68
205.209	1636.87
209.333	1550.34
213.454	1430.72
217.574	1356.96
221.692	1048.31
225.808	838.86
229.922	621.921
234.034	470.753
238.144	435.727
242.252	291.417
246.359	248.531
250.463	216.343
254.566	219.177
258.666	175.364
262.765	130.304
266.862	90.923
270.957	23.155
275.05	11.072
279.141	60.928
283.23	51.419
287.317	77.49
291.403	99.316
295.486	101.931
299.568	65.558
303.647	95.196
307.725	76.669
311.801	44.198
315.875	22.212
319.947	15.134
324.018	3.02
328.086	50.147
332.153	91.143
336.217	146.383
340.28	188.972
344.341	298.877
348.4	345.198
352.457	315.416
356.512	256.609
360.566	207.702
364.617	243.138
368.667	318.784
372.715	410.662
376.761	547.211
380.805	561.116
384.847	644.681
388.887	815.8
392.926	1081.41
396.962	965.437
400.997	876.885
405.03	1076.73
409.061	1601.92
413.09	2441.44
417.117	3495.25
421.143	3202.35
425.166	1946.56
429.188	1195.24
433.208	929.186
437.226	753.939
441.242	597.642
445.256	564.3
449.269	505.133
453.28	451.548
457.288	435.82
461.295	395.812
465.3	386.059
469.304	314.86
473.305	284.953
477.305	283.435
481.303	238.114
485.298	210.159
489.293	212.316
493.285	219.289
497.275	208.153
501.264	224.615
505.251	226.422
509.236	206.348
513.219	210.959
517.2	259.789
521.18	263.737
525.157	273.84
529.133	259.678
533.107	317.318
537.079	454.186
541.05	765.596
545.018	1036.64
548.985	662.511
552.95	753.513
556.913	844.369
560.875	624.507
564.834	608.026
568.792	822.762
572.748	1762.16
576.702	2384.64
580.654	1249.2
584.605	704.868
588.553	522.256
592.5	404.473
596.445	407.253
600.389	392.603
604.33	358.977
608.27	334.673
612.208	320.954
616.144	325.038
620.078	311.857
624.011	313.723
627.941	241.071
631.87	217.412
635.798	205.487
639.723	172.093
643.647	152.596
647.568	88.111
651.488	85.301
655.407	65.366
659.323	37.261
663.238	39.82
667.151	21.075
671.062	12.964
674.971	5.277
678.879	16.204
682.785	5.351
686.689	10.251
690.591	6.762
694.491	35.48
698.39	62.665
702.287	4.381
706.182	35.517
710.076	23.835
713.968	57.987
717.857	33.327
721.746	30.008
725.632	19.004
729.517	32.253
733.4	38.707
737.281	23.359
741.16	8.861
745.038	35.022
748.913	11.012
752.788	18.058
756.66	32.86
760.531	49.774
764.399	178.701
768.267	184.657
772.132	275.651
775.996	311.695
779.857	497.796
783.718	750.951
787.576	990.01
791.433	1178.09
795.288	1195.01
799.141	1230.85
802.992	1230.41
806.842	1179.9
810.69	1296.88
814.536	2288.33
818.381	5428.54
822.223	5907.64
826.065	5074.86
829.904	3845.62
833.741	2230.16
837.577	1888.55
841.412	1943.43
845.244	2040.21
849.075	3082.38
852.904	4081.24
856.731	2414.53
860.556	746.175
864.38	225.151
868.202	142.187
872.023	67.373
875.842	126.627
879.658	209.784
883.474	297.041
887.287	426.491
891.099	637.887
894.909	940.821
898.718	1325.65
902.524	2107.29
906.329	3634.59
910.133	7205.96
913.934	16279
917.734	41232.5
921.532	49086.6
925.329	25111.2
929.124	11716.3
932.917	6983.87
936.708	6083.98
940.498	7320.56
944.286	9501.62
948.072	10449.2
951.857	7851.19
955.64	5172.71
959.421	3246.71
963.201	2211.21
966.979	1615.22
970.755	1286.75
974.529	1192.82
978.302	1152.43
982.073	1122.58
985.843	1098.33
989.611	1158.65
993.377	1307.53
997.141	1556.95
1000.9	2082.95
1004.66	2925.55
1008.42	3888.75
1012.18	4297.52
1015.94	3846.83
1019.69	3044.69
1023.45	2315.11
1027.2	1763.45
1030.95	1299.86
1034.69	1012.95
1038.44	821.029
1042.18	755.318
1045.93	814.276
1049.67	710.697
1053.41	566.802
1057.14	526.216
1060.88	509.688
1064.62	518.18
1068.35	543.697
1072.08	587.602
1075.81	617.122
1079.54	617.463
1083.26	561.62
1086.99	541.483
1090.71	533.93
1094.43	528.613
1098.15	443.762
1101.87	425.621
1105.59	366.076
1109.3	298.674
1113.01	261.625
1116.72	210.93
1120.43	222.021
1124.14	322.376
1127.85	419.179
1131.55	505.302
1135.26	427.15
1138.96	366.218
1142.66	379.368
1146.36	422.913
1150.05	400.014
1153.75	324.197
1157.44	230.728
1161.13	174.496
1164.82	126.016
1168.51	20.648
1172.2	4.068
1175.88	53.563
1179.57	40.266
1183.25	75.431
1186.93	86.166
1190.61	50.416
1194.28	26.089
1197.96	28.978
1201.63	33.24
1205.31	63.875
1208.98	31.826
1212.64	54.241
1216.31	25.613
1219.98	11.437
1223.64	27.294
1227.31	6.328
1230.97	31.975
1234.62	25.94
1238.28	48.273
1241.94	36.403
1245.59	31.316
1249.25	51.299
1252.9	57.667
1256.55	68.707
1260.2	71.566
1263.84	68.787
1267.49	96.196
1271.13	73.149
1274.77	92.947
1278.41	100.638
1282.05	100.343
1285.69	80.914
1289.32	105.239
1292.96	131.065
1296.59	110.437
1300.22	124.825
1303.85	141.526
1307.48	152.828
1311.1	150.822
1314.72	149.517
1318.35	154.7
1321.97	127.322
1325.59	168.179
1329.21	156.634
1332.82	145.598
1336.44	164.261
1340.05	146.598
1343.66	144.399
1347.27	139.897
1350.88	131.972
1354.49	129.829
1358.09	79.842
1361.7	110.141
1365.3	103.521
1368.9	102.016
1372.5	82.033
1376.1	72.416
1379.69	79.275
1383.29	77.537
1386.88	70.005
1390.47	68.44
1394.06	69.725
1397.65	77.29
1401.23	97.125
1404.82	46.542
1408.4	57.445
1411.98	47.129
1415.56	45.239
1419.14	42.589
1422.72	75.295
1426.3	70.308
1429.87	34.345
1433.44	52.591
1437.01	51.701
1440.58	57.735
1444.15	44.523
1447.71	47.674
1451.28	50.627
1454.84	30.376
1458.4	47.345
1461.96	36.349
1465.52	56.49
1469.08	43.786
1472.64	43.885
1476.19	23.303
1479.74	36.744
1483.29	28.646
1486.84	18.057
1490.39	19.954
1493.94	19.357
1497.48	1.345
1501.02	12.937
1504.57	11.977
1508.11	82.758
1511.64	219.218
1515.18	154.017
1518.72	48.355
1522.25	0
