Measurement: Raman, 514 nm, depolarized, Raman Data Processed
Mineral: Pyrope
Rruff sample: R040159
Ideal chemistry: Mg_3_Al_2_(SiO_4_)_3_
Locality: Meronitz, Bohemia
Source: University of Arizona Mineral Museum
Description: Deep red crystal fragments
Measured chemistry: (Mg_2.17_Fe^2+^_0.47_Ca_0.34_Mn_0.02_)_Σ=3_(Al_1.86_Cr_0.11_Ti_0.03_)_Σ=2_((Si_0.99_Al_0.01_)_Σ=1_O_4_)_3_; trace amounts of Rb?
Pin_id: L00224
Orientation: Laser parallel to -a* (-1 0 0). Fiducial mark perpendicular to laser is parallel to c [0 0 1]
Raman shift (cm-1)	intensity
114.949	0
119.119	2.08
123.286	71.618
127.452	110.509
131.615	142.444
135.777	193.457
139.937	341.965
144.094	529.409
148.25	450.148
152.403	382.347
156.555	266.397
160.705	111.305
164.853	45.178
168.998	23.177
173.142	3.063
177.284	42.29
181.424	175.863
185.562	417.659
189.698	612.682
193.831	686.974
197.963	654.082
202.093	648.67
206.221	728.168
210.347	741.065
214.472	614.04
218.594	531.867
222.714	439.339
226.832	411.866
230.948	427.565
235.063	443.243
239.175	460.06
243.286	522.018
247.394	578.118
251.501	543.366
255.605	600.773
259.708	593.35
263.808	515.104
267.907	430.039
272.004	475.254
276.099	494.933
280.192	608.348
284.283	636.406
288.372	642.968
292.459	673.433
296.544	692.223
300.627	808.163
304.709	856.22
308.788	915.924
312.865	1134.01
316.941	1306.61
321.015	1442.21
325.086	1468.12
329.156	1712.34
333.224	2184.85
337.29	2845.72
341.354	3538.47
345.416	4442.73
349.476	6106.92
353.534	8623.04
357.591	12480.2
361.645	15297.5
365.698	13214.9
369.748	9242.4
373.797	6491.97
377.844	4845.67
381.889	3579.55
385.932	2598.6
389.973	1889.84
394.012	1314.26
398.049	957.866
402.084	689.658
406.118	493.617
410.15	319.717
414.179	266.935
418.207	146.252
422.233	24.695
426.257	54.763
430.279	36.169
434.299	6.422
438.318	64.072
442.334	33.736
446.349	13.372
450.361	26.326
454.372	47.155
458.381	104.899
462.388	155.592
466.394	278.247
470.397	376.882
474.398	358.523
478.398	433.176
482.396	593.849
486.391	722.566
490.385	624.358
494.377	569.303
498.368	611.463
502.356	863.777
506.342	1242.14
510.327	1344.5
514.31	1203.83
518.291	1158.38
522.27	1219.38
526.247	1305.95
530.222	1399.39
534.196	1580.94
538.167	1934.79
542.137	2529.29
546.105	3491.93
550.071	5314.51
554.035	8622.44
557.998	12131
561.958	10048.6
565.917	5395.86
569.874	2817.86
573.829	1683.12
577.782	1091.87
581.733	899.723
585.683	733.044
589.63	700.715
593.576	564.252
597.52	519.218
601.462	483.009
605.402	407.614
609.341	399.817
613.277	369.962
617.212	364.61
621.145	397.288
625.076	422.822
629.006	537.217
632.933	839.473
636.859	1148.59
640.783	1640.56
644.705	1629.39
648.625	1148.08
652.543	771.621
656.46	565.01
660.375	442.247
664.288	327.329
668.199	219.256
672.108	114.028
676.016	72.641
679.921	48.085
683.825	31.328
687.727	0.333
691.628	11.947
695.526	1.605
699.423	23.661
703.318	39.13
707.211	7.022
711.102	45.269
714.992	29.39
718.879	14.949
722.765	1.312
726.649	10.029
730.532	14.871
734.412	44.018
738.291	46.459
742.168	6.145
746.043	14.003
749.916	8.04
753.788	27.007
757.658	9.907
761.526	39.731
765.392	4.466
769.257	60.113
773.119	39.668
776.98	52.131
780.839	78.508
784.697	95.802
788.552	102.017
792.406	112.156
796.258	140.224
800.108	151.222
803.957	216.157
807.804	285.031
811.649	358.856
815.492	424.636
819.333	527.396
823.173	619.114
827.011	695.734
830.847	819.994
834.681	947.869
838.514	1100.24
842.345	1483.78
846.174	1994.57
850.001	2688.51
853.827	3734.8
857.651	4901.4
861.473	5074.02
865.293	4443.85
869.112	3659.48
872.928	3168.88
876.744	3019.48
880.557	2969.03
884.369	3234.32
888.178	3777.63
891.987	4498.18
895.793	5546.52
899.598	7122.6
903.401	10052.7
907.202	16061.1
911.001	28769.8
914.799	42898.8
918.595	51517.8
922.389	40797
926.182	24716.5
929.972	15416.2
933.761	10245.9
937.549	6898.81
941.334	4973.8
945.118	3583.89
948.9	2746.11
952.681	2256.44
956.459	1989.9
960.236	1720.67
964.012	1576.93
967.785	1406.5
971.557	1235.75
975.327	1150.83
979.095	1039.03
982.862	1019.8
986.627	969.112
990.39	802.242
994.152	759.556
997.912	680.773
1001.67	597.274
1005.43	552.382
1009.18	655.259
1012.93	702.976
1016.68	782.174
1020.43	897.565
1024.18	966.207
1027.93	1085.97
1031.67	1142.9
1035.42	1186.97
1039.16	1309.21
1042.9	1396.62
1046.63	1561.17
1050.37	1732.85
1054.11	1840.64
1057.84	1433.55
1061.57	987.542
1065.3	596.628
1069.03	434.83
1072.75	276.128
1076.47	193.519
1080.2	173.994
1083.92	124.555
1087.64	78.194
1091.36	87.913
1095.07	29.714
1098.79	48.586
1102.5	22.513
1106.21	1.501
1109.92	5.54
1113.62	2.604
1117.33	1.313
1121.04	79.768
1124.74	33.874
1128.44	31.991
1132.14	27.923
1135.83	53.805
1139.53	37.243
1143.22	36.683
1146.92	32.295
1150.61	41.067
1154.3	23.991
1157.98	0.891
1161.67	12.246
1165.35	24.534
1169.04	13.26
1172.72	72.956
1176.4	84.621
1180.07	104.252
1183.75	114.915
1187.42	122.564
1191.1	138.136
1194.77	142.829
1198.44	146.644
1202.1	180.859
1205.77	130.946
1209.43	122.964
1213.1	133.135
1216.76	149.553
1220.42	144.836
1224.07	142.554
1227.73	123.801
1231.38	170.997
1235.04	105.119
1238.69	120.992
1242.34	122.593
1245.99	128.826
1249.63	125.083
1253.28	105.797
1256.92	143.152
1260.56	138.35
1264.2	180.636
1267.84	179.387
1271.48	186.445
1275.11	187.713
1278.74	150.106
1282.38	180.236
1286.01	177.276
1289.63	121.193
1293.26	172.502
1296.89	132.839
1300.51	124.259
1304.13	148.459
1307.75	98.623
1311.37	96.659
1314.99	112.181
1318.6	251.114
1322.22	94.976
1325.83	83.173
1329.44	59.082
1333.05	53.87
1336.66	56.598
1340.26	24.119
1343.87	43.503
1347.47	7.735
1351.07	20.803
1354.67	18.725
1358.27	13.484
1361.86	49.13
1365.46	33.662
1369.05	6.013
1372.64	18.241
1376.23	3.371
1379.82	0.5
1383.41	1.417
1386.99	21.091
1390.57	21.528
1394.16	5.786
1397.74	30.879
1401.32	18.854
1404.89	1.958
1408.47	39.524
1412.04	63.302
1415.61	24.214
1419.18	76.166
1422.75	34.059
1426.32	76.783
1429.89	53.297
1433.45	52.891
1437.01	494.791
1440.58	52.697
1444.13	48.408
1447.69	48.914
1451.25	6.52
1454.81	2.758
1458.36	29.915
1461.91	12.317
1465.46	33.849
1469.01	30.762
1472.56	42.749
1476.1	38.972
1479.64	35.564
1483.19	10.118
1486.73	9.207
1490.27	18.431
1493.81	43.26
1497.34	23.593
1500.88	13.197
1504.41	30.362
1507.94	24.071
1511.47	37.586
1515	43.553
1518.53	26.349
