Measurement: Raman, 514 nm, depolarized, Raman Data Processed
Mineral: Pyrope
Rruff sample: R050446
Ideal chemistry: Mg_3_Al_2_(SiO_4_)_3_
Locality: Sunset Crater, Arizona, USA
Source: Marcus Origlieri
Description: Red fragment
Measured chemistry: (Mg_1.93_Fe^2+^_0.65_Ca_0.42_)_Î£=3_Al_2.00_(Si_1.00_O_4_)_3_
Pin_id: L01215
Orientation: Laser parallel to a* (1 0 0). Fiducial mark perpendicular to laser is parallel to c [0 0 1]
Raman shift (cm-1)	intensity
62.899	0
67.89	58.3534
72.879	116.132
77.864	149.348
82.846	1.54984
87.824	34.4549
92.8	138.054
97.773	422.513
102.742	921.982
107.708	1465.19
112.672	1663.89
117.632	1990.57
122.589	2081.96
127.543	2152.02
132.494	2161.79
137.441	2224.03
142.386	2170.41
147.328	2118.84
152.266	1978.77
157.202	1907.16
162.134	1764.3
167.063	1626.24
171.99	1594.02
176.913	1655.82
181.833	1704.87
186.75	1839.54
191.664	1942.1
196.575	2044.79
201.483	1965.2
206.388	1961.15
211.29	1896.25
216.189	1855.08
221.085	1737.27
225.977	1534.49
230.867	1526.71
235.754	1410.69
240.638	1434.25
245.518	1409.71
250.396	1409.85
255.271	1316.55
260.143	1286.47
265.011	1263.36
269.877	1246.35
274.74	1152.66
279.6	1175.91
284.457	1112.81
289.31	1063.58
294.161	1096.01
299.009	1076.79
303.854	1156.79
308.696	1255.76
313.535	1448.19
318.371	1504.71
323.204	1698.66
328.034	1820.39
332.861	2022.34
337.686	2650.15
342.507	3534.86
347.325	4812.44
352.141	6810.86
356.953	9756.12
361.763	12139.4
366.569	10650.6
371.373	7247.97
376.174	5014.4
380.972	3403.02
385.767	2381.71
390.559	1601.36
395.348	1197.93
400.134	754.459
404.918	578.977
409.698	398.458
414.476	161.931
419.25	103.34
424.022	58.8384
428.791	71.6235
433.557	3.87109
438.32	11.7271
443.081	60.5635
447.838	107.804
452.593	61.6445
457.344	28.3262
462.093	1.80713
466.839	34.2358
471.582	104.653
476.323	132.53
481.06	192.926
485.795	372.801
490.526	499.107
495.255	330.826
499.981	432.932
504.705	837.403
509.425	1228.21
514.143	1064.34
518.857	836.751
523.569	873.418
528.278	855.314
532.985	1031.41
537.688	1165.64
542.389	1540.22
547.087	2381.87
551.782	3883.5
556.474	6563.61
561.164	8595.28
565.851	6188.05
570.535	2955.01
575.216	1442.04
579.894	824.779
584.57	584.735
589.243	675.818
593.913	411.597
598.58	435.871
603.245	300.533
607.907	282.602
612.566	345.598
617.222	355.46
621.875	242.974
626.526	181.32
631.174	417.286
635.82	677.966
640.462	1093.29
645.102	1446.3
649.739	986.033
654.373	611.421
659.005	523.256
663.634	251.815
668.26	263.998
672.884	200.798
677.504	78.2007
682.122	32.0591
686.738	91.2573
691.35	39.8213
695.96	37.6577
700.567	47.7124
705.172	11.2256
709.774	17.2681
714.373	3.55518
718.969	30.6138
723.563	49.4448
728.154	16.2842
732.743	5.61328
737.328	104.772
741.912	7.12354
746.492	43.4824
751.07	25.8276
755.645	60.8467
760.217	115.481
764.787	209.818
769.354	42.898
773.918	141.801
778.48	42.3364
783.039	69.7207
787.596	57.896
792.15	78.8794
796.701	102.685
801.25	100.328
805.796	242.822
810.339	323.183
814.88	384.048
819.418	549.904
823.953	623.214
828.486	901.82
833.016	1028.88
837.544	1047.35
842.069	1284.19
846.591	1690.96
851.111	2573.34
855.628	3660.33
860.143	4565.27
864.655	4175.38
869.164	3156.77
873.671	2580.62
878.176	2362.92
882.677	2511.67
887.176	3017.17
891.673	3774.05
896.167	5104.12
900.658	7249.37
905.147	11692
909.633	21286.9
914.117	37273.2
918.598	49844.8
923.077	40681.7
927.553	23699
932.026	12809.7
936.497	7406.72
940.966	4771.16
945.431	3050.92
949.895	2119.1
954.355	1646.77
958.814	1336.97
963.269	1109.29
967.723	921.476
972.173	875.503
976.621	683.394
981.067	741.615
985.51	710.998
989.951	658.714
994.389	496.309
998.824	350.853
1003.26	225.663
1007.69	348.978
1012.12	438.239
1016.54	631.893
1020.96	753.174
1025.38	996.293
1029.8	956.405
1034.22	1305.58
1038.63	1357
1043.04	1508.67
1047.45	1996.58
1051.86	2181.72
1056.26	1738.08
1060.66	1131.65
1065.06	749.454
1069.45	413.423
1073.85	223.6
1078.24	166.966
1082.63	103.512
1087.01	182.212
1091.4	107.1
1095.78	15.8848
1100.16	108.832
1104.53	8.92578
1108.91	119.129
1113.28	34.6309
1117.65	28.8086
1122.01	27.0254
1126.38	53.1191
1130.74	76.8838
1135.1	60.1719
1139.45	68.2246
1143.81	81.6943
1148.16	12.8721
1152.51	37.794
1156.86	71.3584
1161.2	133.431
1165.54	75.9688
1169.88	296.492
1174.22	129.305
1178.56	230.028
1182.89	262.659
1187.22	173.19
1191.55	357.614
1195.87	305.057
1200.19	163.258
1204.52	223.398
1208.83	281.027
1213.15	137.914
1217.46	255.449
1221.78	238.447
1226.08	151.829
1230.39	153.664
1234.69	155.022
1239	245.516
1243.3	127.453
1247.59	120.335
1251.89	205.455
1256.18	214.602
1260.47	108.561
1264.76	163.004
1269.04	190.099
1273.33	214.513
1277.61	96.3193
1281.88	34.0664
1286.16	151.778
1290.43	10.3447
1294.7	78.042
1298.97	144.282
1303.24	218.851
1307.51	188.358
1311.77	268.808
1316.03	131.208
1320.28	163.576
1324.54	209.935
1328.79	148.571
1333.04	157.788
1337.29	39.9248
1341.54	38.9688
1345.78	10.9443
1350.02	99.8252
1354.26	114.68
1358.5	34.9424
1362.73	14.96
1366.96	99.8769
1371.19	151.901
1375.42	43.9619
1379.65	140.035
1383.87	58.1719
1388.09	109.43
1392.31	8.22852
1396.52	155.126
1400.74	126.639
1404.95	26.6279
1409.16	91.1553
1413.37	126.976
1417.57	134.628
1421.77	120.551
1425.97	80.6494
1430.17	142.695
1434.37	144.85
1438.56	64.1514
1442.75	245.929
1446.94	206.52
1451.13	99.1836
1455.31	232.291
1459.5	230.375
1463.68	118.218
1467.85	99.5391
1472.03	149.524
1476.2	73.4522
1480.37	243.668
1484.54	175.783
1488.71	215.204
1492.88	185.802
1497.04	192.478
1501.2	87.2793
1505.36	225.12
1509.51	189.963
1513.66	233.749
1517.82	169.677
1521.97	117.018
1526.11	203.618
1530.26	192.311
1534.4	143.917
1538.54	264.549
1542.68	161.747
1546.82	2.27734
1550.95	66.8809
1555.08	117.855
1559.21	173.655
1563.34	78.6904
1567.46	63.8975
1571.59	137.455
1575.71	139.25
