Measurement: Raman, 514 nm, ccw, Raman Data Processed
Mineral: Pyrope
Rruff sample: R040159
Ideal chemistry: Mg_3_Al_2_(SiO_4_)_3_
Locality: Meronitz, Bohemia
Source: University of Arizona Mineral Museum
Description: Deep red crystal fragments
Measured chemistry: (Mg_2.17_Fe^2+^_0.47_Ca_0.34_Mn_0.02_)_Σ=3_(Al_1.86_Cr_0.11_Ti_0.03_)_Σ=2_((Si_0.99_Al_0.01_)_Σ=1_O_4_)_3_; trace amounts of Rb?
Pin_id: L01016
Orientation: Laser parallel to (1 1 0). Fiducial mark perpendicular to laser is parallel to -c [0 0 -1]
Raman shift (cm-1)	intensity
88.228	0
93.183	22.4729
98.135	32.093
103.085	18.0693
108.032	389.241
112.976	747.223
117.917	897.767
122.856	688.863
127.792	599.523
132.725	626.081
137.656	771.62
142.583	652.772
147.508	521.371
152.431	428.927
157.35	216.285
162.267	49.3433
167.181	85.2812
172.092	11.3474
177.001	187.154
181.907	719.02
186.81	1136.91
191.711	1218.25
196.608	1033.47
201.503	1012.35
206.395	837.49
211.285	930.325
216.172	812.075
221.056	748.736
225.937	715.309
230.816	727.788
235.692	892.171
240.565	1040.57
245.436	1159.47
250.304	1272.19
255.169	1250.42
260.031	1242.79
264.891	1386.35
269.748	1330.3
274.602	1395.13
279.454	1514.5
284.303	1273.76
289.149	1501.53
293.992	1497.93
298.833	1671.45
303.671	1857.94
308.507	2136.32
313.339	2376.59
318.169	2644.93
322.996	3093.75
327.821	3950.67
332.643	5287.81
337.462	7184.59
342.279	9553.99
347.092	12586
351.904	17888.6
356.712	24777.8
361.518	27616.6
366.321	21710.9
371.121	15144.9
375.919	10591.4
380.714	7605.9
385.506	5256.04
390.296	3529.22
395.083	2377.95
399.867	1553.22
404.649	1141.03
409.428	705.496
414.204	408.728
418.978	136.829
423.749	21.3237
428.517	53.2874
433.282	108.938
438.045	119.145
442.806	35.7124
447.563	20.5073
452.318	13.7244
457.07	102.848
461.82	315.996
466.567	494.974
471.311	558.395
476.053	684.327
480.792	704.663
485.528	647.33
490.262	723.352
494.992	845.652
499.721	1048.18
504.446	1346.92
509.169	1698.85
513.89	1736.94
518.607	2036.18
523.322	2409.54
528.035	2596
532.745	2894.55
537.452	3618.16
542.156	4996.99
546.858	7745.21
551.557	12766.9
556.254	19254.4
560.947	18848.3
565.639	10374.4
570.327	4824.3
575.013	2628.26
579.697	1901.79
584.377	1309.29
589.055	1116.06
593.731	976.359
598.403	894.567
603.074	824.475
607.741	847.826
612.406	889.25
617.068	764.095
621.728	864.563
626.385	893.554
631.039	1211.68
635.691	1721.72
640.34	2009.23
644.987	1888.2
649.63	1574.62
654.272	1204.48
658.91	911.769
663.546	675.487
668.18	417.627
672.81	319.182
677.439	179.925
682.064	128.523
686.687	13.8318
691.307	9.97388
695.925	34.6499
700.54	58.0676
705.153	62.2219
709.763	60.5552
714.37	24.0315
718.974	0.598877
723.577	8.96875
728.176	74.3882
732.773	3.98731
737.367	35.4626
741.959	60.9631
746.548	24.5278
751.134	61.5908
755.718	2.48169
760.299	3.97046
764.878	2.07544
769.454	43.5972
774.028	36.7346
778.598	43.8318
783.167	83.3943
787.732	109.193
792.295	136.143
796.856	244.813
801.414	239.254
805.969	315.487
810.522	454.534
815.072	670.418
819.62	930.931
824.165	1289.21
828.707	1450.41
833.247	1638.5
837.784	1982.4
842.319	2140.5
846.851	2965.34
851.381	4060.37
855.908	5336.31
860.432	6079.51
864.954	5781.2
869.473	4855.73
873.99	4347.86
878.504	4315.84
883.015	4910.33
887.524	6065.6
892.031	7566.21
896.535	10250.4
901.036	14891.1
905.535	25180.1
910.031	45570.7
914.524	75673.9
919.015	90867.5
923.504	66363.7
927.99	37046.3
932.473	21285.6
936.954	13050.4
941.432	8191.77
945.908	5475.72
950.381	4075.24
954.852	3239.36
959.32	2914.14
963.785	2411.18
968.248	2019.59
972.708	1874.59
977.166	1683.83
981.622	1636.81
986.074	1444.43
990.525	1262.77
994.972	1018.59
999.417	763.852
1003.86	700.092
1008.3	713.145
1012.74	931.564
1017.17	1265.66
1021.61	1600.44
1026.04	1688.56
1030.46	1925.65
1034.89	1945.9
1039.31	2039.49
1043.73	2154.45
1048.15	2195.75
1052.56	2336.4
1056.97	1876.38
1061.38	1177.66
1065.79	727.233
1070.19	393.087
1074.6	231.204
1079	117.57
1083.39	151.171
1087.79	86.0083
1092.18	20.1658
1096.57	89.5376
1100.96	16.0686
1105.34	44.7183
1109.72	48.5903
1114.1	220.925
1118.48	14.6616
1122.85	58.4341
1127.22	90.4949
1131.6	66.167
1135.96	36.5366
1140.33	9.54565
1144.69	36.0342
1149.05	39.0603
1153.4	119.365
1157.76	67.4297
1162.11	21.1738
1166.46	133.665
1170.81	226.977
1175.15	250.096
1179.49	233.001
1183.83	262.683
1188.17	211.131
1192.5	314.332
1196.84	331.278
1201.16	249.962
1205.49	301.668
1209.82	310.187
1214.14	326.214
1218.46	339.444
1222.77	297.899
1227.09	272.686
1231.4	318.445
1235.71	252.485
1240.02	315.368
1244.32	250.254
1248.62	296.59
1252.92	273.473
1257.22	234.483
1261.51	293.32
1265.81	238.129
1270.1	289.808
1274.38	256.467
1278.67	370.443
1282.95	331.641
1287.23	280.629
1291.51	282.51
1295.78	177.314
1300.05	291.714
1304.32	284.05
1308.59	204.012
1312.86	275.654
1317.12	232.268
1321.38	157.518
1325.63	202.638
1329.89	64.738
1334.14	86.4128
1338.39	56.552
1342.64	78.3572
1346.88	12.1968
1351.13	48.884
1355.37	47.6943
1359.61	31.0877
1363.84	51.2129
1368.07	24.1323
1372.3	20.8313
1376.53	32.6431
1380.76	16.272
1384.98	67.0422
1389.2	28.4385
1393.42	5.96606
1397.64	18.5
1401.85	120.053
1406.06	99.6152
1410.27	15.4893
1414.47	0.018311
1418.68	35.3945
1422.88	41.686
1427.08	41.8525
1431.27	66.9153
1435.47	94.332
1439.66	35.4468
1443.85	73.3091
1448.03	76.0354
1452.22	72.9346
1456.4	26.0127
1460.58	121.839
1464.76	115.375
1468.93	86.5359
1473.1	117.859
1477.27	131.655
1481.44	128.449
1485.6	65.7978
1489.77	106.515
1493.92	124.724
1498.08	85.8638
1502.24	97.5798
1506.39	97.312
1510.54	133.711
1514.69	143.471
1518.83	102.922
1522.97	157.682
1527.12	25.4844
1531.25	60.7334
1535.39	27.0002
1539.52	17.2046
1543.65	78.6511
1547.78	116.392
1551.91	72.8625
1556.03	66.3257
1560.15	52.2466
1564.27	18.3442
1568.39	103.521
1572.5	116.597
1576.61	0
