Measurement: Raman, 514 nm, ccw, Raman Data Processed
Mineral: Pyromorphite
Rruff sample: R060285
Ideal chemistry: Pb^2+^_5_(PO_4_)_3_Cl
Locality: Les Farges mine, Correze Ussel, France
Source: Herb Obodda
Description: Aggregate of green hexagonal prisms
Measured chemistry: Pb_5.00_((P_0.99_As_0.01_)_Î£=1_O_4_)_3_Cl_1.00_
Pin_id: M01948
Orientation: Laser parallel to a* (1 0 0). Fiducial mark perpendicular to laser is parallel to c [0 0 1]
Raman shift (cm-1)	intensity
60.305	0
65.269	3261.48
70.231	13405.5
75.19	23211.4
80.146	32978.2
85.1	35300.8
90.052	27818.9
95	24981.5
99.947	23976.3
104.89	25833.4
109.832	17503.4
114.77	10974.8
119.706	6272.25
124.64	1201.02
129.571	3328.83
134.499	2313.33
139.425	1516.45
144.348	3362.22
149.269	4088.92
154.187	4745.33
159.103	5478.83
164.016	7474.53
168.927	8776.61
173.835	12744.9
178.74	12958.6
183.643	13807.1
188.543	12031.8
193.441	10316.2
198.336	7086.97
203.229	4983.77
208.119	249.156
213.006	56.6094
217.891	1978.34
222.774	142.422
227.653	337.516
232.531	777.562
237.405	732.359
242.277	861.312
247.147	881.188
252.014	162.297
256.878	138.75
261.74	1153.05
266.599	854.797
271.456	109.406
276.31	1208.94
281.162	1039.56
286.011	62.7969
290.857	276.641
295.701	202.531
300.542	1109.98
305.381	797.344
310.217	1222.56
315.051	2086.61
319.882	2584.95
324.71	4355.47
329.536	2805.61
334.359	4013.23
339.18	4567.89
343.998	4618.36
348.813	3308.5
353.626	3302.28
358.437	3526.23
363.244	3973.84
368.05	4240.14
372.852	4152.45
377.652	5680.5
382.45	8286.83
387.245	12339
392.037	14210.4
396.827	12482.9
401.614	13448.8
406.398	16472.3
411.18	15712.8
415.959	9072.64
420.736	6368.48
425.51	4132.03
430.282	2399.69
435.051	2150.75
439.818	1232.53
444.581	1115.86
449.343	1492.55
454.101	1073.98
458.857	312.219
463.611	580.984
468.362	896.609
473.11	864.516
477.856	468.109
482.599	460.5
487.34	517.016
492.078	1907.52
496.813	873.656
501.546	2171.66
506.276	1993.06
511.003	1264.84
515.728	909.875
520.451	2115.62
525.171	2001
529.888	3986.77
534.602	3519.56
539.314	3558.53
544.024	4898.94
548.731	3917.11
553.435	4149.22
558.137	3072.14
562.836	4460.56
567.532	3941.38
572.226	4269.53
576.917	1969.48
581.606	2030.31
586.292	917.422
590.975	934.781
595.656	165.312
600.334	976.078
605.01	1110.53
609.683	988.5
614.353	983.719
619.021	973.906
623.686	1225.09
628.349	1765.66
633.009	1445.88
637.667	869.156
642.321	797.5
646.974	1927.81
651.623	912.719
656.27	205.094
660.915	215.812
665.556	800.312
670.196	1801.59
674.832	111.219
679.466	2104.97
684.097	413.219
688.726	1521.84
693.352	1840
697.976	1152.75
702.597	1193
707.215	2198.84
711.831	1910.69
716.444	1989.59
721.055	1487.41
725.663	837.812
730.268	106.219
734.87	373.406
739.471	205.406
744.068	1270.72
748.663	299.688
753.255	606.781
757.845	321.781
762.432	1554.06
767.016	996.812
771.598	2022.81
776.177	3704.16
780.754	7568.75
785.328	10019.3
789.899	15897.8
794.468	18638.5
799.034	19490.2
803.597	17276
808.158	14226.5
812.717	15383.2
817.272	16411.1
821.825	13435.7
826.376	10316.7
830.924	8714.47
835.469	6932.72
840.011	5632.09
844.551	6940.59
849.089	8156.72
853.623	5217.88
858.156	1969.22
862.685	1456.56
867.212	2159.5
871.736	1042.47
876.258	1381.22
880.777	1229.28
885.293	1689
889.807	1689
894.318	2627.5
898.827	3472.66
903.333	6606.19
907.836	13087
912.337	24680.2
916.835	41519.5
921.331	41892.7
925.823	32083.2
930.314	29471.4
934.801	37769.3
939.286	57099.3
943.769	68794.3
948.248	59935.8
952.726	39917.8
957.2	24805
961.672	16656.6
966.141	12136.5
970.608	11061.7
975.072	9181.91
979.533	6565.31
983.992	3310.38
988.448	1588.66
992.902	37.875
997.353	446.688
1001.8	133.219
1006.25	227.281
1010.69	1629
1015.13	3278.62
1019.57	3887.91
1024	3173.62
1028.44	1435.44
1032.87	784.75
1037.29	118.062
1041.72	2526.03
1046.14	3703.56
1050.56	4961.81
1054.98	2594.69
1059.39	4585.53
1063.8	4244.19
1068.21	4627.12
1072.62	5238.22
1077.02	3550.12
1081.42	2989
1085.82	3618.56
1090.22	3822.84
1094.61	2974.94
1099	3365.84
1103.39	3512.78
1107.77	1661.69
1112.16	2849.47
1116.54	2305.12
1120.91	818.75
1125.29	2126.22
1129.66	1799.5
1134.03	828.719
1138.4	1939.84
1142.76	1504.31
1147.12	1548.31
1151.48	1962.41
1155.84	1605.47
1160.19	681.594
1164.54	685.156
1168.89	15.5938
1173.24	661.562
1177.58	120.75
1181.92	922.938
1186.26	495.156
1190.6	1173.91
1194.93	63.0312
1199.26	396.25
1203.59	963.219
1207.91	1017.66
1212.23	1103.53
1216.55	1278.19
1220.87	1395.59
1225.18	833.406
1229.5	1797.12
1233.81	1627.97
1238.11	1892
1242.42	2134.5
1246.72	912.125
1251.02	2224.12
1255.31	2986.81
1259.61	1960.88
1263.9	3377.81
1268.18	2944.69
1272.47	2439.44
1276.75	3354.81
1281.03	1480.69
1285.31	1853.12
1289.59	1596
1293.86	2583.62
1298.13	2158.94
1302.39	1834.12
1306.66	2283.69
1310.92	3069.44
1315.18	2455
1319.44	2310
1323.69	3089
1327.94	2259.06
1332.19	2762.31
1336.44	2559.38
1340.68	3315.75
1344.92	4162.44
1349.16	2415.88
1353.4	4298.31
1357.63	3485.94
1361.86	3612.94
1366.09	4969.69
1370.31	3508.12
1374.53	2673.25
1378.75	3924.88
1382.97	2844
1387.19	3838.94
1391.4	3686.81
1395.61	2387
1399.81	2405.81
1404.02	2270
1408.22	2638.06
1412.42	3692.12
1416.61	889.75
1420.81	2830.44
1425	2948.44
1429.19	1629.38
1433.37	1892.12
1437.56	1641.62
1441.74	2592
1445.91	1686.25
1450.09	2022.06
1454.26	792.188
1458.43	1586.25
1462.6	198.875
1466.76	1501.44
1470.92	577.5
1475.09	70.5625
1479.24	306.438
1483.4	1096.19
1487.55	958.375
1491.7	773
1495.84	229.812
1499.99	1001.12
1504.13	1345.75
1508.27	126.188
1512.4	2335.88
1516.53	1896.12
1520.66	1969.56
1524.79	3245.31
1528.92	1938.94
1533.04	2514.62
1537.16	1892.19
1541.28	367
1545.39	1188.69
1549.5	1909.56
1553.61	569
1557.72	1916.62
1561.83	3063.56
1565.93	624.625
1570.03	1364.56
1574.12	810.938
