Measurement: Raman, 514 nm, depolarized, Raman Data Processed
Mineral: Pyrosmalite-(Fe)
Rruff sample: R050158
Ideal chemistry: Fe^2+^_8_Si_6_O_15_(OH)_10_
Locality: Burguillos del Cerro, Badajos, Spain
Source: Jim McGlasson
Description: Green subhedral crystal aggregate
Measured chemistry: (Fe^2+^_0.92_Mn^2+^_0.06_Mg_0.02_)_8_Si_6_O_15_(OH_0.83_Cl_0.17_)_10_
Pin_id: L00098
Orientation: Laser parallel to c* (0 0 1). Fiducial mark perpendicular to laser is parallel to a [1 0 0]
Raman shift (cm-1)	intensity
128.263	0
132.432	5.089
136.599	531.707
140.764	1290.33
144.927	1845.79
149.088	1469.72
153.247	1367.77
157.404	1460.73
161.559	1860.38
165.711	1946.32
169.862	2126.26
174.011	2767.38
178.158	3436.79
182.303	4535.22
186.446	4879.25
190.587	4472.84
194.726	3322.39
198.862	2042.8
202.997	1079.41
207.13	487.095
211.261	107.58
215.39	103.908
219.517	76.977
223.642	22.331
227.765	1.454
231.886	8.072
236.005	52.334
240.122	320.308
244.237	729.703
248.35	1138.77
252.461	1850.64
256.57	2320.24
260.677	2623.91
264.782	2519.21
268.885	2171.77
272.986	1455.28
277.085	782.655
281.182	542.852
285.278	339.864
289.371	528.347
293.462	855.339
297.552	1562.68
301.639	2732.39
305.724	3450.7
309.808	3036.86
313.889	2641.65
317.969	3606.45
322.046	7436.86
326.122	10560.2
330.196	6061.94
334.267	2639.07
338.337	1430.41
342.405	980.099
346.471	792.675
350.535	895.82
354.597	1235.88
358.657	1832.06
362.715	2477.33
366.771	2608.23
370.825	2156.86
374.877	1675.31
378.928	1297.06
382.976	1165.59
387.023	1089.35
391.067	1091.79
395.11	1208.79
399.15	1310.01
403.189	1590.42
407.226	2064.08
411.261	2882.23
415.294	3980.03
419.325	4684.03
423.354	3675.82
427.381	2205.42
431.406	1537.83
435.43	1240.06
439.451	892.699
443.471	579.169
447.488	351.796
451.504	175.293
455.518	146.455
459.53	190.073
463.54	184.1
467.548	318.544
471.554	492.452
475.558	868.871
479.561	2043.83
483.561	3445.34
487.559	2535.44
491.556	1192.15
495.551	585.481
499.544	218.471
503.535	98.135
507.524	23.475
511.511	70.491
515.496	251.198
519.48	250.635
523.461	88.815
527.441	14.938
531.418	57.226
535.394	42.71
539.368	15.373
543.34	21.429
547.311	5.637
551.279	71.927
555.245	98.297
559.21	1.815
563.173	15.531
567.133	53.619
571.092	168.438
575.049	351.996
579.005	328.344
582.958	425.527
586.909	550.559
590.859	965.459
594.807	1558.23
598.753	2451.82
602.697	4627.25
606.639	9562.84
610.579	19582.5
614.518	30841.2
618.454	26319.8
622.389	14098.4
626.322	7177.96
630.253	4064.87
634.182	2695.93
638.109	1857.82
642.035	1409.54
645.958	1082.09
649.88	835.475
653.8	714.703
657.718	630.08
661.634	562.161
665.549	495.299
669.461	386.242
673.372	392.448
677.281	213.544
681.188	191.653
685.093	142.161
688.997	165.063
692.898	111.433
696.798	213.519
700.696	211.644
704.592	228.446
708.486	272.723
712.378	276.297
716.269	334.851
720.158	484.67
724.045	566.296
727.93	660.94
731.813	843.653
735.694	1075.19
739.574	1170.51
743.452	1101.77
747.328	788.841
751.202	580.879
755.075	456.117
758.945	434.406
762.814	559.813
766.681	755.173
770.546	751.501
774.409	514.219
778.271	386.817
782.131	319.534
785.989	229.056
789.845	247.329
793.699	321.505
797.552	363.586
801.402	383.573
805.251	578.468
809.098	792.273
812.944	936.992
816.787	1117.65
820.629	1117.15
824.469	843.847
828.307	515.382
832.144	248.853
835.978	136.263
839.811	95.212
843.642	50.428
847.472	5.323
851.299	16.631
855.125	52.23
858.949	0.048
862.771	39.346
866.591	58.684
870.41	35.931
874.227	20.509
878.042	7.966
881.855	65.496
885.667	8.896
889.476	36.812
893.284	2.712
897.09	11.812
900.895	39.893
904.698	30.531
908.499	14.097
912.298	37.188
916.095	28.634
919.891	44.605
923.685	62.273
927.477	67.386
931.267	21.851
935.056	26.554
938.843	154.205
942.628	139.811
946.411	112.36
950.193	75.865
953.973	147.338
957.751	124.777
961.527	184.188
965.302	155.562
969.075	150.904
972.846	217.233
976.615	247.531
980.383	265.79
984.149	357.015
987.913	489.212
991.675	507.375
995.436	620.128
999.195	785.496
1002.95	1073.25
1006.71	1514.72
1010.46	2327.68
1014.21	3541.37
1017.96	6163.42
1021.71	8485.57
1025.46	9866.75
1029.2	8478.85
1032.95	6321.46
1036.69	4315.85
1040.43	3251.15
1044.17	2466.97
1047.9	1897.11
1051.64	1533.55
1055.37	1190.56
1059.1	1056.95
1062.83	886.487
1066.56	634.333
1070.29	701.305
1074.01	502.552
1077.73	415.059
1081.46	387.421
1085.17	383.39
1088.89	335.82
1092.61	306.427
1096.32	294.037
1100.04	226.648
1103.75	296.396
1107.46	252.9
1111.16	303.043
1114.87	329.676
1118.57	538.659
1122.28	621.371
1125.98	784.031
1129.67	815.686
1133.37	612.412
1137.07	458.085
1140.76	339.765
1144.45	227.456
1148.14	154.163
1151.83	128.897
1155.52	115.406
1159.21	9.218
1162.89	77.967
1166.57	13.915
1170.25	98.924
1173.93	101.971
1177.61	110.034
1181.28	43.118
1184.96	91.232
1188.63	17.399
1192.3	79.642
1195.97	71.021
1199.64	44.438
1203.3	51.639
1206.97	95.034
1210.63	84.491
1214.29	78.274
1217.95	79.951
1221.6	39.497
1225.26	36.171
1228.91	65.876
1232.57	129.606
1236.21	82.353
1239.86	78.117
1243.51	7.879
1247.16	29.353
1250.8	5.63
1254.44	26.896
1258.08	51.223
1261.72	42.963
1265.36	86.707
1268.99	40.434
1272.63	36.146
1276.26	23.945
1279.89	78.974
1283.52	10.734
1287.15	44.515
1290.77	59.32
1294.4	20.147
1298.02	71.995
1301.64	108.861
1305.26	116.327
1308.88	51.211
1312.49	27.112
1316.11	129.037
1319.72	32.975
1323.33	42.385
1326.94	81.378
1330.55	90.389
1334.15	152.433
1337.76	100.512
1341.36	96.612
1344.96	86.378
1348.56	30.048
1352.16	84.297
1355.75	6.396
1359.35	104.976
1362.94	138.427
1366.53	90.404
1370.12	132.081
1373.71	111.818
1377.3	51.678
1380.88	48.089
1384.46	24.753
1388.05	61.091
1391.63	54.802
1395.2	49.856
1398.78	79.874
1402.36	104.141
1405.93	107.426
1409.5	41.73
1413.07	66.388
1416.64	76.604
1420.21	10.832
1423.78	12.078
1427.34	2.324
1430.9	31.198
1434.46	13.214
1438.02	76.273
1441.58	75.786
1445.13	113.241
1448.69	86.672
1452.24	43.178
1455.79	58.917
1459.34	82.878
1462.89	96.862
1466.44	65.096
1469.98	26.474
1473.53	16.983
1477.07	17.649
1480.61	84.533
1484.14	87.669
1487.68	89.113
1491.22	118.04
1494.75	60.501
1498.28	79.65
1501.81	39.649
1505.34	16.842
1508.87	27.761
1512.4	39.902
1515.92	0
