Measurement: Raman, 514 nm, ccw, Raman Data Processed
Mineral: Pyrope
Rruff sample: R040159
Ideal chemistry: Mg_3_Al_2_(SiO_4_)_3_
Locality: Meronitz, Bohemia
Source: University of Arizona Mineral Museum
Description: Deep red crystal fragments
Measured chemistry: (Mg_2.17_Fe^2+^_0.47_Ca_0.34_Mn_0.02_)_Σ=3_(Al_1.86_Cr_0.11_Ti_0.03_)_Σ=2_((Si_0.99_Al_0.01_)_Σ=1_O_4_)_3_; trace amounts of Rb?
Pin_id: L01016
Orientation: Laser parallel to (1 1 0). Fiducial mark perpendicular to laser is parallel to -c [0 0 -1]
Raman shift (cm-1)	intensity
88.228	0
93.183	90.5618
98.135	22.3184
103.085	116.579
108.032	415.657
112.976	552.815
117.917	833.816
122.856	747.086
127.792	556.316
132.725	631.861
137.656	718.779
142.583	762.751
147.508	590.359
152.431	474.392
157.35	268.444
162.267	22.8181
167.181	61.7559
172.092	68.6392
177.001	24.6882
181.907	306.039
186.81	646.528
191.711	1147.12
196.608	1508.38
201.503	2109.23
206.395	2183.57
211.285	2273.09
216.172	1900.22
221.056	1323.26
225.937	1034.23
230.816	907.177
235.692	910.825
240.565	1029.51
245.436	1046.77
250.304	1124.57
255.169	1101.87
260.031	1081.43
264.891	1030.21
269.748	1051.32
274.602	1018.72
279.454	1077.68
284.303	1080.01
289.149	1060.2
293.992	1023.78
298.833	1144.93
303.671	1369
308.507	1604.37
313.339	2146.07
318.169	2504.15
322.996	2564.81
327.821	2693.13
332.643	3379.91
337.462	4527.13
342.279	6363.76
347.092	9568.79
351.904	15057.2
356.712	22409
361.518	25771.3
366.321	20243.9
371.121	13097.8
375.919	8470.17
380.714	5653.85
385.506	3805.88
390.296	2639.31
395.083	1724.13
399.867	1143.3
404.649	802.839
409.428	465.791
414.204	261.292
418.978	32.4417
423.749	33.7717
428.517	47.5366
433.282	85.0947
438.045	66.7556
442.806	18.2495
447.563	29.4966
452.318	96.7473
457.07	149.379
461.82	499.591
466.567	756.412
471.311	839.674
476.053	1205.39
480.792	1728.51
485.528	2132.88
490.262	2097.41
494.992	1806.05
499.721	2166.77
504.446	3236.51
509.169	4002.27
513.89	3258.01
518.607	2690.73
523.322	2540.41
528.035	2687.02
532.745	2983.55
537.452	3756.98
542.156	5129.74
546.858	7849.09
551.557	12928.9
556.254	19563.5
560.947	19762
565.639	11146.5
570.327	5225.76
575.013	2811.11
579.697	1957.93
584.377	1679.15
589.055	1560.2
593.731	1386.38
598.403	1059.33
603.074	846.24
607.741	786.09
612.406	793.471
617.068	781.908
621.728	991.976
626.385	1282.98
631.039	2060.11
635.691	3329.8
640.34	4805.73
644.987	4638.03
649.63	2906.91
654.272	1681.77
658.91	1111.2
663.546	728.995
668.18	483.156
672.81	323.684
677.439	192.577
682.064	146.829
686.687	80.3769
691.307	19.9209
695.925	3.3606
700.54	13.1362
705.153	22.1819
709.763	6.46729
714.37	59.7317
718.974	30.8779
723.577	39.052
728.176	23.3315
732.773	23.3989
737.367	0.631592
741.959	65.4153
746.548	93.4216
751.134	77.9795
755.718	45.7888
760.299	70.9477
764.878	49.8645
769.454	14.7415
774.028	24.2358
778.598	38.5254
783.167	108.287
787.732	103.434
792.295	183.363
796.856	188.096
801.414	220.66
805.969	453.428
810.522	430.38
815.072	640.553
819.62	899.046
824.165	1285.29
828.707	1556.31
833.247	1863.86
837.784	2256.78
842.319	3334.77
846.851	5070.91
851.381	7931.23
855.908	11801.3
860.432	14276.3
864.954	12462.3
869.473	9199.33
873.99	6975.4
878.504	5992.63
883.015	6244.56
887.524	7166.92
892.031	8669.5
896.535	11190
901.036	15625.3
905.535	25224.6
910.031	45743.9
914.524	76368.8
919.015	93057.2
923.504	68939.2
927.99	37998
932.473	21075.3
936.954	12639.4
941.432	8064.09
945.908	5257.5
950.381	3772.59
954.852	2985.39
959.32	2550.94
963.785	2152.35
968.248	1974.87
972.708	1795.35
977.166	1554.31
981.622	1448.96
986.074	1345.81
990.525	1211.35
994.972	961.607
999.417	759.708
1003.86	730.255
1008.3	727.894
1012.74	938.578
1017.17	1293.18
1021.61	1671.01
1026.04	1928.73
1030.46	2289.52
1034.89	2585.9
1039.31	3072.85
1043.73	3864.26
1048.15	4771.07
1052.56	5305.26
1056.97	4465.8
1061.38	2855.68
1065.79	1547.89
1070.19	809.394
1074.6	548.184
1079	316.238
1083.39	257.539
1087.79	185.075
1092.18	161.858
1096.57	18.8667
1100.96	64.0833
1105.34	207.221
1109.72	30.6582
1114.1	44.6492
1118.48	35.4402
1122.85	27.6536
1127.22	65.384
1131.6	63.7815
1135.96	35.8965
1140.33	3.46948
1144.69	35.8137
1149.05	24.9087
1153.4	72.5972
1157.76	42.082
1162.11	12.4207
1166.46	101.446
1170.81	204.253
1175.15	266.843
1179.49	201.173
1183.83	310.226
1188.17	256.983
1192.5	284.432
1196.84	302.567
1201.16	342.467
1205.49	246.047
1209.82	291.445
1214.14	292.745
1218.46	338.902
1222.77	303.46
1227.09	318.289
1231.4	325.095
1235.71	285.319
1240.02	322.708
1244.32	284.902
1248.62	266.452
1252.92	230.732
1257.22	256.028
1261.51	246.106
1265.81	316.791
1270.1	308.2
1274.38	345.102
1278.67	342.039
1282.95	323.033
1287.23	366.462
1291.51	280.373
1295.78	272.215
1300.05	200.756
1304.32	224.163
1308.59	313.807
1312.86	221.922
1317.12	239.606
1321.38	184.129
1325.63	165.003
1329.89	167.585
1334.14	100.886
1338.39	95.0217
1342.64	74.6619
1346.88	3.91724
1351.13	78.8
1355.37	1.21728
1359.61	59.2578
1363.84	64.835
1368.07	78.0889
1372.3	46.0601
1376.53	28.8286
1380.76	20.4668
1384.98	25.0649
1389.2	6.27881
1393.42	5.35083
1397.64	109.88
1401.85	39.4622
1406.06	75.1011
1410.27	23.2002
1414.47	16.3594
1418.68	69.7583
1422.88	33.998
1427.08	37.033
1431.27	47.8821
1435.47	30.5796
1439.66	109.161
1443.85	106.562
1448.03	69.9565
1452.22	116.987
1456.4	114.948
1460.58	93.981
1464.76	110.778
1468.93	119.23
1473.1	115.64
1477.27	113.326
1481.44	107.673
1485.6	62.6792
1489.77	76.4695
1493.92	79.9358
1498.08	188.004
1502.24	148.411
1506.39	164.497
1510.54	126.692
1514.69	89.6519
1518.83	154.27
1522.97	111.442
1527.12	98.6025
1531.25	29.9788
1535.39	140.913
1539.52	37.1562
1543.65	66.9551
1547.78	83.3943
1551.91	110.712
1556.03	103.599
1560.15	53.8713
1564.27	21.364
1568.39	41.658
1572.5	22.8301
1576.61	0
