Measurement: Raman, 514 nm, depolarized, Raman Data Processed
Mineral: Pyromorphite
Rruff sample: R050015
Ideal chemistry: Pb^2+^_5_(PO_4_)_3_Cl
Locality: Bunker Hill mine, Shoshone County, Idaho, USA
Source: Eugene Schlepp
Description: Yellowish green prismatic hexagonal single crystals
Measured chemistry: Pb_5.00_((P_0.88_As_0.12_)O_4_)_3_Cl_1.00_
Pin_id: L00424
Orientation: Laser parallel to -c* (0 0 -1). Fiducial mark perpendicular to laser is parallel to -b [0 -1 0]
Raman shift (cm-1)	intensity
84.311	0
88.496	682.308
92.678	2535.53
96.858	1951.43
101.036	2781.06
105.212	8801.41
109.387	12671.6
113.559	6777.95
117.729	3638.01
121.897	1889.54
126.063	1100.29
130.228	601.369
134.39	628.652
138.55	857.457
142.709	1359.19
146.865	1874.85
151.019	2634.81
155.171	3410.44
159.322	3615.83
163.47	3268.95
167.617	2697.9
171.761	2524.22
175.904	2316.4
180.044	2243.38
184.183	2247.36
188.319	2166.56
192.454	2044.92
196.586	1832.49
200.717	1772.13
204.846	1542.31
208.972	1298.5
213.097	1217.81
217.22	1049.56
221.341	793.024
225.46	554.046
229.577	389.62
233.692	288.09
237.805	119.355
241.916	62.422
246.025	26.296
250.132	72.944
254.237	143.559
258.34	103.46
262.442	85.077
266.541	154.631
270.639	161.436
274.734	167.261
278.828	129.785
282.919	148.441
287.009	122.959
291.097	55.33
295.183	60.922
299.266	26.997
303.348	13.95
307.428	168.552
311.507	240.679
315.583	386.452
319.657	557.86
323.729	608.692
327.8	685.657
331.868	781.123
335.935	852.529
339.999	971.763
344.062	999.472
348.123	1019.43
352.182	948.009
356.239	878.419
360.294	795.504
364.347	788.255
368.398	903.574
372.448	1082.03
376.495	1301.97
380.54	1411.56
384.584	1660.18
388.626	2113.06
392.666	2578.18
396.704	2355.57
400.74	1821.22
404.774	1870.52
408.806	2390.74
412.836	3244.71
416.865	4005.45
420.891	3625.55
424.916	2303.9
428.939	1615.03
432.959	1308.78
436.978	1207.83
440.996	973.141
445.011	673.696
449.024	561.953
453.036	510.469
457.045	465.62
461.053	401.082
465.059	340.878
469.063	324.526
473.065	321.081
477.065	252.601
481.063	257.944
485.06	289.053
489.054	305.963
493.047	342.522
497.038	314.673
501.027	257.469
505.014	313.58
508.999	363.313
512.982	288.768
516.964	318.485
520.944	357.764
524.921	346.314
528.897	371.675
532.871	440.035
536.844	443.581
540.814	667.045
544.783	1039.45
548.749	781.494
552.714	798.047
556.677	887.265
560.638	728.047
564.597	683.122
568.555	716.252
572.511	1274.57
576.464	1693.94
580.416	959.273
584.366	538.324
588.315	410.247
592.261	364.054
596.206	377.83
600.148	367.677
604.089	303.203
608.028	310.416
611.965	257.27
615.901	229.778
619.834	276.836
623.766	236.566
627.696	198.709
631.624	189.228
635.551	199.403
639.475	172.782
643.398	126.176
647.318	146.509
651.237	157.553
655.155	57.619
659.07	59.564
662.984	6.854
666.895	1.861
670.805	37.922
674.713	20.31
678.62	9.677
682.524	20.647
686.427	4.707
690.328	28.123
694.227	61.904
698.124	86.331
702.02	25.249
705.913	79.573
709.805	25.303
713.695	56.383
717.584	6.156
721.47	76.495
725.355	57.356
729.238	43.37
733.119	49.447
736.998	17.167
740.876	33.854
744.752	43.518
748.626	55.976
752.498	134.605
756.368	188.259
760.237	238.729
764.104	309.065
767.969	416.383
771.832	681.454
775.693	1082.83
779.553	1772.26
783.411	2331.08
787.267	2804.54
791.122	2827.8
794.974	2463.45
798.825	2353.09
802.674	2498.82
806.522	2964.93
810.367	4788.86
814.211	10945.6
818.053	24961.2
821.893	20615.1
825.732	8682.08
829.568	4631.92
833.403	2740.14
837.236	1876.39
841.068	1462.98
844.898	1342.65
848.726	1599.67
852.552	2011.97
856.376	1406.29
860.199	685.488
864.02	351.428
867.839	194.348
871.656	136.723
875.472	223.478
879.286	253.605
883.098	270.021
886.909	261.041
890.717	427.042
894.524	525.598
898.33	834.779
902.133	1351.58
905.935	2394.91
909.735	4417.76
913.533	9626.13
917.33	27686
921.124	41996.5
924.918	22387.4
928.709	9808.76
932.499	5250.62
936.286	4672.99
940.073	6085.84
943.857	8349.2
947.64	9243.06
951.421	7207.4
955.2	4492.26
958.978	2839.6
962.753	1893.45
966.527	1576.85
970.3	1309.79
974.071	1344.31
977.84	1288.39
981.607	1318.02
985.372	1207.39
989.136	1283.21
992.898	1512.59
996.659	1704.59
1000.42	2119.25
1004.17	2674.57
1007.93	3152.58
1011.68	3293.17
1015.43	3004.34
1019.18	2475.93
1022.93	1923.23
1026.68	1356.28
1030.42	1059.27
1034.17	844.85
1037.91	682.261
1041.65	679.21
1045.39	651.624
1049.12	542.376
1052.86	394.252
1056.59	379.742
1060.33	345.577
1064.06	429.938
1067.78	431.836
1071.51	450.4
1075.23	536.774
1078.96	400.565
1082.68	393.27
1086.4	396.93
1090.12	502.893
1093.83	465.129
1097.55	466.5
1101.26	405.065
1104.97	334.446
1108.68	217.913
1112.39	161.601
1116.1	91.927
1119.8	52.378
1123.5	161.58
1127.2	164.396
1130.9	100.312
1134.6	54.917
1138.3	64.505
1141.99	35.542
1145.69	284.692
1149.38	298.884
1153.07	294.65
1156.76	166.888
1160.44	134.014
1164.13	20.134
1167.81	68.384
1171.49	113.356
1175.17	10.768
1178.85	54.541
1182.52	19.479
1186.2	87.487
1189.87	127.597
1193.54	68.825
1197.21	92.406
1200.88	58.106
1204.55	29.776
1208.21	10.46
1211.88	21.47
1215.54	20.697
1219.2	107.46
1222.86	41.032
1226.51	43.839
1230.17	9.884
1233.82	72.569
1237.47	110.975
1241.12	160.936
1244.77	83.447
1248.42	116.728
1252.06	123.53
1255.71	80.964
1259.35	13.812
1262.99	25.265
1266.63	60.017
1270.26	100.935
1273.9	137.063
1277.53	105.375
1281.16	140.77
1284.8	104.044
1288.42	44.867
1292.05	106.195
1295.68	54.984
1299.3	90.588
1302.92	167.763
1306.55	126.892
1310.16	200.52
1313.78	188.078
1317.4	186.196
1321.01	116.12
1324.62	43.223
1328.24	98.45
1331.85	118.602
1335.45	105.372
1339.06	113.731
1342.66	162.782
1346.27	79.274
1349.87	111.218
1353.47	24.415
1357.07	41.864
1360.66	75.394
1364.26	28.734
1367.85	120.964
1371.44	102.851
1375.04	126.576
1378.62	84.892
1382.21	97.888
1385.8	164.545
1389.38	80.875
1392.96	85.934
1396.54	68.082
1400.12	157.567
1403.7	83.573
1407.28	158.184
1410.85	141.291
1414.42	230.076
1417.99	56.782
1421.56	23.629
1425.13	103.005
1428.7	75.347
1432.26	56.196
1435.83	5.901
1439.39	40.192
1442.95	51.943
1446.51	51.38
1450.06	182.201
1453.62	186.907
1457.17	129.199
1460.73	181.238
1464.28	126.253
1467.83	138.267
1471.37	71.928
1474.92	89.669
1478.46	125.381
1482.01	126.217
1485.55	62.689
1489.09	152.139
1492.63	283.547
1496.16	192.565
1499.7	210.473
1503.23	132.089
1506.76	95.979
1510.29	151.737
1513.82	96.068
1517.35	3.269
1520.88	4.679
