Measurement: Raman, 514 nm, depolarized, Raman Data Processed
Mineral: Pyromorphite
Rruff sample: R060285
Ideal chemistry: Pb^2+^_5_(PO_4_)_3_Cl
Locality: Les Farges mine, Correze Ussel, France
Source: Herb Obodda
Description: Aggregate of green hexagonal prisms
Measured chemistry: Pb_5.00_((P_0.99_As_0.01_)_Î£=1_O_4_)_3_Cl_1.00_
Pin_id: M01948
Orientation: Laser parallel to a* (1 0 0). Fiducial mark perpendicular to laser is parallel to c [0 0 1]
Raman shift (cm-1)	intensity
60.305	0
65.269	3932.45
70.231	13077.3
75.19	22528.8
80.146	33130.5
85.1	36377.5
90.052	33726.2
95	25289.1
99.947	24728.7
104.89	27868.2
109.832	18410.9
114.77	10322.6
119.706	6496.77
124.64	496.297
129.571	1199.64
134.499	433.703
139.425	1340.69
144.348	1738.81
149.269	3532.55
154.187	4455.72
159.103	6006.16
164.016	7003.89
168.927	8166.28
173.835	9257.12
178.74	9052.36
183.643	9255.5
188.543	8323.64
193.441	6950.11
198.336	5839.86
203.229	3521.14
208.119	1805.23
213.006	878.891
217.891	482.672
222.774	430.594
227.653	82.4219
232.531	419.828
237.405	918.594
242.277	345.578
247.147	228.516
252.014	90.2344
256.878	458.047
261.74	400.578
266.599	184.406
271.456	309.719
276.31	288.844
281.162	97.1719
286.011	11.0469
290.857	193.906
295.701	662.453
300.542	421
305.381	626.953
310.217	691.5
315.051	2961.11
319.882	2376.56
324.71	3012.42
329.536	2539.78
334.359	3081.8
339.18	2814.89
343.998	3176.7
348.813	3199.83
353.626	2632.75
358.437	3782.36
363.244	3709.95
368.05	4209.5
372.852	4619.06
377.652	6691.19
382.45	8678.31
387.245	11447.2
392.037	12822
396.827	11439.7
401.614	9612.42
406.398	10922.7
411.18	10678
415.959	8672.27
420.736	6427.36
425.51	3900.05
430.282	1941.23
435.051	1942.38
439.818	1670.53
444.581	1291.64
449.343	1098.41
454.101	442.641
458.857	1031.58
463.611	916.703
468.362	428.484
473.11	437.453
477.856	519.609
482.599	27.1094
487.34	378.875
492.078	894.75
496.813	490.828
501.546	606.953
506.276	78.8594
511.003	459.953
515.728	935.688
520.451	359.219
525.171	1074.67
529.888	1663.92
534.602	1896.17
539.314	1698.8
544.024	2618.53
548.731	2261.7
553.435	2250.31
558.137	2981.02
562.836	3721.8
567.532	2750.47
572.226	3853.84
576.917	2775.14
581.606	1359.95
586.292	1197.81
590.975	203.812
595.656	583.688
600.334	1006.33
605.01	1205.55
609.683	1596.66
614.353	1945.97
619.021	1961.34
623.686	1616.78
628.349	1325.97
633.009	1600.91
637.667	1264.44
642.321	926.406
646.974	1116.47
651.623	789.5
656.27	1140.34
660.915	199.438
665.556	839.312
670.196	1082.5
674.832	314.188
679.466	1387.28
684.097	1035.34
688.726	1586.44
693.352	709.594
697.976	1426.75
702.597	1733.75
707.215	1994.84
711.831	2268.03
716.444	2320.91
721.055	2976.91
725.663	964.844
730.268	406.438
734.87	646.156
739.471	601.656
744.068	352.75
748.663	138.125
753.255	457.594
757.845	1270.94
762.432	1512.91
767.016	2445.97
771.598	2816.47
776.177	5745.19
780.754	9551.28
785.328	14543.1
789.899	20764
794.468	26365.3
799.034	26101.8
803.597	23323.8
808.158	17730.1
812.717	16273.9
817.272	17023.8
821.825	14288.5
826.376	12448.7
830.924	9379.5
835.469	8301.41
840.011	7579.06
844.551	8541.12
849.089	8065.53
853.623	5475.94
858.156	2306.25
862.685	2388.25
867.212	1435.31
871.736	329.562
876.258	456.594
880.777	1311.78
885.293	1528.97
889.807	1652.72
894.318	4083.41
898.827	4169.16
903.333	7215
907.836	15206.9
912.337	30482.2
916.835	49416.9
921.331	48824.4
925.823	32995
930.314	23379.6
934.801	24729.1
939.286	35848
943.769	43161.2
948.248	39104.5
952.726	26582.8
957.2	17098
961.672	12929.9
966.141	9843.34
970.608	8891
975.072	8690.5
979.533	6110.16
983.992	3859.03
988.448	1443.38
992.902	399.5
997.353	464.312
1001.8	333.375
1006.25	1436.78
1010.69	1669.81
1015.13	1571.66
1019.57	1140.75
1024	454.5
1028.44	472.188
1032.87	608.875
1037.29	1205.84
1041.72	2566.41
1046.14	3201.91
1050.56	4735.34
1054.98	3822.81
1059.39	4994.88
1063.8	5336.62
1068.21	5026.41
1072.62	5381.69
1077.02	4955.81
1081.42	4831.19
1085.82	3799.12
1090.22	3467.31
1094.61	2815.84
1099	4411.75
1103.39	3630
1107.77	3314.84
1112.16	2547.16
1116.54	1710.16
1120.91	2508
1125.29	2465.31
1129.66	2659.56
1134.03	2298.06
1138.4	2489.03
1142.76	2908.44
1147.12	2135.72
1151.48	3126.22
1155.84	2497.38
1160.19	2071.22
1164.54	1294.62
1168.89	269
1173.24	309.625
1177.58	756.312
1181.92	484.625
1186.26	85
1190.6	940.562
1194.93	772.562
1199.26	1218.94
1203.59	902.594
1207.91	656.344
1212.23	2406.72
1216.55	2142.78
1220.87	1706.16
1225.18	3081.28
1229.5	1097.28
1233.81	1986.38
1238.11	2920.75
1242.42	2359.38
1246.72	1088.5
1251.02	2732.25
1255.31	1652.5
1259.61	2574.12
1263.9	2312.94
1268.18	2426.75
1272.47	3092.44
1276.75	1964.44
1281.03	2331.31
1285.31	3349.19
1289.59	1347.81
1293.86	2887
1298.13	3886.56
1302.39	1362.88
1306.66	1861.06
1310.92	3108.56
1315.18	2709.06
1319.44	2284.69
1323.69	3001.62
1327.94	2274
1332.19	3293.44
1336.44	3686.19
1340.68	3692.38
1344.92	3901.62
1349.16	2622.56
1353.4	3721.69
1357.63	2662.56
1361.86	3700.88
1366.09	3181.81
1370.31	3467.31
1374.53	3978.75
1378.75	3419.31
1382.97	2754.5
1387.19	3450.06
1391.4	2914.56
1395.61	3572.38
1399.81	2204.75
1404.02	1626.38
1408.22	3140.25
1412.42	3443.5
1416.61	1634.81
1420.81	2871.44
1425	1346.12
1429.19	1477.12
1433.37	144.562
1437.56	1596.06
1441.74	1645.25
1445.91	175.125
1450.09	352.812
1454.26	1483.31
1458.43	1209.19
1462.6	556.812
1466.76	572
1470.92	1964.44
1475.09	317
1479.24	171.688
1483.4	1355.94
1487.55	549.25
1491.7	1953.25
1495.84	86.125
1499.99	862.812
1504.13	391.562
1508.27	186.875
1512.4	1142.88
1516.53	874.438
1520.66	2371.56
1524.79	2352.62
1528.92	2413.44
1533.04	866
1537.16	1469.06
1541.28	1972.38
1545.39	1776.38
1549.5	2721.38
1553.61	3461
1557.72	1869.75
1561.83	2682.94
1565.93	1847.88
1570.03	3496.06
1574.12	2415.69
