Measurement: Raman, 514 nm, ccw, Raman Data Processed
Mineral: Pyrope
Rruff sample: R050446
Ideal chemistry: Mg_3_Al_2_(SiO_4_)_3_
Locality: Sunset Crater, Arizona, USA
Source: Marcus Origlieri
Description: Red fragment
Measured chemistry: (Mg_1.93_Fe^2+^_0.65_Ca_0.42_)_Î£=3_Al_2.00_(Si_1.00_O_4_)_3_
Pin_id: L01215
Orientation: Laser parallel to a* (1 0 0). Fiducial mark perpendicular to laser is parallel to c [0 0 1]
Raman shift (cm-1)	intensity
62.899	0
67.89	42.3059
72.879	112.977
77.864	85.4935
82.846	10.2876
87.824	19.7182
92.8	93.3674
97.773	295.719
102.742	684.949
107.708	1153.95
112.672	1248.85
117.632	1546.86
122.589	1569.76
127.543	1596.56
132.494	1575.27
137.441	1593.69
142.386	1611.74
147.328	1534.56
152.266	1403.81
157.202	1307.22
162.134	1193.97
167.063	1146.33
171.99	1211.69
176.913	1211.71
181.833	1350.77
186.75	1542.97
191.664	1494.4
196.575	1463.42
201.483	1339.65
206.388	1241.04
211.29	1327.64
216.189	1228.23
221.085	1225.63
225.977	993.167
230.867	1008.69
235.754	1088.83
240.638	1100.69
245.518	1074.26
250.396	1076.13
255.271	1063.21
260.143	1094.44
265.011	1012.76
269.877	1011.13
274.74	1021.31
279.6	976.843
284.457	921.131
289.31	907.61
294.161	939.841
299.009	939.405
303.854	1008.68
308.696	1057.52
313.535	1183.46
318.371	1311.18
323.204	1439.58
328.034	1628.63
332.861	2004.27
337.686	2705.6
342.507	3588.59
347.325	4613.22
352.141	6430.48
356.953	8800.36
361.763	10899
366.569	9633.36
371.373	6745.56
376.174	4691.57
380.972	3438.48
385.767	2394.16
390.559	1792.55
395.348	1112.64
400.134	779.401
404.918	510.7
409.698	357.082
414.476	139.005
419.25	102.744
424.022	26.2854
428.791	20.6194
433.557	95.3042
438.32	52.7473
443.081	22.8335
447.838	72.4841
452.593	46.8442
457.344	16.9451
462.093	44.8281
466.839	24.9785
471.582	54.4756
476.323	110.336
481.06	100.561
485.795	149.121
490.526	163.98
495.255	188.118
499.981	199.518
504.705	423.167
509.425	611.04
514.143	542.113
518.857	559.367
523.569	709.779
528.278	951.326
532.985	911.99
537.688	1083.82
542.389	1316.98
547.087	2122.74
551.782	3395.97
556.474	5658.12
561.164	7447.91
565.851	5481.5
570.535	2682.09
575.216	1321.78
579.894	769.626
584.57	592.616
589.243	504.414
593.913	369.499
598.58	326.223
603.245	363.984
607.907	309.681
612.566	342.662
617.222	357.97
621.875	318.879
626.526	294.033
631.174	367.312
635.82	396.238
640.462	648.168
645.102	765.622
649.739	616.665
654.373	450.399
659.005	299.819
663.634	288.919
668.26	233.695
672.884	49.1431
677.504	71.2192
682.122	24.0767
686.738	109.191
691.35	24.7812
695.96	64.2202
700.567	18.9502
705.172	94.6792
709.774	63.1328
714.373	17.4565
718.969	28.4448
723.563	0.966797
728.154	68.2725
732.743	2.1333
737.328	31.0073
741.912	56.3076
746.492	4.34912
751.07	41.7534
755.645	28.5591
760.217	8.12451
764.787	50.0503
769.354	94.0112
773.918	9.76709
778.48	39.3237
783.039	81.689
787.596	13.4731
792.15	115.92
796.701	56.811
801.25	64.5688
805.796	90.2046
810.339	182.935
814.88	341.773
819.418	483.874
823.953	639.556
828.486	778.165
833.016	740.969
837.544	872.516
842.069	889.32
846.591	1081.1
851.111	1462.65
855.628	1990.17
860.143	2379.99
864.655	2337.64
869.164	1982.19
873.671	1699.81
878.176	1679.69
882.677	1954.71
887.176	2354.49
891.673	2931.33
896.167	4049.99
900.658	6046.73
905.147	9964.75
909.633	18253
914.117	32096.5
918.598	42719.3
923.077	35238.5
927.553	20130
932.026	11134.9
936.497	6465.98
940.966	4163.44
945.431	2749.22
949.895	1901.35
954.355	1365.97
958.814	1150.73
963.269	1058.31
967.723	799.805
972.173	687.463
976.621	596.554
981.067	724.223
985.51	500.824
989.951	567.514
994.389	392.941
998.824	375.572
1003.26	387.302
1007.69	233.789
1012.12	383.138
1016.54	590.872
1020.96	636.914
1025.38	846.452
1029.8	716.955
1034.22	950.815
1038.63	901.81
1043.04	1003.36
1047.45	1079.81
1051.86	1113.47
1056.26	955.489
1060.66	665.413
1065.06	306.164
1069.45	275.148
1073.85	85.7734
1078.24	85.5767
1082.63	55.5449
1087.01	18.6641
1091.4	60.9087
1095.78	65.271
1100.16	95.7642
1104.53	54.2759
1108.91	64.1797
1113.28	1.73389
1117.65	63.7725
1122.01	87.2891
1126.38	34.1753
1130.74	5.71631
1135.1	53.7207
1139.45	46.3701
1143.81	95.8467
1148.16	42.6328
1152.51	183.606
1156.86	62.3682
1161.2	127.037
1165.54	148.546
1169.88	161.898
1174.22	180.201
1178.56	90.4438
1182.89	198.632
1187.22	249.762
1191.55	180.764
1195.87	164.829
1200.19	186.764
1204.52	196.616
1208.83	260.878
1213.15	211.568
1217.46	329.218
1221.78	146.247
1226.08	133.416
1230.39	186.648
1234.69	216.688
1239	111.688
1243.3	131.32
1247.59	99.9981
1251.89	161.007
1256.18	77.6357
1260.47	73.106
1264.76	188.137
1269.04	180.761
1273.33	50.9273
1277.61	118.831
1281.88	171.114
1286.16	218.497
1290.43	87.9502
1294.7	201.944
1298.97	41
1303.24	194.69
1307.51	179.681
1311.77	84.6426
1316.03	129.575
1320.28	127.481
1324.54	57.3638
1328.79	131.02
1333.04	2.04639
1337.29	138.85
1341.54	119.626
1345.78	182.341
1350.02	43.0542
1354.26	33.3296
1358.5	180.248
1362.73	16.8804
1366.96	25.5122
1371.19	8.37256
1375.42	65.6504
1379.65	156.206
1383.87	36.7832
1388.09	173.42
1392.31	41.0127
1396.52	41.9775
1400.74	8.15674
1404.95	31.4292
1409.16	84.6357
1413.37	20.8643
1417.57	85.6748
1421.77	57.3594
1425.97	73.7349
1430.17	59.0029
1434.37	140.269
1438.56	41.2412
1442.75	99.3057
1446.94	79.4092
1451.13	179.017
1455.31	167.96
1459.5	35.6445
1463.68	144.713
1467.85	55.8921
1472.03	174.185
1476.2	42.4199
1480.37	64.3857
1484.54	213.784
1488.71	74.3057
1492.88	120.258
1497.04	82.8359
1501.2	81.0601
1505.36	140.283
1509.51	140.469
1513.66	76.5513
1517.82	68.6777
1521.97	244.7
1526.11	33.8096
1530.26	4.81445
1534.4	181.694
1538.54	73.7456
1542.68	90.3677
1546.82	148.234
1550.95	152.482
1555.08	7.09131
1559.21	190.389
1563.34	140.624
1567.46	108.095
1571.59	111.794
1575.71	64.5161
