Measurement: Raman, 514 nm, depolarized, Raman Data Processed
Mineral: Pyrope
Rruff sample: R040159
Ideal chemistry: Mg_3_Al_2_(SiO_4_)_3_
Locality: Meronitz, Bohemia
Source: University of Arizona Mineral Museum
Description: Deep red crystal fragments
Measured chemistry: (Mg_2.17_Fe^2+^_0.47_Ca_0.34_Mn_0.02_)_Σ=3_(Al_1.86_Cr_0.11_Ti_0.03_)_Σ=2_((Si_0.99_Al_0.01_)_Σ=1_O_4_)_3_; trace amounts of Rb?
Pin_id: L01351
Orientation: Laser parallel to (1 1 1). Fiducial mark perpendicular to laser is parallel to [-1 1 0]
Raman shift (cm-1)	intensity
88.228	0
93.183	172.191
98.135	32.2363
103.085	146.702
108.032	470.104
112.976	629.876
117.917	988.959
122.856	904.485
127.792	607.158
132.725	748.023
137.656	778.481
142.583	737.917
147.508	664.347
152.431	492.717
157.35	222.436
162.267	17.0781
167.181	2.58008
172.092	87.822
177.001	47.8469
181.907	295.577
186.81	560.452
191.711	1083.57
196.608	1375.91
201.503	1896.33
206.395	2246.66
211.285	2168.55
216.172	1735.4
221.056	1349.05
225.937	965.237
230.816	958.689
235.692	935.92
240.565	1058.76
245.436	1078.6
250.304	1130.83
255.169	1171.03
260.031	1175.91
264.891	1292.4
269.748	1151.58
274.602	1244.27
279.454	1221.21
284.303	1095.7
289.149	1218.5
293.992	1238.61
298.833	1311.81
303.671	1461.92
308.507	1642.68
313.339	1975.42
318.169	2419.53
322.996	2585.2
327.821	2766.77
332.643	3424.02
337.462	4556.93
342.279	6435.46
347.092	9343.6
351.904	14679.3
356.712	22134.7
361.518	25858.7
366.321	20763.2
371.121	13502.3
375.919	8972.98
380.714	6064.22
385.506	4217.08
390.296	2729.6
395.083	1899.75
399.867	1151.49
404.649	767.833
409.428	471.828
414.204	287.573
418.978	154.215
423.749	13.6812
428.517	149.239
433.282	118.73
438.045	49.562
442.806	77.0469
447.563	18.2939
452.318	142.269
457.07	259.908
461.82	504.278
466.567	852.37
471.311	1042
476.053	1287.78
480.792	1613.82
485.528	2022.02
490.262	1912.42
494.992	1555.91
499.721	2029.39
504.446	2852.13
509.169	3426.09
513.89	3014.23
518.607	2576.55
523.322	2689.02
528.035	2813.62
532.745	3110.33
537.452	3790.12
542.156	5416.2
546.858	8187.88
551.557	13494.6
556.254	20469.5
560.947	19717.2
565.639	10673.2
570.327	5015.16
575.013	2803.27
579.697	2003.87
584.377	1590.13
589.055	1442.18
593.731	1315.66
598.403	1094.5
603.074	801.327
607.741	802.926
612.406	760.697
617.068	773.208
621.728	859.965
626.385	1210.37
631.039	1909.01
635.691	3274.97
640.34	4824.59
644.987	4523.91
649.63	2657.72
654.272	1733.01
658.91	1121.78
663.546	770.008
668.18	412.7
672.81	392.849
677.439	226.449
682.064	157.494
686.687	43.9419
691.307	50.6055
695.925	69.6965
700.54	73.6709
705.153	16.9817
709.763	31.6811
714.37	0.597412
718.974	135.905
723.577	7.42871
728.176	32.6128
732.773	1.48462
737.367	1.68042
741.959	4.5708
746.548	9.14062
751.134	25.4324
755.718	75.429
760.299	36.2615
764.878	97.8718
769.454	13.6843
774.028	30.2324
778.598	122.35
783.167	111.623
787.732	121.627
792.295	163.383
796.856	227.912
801.414	263.235
805.969	315.375
810.522	421.352
815.072	544.19
819.62	865.692
824.165	1054.16
828.707	1359.22
833.247	1697.19
837.784	2167.09
842.319	2984.1
846.851	4712.25
851.381	7421.28
855.908	10865.8
860.432	13475.6
864.954	12035.1
869.473	9172.28
873.99	6906.51
878.504	5972.87
883.015	5863.64
887.524	6561.78
892.031	7844.35
896.535	10068.4
901.036	13969.8
905.535	22689.6
910.031	40701
914.524	68619.3
919.015	84111.2
923.504	62265.6
927.99	34094.6
932.473	19173.1
936.954	11626.2
941.432	7393.92
945.908	4939.2
950.381	3645.08
954.852	2888.56
959.32	2520.69
963.785	2231.58
968.248	1883.33
972.708	1677.52
977.166	1564.02
981.622	1466.03
986.074	1477.5
990.525	1086.14
994.972	1094.34
999.417	671.843
1003.86	706.293
1008.3	733.312
1012.74	903.094
1017.17	1112.78
1021.61	1405.84
1026.04	1744.06
1030.46	2094.93
1034.89	2376.3
1039.31	2614.56
1043.73	3391.52
1048.15	4292.29
1052.56	4804.39
1056.97	4114.81
1061.38	2530.54
1065.79	1433.56
1070.19	847.851
1074.6	517.399
1079	351.185
1083.39	218.193
1087.79	125.409
1092.18	63.8396
1096.57	113.474
1100.96	65.2776
1105.34	38.7749
1109.72	40.8196
1114.1	83.9106
1118.48	68.3301
1122.85	75.0688
1127.22	14.5349
1131.6	21.5471
1135.96	6.72388
1140.33	53.5112
1144.69	23.0186
1149.05	34.9829
1153.4	15.6104
1157.76	45.1516
1162.11	54.0356
1166.46	147.856
1170.81	181.905
1175.15	223.745
1179.49	222.359
1183.83	239.727
1188.17	254.851
1192.5	184.694
1196.84	193.651
1201.16	258.835
1205.49	222.169
1209.82	305.05
1214.14	342.781
1218.46	307.693
1222.77	226.101
1227.09	301.061
1231.4	309.313
1235.71	207.336
1240.02	230.703
1244.32	185.826
1248.62	265.293
1252.92	179.303
1257.22	262.062
1261.51	174.582
1265.81	296.048
1270.1	248.447
1274.38	301.833
1278.67	255.567
1282.95	262.466
1287.23	195.872
1291.51	291.516
1295.78	271.334
1300.05	170.489
1304.32	248.85
1308.59	257.159
1312.86	139.287
1317.12	233.023
1321.38	89.1636
1325.63	89.6704
1329.89	130.474
1334.14	121.291
1338.39	90.1624
1342.64	90.9636
1346.88	51.5774
1351.13	64.2283
1355.37	112.094
1359.61	94.6882
1363.84	46.0007
1368.07	56.0649
1372.3	11.8967
1376.53	12.3852
1380.76	12.2747
1384.98	114.048
1389.2	137.711
1393.42	53.2002
1397.64	66.6516
1401.85	26.1763
1406.06	77.6819
1410.27	95.2092
1414.47	44.8547
1418.68	72.0962
1422.88	71.144
1427.08	50.3381
1431.27	72.2258
1435.47	114.868
1439.66	68.1216
1443.85	95.3047
1448.03	34.6909
1452.22	71.4468
1456.4	122.243
1460.58	17.6033
1464.76	126.461
1468.93	125.447
1473.1	127.406
1477.27	106.629
1481.44	155.47
1485.6	136.889
1489.77	180.219
1493.92	173.198
1498.08	188.54
1502.24	152.074
1506.39	135.446
1510.54	196.624
1514.69	95.8218
1518.83	150.543
1522.97	150.475
1527.12	154.534
1531.25	126.71
1535.39	35.6741
1539.52	147.776
1543.65	106.651
1547.78	119.162
1551.91	151.626
1556.03	124.64
1560.15	63.8945
1564.27	60.0181
1568.39	60.5786
1572.5	110.648
1576.61	0
