Measurement: Raman, 514 nm, ccw, Raman Data Processed
Mineral: Pyrope
Rruff sample: R060448
Ideal chemistry: Mg_3_Al_2_(SiO_4_)_3_
Locality: India
Source: Gemological Institute of America
Description: Deep red water worn pebble, variety rhodolite
Measured chemistry: (Mg_1.47_Fe_1.27_Ca_0.21_Mn_0.05_)_Î£=3_Al_2.00_(Si_1.00_O_4_)_3_
Pin_id: L00709
Orientation: Laser parallel to a* (1 0 0). Fiducial mark perpendicular to laser is parallel to c [0 0 1]
Raman shift (cm-1)	intensity
62.899	0
67.89	76.5302
72.879	172.387
77.864	182.956
82.846	1.62604
87.824	62.421
92.8	33.8694
97.773	137.14
102.742	448.543
107.708	805.878
112.672	1030.6
117.632	1523.44
122.589	1407.15
127.543	1436.85
132.494	1658.42
137.441	1757.52
142.386	2161.71
147.328	2228.99
152.266	2216.88
157.202	2122.09
162.134	2065.02
167.063	1759.76
171.99	1735.41
176.913	1849.92
181.833	1941.53
186.75	1655.98
191.664	1647.8
196.575	2027.14
201.483	2547.97
206.388	3264.25
211.29	3727.31
216.189	3331.48
221.085	2384.67
225.977	1753.43
230.867	1595.45
235.754	1362.52
240.638	1414.62
245.518	1376.05
250.396	1384.15
255.271	1291.83
260.143	1241.01
265.011	1259.61
269.877	1273.58
274.74	1257.88
279.6	1242.75
284.457	1254.08
289.31	1303.2
294.161	1359.72
299.009	1449.47
303.854	1674.53
308.696	2070.96
313.535	2959.14
318.371	3731.41
323.204	3373.95
328.034	3735.43
332.861	4602.81
337.686	6740.04
342.507	9839.1
347.325	15044
352.141	24304.6
356.953	29193
361.763	21557.3
366.569	13143.6
371.373	9433.88
376.174	7042.16
380.972	4896.5
385.767	3224.88
390.559	1934.14
395.348	1111.25
400.134	659.228
404.918	424.117
409.698	283.026
414.476	189.973
419.25	17.1331
424.022	60.654
428.791	57.7495
433.557	62.229
438.32	124.281
443.081	37.0671
447.838	125.481
452.593	13.8462
457.344	46.9773
462.093	161.245
466.839	286.053
471.582	510.246
476.323	928.848
481.06	1720.74
485.795	2528.92
490.526	1955.37
495.255	1722.05
499.981	3106.95
504.705	5850.03
509.425	5463.29
514.143	2839.69
518.857	1849.21
523.569	1636.37
528.278	1641.42
532.985	1694.38
537.688	1918.27
542.389	2658.66
547.087	4089.48
551.782	6948.82
556.474	12249.4
561.164	15435.1
565.851	9957.52
570.535	4626.91
575.216	2526.49
579.894	1685.21
584.57	1573.12
589.243	1568.48
593.913	1299.9
598.58	930.928
603.245	756.744
607.907	752.254
612.566	754.19
617.222	633.151
621.875	624.836
626.526	813.701
631.174	1491
635.82	2772.74
640.462	3822.99
645.102	2857.17
649.739	1721.58
654.373	1038.34
659.005	659.445
663.634	429.642
668.26	285.143
672.884	197.014
677.504	76.2224
682.122	34.6663
686.738	18.114
691.35	51.6094
695.96	79.7202
700.567	30.4849
705.172	47.7849
709.774	7.50146
714.373	6.57373
718.969	21.6243
723.563	21.1714
728.154	17.397
732.743	18.2683
737.328	3.4043
741.912	53.0962
746.492	21.6602
751.07	75.9502
755.645	29.8335
760.217	76.3301
764.787	126.463
769.354	112.26
773.918	8.2561
778.48	14.928
783.039	10.1731
787.596	40.5554
792.15	16.2061
796.701	7.09888
801.25	61.4158
805.796	89.5784
810.339	98.8733
814.88	182.793
819.418	248.003
823.953	360.376
828.486	513.635
833.016	735.023
837.544	862.14
842.069	1247.64
846.591	2152.65
851.111	3625.09
855.628	6141.76
860.143	9963.82
864.655	11970.8
869.164	9978.48
873.671	7220.27
878.176	5834.84
882.677	5826.9
887.176	6808.08
891.673	8846.11
896.167	12003.5
900.658	16091.6
905.147	23249.2
909.633	40561.3
914.117	76946
918.598	119670
923.077	110385
927.553	62576.8
932.026	32275.5
936.497	17867
940.966	10919.2
945.431	6934.96
949.895	4675.37
954.355	3417.47
958.814	2627.43
963.269	2037.31
967.723	1727.31
972.173	1441.38
976.621	1312.62
981.067	1307.01
985.51	1336.09
989.951	1195.76
994.389	989.018
998.824	946.905
1003.26	886.58
1007.69	926.997
1012.12	1091.74
1016.54	1223.48
1020.96	1450.94
1025.38	1838.35
1029.8	2305.18
1034.22	2897.49
1038.63	3704
1043.04	5110.84
1047.45	6265
1051.86	6527.18
1056.26	5100.26
1060.66	3035.33
1065.06	1758.67
1069.45	997.247
1073.85	671.058
1078.24	486.1
1082.63	262.373
1087.01	183.914
1091.4	111.742
1095.78	2.18384
1100.16	85.0081
1104.53	34.2969
1108.91	14.3257
1113.28	71.9944
1117.65	24.9578
1122.01	93.9783
1126.38	55.3689
1130.74	19.135
1135.1	75.542
1139.45	61.8281
1143.81	80.9507
1148.16	42.8418
1152.51	46.6677
1156.86	62.697
1161.2	56.2
1165.54	184.732
1169.88	153.816
1174.22	296.606
1178.56	325.899
1182.89	447.504
1187.22	391.336
1191.55	356.867
1195.87	377.084
1200.19	397.67
1204.52	454.557
1208.83	369.323
1213.15	427.312
1217.46	378.212
1221.78	394.592
1226.08	396.688
1230.39	340.978
1234.69	351.734
1239	388.449
1243.3	235.943
1247.59	263.023
1251.89	385.523
1256.18	351.062
1260.47	362.873
1264.76	430.813
1269.04	442.633
1273.33	474.596
1277.61	393.106
1281.88	414.887
1286.16	341.104
1290.43	340.85
1294.7	368.002
1298.97	339.78
1303.24	305.186
1307.51	253.387
1311.77	194.067
1316.03	173.386
1320.28	137.36
1324.54	110.994
1328.79	71.269
1333.04	35.1587
1337.29	139.566
1341.54	37.3071
1345.78	39.4834
1350.02	53.9058
1354.26	154.09
1358.5	47.5698
1362.73	76.5981
1366.96	58.2353
1371.19	20.1528
1375.42	7.68018
1379.65	91.6812
1383.87	5.64307
1388.09	1.42529
1392.31	75.4692
1396.52	45.4463
1400.74	71.4536
1404.95	68.4487
1409.16	158.385
1413.37	32.2461
1417.57	139.944
1421.77	187.478
1425.97	183.856
1430.17	159.102
1434.37	251.246
1438.56	141.624
1442.75	173.915
1446.94	174.561
1451.13	294.284
1455.31	242.403
1459.5	253.954
1463.68	223.324
1467.85	177.617
1472.03	202.645
1476.2	309.742
1480.37	235.588
1484.54	316.233
1488.71	286.345
1492.88	305.665
1497.04	262.183
1501.2	353.695
1505.36	299.781
1509.51	372.132
1513.66	328.217
1517.82	223.696
1521.97	205.974
1526.11	231.304
1530.26	281.266
1534.4	303.485
1538.54	147.052
1542.68	165.876
1546.82	272.121
1550.95	84.4019
1555.08	255.606
1559.21	12.7979
1563.34	22.3765
1567.46	66.8828
1571.59	83.8603
1575.71	25.8677
