Measurement: Raman, 514 nm, depolarized, Raman Data Processed
Mineral: Pyromorphite
Rruff sample: R060285
Ideal chemistry: Pb^2+^_5_(PO_4_)_3_Cl
Locality: Les Farges mine, Correze Ussel, France
Source: Herb Obodda
Description: Aggregate of green hexagonal prisms
Measured chemistry: Pb_5.00_((P_0.99_As_0.01_)_Î£=1_O_4_)_3_Cl_1.00_
Pin_id: M01413
Orientation: Laser parallel to -c* (0 0 -1). Fiducial mark perpendicular to laser is parallel to a [1 0 0]
Raman shift (cm-1)	intensity
74.326	0
79.268	8134.83
84.207	28140.5
89.143	31437.9
94.077	23939
99.009	18583.3
103.938	32739.9
108.865	33817.8
113.79	21390.6
118.712	7103.7
123.632	1927.81
128.549	1308.27
133.464	114.688
138.377	798.375
143.287	539.438
148.195	2943.36
153.101	6602.56
158.004	7361.62
162.905	8716.23
167.803	8278.22
172.699	7146.59
177.592	7747.25
182.483	7778.25
187.372	6369.14
192.259	7608.97
197.142	6392.17
202.024	6536.28
206.903	1144.72
211.78	1185.05
216.654	662.547
221.526	433.422
226.395	208.359
231.262	247.484
236.127	734.719
240.989	827.969
245.849	1.875
250.707	500.734
255.562	31.9219
260.414	947.953
265.264	1413.84
270.112	572
274.957	208.625
279.8	1024.77
284.641	472.875
289.479	258
294.314	369.828
299.148	122.656
303.978	975.578
308.807	1249.05
313.633	1234.95
318.456	1500.05
323.277	1827.53
328.096	2457.41
332.912	2962.03
337.726	2681.84
342.537	3131.08
347.346	3391.09
352.152	3063.73
356.956	3550.89
361.758	3621.86
366.557	3265.12
371.354	4123.5
376.148	4376.06
380.94	4850.17
385.729	6918
390.516	8669.16
395.301	9483.94
400.083	6744.27
404.862	7115.41
409.639	8351.78
414.414	9738.97
419.186	8725.33
423.956	5367.2
428.723	4448.39
433.488	3196.16
438.25	2120.22
443.01	1609.89
447.768	1222.67
452.523	748.172
457.275	1050.73
462.025	375.984
466.773	673.109
471.518	338.609
476.261	176.578
481.001	867.062
485.739	915.297
490.474	1432.59
495.207	1352.48
499.938	1279.44
504.666	1375.36
509.391	1830.28
514.114	2538.73
518.834	1737.66
523.552	2241.48
528.268	3096.08
532.981	3713.66
537.692	3027.67
542.4	4303.89
547.106	3955.16
551.809	4342.11
556.509	4627.36
561.208	4251
565.903	5378.8
570.597	7210.27
575.287	6564.31
579.976	5216.42
584.662	2166.02
589.345	1235.12
594.026	143.719
598.704	120.125
603.38	651.984
608.053	387.25
612.724	746.781
617.393	769.219
622.059	241.188
626.722	232.297
631.383	600.422
636.041	395.547
640.697	342.125
645.351	94
650.002	279.875
654.65	604.484
659.296	1.95312
663.94	47.7031
668.581	412.438
673.219	185.219
677.855	446.219
682.489	436.141
687.119	855
691.748	479.594
696.374	1392.75
700.997	1276.8
705.618	956.016
710.237	1274.36
714.853	1723.25
719.466	1810.58
724.077	1710.47
728.686	1015.28
733.291	1870.66
737.895	2768.91
742.496	2762.59
747.094	3058.06
751.69	3819.62
756.283	4063.75
760.874	4572.06
765.463	6112.69
770.048	8250.03
774.632	10206.3
779.212	14513.7
783.791	20929.3
788.367	28534.9
792.94	36841.5
797.51	39849.1
802.079	37642.7
806.644	29065.9
811.207	22293.3
815.768	20458.7
820.326	18898.3
824.882	14230
829.435	11264.1
833.985	7474.38
838.533	5806.34
843.079	5119.84
847.622	4610.56
852.162	3182.06
856.7	1673.78
861.236	418.812
865.768	560.594
870.299	393.5
874.827	929.219
879.352	415.781
883.875	326.219
888.395	1510.66
892.912	2860.78
897.428	3644.78
901.94	6267.97
906.45	13858.3
910.958	29258
915.463	64996.2
919.965	83165.5
924.465	56529
928.963	30029.3
933.457	19894.4
937.95	22720.7
942.439	27863.7
946.927	27539.9
951.411	21479.4
955.894	13545.8
960.373	9554.88
964.85	6565.75
969.325	6629.12
973.797	5298.53
978.266	5610.97
982.733	5138.62
987.197	3787
991.659	3280.06
996.118	2888.62
1000.58	3476.47
1005.03	4745.38
1009.48	4787.25
1013.93	4306.19
1018.38	2496.66
1022.82	901.344
1027.26	400.969
1031.7	1228.34
1036.14	467.281
1040.57	239.375
1045	1386.56
1049.43	2952.84
1053.86	3240.53
1058.28	2900.84
1062.7	2896.5
1067.12	2817.78
1071.54	2967.34
1075.95	2485.25
1080.36	3595.81
1084.77	2377.41
1089.17	2742.31
1093.58	1762.34
1097.98	2238.81
1102.38	1484.22
1106.77	2542.53
1111.16	2118.41
1115.55	1608.25
1119.94	1205.53
1124.33	1786.38
1128.71	1092.09
1133.09	638.094
1137.47	2078.53
1141.84	1493.28
1146.21	1505.66
1150.58	1569.75
1154.95	1540.38
1159.32	1775.84
1163.68	113.812
1168.04	550.906
1172.39	219.75
1176.75	16.5
1181.1	153.562
1185.45	491.75
1189.8	165.531
1194.14	337.406
1198.48	128.188
1202.82	111.406
1207.16	231.312
1211.49	670.125
1215.82	239.906
1220.15	1233.75
1224.48	620.594
1228.8	109.125
1233.12	375.875
1237.44	803
1241.76	194.375
1246.07	508.781
1250.38	2416.47
1254.69	1871.84
1258.99	2339.06
1263.3	1465.06
1267.6	2269.88
1271.89	3111.66
1276.19	976.031
1280.48	1870
1284.77	1562
1289.06	1584.16
1293.35	1426.16
1297.63	2343.34
1301.91	1338.91
1306.18	2424.06
1310.46	1469.28
1314.73	1475.62
1319	1562.69
1323.27	2491.5
1327.53	2443.19
1331.79	2554.38
1336.05	2591.91
1340.31	3851.88
1344.56	3447.72
1348.81	2963.78
1353.06	2801.03
1357.31	2235.03
1361.55	3269.81
1365.79	2603.91
1370.03	3384.59
1374.27	3113.22
1378.5	2626.41
1382.73	2825.59
1386.96	2660.03
1391.19	2410.62
1395.41	1598.28
1399.63	1129.81
1403.85	1329.84
1408.06	1503.38
1412.28	1194.31
1416.48	1878.62
1420.69	218.781
1424.9	349.531
1429.1	2170.78
1433.3	607.969
1437.5	727.5
1441.69	113.344
1445.88	1179.53
1450.07	1680.66
1454.26	1242.28
1458.44	882.438
1462.62	198.25
1466.8	1.5
1470.98	552.062
1475.15	179.5
1479.32	928.75
1483.49	355.562
1487.66	1287.31
1491.82	1549.81
1495.98	1066.38
1500.14	1412
1504.3	118.688
1508.45	463
1512.6	666
1516.75	724.938
1520.89	1464.31
1525.04	1327.12
1529.17	2684.75
1533.31	91.25
1537.45	1161.31
1541.58	206.562
1545.71	459.125
1549.84	1327.19
1553.96	1242.38
1558.08	1426.5
1562.2	1117
1566.32	851.75
1570.43	1929.5
1574.54	107.25
1578.65	0
