Measurement: Raman, 514 nm, ccw, Raman Data Processed
Mineral: Pyromorphite
Rruff sample: R060285
Ideal chemistry: Pb^2+^_5_(PO_4_)_3_Cl
Locality: Les Farges mine, Correze Ussel, France
Source: Herb Obodda
Description: Aggregate of green hexagonal prisms
Measured chemistry: Pb_5.00_((P_0.99_As_0.01_)_Î£=1_O_4_)_3_Cl_1.00_
Pin_id: M01413
Orientation: Laser parallel to -c* (0 0 -1). Fiducial mark perpendicular to laser is parallel to a [1 0 0]
Raman shift (cm-1)	intensity
74.326	0
79.268	10771.9
84.207	27789.6
89.143	35398.1
94.077	23824.6
99.009	25406.9
103.938	42123.7
108.865	35397.8
113.79	19267.3
118.712	5494.02
123.632	2227.5
128.549	2698.23
133.464	485.547
138.377	0.21875
143.287	1896.92
148.195	4430.19
153.101	6588.69
158.004	8878
162.905	7408.72
167.803	8284.45
172.699	9021.11
177.592	7917.7
182.483	7933.62
187.372	6755.39
192.259	6020.31
197.142	5363.97
202.024	4522.78
206.903	2324.42
211.78	1059.52
216.654	1432.66
221.526	866.469
226.395	1082.34
231.262	269.672
236.127	888.469
240.989	53.2031
245.849	760
250.707	576.453
255.562	345.141
260.414	496.266
265.264	1102.75
270.112	831.766
274.957	103.969
279.8	89.875
284.641	231.906
289.479	129.031
294.314	206.266
299.148	362.938
303.978	192.219
308.807	464.375
313.633	899.672
318.456	1943.84
323.277	2197.89
328.096	2504.36
332.912	2513.42
337.726	2339.73
342.537	2420.97
347.346	1793.34
352.152	2711.08
356.956	3468.84
361.758	3581.11
366.557	3582.53
371.354	3678.75
376.148	4471.67
380.94	5773.69
385.729	7900.52
390.516	9436.06
395.301	8816.55
400.083	7212.7
404.862	7625.94
409.639	9217.28
414.414	9365.2
419.186	8384.52
423.956	5529.73
428.723	3776.36
433.488	2431.72
438.25	2224.55
443.01	1216.86
447.768	1262.14
452.523	860.203
457.275	898.938
462.025	793.516
466.773	548.219
471.518	84.6562
476.261	154.594
481.001	219.625
485.739	1214.34
490.474	400.734
495.207	684.281
499.938	1332.33
504.666	439.953
509.391	669.078
514.114	1350
518.834	1032.88
523.552	1389.77
528.268	1427.94
532.981	1907.7
537.692	2422.64
542.4	3836.42
547.106	3360.05
551.809	3568.97
556.509	3418.91
561.208	3171.8
565.903	4162.59
570.597	6005.36
575.287	5929.5
579.976	3774.08
584.662	2288.48
589.345	862.484
594.026	1092.88
598.704	1591.22
603.38	899.859
608.053	1171.02
612.724	1150.95
617.393	1114.88
622.059	1038.31
626.722	978.312
631.383	778.453
636.041	199.969
640.697	838.109
645.351	8.89062
650.002	285.172
654.65	340.203
659.296	51.2969
663.94	637.781
668.581	44.1406
673.219	108.219
677.855	310.953
682.489	70.6406
687.119	147
691.748	1095.61
696.374	446.641
700.997	954.328
705.618	577.484
710.237	846.578
714.853	1795.59
719.466	1080
724.077	1220.38
728.686	1449.47
733.291	2074.09
737.895	2612.92
742.496	2245.09
747.094	3317.66
751.69	2374.12
756.283	3638.41
760.874	3287.72
765.463	5101.56
770.048	6445.22
774.632	9352.88
779.212	12758.6
783.791	19096.8
788.367	26008.3
792.94	33186
797.51	36262.3
802.079	33219.6
806.644	26319.1
811.207	21290.4
815.768	19636.4
820.326	18385.2
824.882	14070.9
829.435	10530.4
833.985	7666.22
838.533	6060.25
843.079	5498
847.622	4639.53
852.162	2330.62
856.7	1126.38
861.236	601.625
865.768	210.031
870.299	411.625
874.827	119
879.352	576.969
883.875	295.406
888.395	1627.75
892.912	2713.91
897.428	3147.12
901.94	7457.75
906.45	14663.3
910.958	31381.9
915.463	67785.1
919.965	87094.9
924.465	57036.9
928.963	30201.8
933.457	20121.7
937.95	22860.6
942.439	27362.9
946.927	27324.4
951.411	22156.2
955.894	14437.6
960.373	9191.19
964.85	6767.56
969.325	5670.47
973.797	5145.62
978.266	4780.41
982.733	4504.5
987.197	3796.34
991.659	4050.06
996.118	2872.38
1000.58	3754.94
1005.03	4504.25
1009.48	5265.84
1013.93	4434.81
1018.38	2753.94
1022.82	1118.88
1027.26	620.312
1031.7	976.812
1036.14	391.75
1040.57	1240.47
1045	2042.31
1049.43	2091.06
1053.86	3149.19
1058.28	2388.25
1062.7	3004.06
1067.12	3280.06
1071.54	3617.62
1075.95	2102.12
1080.36	3099.22
1084.77	2030.16
1089.17	2828.19
1093.58	2153.94
1097.98	1853.44
1102.38	954.906
1106.77	1911
1111.16	2091.38
1115.55	716.5
1119.94	1301.78
1124.33	2037.75
1128.71	1072.72
1133.09	2189.03
1137.47	1498
1141.84	1313.34
1146.21	1860.81
1150.58	983
1154.95	1502.34
1159.32	669.625
1163.68	1103.94
1168.04	659.5
1172.39	117.875
1176.75	578.125
1181.1	448.281
1185.45	1007.75
1189.8	948.906
1194.14	25.9375
1198.48	543.531
1202.82	78.875
1207.16	60.0625
1211.49	32.0312
1215.82	738.531
1220.15	572.188
1224.48	794.188
1228.8	345.781
1233.12	1223.53
1237.44	402.781
1241.76	354.719
1246.07	882.281
1250.38	1959.09
1254.69	1779.56
1258.99	1981.31
1263.3	1842.09
1267.6	2550.94
1271.89	1687
1276.19	1166.72
1280.48	1716
1284.77	1537.59
1289.06	1971.91
1293.35	1336.72
1297.63	2554.41
1301.91	1885.34
1306.18	2256.28
1310.46	2073.59
1314.73	2110.16
1319	2563.44
1323.27	1988.28
1327.53	2649.22
1331.79	3045.66
1336.05	2781.91
1340.31	2953.16
1344.56	2916.06
1348.81	2299.94
1353.06	3095.25
1357.31	2371.53
1361.55	1897
1365.79	1247.62
1370.03	1757
1374.27	1902.69
1378.5	2241.84
1382.73	1735.66
1386.96	3782.22
1391.19	1747.81
1395.41	2842.41
1399.63	2281.75
1403.85	328.438
1408.06	2392.38
1412.28	1046.69
1416.48	1471.91
1420.69	1046.59
1424.9	983.406
1429.1	1787
1433.3	1028.34
1437.5	796.562
1441.69	805.562
1445.88	1249.34
1450.07	852.344
1454.26	1184.19
1458.44	910.031
1462.62	1090.88
1466.8	561.062
1470.98	2000.81
1475.15	22.3125
1479.32	2305.25
1483.49	761.375
1487.66	1070.44
1491.82	1434.88
1495.98	88.75
1500.14	1307.38
1504.3	963.625
1508.45	373.812
1512.6	221.25
1516.75	1399.94
1520.89	3107.25
1525.04	1767
1529.17	1432.19
1533.31	1663.12
1537.45	778.688
1541.58	1441.94
1545.71	951.312
1549.84	1891.38
1553.96	268.5
1558.08	2035.38
1562.2	814.438
1566.32	1521.31
1570.43	2397.56
1574.54	19
1578.65	0
