Measurement: Raman, 514 nm, depolarized, Raman Data Processed
Mineral: Pyrosmalite-(Fe)
Rruff sample: R050158
Ideal chemistry: Fe^2+^_8_Si_6_O_15_(OH)_10_
Locality: Burguillos del Cerro, Badajos, Spain
Source: Jim McGlasson
Description: Green subhedral crystal aggregate
Measured chemistry: (Fe^2+^_0.92_Mn^2+^_0.06_Mg_0.02_)_8_Si_6_O_15_(OH_0.83_Cl_0.17_)_10_
Pin_id: L00508
Orientation: Laser parallel to -a* (-1 0 0). Fiducial mark perpendicular to laser is parallel to c [0 0 1]
Raman shift (cm-1)	intensity
132.432	0
136.599	228.368
140.764	728.712
144.927	793.396
149.088	438.883
153.247	68.853
157.404	25.692
161.559	35.303
165.711	135.688
169.862	404.349
174.011	700.744
178.158	1373.38
182.303	2421.26
186.446	3481.23
190.587	4011.93
194.726	3986.46
198.862	3444.74
202.997	3091.07
207.13	2789.89
211.261	1996.01
215.39	1219.97
219.517	822.843
223.642	593.492
227.765	373.487
231.886	185.428
236.005	67.481
240.122	6.668
244.237	61.556
248.35	83.808
252.461	99.861
256.57	98.632
260.677	162.053
264.782	150.147
268.885	107.521
272.986	76.018
277.085	38.148
281.182	70.828
285.278	31.882
289.371	82.98
293.462	182.967
297.552	442.489
301.639	753.337
305.724	1067.38
309.808	1108.24
313.889	1051.24
317.969	1318.26
322.046	2396.13
326.122	3750.49
330.196	2208.91
334.267	1078.52
338.337	729.25
342.405	482.454
346.471	388.177
350.535	335.958
354.597	510.329
358.657	860.344
362.715	1209.33
366.771	1222.63
370.825	969.976
374.877	775.618
378.928	582.257
382.976	565.544
387.023	515.843
391.067	518.449
395.11	520.087
399.15	521.578
403.189	546.854
407.226	538.985
411.261	595.905
415.294	702.787
419.325	904.348
423.354	689.413
427.381	401.962
431.406	271.309
435.43	307.7
439.451	294.745
443.471	160.513
447.488	42.234
451.504	0.458
455.518	27.912
459.53	30.805
463.54	122.659
467.548	373.183
471.554	451.421
475.558	285.4
479.561	602.14
483.561	1124.68
487.559	893.049
491.556	331.206
495.551	144.141
499.544	32.843
503.535	0.297
507.524	47.492
511.511	31.047
515.496	13.35
519.48	7.057
523.461	54.259
527.441	20.265
531.418	11.851
535.394	7.882
539.368	56.44
543.34	52.887
547.311	49.179
551.279	0.121
555.245	106.408
559.21	107.502
563.173	141.496
567.133	181.433
571.092	239.537
575.049	277.537
579.005	365.507
582.958	530.436
586.909	548.325
590.859	826.086
594.807	1210.86
598.753	1922.49
602.697	3106.84
606.639	5846.81
610.579	12050.1
614.518	21234.5
618.454	19591.1
622.389	10190.9
626.322	4892.01
630.253	2738.7
634.182	1831.82
638.109	1205.94
642.035	873.839
645.958	644.573
649.88	537.222
653.8	541.582
657.718	449.749
661.634	369.026
665.549	387.466
669.461	355.609
673.372	328.524
677.281	188.027
681.188	95.742
685.093	77.323
688.997	59.485
692.898	51.038
696.798	39.391
700.696	24.088
704.592	16.123
708.486	53.837
712.378	42.323
716.269	48.536
720.158	76.222
724.045	94.458
727.93	197.401
731.813	314.45
735.694	429.884
739.574	430.868
743.452	417.08
747.328	271.816
751.202	234.658
755.075	143.844
758.945	83.589
762.814	132.327
766.681	152.16
770.546	168.952
774.409	103.782
778.271	29.603
782.131	5.605
785.989	6.14
789.845	17.839
793.699	37.487
797.552	39.083
801.402	88.644
805.251	161.178
809.098	353.692
812.944	575.195
816.787	860.699
820.629	1007.21
824.469	779.757
828.307	422.315
832.144	239.878
835.978	131.438
839.811	61.998
843.642	29.492
847.472	9.047
851.299	20.388
855.125	5.14
858.949	10.994
862.771	10.406
866.591	1.471
870.41	0.594
874.227	22.703
878.042	7.218
881.855	4.815
885.667	2.217
889.476	23.3
893.284	0.551
897.09	52.364
900.895	56.165
904.698	40.938
908.499	49.698
912.298	37.457
916.095	8.204
919.891	85.94
923.685	115.667
927.477	78.392
931.267	95.882
935.056	63.027
938.843	109.292
942.628	100.79
946.411	123.233
950.193	127.754
953.973	121.42
957.751	130.04
961.527	168.062
965.302	194.68
969.075	216.266
972.846	256.838
976.615	274.42
980.383	272.969
984.149	334.51
987.913	393.041
991.675	506.557
995.436	660.933
999.195	793.825
1002.95	986.658
1006.71	1215.88
1010.46	1698.34
1014.21	2463.09
1017.96	3829.91
1021.71	5359.99
1025.46	5877.01
1029.2	4456.53
1032.95	2889.58
1036.69	1958.6
1040.43	1498.31
1044.17	1029.01
1047.9	764.677
1051.64	566.592
1055.37	343.282
1059.1	338.554
1062.83	212.468
1066.56	244.963
1070.29	209.474
1074.01	122.176
1077.73	148.471
1081.46	91.231
1085.17	57.736
1088.89	52.55
1092.61	101.06
1096.32	44.668
1100.04	0.684
1103.75	57.923
1107.46	9.625
1111.16	7.291
1114.87	18.852
1118.57	72.367
1122.28	121.871
1125.98	85.64
1129.67	90.394
1133.37	67.55
1137.07	43.903
1140.76	42.208
1144.45	23.856
1148.14	13.947
1151.83	56.367
1155.52	25.915
1159.21	14.584
1162.89	24.087
1166.57	5.39
1170.25	19.457
1173.93	43.328
1177.61	89.647
1181.28	130.981
1184.96	148.888
1188.63	60.869
1192.3	40.371
1195.97	18.821
1199.64	1.422
1203.3	51.671
1206.97	43.08
1210.63	50.341
1214.29	3.242
1217.95	3.041
1221.6	23.032
1225.26	1.064
1228.91	70.98
1232.57	52.386
1236.21	40.817
1239.86	112.313
1243.51	6.098
1247.16	19.662
1250.8	49.252
1254.44	1.599
1258.08	21.899
1261.72	26.437
1265.36	44.883
1268.99	79.285
1272.63	87.606
1276.26	75.906
1279.89	31.149
1283.52	22.414
1287.15	32.732
1290.77	10.834
1294.4	28.554
1298.02	33.462
1301.64	69.884
1305.26	63.619
1308.88	15.369
1312.49	22.753
1316.11	0.362
1319.72	53.811
1323.33	34.325
1326.94	25.791
1330.55	78.209
1334.15	59.539
1337.76	27.427
1341.36	51.415
1344.96	19.259
1348.56	11.891
1352.16	28.15
1355.75	0.31
1359.35	1.647
1362.94	27.702
1366.53	66.734
1370.12	88.077
1373.71	84.164
1377.3	95.997
1380.88	41.54
1384.46	6.972
1388.05	45.54
1391.63	34.611
1395.2	47.998
1398.78	86.954
1402.36	107.964
1405.93	139.132
1409.5	66.141
1413.07	105.612
1416.64	55.86
1420.21	42.41
1423.78	10.278
1427.34	29.744
1430.9	79.579
1434.46	69.342
1438.02	92.23
1441.58	108.493
1445.13	126.973
1448.69	98.879
1452.24	111.55
1455.79	104.737
1459.34	23.696
1462.89	14.54
1466.44	27.13
1469.98	80.827
1473.53	32.322
1477.07	94.188
1480.61	83.295
1484.14	105.665
1487.68	98.899
1491.22	107.422
1494.75	103.857
1498.28	123.209
1501.81	20.47
1505.34	58.519
1508.87	53.807
1512.4	5.886
1515.92	37.312
1519.44	36.923
