Measurement: Raman, 514 nm, ccw, Raman Data Processed
Mineral: Pyromorphite
Rruff sample: R060285
Ideal chemistry: Pb^2+^_5_(PO_4_)_3_Cl
Locality: Les Farges mine, Correze Ussel, France
Source: Herb Obodda
Description: Aggregate of green hexagonal prisms
Measured chemistry: Pb_5.00_((P_0.99_As_0.01_)_Î£=1_O_4_)_3_Cl_1.00_
Pin_id: M01948
Orientation: Laser parallel to a* (1 0 0). Fiducial mark perpendicular to laser is parallel to c [0 0 1]
Raman shift (cm-1)	intensity
60.305	0
65.269	4867.34
70.231	13651.3
75.19	23688.8
80.146	33609.3
85.1	36388.9
90.052	32645.6
95	25394
99.947	24773.5
104.89	26580.8
109.832	18883
114.77	10942.5
119.706	7187.62
124.64	747.969
129.571	17.7812
134.499	1334.75
139.425	640.875
144.348	1377.84
149.269	2751.83
154.187	5250.97
159.103	7093.28
164.016	7532.12
168.927	9179.59
173.835	10767.5
178.74	9624.53
183.643	9241.11
188.543	7342.44
193.441	8037.92
198.336	5333.25
203.229	3792.02
208.119	1289.42
213.006	890.375
217.891	1529.77
222.774	11.2656
227.653	18.25
232.531	691.578
237.405	63.25
242.277	67.2188
247.147	666.266
252.014	562.656
256.878	214.891
261.74	48.7031
266.599	762.219
271.456	208.5
276.31	751.938
281.162	234.797
286.011	422.625
290.857	480.625
295.701	600.234
300.542	701.984
305.381	732.453
310.217	1207.39
315.051	1553.33
319.882	2476.88
324.71	2586.72
329.536	2288.7
334.359	2715.8
339.18	4015.39
343.998	3637.05
348.813	3062.53
353.626	3396.33
358.437	3700.95
363.244	3421.38
368.05	4119.66
372.852	4500.53
377.652	5630.14
382.45	9231.08
387.245	13166.4
392.037	13359
396.827	10961.1
401.614	8848.59
406.398	8880.73
411.18	9752.34
415.959	7258.28
420.736	5471.56
425.51	2393.12
430.282	2132.17
435.051	1092.19
439.818	929.188
444.581	1198
449.343	1034.03
454.101	687.844
458.857	733.984
463.611	713.938
468.362	533.766
473.11	213.562
477.856	190.109
482.599	377.031
487.34	301.641
492.078	430.109
496.813	440.281
501.546	1206.73
506.276	37.7969
511.003	708.25
515.728	801.719
520.451	1106.02
525.171	1786.5
529.888	2253.91
534.602	2706.81
539.314	3083.52
544.024	3770.59
548.731	2568.72
553.435	3338.09
558.137	3142.66
562.836	3166.91
567.532	3025.67
572.226	4173.84
576.917	3165.59
581.606	1783.97
586.292	967.219
590.975	160.188
595.656	19.0625
600.334	798.812
605.01	637.344
609.683	1353.5
614.353	1025.22
619.021	1757.47
623.686	1394.25
628.349	1023.53
633.009	191.312
637.667	997.688
642.321	916.406
646.974	1119.94
651.623	1198.44
656.27	780.531
660.915	312.062
665.556	511.719
670.196	1419.56
674.832	667.375
679.466	465.156
684.097	1180.66
688.726	2512.75
693.352	997.75
697.976	1311.47
702.597	2399.09
707.215	2359.72
711.831	2780.81
716.444	2517.38
721.055	1950.16
725.663	1212.06
730.268	665.094
734.87	503.344
739.471	902.312
744.068	916.562
748.663	289.875
753.255	17.8438
757.845	1003.59
762.432	1497.84
767.016	2102.16
771.598	3219.53
776.177	6800.31
780.754	10100.7
785.328	16262
789.899	22552.5
794.468	27706.7
799.034	27883.5
803.597	24734.2
808.158	18965
812.717	17580.5
817.272	17667.2
821.825	15346.3
826.376	13248.8
830.924	10186.5
835.469	8525.81
840.011	7964.97
844.551	7844.88
849.089	8990.34
853.623	5892.59
858.156	3665.62
862.685	1657.84
867.212	1545.72
871.736	941.344
876.258	1424.06
880.777	1927.25
885.293	1935.53
889.807	2281.41
894.318	2616.78
898.827	5301.47
903.333	8130.81
907.836	15742.3
912.337	32383
916.835	52392.4
921.331	50346
925.823	32387.5
930.314	23689
934.801	23867.4
939.286	34025.7
943.769	41091.9
948.248	36780.9
952.726	24527.6
957.2	18150.8
961.672	11675.4
966.141	9431.44
970.608	8970.94
975.072	8594.47
979.533	6441.69
983.992	4382.03
988.448	2395.97
992.902	231.594
997.353	502.969
1001.8	1293.72
1006.25	1942.56
1010.69	1952.31
1015.13	1800.28
1019.57	1495.38
1024	1142.84
1028.44	586.094
1032.87	440.25
1037.29	880.531
1041.72	2248.22
1046.14	3497.38
1050.56	4188.75
1054.98	4591.09
1059.39	3976.53
1063.8	3482.88
1068.21	4752.84
1072.62	5568.44
1077.02	4714.47
1081.42	3723.78
1085.82	5297.25
1090.22	4047.94
1094.61	3141
1099	4050.72
1103.39	4268.38
1107.77	3373.31
1112.16	3600.44
1116.54	2060.88
1120.91	1912.22
1125.29	3581.72
1129.66	2046.84
1134.03	2757.31
1138.4	3453.16
1142.76	2727.53
1147.12	3795.19
1151.48	3271.19
1155.84	2202.44
1160.19	1588.31
1164.54	1589.16
1168.89	1700.81
1173.24	804.719
1177.58	279.656
1181.92	7.71875
1186.26	233.562
1190.6	641.969
1194.93	185.781
1199.26	510
1203.59	111.062
1207.91	530.5
1212.23	1561.38
1216.55	1162.62
1220.87	1549.38
1225.18	1340.69
1229.5	1841
1233.81	2011
1238.11	1837.75
1242.42	1872.56
1246.72	1021.12
1251.02	2156.69
1255.31	1958.25
1259.61	3091
1263.9	2264.75
1268.18	2247.56
1272.47	3142.62
1276.75	3623.56
1281.03	2028.19
1285.31	3027.56
1289.59	1472.56
1293.86	851.312
1298.13	2345.31
1302.39	1862.19
1306.66	2332.5
1310.92	3453.19
1315.18	1840.38
1319.44	3040.31
1323.69	2869.69
1327.94	2722.81
1332.19	3450.94
1336.44	3683.25
1340.68	3180.19
1344.92	4994.06
1349.16	3595.81
1353.4	4225.69
1357.63	3134.38
1361.86	3142.19
1366.09	4890.31
1370.31	3155.5
1374.53	4071.94
1378.75	4060.19
1382.97	3072.38
1387.19	3129.62
1391.4	2041.56
1395.61	3557.38
1399.81	3434.19
1404.02	2688.69
1408.22	2914.38
1412.42	4175.38
1416.61	3881.94
1420.81	1905.44
1425	2389.31
1429.19	2808.31
1433.37	1118.75
1437.56	2280.75
1441.74	1990.88
1445.91	244.562
1450.09	856.375
1454.26	1312.12
1458.43	658.5
1462.6	664.75
1466.76	1083.38
1470.92	53.375
1475.09	999.375
1479.24	216.375
1483.4	992.438
1487.55	257.25
1491.7	1212.19
1495.84	626.125
1499.99	608.875
1504.13	982.75
1508.27	403.125
1512.4	2486.75
1516.53	789.812
1520.66	1452.81
1524.79	1789.56
1528.92	79.25
1533.04	1109.12
1537.16	244.438
1541.28	795.312
1545.39	1038
1549.5	2204.31
1553.61	2796.75
1557.72	1204.75
1561.83	3160.12
1565.93	1192.06
1570.03	2451
1574.12	739.75
