Measurement: Raman, 514 nm, depolarized, Raman Data Processed
Mineral: Pyrope
Rruff sample: R040159
Ideal chemistry: Mg_3_Al_2_(SiO_4_)_3_
Locality: Meronitz, Bohemia
Source: University of Arizona Mineral Museum
Description: Deep red crystal fragments
Measured chemistry: (Mg_2.17_Fe^2+^_0.47_Ca_0.34_Mn_0.02_)_Σ=3_(Al_1.86_Cr_0.11_Ti_0.03_)_Σ=2_((Si_0.99_Al_0.01_)_Σ=1_O_4_)_3_; trace amounts of Rb?
Pin_id: L01016
Orientation: Laser parallel to (1 1 0). Fiducial mark perpendicular to laser is parallel to -c [0 0 -1]
Raman shift (cm-1)	intensity
88.228	0
93.183	116.058
98.135	32.5732
103.085	56.7573
108.032	396.154
112.976	531.452
117.917	829.847
122.856	730.866
127.792	599.272
132.725	698.177
137.656	866.575
142.583	719.888
147.508	658.067
152.431	524.636
157.35	305.36
162.267	52.0686
167.181	114.041
172.092	45.1594
177.001	16.8254
181.907	444.906
186.81	784.095
191.711	1312.69
196.608	1494.52
201.503	1852.54
206.395	2086.29
211.285	2105.82
216.172	1773.27
221.056	1395.65
225.937	1058.96
230.816	967.206
235.692	1066.44
240.565	1093.28
245.436	1219.13
250.304	1179.89
255.169	1286.67
260.031	1243.13
264.891	1292.26
269.748	1238.06
274.602	1374.33
279.454	1252.09
284.303	1216.98
289.149	1281.8
293.992	1380.79
298.833	1448.8
303.671	1669.21
308.507	1973.23
313.339	2345.91
318.169	2603.86
322.996	2892.81
327.821	3161.25
332.643	3974.39
337.462	5404.2
342.279	7701.64
347.092	11230.7
351.904	16822.3
356.712	24749.6
361.518	28133.5
366.321	22122.9
371.121	14482.9
375.919	9760.44
380.714	6564.52
385.506	4418.24
390.296	3049.6
395.083	2039.57
399.867	1315.11
404.649	851.246
409.428	558.113
414.204	393.548
418.978	58.186
423.749	15.6135
428.517	132.238
433.282	61.759
438.045	72.9143
442.806	56.6711
447.563	45.0125
452.318	89.2153
457.07	246.106
461.82	469.768
466.567	631.031
471.311	950.803
476.053	1109.07
480.792	1595.67
485.528	1975.62
490.262	1851.87
494.992	1618.42
499.721	2112.18
504.446	3078.12
509.169	3716.2
513.89	3113.4
518.607	2621.69
523.322	2672.05
528.035	2832.46
532.745	3155.9
537.452	3885.34
542.156	5553.75
546.858	8358.54
551.557	13602.7
556.254	20947.5
560.947	20852.5
565.639	11728.5
570.327	5553.72
575.013	2943.31
579.697	2022.04
584.377	1704.71
589.055	1545.02
593.731	1346.62
598.403	1095.36
603.074	937.436
607.741	908.585
612.406	835.26
617.068	933.81
621.728	952.434
626.385	1305.49
631.039	1989.33
635.691	3177.76
640.34	4665.82
644.987	4420.01
649.63	2668.57
654.272	1734.49
658.91	1226.79
663.546	738.435
668.18	520.438
672.81	308.791
677.439	256.493
682.064	143.54
686.687	27.2026
691.307	73.0847
695.925	42.7693
700.54	12.0344
705.153	3.2229
709.763	103.745
714.37	36.0569
718.974	105.591
723.577	49.4275
728.176	37.4822
732.773	29.5671
737.367	11.4177
741.959	1.74976
746.548	32.6812
751.134	29.0747
755.718	8.73511
760.299	29.8616
764.878	12.0762
769.454	11.8689
774.028	47.1252
778.598	20.2197
783.167	96.2598
787.732	122.022
792.295	190.531
796.856	273.811
801.414	321.89
805.969	396.791
810.522	558.543
815.072	747.169
819.62	1004.59
824.165	1315.93
828.707	1663.16
833.247	1893.45
837.784	2436.15
842.319	3367.69
846.851	5019.83
851.381	7799.16
855.908	11366.6
860.432	13696.3
864.954	11886
869.473	9023.18
873.99	7099.94
878.504	6237.88
883.015	6360.39
887.524	7406.77
892.031	9135.61
896.535	11626.2
901.036	16570
905.535	27267.3
910.031	49128
914.524	82092.1
919.015	99838.1
923.504	73756.6
927.99	40722.8
932.473	22549.7
936.954	13659.3
941.432	8743.56
945.908	5790.53
950.381	4234.2
954.852	3328.59
959.32	2742.77
963.785	2457.96
968.248	2106.05
972.708	1909.33
977.166	1776.49
981.622	1594.58
986.074	1435.8
990.525	1298
994.972	1041.98
999.417	854.505
1003.86	731.617
1008.3	882.907
1012.74	1013.88
1017.17	1278.43
1021.61	1674.74
1026.04	2116.05
1030.46	2286.4
1034.89	2619.61
1039.31	3132.17
1043.73	3833.49
1048.15	4789.6
1052.56	5289.11
1056.97	4306.99
1061.38	2717.22
1065.79	1462.8
1070.19	846.683
1074.6	511.868
1079	404.332
1083.39	341.061
1087.79	80.0383
1092.18	129.221
1096.57	51.7297
1100.96	16.864
1105.34	9.80713
1109.72	9.88159
1114.1	25.1118
1118.48	45.175
1122.85	20.8581
1127.22	96.9688
1131.6	70.6716
1135.96	111.162
1140.33	30.4858
1144.69	107.561
1149.05	59.4363
1153.4	36.7795
1157.76	0.463867
1162.11	24.7554
1166.46	100.588
1170.81	184.024
1175.15	250.659
1179.49	236.77
1183.83	362.66
1188.17	399.72
1192.5	321.47
1196.84	284.896
1201.16	350.042
1205.49	299.965
1209.82	332.843
1214.14	327.566
1218.46	351.177
1222.77	291.143
1227.09	294.998
1231.4	294.232
1235.71	262.669
1240.02	312.616
1244.32	318.834
1248.62	286.561
1252.92	315.584
1257.22	329.658
1261.51	252.119
1265.81	378.039
1270.1	289.416
1274.38	346.791
1278.67	299.016
1282.95	346.64
1287.23	348.975
1291.51	225.869
1295.78	281.031
1300.05	248.957
1304.32	277.7
1308.59	280.602
1312.86	253.651
1317.12	233.27
1321.38	177.507
1325.63	188.388
1329.89	196.948
1334.14	102.649
1338.39	111.468
1342.64	56.1357
1346.88	12.7871
1351.13	73.8525
1355.37	4.17041
1359.61	19.0217
1363.84	113.415
1368.07	102.376
1372.3	87.647
1376.53	50.356
1380.76	38.636
1384.98	31.7996
1389.2	42.9119
1393.42	18.9145
1397.64	38.2734
1401.85	6.50415
1406.06	53.7915
1410.27	55.8386
1414.47	47.7578
1418.68	9.5957
1422.88	28.2837
1427.08	96.7205
1431.27	26.9849
1435.47	57.0945
1439.66	32.4048
1443.85	63.3298
1448.03	79.1963
1452.22	87.5454
1456.4	163.88
1460.58	99.1199
1464.76	45.1775
1468.93	118.565
1473.1	102.91
1477.27	98.5774
1481.44	149.103
1485.6	138.567
1489.77	144.058
1493.92	117.359
1498.08	135.198
1502.24	164.842
1506.39	171.692
1510.54	155.285
1514.69	139.339
1518.83	128.896
1522.97	70.5383
1527.12	46.9355
1531.25	65.8943
1535.39	77.5693
1539.52	70.9114
1543.65	19.7844
1547.78	126.012
1551.91	98.9294
1556.03	52.4543
1560.15	60.5374
1564.27	38.2256
1568.39	41.6895
1572.5	17.7541
1576.61	0
