Measurement: Raman, 514 nm, depolarized, Raman Data Processed
Mineral: Pyrope
Rruff sample: R060448
Ideal chemistry: Mg_3_Al_2_(SiO_4_)_3_
Locality: India
Source: Gemological Institute of America
Description: Deep red water worn pebble, variety rhodolite
Measured chemistry: (Mg_1.47_Fe_1.27_Ca_0.21_Mn_0.05_)_Î£=3_Al_2.00_(Si_1.00_O_4_)_3_
Pin_id: L00709
Orientation: Laser parallel to a* (1 0 0). Fiducial mark perpendicular to laser is parallel to c [0 0 1]
Raman shift (cm-1)	intensity
62.899	0
67.89	72.222
72.879	143.933
77.864	128.951
82.846	14.2408
87.824	26.8297
92.8	22.8657
97.773	315.328
102.742	816.347
107.708	1621.17
112.672	1976.14
117.632	2465.52
122.589	2393.98
127.543	2353.57
132.494	2427.3
137.441	2481.78
142.386	2655.97
147.328	2685.57
152.266	2570.18
157.202	2440.59
162.134	2349.33
167.063	2154.51
171.99	2372.18
176.913	2911.8
181.833	2830.96
186.75	2363.83
191.664	2089.76
196.575	2183.21
201.483	2495.67
206.388	2778.12
211.29	2951.93
216.189	2717.84
221.085	2191.81
225.977	1924.24
230.867	1810.29
235.754	1887.95
240.638	1924.3
245.518	1820.7
250.396	1929.34
255.271	1802.08
260.143	1804.82
265.011	1777.47
269.877	1900.96
274.74	1800.2
279.6	1950.4
284.457	1842.44
289.31	1892.43
294.161	1987.33
299.009	2063.41
303.854	2235.89
308.696	2494.23
313.535	3318.88
318.371	3820.6
323.204	4198.68
328.034	4837.39
332.861	6547.32
337.686	9419.43
342.507	12781.6
347.325	18821
352.141	28506.3
356.953	34093.7
361.763	25625.4
366.569	16415.3
371.373	12530.7
376.174	10148.4
380.972	7503.5
385.767	4732
390.559	2967.7
395.348	1751.57
400.134	1077.63
404.918	609.959
409.698	516.569
414.476	249.609
419.25	156.96
424.022	23.667
428.791	19.6616
433.557	30.3843
438.32	86.3315
443.081	82.2466
447.838	92.1646
452.593	128.953
457.344	70.7734
462.093	3.60791
466.839	51.5327
471.582	163.029
476.323	410.039
481.06	871.537
485.795	1404.48
490.526	1133.84
495.255	1096.58
499.981	1821.67
504.705	3522.08
509.425	3441.81
514.143	1895.79
518.857	1699.47
523.569	1538.93
528.278	1696.84
532.985	1795.73
537.688	2151.7
542.389	2969.89
547.087	4589.49
551.782	7639.74
556.474	13464.7
561.164	17096.5
565.851	10979.2
570.535	5339.96
575.216	2578.1
579.894	1669.51
584.57	1474.35
589.243	1451.03
593.913	1133.18
598.58	904.37
603.245	911.13
607.907	993.105
612.566	941.75
617.222	765.911
621.875	571.84
626.526	603.741
631.174	1029.04
635.82	1811.71
640.462	2488.75
645.102	1900.2
649.739	1228.03
654.373	759.505
659.005	498.71
663.634	373.56
668.26	148.557
672.884	164.835
677.504	30.3477
682.122	13.9048
686.738	26.6665
691.35	26.562
695.96	11.0493
700.567	20.0166
705.172	124.579
709.774	20.8428
714.373	99.6719
718.969	132.686
723.563	67.9233
728.154	12.6104
732.743	11.4399
737.328	37.0679
741.912	32.6289
746.492	125.712
751.07	75.2549
755.645	143.304
760.217	115.873
764.787	175.999
769.354	220.708
773.918	143.022
778.48	67.9634
783.039	8.47315
787.596	20.6973
792.15	69.5508
796.701	89.104
801.25	13.3833
805.796	168.162
810.339	63.8813
814.88	240.95
819.418	208.543
823.953	334.295
828.486	387.135
833.016	602.098
837.544	787.644
842.069	1096
846.591	1748.97
851.111	2874.61
855.628	4532.2
860.143	7082.47
864.655	8813.51
869.164	7564.42
873.671	5701.69
878.176	5107.9
882.677	5304.89
887.176	6331.01
891.673	8426.3
896.167	11583.5
900.658	16103.4
905.147	24105.8
909.633	43697.7
914.117	83434.2
918.598	122737
923.077	119988
927.553	69173.6
932.026	35339.6
936.497	19821.9
940.966	11952
945.431	7729.72
949.895	5242.17
954.355	3914.42
958.814	2932.57
963.269	2299.73
967.723	1971.45
972.173	1773.97
976.621	1554.99
981.067	1496.79
985.51	1358.71
989.951	1279.38
994.389	1094.08
998.824	1021.38
1003.26	882.289
1007.69	900.731
1012.12	1068.6
1016.54	1206.42
1020.96	1586.41
1025.38	1641.29
1029.8	1991.67
1034.22	2551.44
1038.63	2953.64
1043.04	3717.24
1047.45	4525.22
1051.86	4740.62
1056.26	3592.39
1060.66	2145.52
1065.06	1304.99
1069.45	812.776
1073.85	505.907
1078.24	392.404
1082.63	553.176
1087.01	202.265
1091.4	226.725
1095.78	73.2519
1100.16	39.7637
1104.53	16.7334
1108.91	39.3496
1113.28	53.4863
1117.65	49.4941
1122.01	74.8731
1126.38	73.8931
1130.74	76.7051
1135.1	46.044
1139.45	96.04
1143.81	116.349
1148.16	85.4482
1152.51	65.6299
1156.86	158.421
1161.2	162.895
1165.54	281.098
1169.88	260.102
1174.22	390.892
1178.56	415.458
1182.89	459.787
1187.22	447.864
1191.55	477.68
1195.87	566.224
1200.19	497.639
1204.52	559.303
1208.83	472.32
1213.15	525.323
1217.46	334.463
1221.78	459.682
1226.08	316.005
1230.39	192.203
1234.69	372.652
1239	388.467
1243.3	340.031
1247.59	327.194
1251.89	397.593
1256.18	394.531
1260.47	417.444
1264.76	551.348
1269.04	490.573
1273.33	414.329
1277.61	519.848
1281.88	496.081
1286.16	530.355
1290.43	381.223
1294.7	353.856
1298.97	343.211
1303.24	342.292
1307.51	148.102
1311.77	209.648
1316.03	197.938
1320.28	167.977
1324.54	235.785
1328.79	6.62012
1333.04	134.575
1337.29	75.3789
1341.54	4.11621
1345.78	78.6055
1350.02	22.0752
1354.26	9.88379
1358.5	80.6182
1362.73	1.16894
1366.96	72.7529
1371.19	105.464
1375.42	143.096
1379.65	30.2725
1383.87	68.4678
1388.09	80.3398
1392.31	45.2236
1396.52	63.1514
1400.74	136.09
1404.95	126.175
1409.16	159.457
1413.37	103.669
1417.57	144.908
1421.77	86.1103
1425.97	189.283
1430.17	275.465
1434.37	142.704
1438.56	307.05
1442.75	233.578
1446.94	172.4
1451.13	273.308
1455.31	184.106
1459.5	245.258
1463.68	157.972
1467.85	145.672
1472.03	248.773
1476.2	278.653
1480.37	278.798
1484.54	339.365
1488.71	163.855
1492.88	308.949
1497.04	396.614
1501.2	164.346
1505.36	263.858
1509.51	291.103
1513.66	392.991
1517.82	283.356
1521.97	385.824
1526.11	206.337
1530.26	215.773
1534.4	288.604
1538.54	222.305
1542.68	102.572
1546.82	34.7217
1550.95	162.35
1555.08	275.019
1559.21	11.0185
1563.34	173.119
1567.46	64.7773
1571.59	161.043
1575.71	112.92
