Measurement: Raman, 514 nm, ccw, Raman Data Processed
Mineral: Pyrope
Rruff sample: R060441
Ideal chemistry: Mg_3_Al_2_(SiO_4_)_3_
Locality: Apache County, Arizona, USA
Source: Gemological Institute of America
Description: Deep red fragment
Measured chemistry: (Mg_1.83_Fe_0.75_Ca_0.39_Mn_0.03_)_Σ=3_(Al_1.95_Cr_0.05_)_Σ=2_(Si_1.00_O_4_)_3_
Pin_id: L00962
Orientation: Laser parallel to a [1 0 0]. Fiducial mark perpendicular to laser is parallel to -c* (0 0 -1)
Raman shift (cm-1)	intensity
62.899	0
67.89	69.0934
72.879	125.843
77.864	129.321
82.846	5.3921
87.824	51.1201
92.8	101.12
97.773	279.312
102.742	696.361
107.708	1401.62
112.672	1431.55
117.632	2006.48
122.589	1947.15
127.543	1921.77
132.494	2018.19
137.441	2128.99
142.386	2301.29
147.328	2140.87
152.266	2011.01
157.202	1761.48
162.134	1455.82
167.063	1140.41
171.99	1007.31
176.913	1182.26
181.833	1369.32
186.75	1764.24
191.664	1800.4
196.575	2233.24
201.483	2662.92
206.388	3051.41
211.29	3074.09
216.189	2803.05
221.085	2410.97
225.977	1826.48
230.867	1691.01
235.754	1693.25
240.638	1656.14
245.518	1630.88
250.396	1643.71
255.271	1611.51
260.143	1633.16
265.011	1527.88
269.877	1431.75
274.74	1447.54
279.6	1404.85
284.457	1353.48
289.31	1494.67
294.161	1427.69
299.009	1573.36
303.854	1675.77
308.696	2020
313.535	2409.41
318.371	2838.04
323.204	2861.94
328.034	3068.06
332.861	3661.33
337.686	4880.7
342.507	6671.15
347.325	9848.64
352.141	15193.1
356.953	23130.7
361.763	27085.4
366.569	20985.4
371.373	13853.8
376.174	9066.43
380.972	6384.47
385.767	4175.82
390.559	2849.32
395.348	1831.94
400.134	1290.63
404.918	809.433
409.698	470.423
414.476	315.703
419.25	74.2815
424.022	32.2319
428.791	84.637
433.557	114.227
438.32	129.317
443.081	129.821
447.838	125.944
452.593	41.6682
457.344	38.3196
462.093	354.159
466.839	468.795
471.582	628.126
476.323	940.124
481.06	1379.78
485.795	1985.06
490.526	1985.85
495.255	1550.06
499.981	1987.67
504.705	3281.64
509.425	4330.93
514.143	3408.51
518.857	2343.33
523.569	2286.36
528.278	2325.56
532.985	2393.9
537.688	2909.33
542.389	3774.89
547.087	5885.88
551.782	9694.65
556.474	16411.6
561.164	19800.9
565.851	12969.3
570.535	6165.63
575.216	3154.24
579.894	1964
584.57	1551.89
589.243	1411.75
593.913	1341.66
598.58	1039.2
603.245	824.413
607.907	766.21
612.566	741.398
617.222	767.451
621.875	795.04
626.526	1016.69
631.174	1459.45
635.82	2559.39
640.462	4074.79
645.102	4278.45
649.739	2818.47
654.373	1750.82
659.005	1136.51
663.634	767.514
668.26	458.84
672.884	327.478
677.504	197.422
682.122	136.655
686.738	28.0142
691.35	4.23706
695.96	1.95239
700.567	455.616
705.172	110.567
709.774	26.542
714.373	50.8872
718.969	72.5559
723.563	24.678
728.154	79.8889
732.743	64.3992
737.328	6.16943
741.912	55.8921
746.492	51.5005
751.07	61.1394
755.645	43.9062
760.217	57.7456
764.787	36.7461
769.354	30.7769
773.918	8.41455
778.48	67.6926
783.039	132.636
787.596	74.2771
792.15	165.643
796.701	214.761
801.25	206.658
805.796	401.362
810.339	394.901
814.88	485.303
819.418	860.06
823.953	1179.69
828.486	1485.48
833.016	1815
837.544	2010.24
842.069	2828.16
846.591	4215.9
851.111	6567.23
855.628	9961.17
860.143	13135.2
864.655	12479
869.164	9414.79
873.671	7248.95
878.176	6199.65
882.677	6283.65
887.176	7330.51
891.673	8957.85
896.167	11697.7
900.658	15917.1
905.147	24589.3
909.633	43640.5
914.117	78110.2
918.598	108040
923.077	90648
927.553	51916.9
932.026	28003.6
936.497	16465
940.966	10368.1
945.431	6704.99
949.895	4756.65
954.355	3621.09
958.814	3059.45
963.269	2588.83
967.723	2277.39
972.173	2041.91
976.621	1880.61
981.067	1738.6
985.51	1718.83
989.951	1555.35
994.389	1218.82
998.824	952.428
1003.26	927.971
1007.69	1040.84
1012.12	1086.83
1016.54	1460.11
1020.96	1935.98
1025.38	2337.42
1029.8	2690.47
1034.22	3049.54
1038.63	3525.34
1043.04	4313.8
1047.45	5195.71
1051.86	5808.03
1056.26	4868.75
1060.66	3364.86
1065.06	1826.31
1069.45	934.102
1073.85	592.215
1078.24	430.634
1082.63	235.349
1087.01	182.381
1091.4	161.708
1095.78	46.2544
1100.16	60.9856
1104.53	50.8806
1108.91	0.868652
1113.28	27.1333
1117.65	73.311
1122.01	112.029
1126.38	95.459
1130.74	102.016
1135.1	35.9775
1139.45	41.498
1143.81	93.7158
1148.16	60.9109
1152.51	49.1365
1156.86	83.772
1161.2	166.21
1165.54	24.1213
1169.88	189.936
1174.22	193.951
1178.56	366.655
1182.89	355.029
1187.22	350.058
1191.55	433.734
1195.87	399.063
1200.19	354.528
1204.52	300.646
1208.83	376.257
1213.15	240.791
1217.46	411.6
1221.78	387.002
1226.08	365.289
1230.39	328.56
1234.69	313.539
1239	320.739
1243.3	328.312
1247.59	295.844
1251.89	256.85
1256.18	302.963
1260.47	404.164
1264.76	309.114
1269.04	413.127
1273.33	431.155
1277.61	376.352
1281.88	345.976
1286.16	325.291
1290.43	311.332
1294.7	289.698
1298.97	293.769
1303.24	242.386
1307.51	289.565
1311.77	194.139
1316.03	271.722
1320.28	238.43
1324.54	146.882
1328.79	114.91
1333.04	85.6331
1337.29	84.9241
1341.54	3.23975
1345.78	87.0981
1350.02	33.9985
1354.26	85.4524
1358.5	64.4529
1362.73	83.9788
1366.96	70.1252
1371.19	65.8992
1375.42	16.4851
1379.65	4.51367
1383.87	81.5469
1388.09	67.5666
1392.31	78.1785
1396.52	23.6262
1400.74	81.1382
1404.95	51.7449
1409.16	22.3342
1413.37	61.7656
1417.57	1.1333
1421.77	99.3943
1425.97	12.5198
1430.17	31.4973
1434.37	118.362
1438.56	73.1834
1442.75	147.956
1446.94	70.7158
1451.13	94.6338
1455.31	102.487
1459.5	64.3093
1463.68	74.7939
1467.85	94.5212
1472.03	170.766
1476.2	178.944
1480.37	90.6728
1484.54	164.821
1488.71	145.376
1492.88	166.802
1497.04	176.611
1501.2	178.317
1505.36	198.013
1509.51	148.644
1513.66	278.449
1517.82	211.6
1521.97	185.148
1526.11	115.844
1530.26	109.78
1534.4	108.529
1538.54	84.9988
1542.68	100.98
1546.82	103.341
1550.95	117.501
1555.08	132.959
1559.21	48.6982
1563.34	137.372
1567.46	42.9285
1571.59	89.6499
1575.71	84.8728
