Measurement: Raman, 514 nm, ccw, Raman Data Processed
Mineral: Pyrope
Rruff sample: R040159
Ideal chemistry: Mg_3_Al_2_(SiO_4_)_3_
Locality: Meronitz, Bohemia
Source: University of Arizona Mineral Museum
Description: Deep red crystal fragments
Measured chemistry: (Mg_2.17_Fe^2+^_0.47_Ca_0.34_Mn_0.02_)_Σ=3_(Al_1.86_Cr_0.11_Ti_0.03_)_Σ=2_((Si_0.99_Al_0.01_)_Σ=1_O_4_)_3_; trace amounts of Rb?
Pin_id: L01351
Orientation: Laser parallel to (1 1 1). Fiducial mark perpendicular to laser is parallel to [-1 1 0]
Raman shift (cm-1)	intensity
88.228	0
93.183	0.034668
98.135	57.4775
103.085	155.27
108.032	547.533
112.976	899.049
117.917	1033.95
122.856	804.499
127.792	742.304
132.725	787.145
137.656	763.692
142.583	794.064
147.508	734.172
152.431	519.515
157.35	315.881
162.267	49.1394
167.181	93.3188
172.092	71.6111
177.001	37.2739
181.907	314.274
186.81	734.332
191.711	1042.37
196.608	1307.67
201.503	1843.97
206.395	2053.73
211.285	2062.11
216.172	1696.65
221.056	1275.76
225.937	1027.03
230.816	950.927
235.692	982.86
240.565	1116.73
245.436	1116.13
250.304	1103.25
255.169	1197.18
260.031	1238.78
264.891	1219.69
269.748	1173.43
274.602	1252.53
279.454	1194.2
284.303	1253.47
289.149	1262.53
293.992	1230.71
298.833	1492.64
303.671	1492.61
308.507	1691.16
313.339	2174.89
318.169	2524.66
322.996	2717.38
327.821	2922.12
332.643	3672.58
337.462	4907.73
342.279	6946.53
347.092	9798.97
351.904	15137
356.712	23090.8
361.518	26879
366.321	21583.1
371.121	14205.7
375.919	9423.89
380.714	6444.65
385.506	4423.06
390.296	3047.12
395.083	1979.8
399.867	1297.09
404.649	823.98
409.428	542.559
414.204	296.969
418.978	72.3467
423.749	10.647
428.517	100.12
433.282	57.3467
438.045	147.185
442.806	44.1904
447.563	21.8096
452.318	46.1367
457.07	204.198
461.82	568.325
466.567	823.233
471.311	969.694
476.053	1147.72
480.792	1430.22
485.528	1902.22
490.262	1873.56
494.992	1587.25
499.721	1761.26
504.446	2679.53
509.169	3436.02
513.89	2930.71
518.607	2603.57
523.322	2605.59
528.035	2773.74
532.745	3115.99
537.452	3937.34
542.156	5492.86
546.858	8281.44
551.557	13714.9
556.254	21159.7
560.947	20599.2
565.639	11233.7
570.327	5188.84
575.013	2701.89
579.697	2068.17
584.377	1604.71
589.055	1531.43
593.731	1282.05
598.403	1098.37
603.074	877.352
607.741	798.781
612.406	808.135
617.068	870.208
621.728	1010
626.385	1269.75
631.039	1979.78
635.691	3240.48
640.34	4494.98
644.987	4449.09
649.63	2739.11
654.272	1657.65
658.91	1174.09
663.546	819.953
668.18	485.239
672.81	314.239
677.439	152.056
682.064	148.577
686.687	102.457
691.307	3.55444
695.925	6.74243
700.54	60.3584
705.153	88.269
709.763	22.7158
714.37	53.2978
718.974	18.8623
723.577	47.1738
728.176	4.57886
732.773	46.5779
737.367	2.78272
741.959	3.1145
746.548	6.72876
751.134	22.3694
755.718	24.2229
760.299	9.90332
764.878	8.67578
769.454	33.8906
774.028	62.5803
778.598	56.2698
783.167	72.802
787.732	39.0461
792.295	240.025
796.856	329.76
801.414	268.274
805.969	310.591
810.522	478.732
815.072	653.723
819.62	894.467
824.165	1197.79
828.707	1359.88
833.247	1680.03
837.784	2179.34
842.319	2962.77
846.851	4566.11
851.381	7105.9
855.908	10464.1
860.432	12942.9
864.954	11570.3
869.473	8832.99
873.99	6923.27
878.504	5959.22
883.015	5819.41
887.524	6658.59
892.031	7912.51
896.535	10040.7
901.036	14003.6
905.535	23034.5
910.031	41133.1
914.524	69910.5
919.015	86512
923.504	64466.1
927.99	35611.8
932.473	20004.1
936.954	12135.9
941.432	7526.39
945.908	5069.48
950.381	3762.2
954.852	3021.54
959.32	2555.57
963.785	2289.45
968.248	1853.28
972.708	1785.21
977.166	1637.85
981.622	1569.29
986.074	1415.39
990.525	1285.14
994.972	1011.84
999.417	763.197
1003.86	666.621
1008.3	685.892
1012.74	922.186
1017.17	1201.69
1021.61	1527.82
1026.04	1883.06
1030.46	2034.96
1034.89	2301.34
1039.31	2646.9
1043.73	3371.97
1048.15	4130.47
1052.56	4541.33
1056.97	3870.52
1061.38	2357.05
1065.79	1382.88
1070.19	875.001
1074.6	508.398
1079	240.057
1083.39	168.97
1087.79	148.142
1092.18	52.5786
1096.57	100.242
1100.96	50.0813
1105.34	35.5395
1109.72	36.207
1114.1	46.6487
1118.48	18.6704
1122.85	164.1
1127.22	102.183
1131.6	67.7734
1135.96	22.7752
1140.33	63.3757
1144.69	85.7573
1149.05	0.942871
1153.4	14.3401
1157.76	5.24463
1162.11	47.8455
1166.46	54.0823
1170.81	131.018
1175.15	249.721
1179.49	230.214
1183.83	282.18
1188.17	269.44
1192.5	281.142
1196.84	343.55
1201.16	293.698
1205.49	281.135
1209.82	254.793
1214.14	356.999
1218.46	225.759
1222.77	281.629
1227.09	292.299
1231.4	314.876
1235.71	298.497
1240.02	277.271
1244.32	294.156
1248.62	229.122
1252.92	256.292
1257.22	266.323
1261.51	287.81
1265.81	305.609
1270.1	231.534
1274.38	381.36
1278.67	364.024
1282.95	256.779
1287.23	258.939
1291.51	202.806
1295.78	296.481
1300.05	238.95
1304.32	308.369
1308.59	267.603
1312.86	243.003
1317.12	115.408
1321.38	168.414
1325.63	146.738
1329.89	154.49
1334.14	69.9932
1338.39	68.2078
1342.64	96.9905
1346.88	28.5735
1351.13	91.4451
1355.37	26.1497
1359.61	90.5208
1363.84	38.5515
1368.07	56.2639
1372.3	29.634
1376.53	31.8245
1380.76	39.0061
1384.98	45.1589
1389.2	110.297
1393.42	16.355
1397.64	27.4849
1401.85	51.7122
1406.06	5.05713
1410.27	47.3374
1414.47	61.5432
1418.68	28.5974
1422.88	14.5671
1427.08	21.4399
1431.27	25.8015
1435.47	8.83716
1439.66	67.2236
1443.85	59.8298
1448.03	28.2329
1452.22	116.724
1456.4	98.6536
1460.58	57.6345
1464.76	62.4504
1468.93	126.193
1473.1	83.8208
1477.27	69.9585
1481.44	169.236
1485.6	56.8594
1489.77	142.505
1493.92	99.2202
1498.08	129.023
1502.24	95.2156
1506.39	68.0027
1510.54	134.723
1514.69	208.872
1518.83	162.268
1522.97	112.457
1527.12	96.8877
1531.25	51.3281
1535.39	64.9526
1539.52	84.3765
1543.65	38.4292
1547.78	135.155
1551.91	78.6216
1556.03	54.1836
1560.15	91
1564.27	59.2275
1568.39	108.99
1572.5	50.0566
1576.61	0
