Measurement: Raman, 514 nm, ccw, Raman Data Processed
Mineral: Pyromorphite
Rruff sample: R060285
Ideal chemistry: Pb^2+^_5_(PO_4_)_3_Cl
Locality: Les Farges mine, Correze Ussel, France
Source: Herb Obodda
Description: Aggregate of green hexagonal prisms
Measured chemistry: Pb_5.00_((P_0.99_As_0.01_)_Î£=1_O_4_)_3_Cl_1.00_
Pin_id: M01413
Orientation: Laser parallel to -c* (0 0 -1). Fiducial mark perpendicular to laser is parallel to a [1 0 0]
Raman shift (cm-1)	intensity
74.326	0
79.268	10852.5
84.207	20793.9
89.143	27186.3
94.077	19253
99.009	16514.2
103.938	34093.1
108.865	34968.2
113.79	19705.9
118.712	5843.73
123.632	2575.28
128.549	1587.89
133.464	216.422
138.377	126.281
143.287	1017.59
148.195	1621.55
153.101	5800.77
158.004	8046.56
162.905	12645.7
167.803	9115.88
172.699	4764.72
177.592	5410.06
182.483	5922.16
187.372	6296.53
192.259	6560.95
197.142	2572.73
202.024	3552.08
206.903	1712.78
211.78	339.922
216.654	767.672
221.526	27.875
226.395	336.844
231.262	1052.77
236.127	847.891
240.989	1336.97
245.849	2043.38
250.707	2086.77
255.562	1643.48
260.414	2744.58
265.264	3078.77
270.112	1898.61
274.957	1749.66
279.8	2728.89
284.641	2621.09
289.479	2419.84
294.314	670.969
299.148	2154.66
303.978	3647.89
308.807	2239.5
313.633	2263.33
318.456	2356.83
323.277	2862.22
328.096	3530.34
332.912	3621.31
337.726	3913
342.537	3782.12
347.346	4040.47
352.152	3454.91
356.956	3999.2
361.758	3797.05
366.557	3717.73
371.354	4518.98
376.148	4243.73
380.94	4716
385.729	6746.23
390.516	8864.27
395.301	8053.59
400.083	6491.09
404.862	6106.88
409.639	7673.83
414.414	8116
419.186	7547.08
423.956	4528.69
428.723	3659.34
433.488	2360.03
438.25	1156.09
443.01	926.703
447.768	821.016
452.523	19.2969
457.275	98.6719
462.025	1019.19
466.773	308.703
471.518	379.5
476.261	352.906
481.001	386.344
485.739	469.766
490.474	358.891
495.207	117.734
499.938	701.984
504.666	1047.94
509.391	1091.19
514.114	912.781
518.834	1139.22
523.552	852.828
528.268	2236.33
532.981	1504.72
537.692	2064.86
542.4	2841.5
547.106	2983.86
551.809	2623.91
556.509	2779.05
561.208	3487.17
565.903	3659.2
570.597	5528.98
575.287	5586.69
579.976	3958.27
584.662	2410.77
589.345	794.828
594.026	1243.05
598.704	1396.44
603.38	790.406
608.053	880.688
612.724	614.203
617.393	894.422
622.059	575.859
626.722	392.75
631.383	806.188
636.041	534.75
640.697	277.562
645.351	110.75
650.002	656.875
654.65	799.188
659.296	386.062
663.94	70.6875
668.581	59.2969
673.219	580.984
677.855	401.625
682.489	844.453
687.119	771.547
691.748	339.609
696.374	1059
700.997	351
705.618	609.578
710.237	1517.98
714.853	1586.73
719.466	2301.3
724.077	1599.83
728.686	1463.66
733.291	2522.67
737.895	2157.67
742.496	3495.55
747.094	3592.27
751.69	3578.25
756.283	4518.08
760.874	4990.92
765.463	6657.83
770.048	8907.61
774.632	10998.5
779.212	16478.5
783.791	23284.8
788.367	32257.9
792.94	41260.9
797.51	44578.2
802.079	40305.4
806.644	32783.8
811.207	24945.2
815.768	21438.2
820.326	18873.1
824.882	14465.9
829.435	11104.6
833.985	8065.78
838.533	6784.25
843.079	5542.47
847.622	4885.88
852.162	3320.19
856.7	2192.31
861.236	521.531
865.768	281.938
870.299	376.469
874.827	752.469
879.352	139.281
883.875	572.5
888.395	1366.38
892.912	2302.94
897.428	3332.25
901.94	6197.72
906.45	12335.6
910.958	27824.8
915.463	61635.8
919.965	79441.9
924.465	52981.1
928.963	28121.4
933.457	19294
937.95	20755.1
942.439	25244.5
946.927	25599.5
951.411	20957.8
955.894	13724.5
960.373	8258.44
964.85	6404.97
969.325	6190.88
973.797	5554.59
978.266	4382.12
982.733	4577
987.197	3929.56
991.659	2471.03
996.118	2948.66
1000.58	3433.5
1005.03	3441.12
1009.48	5112.16
1013.93	3784.88
1018.38	2333.16
1022.82	1694.78
1027.26	1088.94
1031.7	1280.34
1036.14	1435.62
1040.57	1212.38
1045	1916.16
1049.43	2469.81
1053.86	2622.72
1058.28	3171.5
1062.7	2637.94
1067.12	2615
1071.54	2558.94
1075.95	1703.62
1080.36	3149.53
1084.77	2676
1089.17	1784.72
1093.58	3122.91
1097.98	2664.03
1102.38	1230.91
1106.77	1625
1111.16	688.906
1115.55	739.531
1119.94	1789.25
1124.33	1299.81
1128.71	1317.16
1133.09	974.281
1137.47	1565.81
1141.84	1925
1146.21	1721.59
1150.58	1901.62
1154.95	1325
1159.32	985.719
1163.68	993.688
1168.04	262.5
1172.39	285.312
1176.75	298.281
1181.1	10.7188
1185.45	88.5625
1189.8	67.8125
1194.14	193.844
1198.48	112.531
1202.82	117.312
1207.16	246.438
1211.49	425.438
1215.82	627.875
1220.15	266.906
1224.48	777.844
1228.8	403.625
1233.12	103.312
1237.44	195.312
1241.76	1286.53
1246.07	1199.69
1250.38	1874.25
1254.69	2294.19
1258.99	3738.75
1263.3	1222.22
1267.6	2890.25
1271.89	2423.16
1276.19	1722.84
1280.48	1674.06
1284.77	2747.44
1289.06	1498.03
1293.35	1796.38
1297.63	1923.84
1301.91	2095.28
1306.18	1917.59
1310.46	1773.06
1314.73	1682.38
1319	2084.28
1323.27	1850
1327.53	2765.62
1331.79	3386.66
1336.05	2138.06
1340.31	3613.28
1344.56	2845.44
1348.81	2547.91
1353.06	3362
1357.31	3583.88
1361.55	3531.69
1365.79	3076
1370.03	2735.59
1374.27	3344.81
1378.5	2162.22
1382.73	2761.47
1386.96	3300.97
1391.19	2398.28
1395.41	2307.94
1399.63	1242.47
1403.85	1303.19
1408.06	2128.16
1412.28	1127.16
1416.48	2170.59
1420.69	948.75
1424.9	1536.47
1429.1	1815.12
1433.3	102.375
1437.5	325.062
1441.69	606.125
1445.88	438.562
1450.07	1113.41
1454.26	804.844
1458.44	1469.81
1462.62	1088.5
1466.8	150.094
1470.98	1396.56
1475.15	437.562
1479.32	620.156
1483.49	1363.19
1487.66	1493.47
1491.82	1772.03
1495.98	442
1500.14	1041.31
1504.3	1506.31
1508.45	1251.78
1512.6	48.0938
1516.75	680
1520.89	1584.84
1525.04	1441.25
1529.17	1457.06
1533.31	1922.31
1537.45	1980.56
1541.58	1347.12
1545.71	763.438
1549.84	1205.91
1553.96	1297.34
1558.08	2120.22
1562.2	906.219
1566.32	1358.62
1570.43	1403.56
1574.54	27.9375
1578.65	0
