Measurement: Raman, 514 nm, ccw, Raman Data Processed
Mineral: Pyrope
Rruff sample: R060448
Ideal chemistry: Mg_3_Al_2_(SiO_4_)_3_
Locality: India
Source: Gemological Institute of America
Description: Deep red water worn pebble, variety rhodolite
Measured chemistry: (Mg_1.47_Fe_1.27_Ca_0.21_Mn_0.05_)_Î£=3_Al_2.00_(Si_1.00_O_4_)_3_
Pin_id: L00709
Orientation: Laser parallel to a* (1 0 0). Fiducial mark perpendicular to laser is parallel to c [0 0 1]
Raman shift (cm-1)	intensity
62.899	0
67.89	32.0155
72.879	226.13
77.864	313.376
82.846	568.01
87.824	211.384
92.8	43.8174
97.773	69.7861
102.742	142.328
107.708	526.426
112.672	704.821
117.632	1239.26
122.589	1141.59
127.543	1070.8
132.494	1106.92
137.441	1135.62
142.386	1213.05
147.328	1166.56
152.266	1052.41
157.202	971.4
162.134	996.051
167.063	973.508
171.99	1342.79
176.913	2261.94
181.833	2413.53
186.75	1630.25
191.664	1113.08
196.575	765.948
201.483	910.254
206.388	794.936
211.29	815.341
216.189	834.379
221.085	862.932
225.977	889.168
230.867	1017.21
235.754	1207.26
240.638	1294.26
245.518	2174.16
250.396	1458.58
255.271	1564.49
260.143	1618.84
265.011	1543.54
269.877	1668.55
274.74	1774.79
279.6	1818.22
284.457	1852.78
289.31	1891.47
294.161	2078.21
299.009	2014.79
303.854	2331.13
308.696	2540.82
313.535	2975.35
318.371	3509.53
323.204	4367.86
328.034	5852.56
332.861	8389.09
337.686	11894.4
342.507	15862.4
347.325	21752.2
352.141	32214.6
356.953	37959.7
361.763	28726.6
366.569	19418.5
371.373	15457.3
376.174	13511
380.972	10178.5
385.767	6482.75
390.559	3967.89
395.348	2490.84
400.134	1552.48
404.918	946.937
409.698	651.237
414.476	310.106
419.25	223.688
424.022	66.9927
428.791	32.4011
433.557	9.74829
438.32	135.236
443.081	52.978
447.838	112.452
452.593	88.5293
457.344	126.645
462.093	33.771
466.839	60.1387
471.582	158.238
476.323	155.554
481.06	228.061
485.795	331.734
490.526	286.546
495.255	535.475
499.981	699.496
504.705	1041.58
509.425	1139.71
514.143	1080.85
518.857	1263.99
523.569	1685.08
528.278	2058.09
532.985	2020.08
537.688	2386.2
542.389	3199.25
547.087	4981.32
551.782	8400.22
556.474	14725
561.164	18683.7
565.851	11824.6
570.535	5608.65
575.216	2976.06
579.894	1798.71
584.57	1400.97
589.243	1188.76
593.913	1113.91
598.58	1045.22
603.245	1128.61
607.907	1272.21
612.566	1291.26
617.222	885.71
621.875	638.565
626.526	493.811
631.174	613.439
635.82	885.443
640.462	1074.81
645.102	898.548
649.739	727.419
654.373	537.049
659.005	520.209
663.634	288.349
668.26	222.18
672.884	231.992
677.504	206.11
682.122	14.4812
686.738	39.8987
691.35	86.1428
695.96	102.914
700.567	105.55
705.172	67.96
709.774	5.15869
714.373	26.9177
718.969	63.8723
723.563	13.8669
728.154	25.5632
732.743	47.4028
737.328	4.92773
741.912	95.053
746.492	88.6941
751.07	67.9314
755.645	42.7842
760.217	133.274
764.787	179.422
769.354	141.25
773.918	65.782
778.48	106.039
783.039	12.0447
787.596	77.8023
792.15	10.6658
796.701	56.6655
801.25	0.83252
805.796	67.8564
810.339	99.3806
814.88	149.172
819.418	284.758
823.953	299.032
828.486	340.614
833.016	494.998
837.544	531.924
842.069	744.06
846.591	1232.57
851.111	1893.32
855.628	2897.62
860.143	4088.41
864.655	5045.79
869.164	4748.31
873.671	4152.41
878.176	4193.67
882.677	4814.29
887.176	5979.61
891.673	7822.5
896.167	10844.9
900.658	15647.9
905.147	25219.3
909.633	46542.3
914.117	89213.9
918.598	125818
923.077	118660
927.553	73583.1
932.026	37676.8
936.497	21183.3
940.966	12764.2
945.431	8249.03
949.895	5722.52
954.355	4129.72
958.814	3229.77
963.269	2619.74
967.723	2121.76
972.173	1908.03
976.621	1714.76
981.067	1618.65
985.51	1581.11
989.951	1487.08
994.389	1299.32
998.824	1181.87
1003.26	988.691
1007.69	1094.1
1012.12	1180.72
1016.54	1402.86
1020.96	1603.87
1025.38	1588.71
1029.8	1724.03
1034.22	1915.71
1038.63	2015.79
1043.04	2265.25
1047.45	2549.07
1051.86	2477.25
1056.26	2051.78
1060.66	1159.63
1065.06	749.803
1069.45	483.263
1073.85	371.007
1078.24	242.028
1082.63	212.312
1087.01	177.876
1091.4	74.7695
1095.78	37.917
1100.16	0.728516
1104.53	107.816
1108.91	45.4727
1113.28	13.9536
1117.65	90.5576
1122.01	154.662
1126.38	31.522
1130.74	13.981
1135.1	69.437
1139.45	53.4082
1143.81	33.7969
1148.16	86.3643
1152.51	127.126
1156.86	71.3926
1161.2	500.489
1165.54	153.403
1169.88	334.124
1174.22	347.639
1178.56	498.934
1182.89	587.998
1187.22	467.816
1191.55	545.378
1195.87	598.674
1200.19	486.935
1204.52	519.034
1208.83	444.806
1213.15	435.409
1217.46	438.614
1221.78	412.464
1226.08	330.871
1230.39	433.541
1234.69	373.583
1239	387.133
1243.3	457.993
1247.59	406.042
1251.89	360.22
1256.18	420.211
1260.47	327.773
1264.76	451.732
1269.04	484.909
1273.33	435.716
1277.61	546.52
1281.88	369.037
1286.16	469.175
1290.43	389.998
1294.7	423.539
1298.97	406.903
1303.24	415.852
1307.51	354.509
1311.77	214.878
1316.03	225.964
1320.28	179.784
1324.54	118.346
1328.79	57.6416
1333.04	61.6582
1337.29	83.3428
1341.54	21.5469
1345.78	6.7334
1350.02	3.41455
1354.26	17.1299
1358.5	2.59619
1362.73	16.688
1366.96	35.8965
1371.19	114.125
1375.42	51.7568
1379.65	5.64795
1383.87	1.47119
1388.09	177.846
1392.31	87.3438
1396.52	134.83
1400.74	117.317
1404.95	96.3774
1409.16	142.862
1413.37	78.8784
1417.57	175.13
1421.77	104.997
1425.97	113.749
1430.17	200.422
1434.37	137.047
1438.56	103.668
1442.75	207.338
1446.94	224.3
1451.13	160.887
1455.31	186.176
1459.5	244.462
1463.68	195.705
1467.85	148.312
1472.03	280.048
1476.2	362.94
1480.37	254.477
1484.54	320.39
1488.71	288.886
1492.88	294.859
1497.04	332.099
1501.2	218.603
1505.36	378.605
1509.51	382.447
1513.66	265.838
1517.82	309.643
1521.97	279.022
1526.11	299.183
1530.26	202.3
1534.4	218.104
1538.54	145.722
1542.68	170.936
1546.82	190.644
1550.95	138.334
1555.08	199.522
1559.21	77.4053
1563.34	93.48
1567.46	44.876
1571.59	186.364
1575.71	1.27002
