Measurement: Raman, 514 nm, ccw, Raman Data Processed
Mineral: Pyrope
Rruff sample: R050446
Ideal chemistry: Mg_3_Al_2_(SiO_4_)_3_
Locality: Sunset Crater, Arizona, USA
Source: Marcus Origlieri
Description: Red fragment
Measured chemistry: (Mg_1.93_Fe^2+^_0.65_Ca_0.42_)_Î£=3_Al_2.00_(Si_1.00_O_4_)_3_
Pin_id: L01215
Orientation: Laser parallel to a* (1 0 0). Fiducial mark perpendicular to laser is parallel to c [0 0 1]
Raman shift (cm-1)	intensity
62.899	0
67.89	46.9402
72.879	66.7473
77.864	55.7634
82.846	3.02689
87.824	24.2465
92.8	47.6845
97.773	174.785
102.742	462.469
107.708	739.889
112.672	809.256
117.632	1001.22
122.589	1089.61
127.543	1037.45
132.494	1059.76
137.441	1054.35
142.386	1068.26
147.328	1006.82
152.266	864.808
157.202	837.754
162.134	709.824
167.063	611.362
171.99	646.499
176.913	731.23
181.833	966.621
186.75	1272.93
191.664	1224.26
196.575	1126.8
201.483	1065.31
206.388	1046.78
211.29	1086.36
216.189	1058.48
221.085	991.938
225.977	824.431
230.867	854.767
235.754	824.676
240.638	842.352
245.518	939.408
250.396	886.547
255.271	906.7
260.143	915.815
265.011	871.852
269.877	822.771
274.74	853.54
279.6	824.121
284.457	817.087
289.31	819.731
294.161	819.953
299.009	946.761
303.854	892.564
308.696	1100.63
313.535	1233.08
318.371	1335.42
323.204	1559.94
328.034	1773.73
332.861	2359.12
337.686	3177.1
342.507	4309.63
347.325	5593.7
352.141	7767.29
356.953	11198.4
361.763	13748.1
366.569	11597.5
371.373	8071.62
376.174	5741.39
380.972	3990.87
385.767	2817.01
390.559	2057.74
395.348	1319.04
400.134	943.908
404.918	549.321
409.698	364.302
414.476	231.913
419.25	79.1667
424.022	70.1023
428.791	5.1145
433.557	27.6443
438.32	62.7186
443.081	68.5978
447.838	41.1704
452.593	118.677
457.344	3.84265
462.093	21.5135
466.839	19.4385
471.582	111.664
476.323	148.271
481.06	153.231
485.795	292.526
490.526	264.076
495.255	302.836
499.981	375.788
504.705	633.915
509.425	857.198
514.143	832.618
518.857	838.156
523.569	962.793
528.278	1097.51
532.985	1197.85
537.688	1305.19
542.389	1855.58
547.087	2632.71
551.782	4344.21
556.474	7358.75
561.164	9511.87
565.851	6540.42
570.535	3029.68
575.216	1567.61
579.894	908.371
584.57	669.513
589.243	490.547
593.913	456.14
598.58	412.121
603.245	370.606
607.907	416.505
612.566	469.559
617.222	455.953
621.875	394.19
626.526	366.374
631.174	387.107
635.82	591.422
640.462	911.424
645.102	994.106
649.739	716.464
654.373	559.491
659.005	440.184
663.634	403.539
668.26	235.553
672.884	193.224
677.504	57.5489
682.122	72.5021
686.738	42.0618
691.35	9.16589
695.96	9.56885
700.567	19.6352
705.172	112.778
709.774	37.0883
714.373	0.667603
718.969	15.872
723.563	24.6134
728.154	33.1555
732.743	30.3615
737.328	23.0657
741.912	34.2559
746.492	27.1804
751.07	8.23315
755.645	43.081
760.217	20.9695
764.787	33.9495
769.354	42.0432
773.918	14.9487
778.48	86.6794
783.039	79.2483
787.596	102.668
792.15	80.9507
796.701	83.1108
801.25	204.161
805.796	265.115
810.339	297.986
814.88	384.232
819.418	599.716
823.953	703.602
828.486	957.908
833.016	952.432
837.544	1012.13
842.069	1198.43
846.591	1508.9
851.111	1910.74
855.628	2793.56
860.143	3323.99
864.655	3143.8
869.164	2613.89
873.671	2238.8
878.176	2242.17
882.677	2526.32
887.176	3085.13
891.673	4016.42
896.167	5452.47
900.658	7943.09
905.147	13172.1
909.633	24045.5
914.117	42165.3
918.598	55238.3
923.077	43697.7
927.553	24617.5
932.026	13687.5
936.497	7973.95
940.966	5056.71
945.431	3315.83
949.895	2392.32
954.355	1868.2
958.814	1556.45
963.269	1336.14
967.723	1129.04
972.173	994.433
976.621	942.882
981.067	844.378
985.51	945.677
989.951	788.179
994.389	606.423
998.824	505.805
1003.26	442.924
1007.69	367.895
1012.12	527.317
1016.54	760.516
1020.96	952.852
1025.38	1143.36
1029.8	1200.58
1034.22	1257.44
1038.63	1265.31
1043.04	1385.06
1047.45	1575.61
1051.86	1583.18
1056.26	1333.54
1060.66	877.066
1065.06	537.768
1069.45	286.631
1073.85	196.653
1078.24	131.816
1082.63	109.11
1087.01	115.524
1091.4	11.0513
1095.78	40.6985
1100.16	3.42481
1104.53	27.865
1108.91	38.7346
1113.28	20.6829
1117.65	59.8789
1122.01	26.6074
1126.38	65.4531
1130.74	11.8323
1135.1	33.4932
1139.45	5.58057
1143.81	63.2981
1148.16	24.1233
1152.51	1.11694
1156.86	43.1199
1161.2	31.0017
1165.54	23.7004
1169.88	88.2288
1174.22	44.6433
1178.56	136.935
1182.89	164.099
1187.22	203.128
1191.55	184.017
1195.87	287.765
1200.19	206.727
1204.52	140.18
1208.83	209.472
1213.15	160.597
1217.46	210.864
1221.78	202.119
1226.08	214.077
1230.39	124.217
1234.69	127.584
1239	139.842
1243.3	109.291
1247.59	150.56
1251.89	146.622
1256.18	177.04
1260.47	164.294
1264.76	115.812
1269.04	191.3
1273.33	135.99
1277.61	176.849
1281.88	252.712
1286.16	205.272
1290.43	95.353
1294.7	173.453
1298.97	98.3106
1303.24	170.139
1307.51	165.795
1311.77	111.305
1316.03	152.655
1320.28	71.9634
1324.54	116.465
1328.79	80.0974
1333.04	84.9915
1337.29	56.8455
1341.54	84.6929
1345.78	25.4268
1350.02	6.00586
1354.26	12.5808
1358.5	33.2419
1362.73	114.228
1366.96	7.23096
1371.19	17.1162
1375.42	77.0808
1379.65	32.614
1383.87	96.4397
1388.09	26.4395
1392.31	113.44
1396.52	0.48584
1400.74	24.5957
1404.95	55.4985
1409.16	32.8272
1413.37	64.9956
1417.57	87.1431
1421.77	44.3074
1425.97	9.47656
1430.17	20.6763
1434.37	102.829
1438.56	84.0054
1442.75	37.648
1446.94	4.99048
1451.13	6.09253
1455.31	133.166
1459.5	79.0193
1463.68	100.688
1467.85	64.0459
1472.03	50.7883
1476.2	182.889
1480.37	41.4517
1484.54	61.4856
1488.71	55.7959
1492.88	50.4221
1497.04	122.92
1501.2	90.418
1505.36	55.8381
1509.51	118.471
1513.66	135.262
1517.82	148.704
1521.97	100.557
1526.11	116.99
1530.26	103.174
1534.4	83.3281
1538.54	64.4399
1542.68	42.7825
1546.82	96.2737
1550.95	23.2686
1555.08	97.9539
1559.21	99.344
1563.34	0.645752
1567.46	81.697
1571.59	3.46973
1575.71	45.5996
