Measurement: Raman, 514 nm, ccw, Raman Data Processed
Mineral: Pyrope
Rruff sample: R060441
Ideal chemistry: Mg_3_Al_2_(SiO_4_)_3_
Locality: Apache County, Arizona, USA
Source: Gemological Institute of America
Description: Deep red fragment
Measured chemistry: (Mg_1.83_Fe_0.75_Ca_0.39_Mn_0.03_)_Σ=3_(Al_1.95_Cr_0.05_)_Σ=2_(Si_1.00_O_4_)_3_
Pin_id: L00962
Orientation: Laser parallel to a [1 0 0]. Fiducial mark perpendicular to laser is parallel to -c* (0 0 -1)
Raman shift (cm-1)	intensity
62.899	0
67.89	62.6401
72.879	143.185
77.864	120.541
82.846	8.57961
87.824	69.5891
92.8	69.7868
97.773	309.644
102.742	750.846
107.708	1466.69
112.672	1416.57
117.632	1781.34
122.589	1848.97
127.543	1943.26
132.494	2011.66
137.441	1909.79
142.386	2092.63
147.328	1947.84
152.266	1770
157.202	1532.1
162.134	1180.53
167.063	976.394
171.99	1039.97
176.913	1247.72
181.833	1922.34
186.75	2381.25
191.664	2182.18
196.575	1733.48
201.483	1714.82
206.388	1687.18
211.29	1579.68
216.189	1574.62
221.085	1569.32
225.977	1374.51
230.867	1533.93
235.754	1619.91
240.638	1747.36
245.518	1809.72
250.396	1860.34
255.271	1977.08
260.143	1797.84
265.011	1847.54
269.877	1809.09
274.74	1878.43
279.6	1851.49
284.457	1837.55
289.31	1936.05
294.161	1868.85
299.009	2085.35
303.854	2287.74
308.696	2569.45
313.535	2745.83
318.371	3088.67
323.204	3551.62
328.034	4420.95
332.861	5848.58
337.686	8139.44
342.507	10848.5
347.325	14141.7
352.141	19616.1
356.953	27897.5
361.763	32475.4
366.569	26833.6
371.373	18492.3
376.174	13475.4
380.972	9960.05
385.767	7080.14
390.559	4839.5
395.348	3224.09
400.134	2030.88
404.918	1419.88
409.698	869.105
414.476	564.719
419.25	276.697
424.022	32.2747
428.791	12.7078
433.557	73.3823
438.32	95.4302
443.081	156.183
447.838	112.748
452.593	188.985
457.344	33.0142
462.093	101.55
466.839	210.993
471.582	334.193
476.323	445.054
481.06	397.563
485.795	491.659
490.526	538.319
495.255	680.456
499.981	841.037
504.705	1136.03
509.425	1517.38
514.143	1491.06
518.857	1722.03
523.569	2158.24
528.278	2496.66
532.985	2646.25
537.688	3131.96
542.389	4150.46
547.087	6020.68
551.782	9996.62
556.474	16784.4
561.164	21519.5
565.851	14514.7
570.535	6898.72
575.216	3402.51
579.894	2115.59
584.57	1547.78
589.243	1251.11
593.913	1048.8
598.58	944.362
603.245	958.551
607.907	916.295
612.566	940.594
617.222	986.952
621.875	849.588
626.526	852.493
631.174	1038.97
635.82	1325.81
640.462	1763.99
645.102	1834.51
649.739	1441.34
654.373	1249.49
659.005	992.928
663.634	712.658
668.26	556.669
672.884	321.953
677.504	184.118
682.122	111.308
686.738	73.2361
691.35	29.1116
695.96	58.3501
700.567	51.3857
705.172	94.2532
709.774	39.8611
714.373	0.144531
718.969	78.8806
723.563	72.031
728.154	14.355
732.743	62.6265
737.328	24.897
741.912	65.1614
746.492	64.533
751.07	2.53711
755.645	42.8926
760.217	53.6111
764.787	40.749
769.354	72.3506
773.918	96.5134
778.48	59.2627
783.039	79.6245
787.596	98.6248
792.15	184.289
796.701	189.644
801.25	225.717
805.796	376.535
810.339	427.126
814.88	588.517
819.418	919.216
823.953	1251.12
828.486	1581.98
833.016	1739.23
837.544	1744.44
842.069	2108.48
846.591	2654.98
851.111	3580.17
855.628	4645.27
860.143	5774.85
864.655	6062.24
869.164	5472.61
873.671	4839.4
878.176	4707
882.677	5322.87
887.176	7195.39
891.673	8067.23
896.167	10910.3
900.658	15540.9
905.147	25048
909.633	45489.6
914.117	82477.8
918.598	116590
923.077	100527
927.553	58228.3
932.026	31777.1
936.497	18662.6
940.966	11600.8
945.431	7675.64
949.895	5477.19
954.355	4186.48
958.814	3634.63
963.269	3126.64
967.723	2713.83
972.173	2369.5
976.621	2179.3
981.067	2073.31
985.51	1884.06
989.951	1736.42
994.389	1517.89
998.824	1263.14
1003.26	980.805
1007.69	1031.6
1012.12	1146.82
1016.54	1573.73
1020.96	2050.75
1025.38	2403
1029.8	2426.49
1034.22	2530.9
1038.63	2531.79
1043.04	2598.12
1047.45	2695.87
1051.86	2720.03
1056.26	2240.58
1060.66	1498.49
1065.06	916.752
1069.45	553.345
1073.85	364.259
1078.24	207.468
1082.63	158.953
1087.01	3.53223
1091.4	28.0195
1095.78	13.9377
1100.16	32.4075
1104.53	29.1209
1108.91	3.27539
1113.28	53.7566
1117.65	115.473
1122.01	76.596
1126.38	54.2398
1130.74	74.656
1135.1	59.8843
1139.45	9.2771
1143.81	31.2598
1148.16	12.5908
1152.51	20.0239
1156.86	10.0627
1161.2	88.7612
1165.54	153.222
1169.88	178.468
1174.22	237.461
1178.56	365.185
1182.89	404.627
1187.22	395.777
1191.55	356.617
1195.87	426.173
1200.19	421.535
1204.52	450.068
1208.83	396.986
1213.15	390.406
1217.46	413.007
1221.78	366.135
1226.08	380.487
1230.39	252.883
1234.69	379.09
1239	283.405
1243.3	309.754
1247.59	290.536
1251.89	334.406
1256.18	315.664
1260.47	268.084
1264.76	377.497
1269.04	396.673
1273.33	371.53
1277.61	371.084
1281.88	374.723
1286.16	335.292
1290.43	268.601
1294.7	301.588
1298.97	310.247
1303.24	318.172
1307.51	282.694
1311.77	239.177
1316.03	222.435
1320.28	265.176
1324.54	126.563
1328.79	39.4912
1333.04	188.112
1337.29	90.5288
1341.54	58.5142
1345.78	69.1995
1350.02	7.40283
1354.26	130.108
1358.5	14.6426
1362.73	45.7703
1366.96	26.6306
1371.19	38.0747
1375.42	31.0171
1379.65	25.0203
1383.87	71.9878
1388.09	47.0818
1392.31	5.80737
1396.52	31.2876
1400.74	55.4075
1404.95	82.481
1409.16	83.4394
1413.37	47.2598
1417.57	100.951
1421.77	35.4597
1425.97	145.293
1430.17	112.958
1434.37	80.1785
1438.56	21.186
1442.75	108.074
1446.94	74.8948
1451.13	132.196
1455.31	97.7104
1459.5	74.2988
1463.68	139.867
1467.85	148.907
1472.03	222.609
1476.2	118.836
1480.37	142.715
1484.54	168.303
1488.71	101.594
1492.88	206.011
1497.04	161.99
1501.2	174.516
1505.36	187.787
1509.51	155.122
1513.66	197.518
1517.82	148.706
1521.97	155.29
1526.11	93.7004
1530.26	59.6243
1534.4	94.8835
1538.54	122.01
1542.68	121.728
1546.82	76.6611
1550.95	120.729
1555.08	273.232
1559.21	51.3828
1563.34	88.606
1567.46	47.4907
1571.59	3.22583
1575.71	131.744
