Measurement: Raman, 514 nm, ccw, Raman Data Processed
Mineral: Pyromorphite
Rruff sample: R060285
Ideal chemistry: Pb^2+^_5_(PO_4_)_3_Cl
Locality: Les Farges mine, Correze Ussel, France
Source: Herb Obodda
Description: Aggregate of green hexagonal prisms
Measured chemistry: Pb_5.00_((P_0.99_As_0.01_)_Î£=1_O_4_)_3_Cl_1.00_
Pin_id: M01948
Orientation: Laser parallel to a* (1 0 0). Fiducial mark perpendicular to laser is parallel to c [0 0 1]
Raman shift (cm-1)	intensity
60.305	0
65.269	1605.84
70.231	13266.5
75.19	22376.3
80.146	35417.6
85.1	40733.4
90.052	38770.1
95	27919.4
99.947	28135.8
104.89	32297.7
109.832	20490.2
114.77	10784.4
119.706	6723.22
124.64	432.312
129.571	1366.5
134.499	398.828
139.425	15.4219
144.348	1917.95
149.269	3606.17
154.187	5685.03
159.103	7150.94
164.016	6541.83
168.927	7454.56
173.835	5832.28
178.74	5198.7
183.643	5222.23
188.543	4759.59
193.441	4566.62
198.336	4680.36
203.229	2191.61
208.119	1523.31
213.006	1108.94
217.891	1216.27
222.774	878.469
227.653	473.234
232.531	438.438
237.405	378.75
242.277	784.125
247.147	363.266
252.014	374.266
256.878	276.234
261.74	424.156
266.599	374.75
271.456	71.3125
276.31	449.438
281.162	281
286.011	327.531
290.857	24.4688
295.701	993.062
300.542	1133.58
305.381	1422.28
310.217	1316.86
315.051	1671.73
319.882	1795.8
324.71	2355.84
329.536	2435.58
334.359	2042.28
339.18	3086.91
343.998	3393.08
348.813	3302.44
353.626	3421.25
358.437	3717.72
363.244	3442.89
368.05	4627.03
372.852	4544.53
377.652	5655.05
382.45	6890.52
387.245	8758.69
392.037	9308.34
396.827	7588.36
401.614	6696.8
406.398	7174.44
411.18	8730.66
415.959	7715.8
420.736	5963.95
425.51	3888.27
430.282	1728.67
435.051	1627.45
439.818	1995.58
444.581	1487.36
449.343	536.422
454.101	1098.38
458.857	294.312
463.611	1052.98
468.362	329.125
473.11	102.266
477.856	968.812
482.599	42.8906
487.34	362.594
492.078	890.406
496.813	909.156
501.546	636.734
506.276	464.516
511.003	107.422
515.728	563.031
520.451	577.484
525.171	606.906
529.888	992.219
534.602	1667.78
539.314	1962.92
544.024	3157.61
548.731	3489.06
553.435	2697.44
558.137	3476.58
562.836	3174.09
567.532	4055.64
572.226	3448.72
576.917	3840.55
581.606	2126.47
586.292	1320.44
590.975	90.1719
595.656	1137.14
600.334	180.531
605.01	261.891
609.683	1573.27
614.353	1114.2
619.021	713.516
623.686	1338.27
628.349	1248.45
633.009	514.078
637.667	1177.5
642.321	124.719
646.974	95.8438
651.623	637.688
656.27	163.219
660.915	233.781
665.556	210.125
670.196	678.688
674.832	374.125
679.466	418.375
684.097	147.125
688.726	1156.31
693.352	822.312
697.976	460.25
702.597	1233.19
707.215	1834.28
711.831	2241.25
716.444	1862.97
721.055	2319.84
725.663	714.781
730.268	452.812
734.87	577.812
739.471	221.625
744.068	583.531
748.663	489.844
753.255	824.531
757.845	1782.91
762.432	2484.81
767.016	3048.53
771.598	5683.34
776.177	8663.5
780.754	13612.7
785.328	20070.2
789.899	28727.4
794.468	34720.7
799.034	36379.4
803.597	30100.3
808.158	23644.6
812.717	19617.7
817.272	20051.2
821.825	17761.2
826.376	15266.2
830.924	13115.8
835.469	10117.2
840.011	9736.56
844.551	9590.44
849.089	10081
853.623	7619.19
858.156	2979.31
862.685	2368.53
867.212	978.562
871.736	771.688
876.258	1819.09
880.777	2393.16
885.293	2004.84
889.807	2344.12
894.318	4238.97
898.827	6535
903.333	9459.16
907.836	19654.2
912.337	40659.8
916.835	64883.2
921.331	61610.2
925.823	36373.8
930.314	21758.9
934.801	19813.6
939.286	24465.8
943.769	26521.1
948.248	25319.5
952.726	17652.2
957.2	12627.7
961.672	9739.09
966.141	8272.44
970.608	8421.97
975.072	7835.22
979.533	5558.97
983.992	3782.41
988.448	2028.28
992.902	1184.44
997.353	1370.03
1001.8	2271.94
1006.25	4354.22
1010.69	2949.12
1015.13	3301.62
1019.57	1337.75
1024	273.844
1028.44	999.375
1032.87	614.75
1037.29	273.125
1041.72	1234.03
1046.14	3692.56
1050.56	3972.97
1054.98	4293.78
1059.39	5394.69
1063.8	5045.88
1068.21	5608.84
1072.62	6063.28
1077.02	5003.62
1081.42	5467.06
1085.82	4442.47
1090.22	3702.62
1094.61	2504.16
1099	4463.12
1103.39	4868.44
1107.77	4440.81
1112.16	3790.41
1116.54	3045.16
1120.91	3047.03
1125.29	2814.09
1129.66	2769.25
1134.03	2449.31
1138.4	3089.78
1142.76	3249.22
1147.12	2381.5
1151.48	2540.19
1155.84	2307.97
1160.19	1688.59
1164.54	1197.34
1168.89	60.75
1173.24	203.5
1177.58	167.594
1181.92	166.438
1186.26	595.094
1190.6	424.875
1194.93	465.344
1199.26	678.125
1203.59	231.719
1207.91	956.375
1212.23	1605.88
1216.55	1078.28
1220.87	959.344
1225.18	1361.56
1229.5	1740.91
1233.81	1667.44
1238.11	2287.62
1242.42	1757.81
1246.72	1740.97
1251.02	1689.03
1255.31	1863.44
1259.61	3770.56
1263.9	2481.59
1268.18	2112.91
1272.47	3041.03
1276.75	2232.56
1281.03	1003.44
1285.31	1905.38
1289.59	1854.88
1293.86	1553.88
1298.13	1210.69
1302.39	1717.69
1306.66	1850.06
1310.92	1793.5
1315.18	1513.25
1319.44	2875.12
1323.69	1758.31
1327.94	2578.75
1332.19	2665.06
1336.44	3496.94
1340.68	2634.25
1344.92	2933.88
1349.16	2670.75
1353.4	4598.56
1357.63	2662.62
1361.86	3097.25
1366.09	2526.75
1370.31	3318.94
1374.53	4416.06
1378.75	3666.06
1382.97	3559.94
1387.19	2705.19
1391.4	3087.88
1395.61	2826.94
1399.81	2375.38
1404.02	2327.12
1408.22	3205
1412.42	2803.69
1416.61	1037.12
1420.81	2243.06
1425	1214.56
1429.19	1986
1433.37	290.688
1437.56	813.5
1441.74	1990.75
1445.91	862.125
1450.09	1208.69
1454.26	1484.75
1458.43	145.812
1462.6	79.5
1466.76	1200.06
1470.92	1495.19
1475.09	279.188
1479.24	1563.94
1483.4	487.812
1487.55	14.375
1491.7	1741.38
1495.84	655.062
1499.99	1044.81
1504.13	19.4375
1508.27	393.312
1512.4	2795.94
1516.53	1759.06
1520.66	2934.44
1524.79	2188.88
1528.92	1875.06
1533.04	1562.25
1537.16	548.75
1541.28	2945.69
1545.39	1779.25
1549.5	1673.81
1553.61	2982.62
1557.72	1116.5
1561.83	3028.44
1565.93	1863.56
1570.03	2978.12
1574.12	535.688
