Measurement: Raman, 514 nm, ccw, Raman Data Processed
Mineral: Pyrope
Rruff sample: R060445
Ideal chemistry: Mg_3_Al_2_(SiO_4_)_3_
Locality: Tanzania
Source: Gemological Institute of America
Description: Deep red water worn pebble, variety rhodolite
Measured chemistry: (Mg_1.83_Fe_1.08_Ca_0.07_Mn_0.02_)_Î£=3_Al_2.00_(Si_1.00_O_4_)_3_
Pin_id: L00835
Orientation: Laser parallel to a* (1 0 0). Fiducial mark perpendicular to laser is parallel to -c [0 0 -1]
Raman shift (cm-1)	intensity
61.448	0
66.421	23.556
71.392	77.7376
76.36	230.494
81.325	167.006
86.287	44.6315
91.246	35.6724
96.203	85.7583
101.156	442.126
106.107	821.366
111.055	931.462
116.001	1075.92
120.944	1217.52
125.883	1325.23
130.821	1381.09
135.755	1408.92
140.686	1434.42
145.615	1575.96
150.541	1391.41
155.464	1334.63
160.385	1254.33
165.303	1290.56
170.218	1146.36
175.13	1394.76
180.039	1798.27
184.946	1846.98
189.85	1592.07
194.751	1456.12
199.649	1327.66
204.545	1408.5
209.438	1356.38
214.328	1207.78
219.215	1031.12
224.1	1062.78
228.982	961.626
233.861	1038.26
238.737	1130.04
243.611	1119.34
248.482	1236.56
253.35	1301.11
258.216	1360.92
263.078	1337.96
267.938	1470.16
272.795	1466.5
277.65	1433.95
282.502	1536.42
287.351	1546.11
292.197	1620.29
297.041	1635.93
301.881	1734.63
306.72	1918.57
311.555	2073.8
316.388	2422.77
321.218	2763.89
326.045	3384.22
330.869	4746.19
335.691	6651.84
340.51	8806.24
345.327	11276.4
350.14	16314.2
354.951	22515.7
359.76	19153.1
364.565	11755.3
369.368	8526.47
374.168	6952.48
378.966	4726.35
383.76	2777.15
388.552	1449.87
393.342	928.429
398.128	547.852
402.912	356.166
407.693	282.403
412.472	193.632
417.248	83.9316
422.021	5.10303
426.792	7.14502
431.559	27.0669
436.324	7.77832
441.087	35.2163
445.847	46.2588
450.604	38.9878
455.358	57.6274
460.11	70.2554
464.859	75.2949
469.605	92.2749
474.349	68.5874
479.09	138.268
483.828	229.307
488.564	257.721
493.297	314.56
498.027	460.825
502.755	651.389
507.48	889.21
512.202	756.275
516.922	936.557
521.639	1142.03
526.353	1137.71
531.065	1242.15
535.774	1343.31
540.48	1839.95
545.184	2881.53
549.885	5123.21
554.583	9633.28
559.279	14137.4
563.972	9771.47
568.662	4546.83
573.35	2333.25
578.035	1313.09
582.718	922.876
587.398	677.279
592.075	674.057
596.75	626.699
601.422	492.986
606.091	543.893
610.758	575.518
615.422	634.015
620.083	503.748
624.742	238.249
629.398	260.345
634.051	439.526
638.702	683.79
643.351	846.947
647.996	505.126
652.639	390.006
657.28	230.153
661.917	230.281
666.553	160.312
671.185	76.3696
675.815	93.9009
680.442	53.7881
685.067	7.99707
689.689	7.33106
694.309	75.3731
698.926	22.7388
703.54	32.0718
708.151	15.5386
712.761	38.2969
717.367	4.40918
721.971	75.5523
726.572	31.0601
731.171	112.211
735.767	58.2451
740.36	69.165
744.951	133.859
749.539	150.171
754.125	93.2061
758.708	86.9839
763.288	38.5269
767.866	19.2817
772.442	47.4985
777.014	18.8662
781.584	39.1182
786.152	27.958
790.717	33.8989
795.279	2.53516
799.839	74.9312
804.396	112.386
808.951	106.551
813.503	98.7524
818.053	165.491
822.599	205.378
827.144	303.881
831.686	272.918
836.225	311.084
840.761	417.63
845.295	686.11
849.827	852.892
854.356	1601.44
858.882	2465.46
863.406	3589.32
867.927	4020.96
872.446	2955.55
876.962	2458.34
881.476	2449.45
885.987	2777.28
890.495	3481.58
895.001	4926.84
899.505	6858.38
904.005	9973.62
908.504	16628.1
912.999	32138.3
917.493	64104.3
921.983	95125
926.471	70953.6
930.957	35104.7
935.44	17799.3
939.92	10075.9
944.398	6244.1
948.874	4003.73
953.346	2805.91
957.817	2057.62
962.285	1535
966.75	1333.43
971.213	1109.31
975.673	1115.88
980.13	1152.71
984.586	1391.33
989.038	1402.79
993.488	1192.04
997.936	942.309
1002.38	849.71
1006.82	648.896
1011.26	504.817
1015.7	584.203
1020.14	581.078
1024.57	705.005
1029	838.699
1033.43	885.115
1037.85	894.785
1042.27	1225.97
1046.69	1219.44
1051.11	1641.1
1055.53	1814.95
1059.94	1471
1064.35	930.205
1068.76	522.609
1073.16	378.196
1077.56	226.92
1081.96	117.765
1086.36	103.734
1090.75	149.824
1095.15	105.995
1099.54	4.21631
1103.92	62.4863
1108.31	84.2666
1112.69	37.1753
1117.07	63.8398
1121.45	0.257813
1125.82	86.667
1130.2	30.5645
1134.57	22.7837
1138.93	78.3354
1143.3	82.5415
1147.66	63.0845
1152.02	32.0254
1156.38	25.1499
1160.73	30.4062
1165.09	1.15234
1169.44	104.01
1173.79	209.04
1178.13	279.927
1182.47	286.646
1186.81	280.197
1191.15	271.57
1195.49	279.914
1199.82	211.904
1204.15	257.941
1208.48	264.526
1212.8	333.423
1217.13	342.636
1221.45	331.726
1225.77	240.773
1230.08	266.312
1234.39	299.806
1238.7	314.393
1243.01	261.338
1247.32	222.766
1251.62	247.529
1255.92	294.304
1260.22	265.786
1264.52	357.211
1268.81	321.99
1273.1	279.54
1277.39	482.777
1281.68	291.25
1285.96	395.418
1290.24	344.848
1294.52	356.584
1298.8	282.516
1303.07	369.275
1307.35	291.817
1311.62	235.218
1315.88	231.899
1320.15	248.968
1324.41	158.866
1328.67	89.6558
1332.92	216.401
1337.18	180.802
1341.43	201.5
1345.68	74.5825
1349.93	33.4463
1354.17	62.0898
1358.42	14.5259
1362.66	74.7202
1366.89	51.2114
1371.13	12.5308
1375.36	24.9702
1379.59	14.4009
1383.82	45.7524
1388.05	7.87549
1392.27	21.4707
1396.49	16.1436
1400.71	46.3315
1404.93	48.71
1409.14	11.0723
1413.35	113.389
1417.56	99.6387
1421.77	85.8237
1425.97	133.009
1430.17	188.145
1434.37	122.285
1438.57	0.515625
1442.76	182.796
1446.96	104.736
1451.15	170.764
1455.33	167.796
1459.52	90.4331
1463.7	46.4531
1467.88	53.5869
1472.06	157.349
1476.23	139.901
1480.41	203.413
1484.58	192.487
1488.75	94.9146
1492.91	129.606
1497.08	155.297
1501.24	233.04
1505.4	143.97
1509.55	137.216
1513.71	206.804
1517.86	109.056
1522.01	36.627
1526.15	217.296
1530.3	167.89
1534.44	80.8506
1538.58	14.6377
1542.72	148.98
1546.85	126.989
1550.99	155.759
1555.12	125.998
1559.24	138.344
1563.37	92.3672
1567.49	105.428
1571.62	72.2832
1575.73	152.708
