Measurement: Raman, 514 nm, depolarized, Raman Data Processed
Mineral: Pyrope
Rruff sample: R060441
Ideal chemistry: Mg_3_Al_2_(SiO_4_)_3_
Locality: Apache County, Arizona, USA
Source: Gemological Institute of America
Description: Deep red fragment
Measured chemistry: (Mg_1.83_Fe_0.75_Ca_0.39_Mn_0.03_)_Σ=3_(Al_1.95_Cr_0.05_)_Σ=2_(Si_1.00_O_4_)_3_
Pin_id: L00962
Orientation: Laser parallel to a [1 0 0]. Fiducial mark perpendicular to laser is parallel to -c* (0 0 -1)
Raman shift (cm-1)	intensity
62.899	0
67.89	80.1302
72.879	185.183
77.864	155.557
82.846	15.0443
87.824	68.7154
92.8	190.942
97.773	543.736
102.742	1236.29
107.708	2343.61
112.672	2348.86
117.632	3142.21
122.589	3252.3
127.543	3143.23
132.494	3153.93
137.441	3270.98
142.386	3273.2
147.328	3346
152.266	3043.73
157.202	2847.73
162.134	2604.42
167.063	2296.91
171.99	2236.26
176.913	2276.78
181.833	2413.43
186.75	2781.03
191.664	2669.62
196.575	2823.76
201.483	2912.33
206.388	3052.3
211.29	3013.57
216.189	2933.53
221.085	2538.76
225.977	2347.3
230.867	2164.47
235.754	2112.77
240.638	2113.18
245.518	1992.85
250.396	2033.13
255.271	1962.86
260.143	1946.93
265.011	1914.25
269.877	1884.72
274.74	1770.27
279.6	1756.99
284.457	1705.31
289.31	1639.73
294.161	1667.17
299.009	1767.44
303.854	1905.88
308.696	2144.78
313.535	2325.18
318.371	2639.77
323.204	2641.57
328.034	2994.99
332.861	3582.94
337.686	4710.37
342.507	6297.23
347.325	8504.49
352.141	12721.1
356.953	18462.1
361.763	21129.7
366.569	16985.9
371.373	11369.9
376.174	8070.67
380.972	5608.28
385.767	3824.59
390.559	2742.46
395.348	1836.83
400.134	1151.78
404.918	787.297
409.698	549.353
414.476	336.004
419.25	85.3106
424.022	79.2368
428.791	2.03565
433.557	89.8398
438.32	102.501
443.081	184.459
447.838	93.8311
452.593	97.7119
457.344	55.0845
462.093	57.8066
466.839	264.615
471.582	313.363
476.323	588.998
481.06	726.503
485.795	1047.82
490.526	1075.89
495.255	887.688
499.981	1176.17
504.705	1800.3
509.425	2400.03
514.143	1936.33
518.857	1491.14
523.569	1522.42
528.278	1693.13
532.985	1730.23
537.688	2070.21
542.389	2956.89
547.087	4246.19
551.782	6958.18
556.474	11694.2
561.164	14912.5
565.851	9667.65
570.535	4587.82
575.216	2341.09
579.894	1566.28
584.57	1087.65
589.243	1040.53
593.913	837.201
598.58	769.263
603.245	588.264
607.907	527.596
612.566	567.602
617.222	606.211
621.875	568.375
626.526	756.187
631.174	967.696
635.82	1549.62
640.462	2401.08
645.102	2637.88
649.739	1768.09
654.373	1169.77
659.005	716.923
663.634	519.521
668.26	423.554
672.884	262.013
677.504	12.8628
682.122	51.8115
686.738	35.8911
691.35	27.9936
695.96	31.9355
700.567	12.5513
705.172	135.237
709.774	7.94678
714.373	87.1094
718.969	3.57715
723.563	105.712
728.154	8.39697
732.743	101.277
737.328	26.0981
741.912	29.1572
746.492	54.4331
751.07	60.1387
755.645	6.29785
760.217	41.9023
764.787	78.0327
769.354	222.736
773.918	30.0269
778.48	60.9194
783.039	113.445
787.596	163.629
792.15	227.493
796.701	148.062
801.25	259.344
805.796	288.374
810.339	415.171
814.88	559.545
819.418	809.748
823.953	938.237
828.486	1253.39
833.016	1307.12
837.544	1550.68
842.069	2034.09
846.591	2975.93
851.111	4292.85
855.628	6388.79
860.143	8127.09
864.655	7754.81
869.164	6083.32
873.671	4755.39
878.176	4288.02
882.677	4368.24
887.176	5118.73
891.673	6562.19
896.167	8266.27
900.658	11565.5
905.147	18060.8
909.633	32432.6
914.117	58585.1
918.598	80985.2
923.077	67158.8
927.553	38707
932.026	20813.7
936.497	12384.9
940.966	7625.69
945.431	4973.05
949.895	3497.02
954.355	2779.74
958.814	2352.18
963.269	2029.43
967.723	1707.69
972.173	1511.37
976.621	1319.29
981.067	1275.21
985.51	1189.73
989.951	1075.85
994.389	878.023
998.824	797.127
1003.26	702.625
1007.69	666.025
1012.12	812.039
1016.54	1090.1
1020.96	1385.89
1025.38	1754.82
1029.8	1930.6
1034.22	2210.96
1038.63	2342.43
1043.04	2797.26
1047.45	3314.44
1051.86	3664.94
1056.26	3073.75
1060.66	2025.86
1065.06	1076.26
1069.45	580.973
1073.85	373.957
1078.24	153.196
1082.63	263.63
1087.01	247.955
1091.4	102.843
1095.78	2.1084
1100.16	108.949
1104.53	85.1123
1108.91	2.72266
1113.28	154.909
1117.65	103.544
1122.01	50.8447
1126.38	23.9941
1130.74	60.2549
1135.1	7.32617
1139.45	89.5156
1143.81	23.793
1148.16	12.2451
1152.51	11.8066
1156.86	45.1445
1161.2	85.7568
1165.54	157.174
1169.88	161.42
1174.22	173.478
1178.56	241.298
1182.89	196.87
1187.22	303.337
1191.55	293.744
1195.87	225.078
1200.19	351.892
1204.52	269.881
1208.83	282.5
1213.15	366.368
1217.46	335.099
1221.78	218.477
1226.08	275.665
1230.39	320.853
1234.69	229.916
1239	217.875
1243.3	175.694
1247.59	153.031
1251.89	244.886
1256.18	198.505
1260.47	339.944
1264.76	222.092
1269.04	337.617
1273.33	224.955
1277.61	183.004
1281.88	299.082
1286.16	219.411
1290.43	257.619
1294.7	206.311
1298.97	281.881
1303.24	167.569
1307.51	248.782
1311.77	263.853
1316.03	164.198
1320.28	203.548
1324.54	69.3789
1328.79	52.9697
1333.04	63.4902
1337.29	77.4277
1341.54	124.339
1345.78	55.998
1350.02	19.9395
1354.26	103.533
1358.5	142.99
1362.73	75.0801
1366.96	64.9111
1371.19	112.811
1375.42	82.4981
1379.65	175.084
1383.87	106.427
1388.09	63.7393
1392.31	52.0615
1396.52	138.358
1400.74	97.7148
1404.95	21.9297
1409.16	74.1269
1413.37	16.7061
1417.57	94.6748
1421.77	41.5293
1425.97	17.7939
1430.17	154.763
1434.37	1.73047
1438.56	67.7188
1442.75	50.0596
1446.94	133.318
1451.13	156.744
1455.31	5.04199
1459.5	207.603
1463.68	232.481
1467.85	122.084
1472.03	127.172
1476.2	199.332
1480.37	61.6533
1484.54	210.56
1488.71	248.568
1492.88	168.233
1497.04	237.736
1501.2	237.602
1505.36	241.038
1509.51	124.522
1513.66	276.47
1517.82	147.716
1521.97	51.1484
1526.11	145.567
1530.26	78.1055
1534.4	270.679
1538.54	22.2871
1542.68	170.977
1546.82	134.141
1550.95	222.988
1555.08	240.502
1559.21	13.585
1563.34	116.144
1567.46	137.365
1571.59	247.36
1575.71	94.1064
