Measurement: Raman, 514 nm, depolarized, Raman Data Processed
Mineral: Pyromorphite
Rruff sample: R050085
Ideal chemistry: Pb^2+^_5_(PO_4_)_3_Cl
Locality: Bunker Hill mine, Shoshone County, Idaho, USA
Source: Eugene Schlepp
Description: Group of orange hexagonal prisms
Measured chemistry: Pb_5.00_(P_0.96_As_0.04_O_4_)_3_Cl_1.00_
Pin_id: L00459
Orientation: Laser parallel to a* (1 0 0). Fiducial mark perpendicular to laser is parallel to c [0 0 1]
Raman shift (cm-1)	intensity
51.274	0
55.47	275.995
59.664	24.842
63.855	30.901
68.045	352.732
72.233	2227.35
76.418	4686.83
80.602	8639.13
84.784	19072.2
88.964	29374.6
93.142	23010.7
97.318	17845.8
101.492	24887
105.664	33482.9
109.834	25163
114.002	15245.1
118.168	10524.9
122.332	8239.51
126.495	7199.15
130.655	6910.9
134.813	7007.89
138.97	7632.02
143.124	8364.04
147.277	9035.07
151.427	9495.57
155.576	10005.8
159.723	9695.84
163.867	9308.35
168.01	9388.22
172.151	9698.15
176.29	10407.5
180.427	10822
184.562	11021.1
188.696	10507.5
192.827	9090.78
196.956	7647.48
201.084	6071.06
205.209	4970.86
209.333	4178.64
213.454	3682.51
217.574	3142.43
221.692	2709.56
225.808	2327.73
229.922	1914.32
234.034	1616.27
238.144	1279.52
242.252	1157.42
246.359	962.542
250.463	913.531
254.566	693.082
258.666	637.95
262.765	478.963
266.862	312.004
270.957	213.98
275.05	142.802
279.141	6.304
283.23	61.811
287.317	174.664
291.403	157.367
295.486	230.825
299.568	213.176
303.647	240.152
307.725	197.719
311.801	177.174
315.875	96.726
319.947	88.731
324.018	145.182
328.086	229.915
332.153	229.524
336.217	485.289
340.28	686.557
344.341	925.354
348.4	849.497
352.457	656.739
356.512	511.92
360.566	488.307
364.617	456.967
368.667	640.773
372.715	951.42
376.761	1271.43
380.805	1928.11
384.847	3413.53
388.887	5764.77
392.926	6672.71
396.962	5222.21
400.997	5454.24
405.03	8582.8
409.061	10458.8
413.09	8217.08
417.117	5974.66
421.143	3870.39
425.166	2461.24
429.188	1699.21
433.208	1300.22
437.226	1081.84
441.242	954.674
445.256	772.387
449.269	697.8
453.28	649.031
457.288	589.073
461.295	487.124
465.3	405.439
469.304	278.963
473.305	202.162
477.305	101.409
481.303	96.453
485.298	96.965
489.293	103.493
493.285	102.499
497.275	137.326
501.264	154.72
505.251	178.273
509.236	219.474
513.219	175.833
517.2	201.687
521.18	260.99
525.157	322.493
529.133	372.009
533.107	510.958
537.079	704.646
541.05	1103.32
545.018	1102.46
548.985	1326.33
552.95	1733.11
556.913	1294.56
560.875	906.802
564.834	879.258
568.792	1318.45
572.748	2258.2
576.702	1810.64
580.654	1106.96
584.605	708.984
588.553	616.549
592.5	554.963
596.445	541.92
600.389	530.08
604.33	559.134
608.27	524.352
612.208	536.968
616.144	475.979
620.078	487.27
624.011	446.952
627.941	399.643
631.87	397.964
635.798	326.462
639.723	256.221
643.647	217.597
647.568	167.376
651.488	151.593
655.407	90.825
659.323	69.325
663.238	84.129
667.151	21.686
671.062	4.55
674.971	9.465
678.879	3.024
682.785	21.152
686.689	8.893
690.591	15.439
694.491	32.211
698.39	42.964
702.287	74.656
706.182	80.358
710.076	80.022
713.968	101.548
717.857	119.014
721.746	82.401
725.632	66.504
729.517	32.226
733.4	9.581
737.281	19.092
741.16	18.663
745.038	66.719
748.913	74.106
752.788	24.816
756.66	45.287
760.531	106.151
764.399	210.128
768.267	328.937
772.132	437.695
775.996	694.397
779.857	942.116
783.718	1398.61
787.576	1831.43
791.433	2012.87
795.288	2018.52
799.141	1980.61
802.992	1885.23
806.842	2091.59
810.69	3339.89
814.536	7437.55
818.381	12527
822.223	8137.07
826.065	5702.07
829.904	4020.63
833.741	3454.13
837.577	3845.42
841.412	3848.54
845.244	4467.12
849.075	6568.93
852.904	6220.77
856.731	2761.48
860.556	844.795
864.38	291.265
868.202	187.413
872.023	175.764
875.842	350.086
879.658	341.093
883.474	405.013
887.287	476.487
891.099	633.834
894.909	1006.13
898.718	1693.86
902.524	3096.12
906.329	5739.57
910.133	11628.8
913.934	27023.9
917.734	55760.1
921.532	44447.1
925.329	26175.2
929.124	17694.1
932.917	18054
936.708	24174.8
940.498	36156.6
944.286	46799.2
948.072	42462.9
951.857	28047.5
955.64	17643.1
959.421	11179.7
963.201	7657.34
966.979	5903.97
970.755	4986.61
974.529	4574.33
978.302	4135.15
982.073	3749.11
985.843	3305.27
989.611	2967.6
993.377	2826.13
997.141	2980.81
1000.9	3427.65
1004.66	4164.64
1008.42	4780.77
1012.18	5612.07
1015.94	6183.49
1019.69	6639
1023.45	6461.46
1027.2	5516.74
1030.95	4512.91
1034.69	3726.43
1038.44	3317.45
1042.18	3052.39
1045.93	2896.29
1049.67	2330.17
1053.41	1927.42
1057.14	1675.71
1060.88	1490.29
1064.62	1278.06
1068.35	1269.52
1072.08	1389.06
1075.81	1315.11
1079.54	1230.17
1083.26	1063.86
1086.99	873.268
1090.71	935.907
1094.43	905.208
1098.15	799.101
1101.87	683.345
1105.59	531.214
1109.3	396.234
1113.01	300.249
1116.72	383.481
1120.43	567.908
1124.14	1049.5
1127.85	2025.03
1131.55	1484.5
1135.26	925.62
1138.96	679.18
1142.66	685.808
1146.36	800.375
1150.05	760.36
1153.75	597.685
1157.44	432.202
1161.13	188.864
1164.82	74.886
1168.51	34.401
1172.2	65.548
1175.88	84.839
1179.57	100.238
1183.25	94.507
1186.93	101.48
1190.61	107.048
1194.28	69.151
1197.96	49.948
1201.63	78.138
1205.31	53.226
1208.98	74.639
1212.64	60.707
1216.31	9.799
1219.98	16.999
1223.64	25.206
1227.31	16.065
1230.97	34.958
1234.62	19.683
1238.28	34.337
1241.94	65.403
1245.59	71.073
1249.25	39.905
1252.9	48.221
1256.55	88.6
1260.2	77.778
1263.84	105.125
1267.49	104.699
1271.13	107.829
1274.77	105.428
1278.41	111.187
1282.05	133.34
1285.69	151.833
1289.32	145.845
1292.96	179.85
1296.59	192.518
1300.22	218.905
1303.85	227.835
1307.48	220.004
1311.1	245.873
1314.72	272.095
1318.35	279.878
1321.97	260.641
1325.59	272.791
1329.21	268.137
1332.82	262.486
1336.44	254.252
1340.05	245.891
1343.66	245.051
1347.27	265.125
1350.88	242.419
1354.49	227.749
1358.09	264.698
1361.7	204.494
1365.3	226.9
1368.9	216.6
1372.5	203.473
1376.1	198.275
1379.69	194.907
1383.29	184.422
1386.88	171.862
1390.47	174.912
1394.06	127.885
1397.65	153.875
1401.23	108.581
1404.82	148.556
1408.4	133.156
1411.98	128.18
1415.56	92.779
1419.14	94.106
1422.72	87.264
1426.3	60.644
1429.87	42.35
1433.44	44.886
1437.01	33.075
1440.58	59.175
1444.15	55.151
1447.71	38.268
1451.28	75.826
1454.84	61.658
1458.4	83.026
1461.96	95.667
1465.52	85.427
1469.08	32.294
1472.64	27.773
1476.19	13.097
1479.74	2.185
1483.29	3.794
1486.84	13.356
1490.39	12.867
1493.94	3.674
1497.48	25.191
1501.02	16.146
1504.57	64.033
1508.11	391.469
1511.64	530.333
1515.18	369.779
1518.72	409.816
1522.25	322.374
1525.78	0
