Measurement: Raman, 514 nm, ccw, Raman Data Processed
Mineral: Pyrope
Rruff sample: R040159
Ideal chemistry: Mg_3_Al_2_(SiO_4_)_3_
Locality: Meronitz, Bohemia
Source: University of Arizona Mineral Museum
Description: Deep red crystal fragments
Measured chemistry: (Mg_2.17_Fe^2+^_0.47_Ca_0.34_Mn_0.02_)_Σ=3_(Al_1.86_Cr_0.11_Ti_0.03_)_Σ=2_((Si_0.99_Al_0.01_)_Σ=1_O_4_)_3_; trace amounts of Rb?
Pin_id: L01016
Orientation: Laser parallel to (1 1 0). Fiducial mark perpendicular to laser is parallel to -c [0 0 -1]
Raman shift (cm-1)	intensity
88.228	0
93.183	191.403
98.135	21.7505
103.085	122.559
108.032	531.425
112.976	799.76
117.917	755.053
122.856	763.364
127.792	691.457
132.725	655.701
137.656	782.1
142.583	770.096
147.508	637.607
152.431	563.192
157.35	313.636
162.267	57.7993
167.181	103.907
172.092	82.7195
177.001	43.4793
181.907	252.658
186.81	685.032
191.711	1100.52
196.608	1487.62
201.503	1977.89
206.395	2316.66
211.285	2252.32
216.172	1872.58
221.056	1392.65
225.937	1131.55
230.816	971.259
235.692	931.507
240.565	1003.84
245.436	1112.77
250.304	1100.06
255.169	1192.15
260.031	1111.77
264.891	1145.85
269.748	1143.5
274.602	1137.2
279.454	1111.87
284.303	1031.93
289.149	1110.62
293.992	1169.96
298.833	1223.68
303.671	1371.91
308.507	1656.26
313.339	2112.47
318.169	2354.82
322.996	2590.78
327.821	2725.75
332.643	3412.33
337.462	4410.49
342.279	6428.21
347.092	9500.46
351.904	14944.2
356.712	22356.6
361.518	25712.4
366.321	20148.8
371.121	12941.6
375.919	8522.94
380.714	5873.75
385.506	3894.1
390.296	2550.02
395.083	1744.43
399.867	1115.36
404.649	738.811
409.428	461.83
414.204	216.8
418.978	36.1782
423.749	54.0381
428.517	100.426
433.282	69.0559
438.045	36.3479
442.806	39.2893
447.563	4.93481
452.318	109.885
457.07	228.405
461.82	516.615
466.567	759.416
471.311	938.664
476.053	1194.29
480.792	1504.24
485.528	2117.51
490.262	2094.04
494.992	1831.82
499.721	2121.77
504.446	3231.85
509.169	3913.05
513.89	3149.32
518.607	2541.67
523.322	2454.07
528.035	2606.49
532.745	2903.92
537.452	3532.33
542.156	5063.82
546.858	7714.2
551.557	12644.7
556.254	19427.1
560.947	19594.6
565.639	10947
570.327	5187.58
575.013	2862.53
579.697	2006.36
584.377	1597.4
589.055	1573.89
593.731	1294.96
598.403	1092.13
603.074	870.873
607.741	820.81
612.406	812.472
617.068	829.818
621.728	960.947
626.385	1205.38
631.039	1882.45
635.691	3253.51
640.34	4880.52
644.987	4556.96
649.63	2805.81
654.272	1683.08
658.91	1079.74
663.546	741.813
668.18	473.279
672.81	318.142
677.439	203.399
682.064	53.0476
686.687	110.975
691.307	76.9158
695.925	8.11743
700.54	8.39477
705.153	65.4941
709.763	28.4343
714.37	42.2385
718.974	19.7844
723.577	41.6873
728.176	67.6279
732.773	77.1509
737.367	22.5398
741.959	2.95361
746.548	25.7988
751.134	6.6189
755.718	45.561
760.299	13.3384
764.878	0.37915
769.454	57.4216
774.028	6.34546
778.598	56.1292
783.167	53.9983
787.732	129.954
792.295	96.6946
796.856	252.243
801.414	230.625
805.969	310.863
810.522	391.312
815.072	676.01
819.62	877.184
824.165	1150.35
828.707	1468.62
833.247	1815.74
837.784	2352.45
842.319	3291.36
846.851	5282.72
851.381	8121.63
855.908	12338.2
860.432	14860.7
864.954	12757.6
869.473	9342.72
873.99	7117.7
878.504	6307.15
883.015	6121.08
887.524	7192.39
892.031	8908.18
896.535	11062.5
901.036	15435.9
905.535	25228.6
910.031	45128
914.524	75673.6
919.015	96970.9
923.504	69810.7
927.99	38061.2
932.473	20890.3
936.954	12516.2
941.432	7725.63
945.908	5215.78
950.381	3709.6
954.852	2962.12
959.32	2494.39
963.785	2162.52
968.248	1774.88
972.708	1694.13
977.166	1421.8
981.622	1486.45
986.074	1416.67
990.525	1174.09
994.972	981.284
999.417	799.994
1003.86	874.194
1008.3	699.983
1012.74	919.959
1017.17	1264.74
1021.61	1604.05
1026.04	1937.13
1030.46	2408.15
1034.89	2636.68
1039.31	3177.05
1043.73	4089.89
1048.15	5277.12
1052.56	6530.72
1056.97	5882.66
1061.38	3105.95
1065.79	1957.55
1070.19	920.438
1074.6	692.609
1079	382.047
1083.39	242.735
1087.79	167.656
1092.18	136.823
1096.57	99.1892
1100.96	18.7219
1105.34	38.4028
1109.72	31.1436
1114.1	72.0017
1118.48	48.7246
1122.85	66.6843
1127.22	91.8198
1131.6	44.3923
1135.96	77.3376
1140.33	4.91016
1144.69	18.0935
1149.05	25.0281
1153.4	3.49414
1157.76	108.662
1162.11	29.501
1166.46	91.0432
1170.81	88.3677
1175.15	233.453
1179.49	242.289
1183.83	184.862
1188.17	295.158
1192.5	226.151
1196.84	273.848
1201.16	263.28
1205.49	346.502
1209.82	375.316
1214.14	278.326
1218.46	302.527
1222.77	255.407
1227.09	293.043
1231.4	327.01
1235.71	312.981
1240.02	307.671
1244.32	299.952
1248.62	330.008
1252.92	194.957
1257.22	252.168
1261.51	268.905
1265.81	280.244
1270.1	344.349
1274.38	314.694
1278.67	272.735
1282.95	300.062
1287.23	225.779
1291.51	274.793
1295.78	288.077
1300.05	282.838
1304.32	240.368
1308.59	286.657
1312.86	184.871
1317.12	258.49
1321.38	119.573
1325.63	204.165
1329.89	122.535
1334.14	96.2764
1338.39	136.742
1342.64	55.9815
1346.88	17.2034
1351.13	49.2229
1355.37	31.0505
1359.61	44.5161
1363.84	72.6448
1368.07	4.43726
1372.3	96.783
1376.53	11.8972
1380.76	15.791
1384.98	60.5974
1389.2	75.4639
1393.42	79.3181
1397.64	26.1482
1401.85	21.073
1406.06	33.4502
1410.27	58.1238
1414.47	101.517
1418.68	36.7358
1422.88	102.712
1427.08	26.4517
1431.27	20.9341
1435.47	7.19043
1439.66	16.2642
1443.85	119.188
1448.03	32.0308
1452.22	115.316
1456.4	133.031
1460.58	82.0051
1464.76	98.5801
1468.93	98.407
1473.1	182.882
1477.27	125.965
1481.44	103.89
1485.6	181.021
1489.77	49.6807
1493.92	125.589
1498.08	169.804
1502.24	183.774
1506.39	129.182
1510.54	77.0928
1514.69	130.175
1518.83	71.936
1522.97	65.7715
1527.12	101.082
1531.25	71.1311
1535.39	53.783
1539.52	106.351
1543.65	72.7048
1547.78	46.4878
1551.91	113.815
1556.03	98.5061
1560.15	59.3489
1564.27	58.9465
1568.39	48.0173
1572.5	71.4326
1576.61	0
