Measurement: Raman, 514 nm, ccw, Raman Data Processed
Mineral: Pyrope
Rruff sample: R040159
Ideal chemistry: Mg_3_Al_2_(SiO_4_)_3_
Locality: Meronitz, Bohemia
Source: University of Arizona Mineral Museum
Description: Deep red crystal fragments
Measured chemistry: (Mg_2.17_Fe^2+^_0.47_Ca_0.34_Mn_0.02_)_Σ=3_(Al_1.86_Cr_0.11_Ti_0.03_)_Σ=2_((Si_0.99_Al_0.01_)_Σ=1_O_4_)_3_; trace amounts of Rb?
Pin_id: L01351
Orientation: Laser parallel to (1 1 1). Fiducial mark perpendicular to laser is parallel to [-1 1 0]
Raman shift (cm-1)	intensity
88.228	0
93.183	121.416
98.135	2.76221
103.085	92.1616
108.032	377.943
112.976	571.679
117.917	1028.89
122.856	817.645
127.792	753.046
132.725	749.264
137.656	727.168
142.583	875.133
147.508	590.293
152.431	517.52
157.35	280.188
162.267	115.939
167.181	41.9839
172.092	13.729
177.001	54.7583
181.907	231.442
186.81	670.408
191.711	1073.69
196.608	1469.14
201.503	1963.02
206.395	2235.62
211.285	2256.74
216.172	1901.9
221.056	1419.1
225.937	1200.36
230.816	990.656
235.692	1045.1
240.565	1099.5
245.436	1200.86
250.304	1308.97
255.169	1285.15
260.031	1188.47
264.891	1337.36
269.748	1219.95
274.602	1295.41
279.454	1302.2
284.303	1242.53
289.149	1278.23
293.992	1260.96
298.833	1445.79
303.671	1469.56
308.507	1816.71
313.339	2276.21
318.169	2618.2
322.996	2780.91
327.821	2939.49
332.643	3691.85
337.462	4879.98
342.279	6800.82
347.092	10142.4
351.904	15674.6
356.712	23683.6
361.518	28346.3
366.321	22895.6
371.121	14855.7
375.919	9921.34
380.714	6490.69
385.506	4631.77
390.296	3076.6
395.083	2110.13
399.867	1237.35
404.649	835.273
409.428	548.022
414.204	348.542
418.978	127.977
423.749	88.4717
428.517	27.4956
433.282	180.163
438.045	15.0757
442.806	0.199219
447.563	54.022
452.318	77.6709
457.07	159.129
461.82	628.645
466.567	839.06
471.311	1046.19
476.053	1278.98
480.792	1704.23
485.528	2083.12
490.262	2104.59
494.992	1742.63
499.721	2106.11
504.446	3015.85
509.169	3652.96
513.89	3191.28
518.607	2890.84
523.322	2812.61
528.035	3064.57
532.745	3328.69
537.452	4029.95
542.156	5740.88
546.858	9803.13
551.557	14312.7
556.254	22530.4
560.947	21631.7
565.639	13049
570.327	5545.87
575.013	3141.64
579.697	2082.73
584.377	1838.52
589.055	1603.43
593.731	1410.1
598.403	1178.55
603.074	881.237
607.741	776.523
612.406	819.737
617.068	906.838
621.728	980.392
626.385	1369.16
631.039	2148.38
635.691	3391.51
640.34	4958.98
644.987	4993.93
649.63	3070.34
654.272	1845.2
658.91	1338.49
663.546	864.215
668.18	515.361
672.81	343.925
677.439	200.9
682.064	90.2681
686.687	6.96289
691.307	71.7031
695.925	42.375
700.54	69.7695
705.153	67.7178
709.763	8.99756
714.37	90.21
718.974	21.4033
723.577	20.1221
728.176	23.9868
732.773	41.0415
737.367	67.1294
741.959	46.1484
746.548	41.938
751.134	21.6587
755.718	66.8467
760.299	94.2056
764.878	91.1987
769.454	45.0063
774.028	71.4043
778.598	90.3296
783.167	134.928
787.732	169.22
792.295	226.228
796.856	241.155
801.414	326.798
805.969	388.781
810.522	619.885
815.072	662.823
819.62	920.625
824.165	1242.6
828.707	1467.77
833.247	1946.61
837.784	2359.85
842.319	3287.36
846.851	5005.27
851.381	7558.23
855.908	11434.7
860.432	14168.6
864.954	12985.6
869.473	9657.23
873.99	7625.91
878.504	6311.64
883.015	6328.08
887.524	7196.85
892.031	8505.48
896.535	10762.9
901.036	14717.6
905.535	24028.7
910.031	43129.6
914.524	72818.3
919.015	90619.5
923.504	67968.3
927.99	37781.7
932.473	21018.7
936.954	12772.3
941.432	7964.59
945.908	5332.08
950.381	3818.03
954.852	3111.24
959.32	2750.18
963.785	2368.95
968.248	2050.23
972.708	1850.04
977.166	1672.96
981.622	1600.45
986.074	1494.19
990.525	1247.54
994.972	1013.9
999.417	769.808
1003.86	754.047
1008.3	709.381
1012.74	842.126
1017.17	1135.35
1021.61	1512.79
1026.04	1905.73
1030.46	2238.85
1034.89	2389.96
1039.31	2808.23
1043.73	3531.49
1048.15	4488.69
1052.56	5055.27
1056.97	4350.22
1061.38	2685.53
1065.79	1537.18
1070.19	886.139
1074.6	511.416
1079	366.681
1083.39	283.802
1087.79	190.875
1092.18	99.2519
1096.57	23.1025
1100.96	21.7285
1105.34	32.3101
1109.72	20.3306
1114.1	90.437
1118.48	63.876
1122.85	69.6475
1127.22	28.7412
1131.6	29.1265
1135.96	96.8579
1140.33	25.7856
1144.69	18.1719
1149.05	37.752
1153.4	25.1655
1157.76	63.3926
1162.11	54.4336
1166.46	101.008
1170.81	61.4292
1175.15	109.551
1179.49	220.455
1183.83	267.11
1188.17	263.584
1192.5	281.127
1196.84	244.667
1201.16	316.006
1205.49	339.505
1209.82	286.616
1214.14	315.431
1218.46	306.127
1222.77	303.488
1227.09	325.578
1231.4	278.419
1235.71	313.105
1240.02	241.599
1244.32	272.959
1248.62	270.951
1252.92	306.008
1257.22	204.944
1261.51	358.305
1265.81	337.711
1270.1	310.455
1274.38	349.035
1278.67	493.744
1282.95	363.06
1287.23	304.052
1291.51	206.059
1295.78	236.785
1300.05	298.251
1304.32	259.822
1308.59	214.48
1312.86	223.929
1317.12	204.935
1321.38	158.23
1325.63	110.177
1329.89	98.7134
1334.14	148.617
1338.39	110.524
1342.64	92.0041
1346.88	33.769
1351.13	7.08398
1355.37	109.202
1359.61	42.3672
1363.84	71.948
1368.07	97.5391
1372.3	26.9988
1376.53	76.762
1380.76	5.34424
1384.98	41.7527
1389.2	64.6731
1393.42	73.0076
1397.64	50.0356
1401.85	12.0496
1406.06	93.9868
1410.27	44.8059
1414.47	26.5796
1418.68	102.339
1422.88	20.8147
1427.08	102.038
1431.27	64.0823
1435.47	41.8369
1439.66	35.272
1443.85	33.4089
1448.03	5.54858
1452.22	432.303
1456.4	131.897
1460.58	226.263
1464.76	102.702
1468.93	143.396
1473.1	180.893
1477.27	119.001
1481.44	142.875
1485.6	55.1802
1489.77	123.984
1493.92	143.114
1498.08	74.8289
1502.24	71.4172
1506.39	169.417
1510.54	206.412
1514.69	189.551
1518.83	91.7554
1522.97	170.912
1527.12	145.689
1531.25	64.7954
1535.39	66.7158
1539.52	67.2847
1543.65	105.145
1547.78	112.426
1551.91	135.298
1556.03	113.908
1560.15	48.0923
1564.27	21.2163
1568.39	8.5581
1572.5	65.1157
1576.61	0
