Measurement: Raman, 514 nm, ccw, Raman Data Processed
Mineral: Pyromorphite
Rruff sample: R060285
Ideal chemistry: Pb^2+^_5_(PO_4_)_3_Cl
Locality: Les Farges mine, Correze Ussel, France
Source: Herb Obodda
Description: Aggregate of green hexagonal prisms
Measured chemistry: Pb_5.00_((P_0.99_As_0.01_)_Î£=1_O_4_)_3_Cl_1.00_
Pin_id: M01413
Orientation: Laser parallel to -c* (0 0 -1). Fiducial mark perpendicular to laser is parallel to a [1 0 0]
Raman shift (cm-1)	intensity
74.326	0
79.268	8523.89
84.207	27474.2
89.143	35600.1
94.077	25038.4
99.009	22517.5
103.938	34382.1
108.865	29565.4
113.79	15054.6
118.712	5973.17
123.632	1386.09
128.549	1091.54
133.464	743.172
138.377	278.297
143.287	1781.3
148.195	3855.41
153.101	5495.75
158.004	7714.45
162.905	7115.66
167.803	6706.11
172.699	6676.56
177.592	6408.72
182.483	6284.38
187.372	5358.69
192.259	4830.61
197.142	4441.7
202.024	3848
206.903	2521.14
211.78	2347.42
216.654	2349.19
221.526	1188.89
226.395	601.594
231.262	566.031
236.127	36.5156
240.989	3.8125
245.849	249.344
250.707	127.219
255.562	112.312
260.414	21.6094
265.264	899.281
270.112	80.1875
274.957	518.188
279.8	55.1562
284.641	43.4844
289.479	92.3906
294.314	205.469
299.148	1109.08
303.978	454
308.807	250.578
313.633	710.5
318.456	1583.14
323.277	2278.8
328.096	1736.83
332.912	2510.83
337.726	2310.03
342.537	2125.38
347.346	2334.88
352.152	2839.91
356.956	2743.81
361.758	3761.94
366.557	3696.12
371.354	4269.3
376.148	4332.59
380.94	5187.94
385.729	7561.2
390.516	8891.59
395.301	7953.62
400.083	6277.12
404.862	6448.22
409.639	7890.42
414.414	8638.5
419.186	7557.88
423.956	5041.62
428.723	3058.84
433.488	2367.83
438.25	2232.67
443.01	1547.19
447.768	1004.7
452.523	1048.11
457.275	721.469
462.025	423.203
466.773	789.625
471.518	474.938
476.261	20.5781
481.001	872.969
485.739	765.719
490.474	412.406
495.207	304.484
499.938	419.656
504.666	324.656
509.391	892.719
514.114	342.094
518.834	511.922
523.552	764.938
528.268	1068.72
532.981	1509.94
537.692	2435.77
542.4	2746.38
547.106	2842.75
551.809	3389.28
556.509	3023
561.208	3063.92
565.903	2888.22
570.597	4910.17
575.287	5193.28
579.976	3499
584.662	1907.89
589.345	1358.36
594.026	783.531
598.704	1384.11
603.38	928.641
608.053	629.203
612.724	539.953
617.393	1068.77
622.059	1099.25
626.722	152.406
631.383	745.844
636.041	855.031
640.697	484.953
645.351	171.172
650.002	466.906
654.65	341.531
659.296	56.1719
663.94	102.797
668.581	455.578
673.219	167.438
677.855	139.75
682.489	214.75
687.119	198.906
691.748	383.641
696.374	291.625
700.997	649.125
705.618	178.344
710.237	1182.33
714.853	761.344
719.466	1248.64
724.077	1808.84
728.686	1171.44
733.291	1818.17
737.895	1848.44
742.496	1633.47
747.094	2440.86
751.69	2693.98
756.283	3134
760.874	3203.36
765.463	4904.52
770.048	6289.91
774.632	8405.88
779.212	11577.6
783.791	17453.2
788.367	24001.5
792.94	30363.1
797.51	32961.8
802.079	30467.1
806.644	24079.6
811.207	19397.8
815.768	17795.8
820.326	16821.3
824.882	13152.1
829.435	8857.19
833.985	6252.28
838.533	5534.97
843.079	4660.31
847.622	3814.06
852.162	1863.22
856.7	1310.25
861.236	487.75
865.768	115.844
870.299	691.844
874.827	1144.56
879.352	190.625
883.875	110.562
888.395	1286.78
892.912	2275.84
897.428	3668.06
901.94	5731.47
906.45	13457.2
910.958	29192.3
915.463	62771.2
919.965	79553.3
924.465	51513.1
928.963	27921.7
933.457	19330.6
937.95	20232.9
942.439	25848.6
946.927	25842.5
951.411	20241.2
955.894	13401.8
960.373	8730.62
964.85	6441.97
969.325	5962.66
973.797	5426.72
978.266	4552.72
982.733	4667.41
987.197	3818.66
991.659	2231.91
996.118	2455.94
1000.58	3573.09
1005.03	4011.47
1009.48	4707.03
1013.93	3927.5
1018.38	2041.81
1022.82	899.281
1027.26	423.062
1031.7	435.781
1036.14	236.938
1040.57	1210.5
1045	1482.03
1049.43	1915.91
1053.86	1787.12
1058.28	2787.22
1062.7	2104.19
1067.12	2777.5
1071.54	3275.91
1075.95	1962.62
1080.36	2928.31
1084.77	2515.12
1089.17	2225.66
1093.58	2906.56
1097.98	2536.84
1102.38	1939.56
1106.77	1229.25
1111.16	2261.38
1115.55	887.906
1119.94	1182.12
1124.33	2192.16
1128.71	1520.56
1133.09	1121.5
1137.47	1251
1141.84	2214.84
1146.21	2085.94
1150.58	1590.16
1154.95	1498.53
1159.32	1245.34
1163.68	805.625
1168.04	15.5
1172.39	594.5
1176.75	933.531
1181.1	622.25
1185.45	116.125
1189.8	319.406
1194.14	243.25
1198.48	0.9375
1202.82	295.844
1207.16	504.406
1211.49	463.719
1215.82	111.625
1220.15	1482.47
1224.48	1760
1228.8	530.25
1233.12	266.062
1237.44	1333.5
1241.76	620.75
1246.07	1105.28
1250.38	2689.78
1254.69	1642.59
1258.99	2687.97
1263.3	2886.59
1267.6	1831.91
1271.89	1720.03
1276.19	2121.06
1280.48	2200
1284.77	2181.91
1289.06	646.25
1293.35	1090.41
1297.63	2101.88
1301.91	1729.97
1306.18	3461.41
1310.46	2482.78
1314.73	1425.44
1319	2680
1323.27	1481.5
1327.53	2519.38
1331.79	2764.69
1336.05	2070.31
1340.31	3496.28
1344.56	2794.5
1348.81	2708.53
1353.06	3499.81
1357.31	1969
1361.55	2917.72
1365.79	3046.09
1370.03	2668.81
1374.27	2748.75
1378.5	2929.91
1382.73	1882.25
1386.96	2500.84
1391.19	2119.34
1395.41	2167.72
1399.63	1144.06
1403.85	1490.66
1408.06	1978.28
1412.28	950.469
1416.48	2363.84
1420.69	1726.28
1424.9	538.438
1429.1	1625.94
1433.3	1563.25
1437.5	575.688
1441.69	1227.66
1445.88	1404.62
1450.07	1366.06
1454.26	977
1458.44	1515.66
1462.62	375.875
1466.8	613.219
1470.98	17.9062
1475.15	405.719
1479.32	234.781
1483.49	566.156
1487.66	1007.5
1491.82	634.531
1495.98	694.875
1500.14	1049.97
1504.3	1025.16
1508.45	848.062
1512.6	741.781
1516.75	1857.25
1520.89	1426
1525.04	1745.94
1529.17	1090.41
1533.31	2232.97
1537.45	1161.72
1541.58	71.1875
1545.71	16.75
1549.84	1854.12
1553.96	2423.56
1558.08	1561.75
1562.2	674.688
1566.32	1179.94
1570.43	1818.88
1574.54	855.062
1578.65	0
