Measurement: Raman, 514 nm, depolarized, Raman Data Processed
Mineral: Pyrope
Rruff sample: R050113
Ideal chemistry: Mg_3_Al_2_(SiO_4_)_3_
Locality: Warsik, Pakistan
Source: Farooq and Nazia Sawal
Description: Reddish-purple fragment
Measured chemistry: (Mg_1.83_Fe^2+^_1.12_Ca_0.03_Mn_0.02_)_Σ=3_(Al_1.82_Fe^3+^_0.18_)_Σ=2_((Si_0.99_Al_0.01_)_Σ=1_O_4_)_3_
Pin_id: L00210
Orientation: Laser parallel to -a* (-1 0 0). Fiducial mark perpendicular to laser is parallel to b [0 1 0]
Raman shift (cm-1)	intensity
111.566	0
115.744	2.812
119.919	316.908
124.092	186.359
128.263	52.766
132.432	193.272
136.599	206.017
140.764	189.07
144.927	93.852
149.088	74.608
153.247	371.128
157.404	687.555
161.559	1854.98
165.711	1983.9
169.862	1064.32
174.011	638.048
178.158	429.128
182.303	178.41
186.446	54.809
190.587	37.016
194.726	36.639
198.862	28
202.997	58.51
207.13	309.131
211.261	829.947
215.39	1236.58
219.517	1028.94
223.642	663.982
227.765	384.708
231.886	273.968
236.005	209.125
240.122	141.955
244.237	88.246
248.35	103.334
252.461	58.242
256.57	32.932
260.677	9.333
264.782	19.551
268.885	42.838
272.986	19.618
277.085	56.381
281.182	82.789
285.278	187.727
289.371	297.23
293.462	403.871
297.552	576.82
301.639	679.548
305.724	829.522
309.808	1227.16
313.889	1911.04
317.969	3050.9
322.046	3985.29
326.122	3638.99
330.196	3288.37
334.267	4320.48
338.337	7598.27
342.405	13740.6
346.471	14760.4
350.535	8715.86
354.597	4616.59
358.657	3180
362.715	3202.68
366.771	4709.95
370.825	6374.95
374.877	5085.29
378.928	2742.64
382.976	1366.92
387.023	783.151
391.067	448.287
395.11	367.179
399.15	239.937
403.189	113.624
407.226	112.811
411.261	54.598
415.294	60.794
419.325	21.04
423.354	26.679
427.381	45.433
431.406	72.663
435.43	31.785
439.451	6.499
443.471	4.229
447.488	39.945
451.504	55.356
455.518	55.325
459.53	75.14
463.54	192.632
467.548	292.829
471.554	646.771
475.558	719.485
479.561	427.978
483.561	228.247
487.559	351.3
491.556	636.623
495.551	1559.95
499.544	2174.28
503.535	1409.78
507.524	708.088
511.511	446.34
515.496	417.777
519.48	408.966
523.461	480.861
527.441	512.86
531.418	477.705
535.394	623.303
539.368	900.89
543.34	1455.67
547.311	2640.77
551.279	4322.75
555.245	4597.85
559.21	2777.02
563.173	1575.12
567.133	937.78
571.092	740.942
575.049	659.152
579.005	558.67
582.958	499.454
586.909	539.681
590.859	695.707
594.807	722.086
598.753	508.647
602.697	365.063
606.639	339.512
610.579	362.07
614.518	367.512
618.454	415.241
622.389	516.574
626.322	635.99
630.253	764.49
634.182	631.791
638.109	361.897
642.035	245.81
645.958	140.532
649.88	92.059
653.8	96.79
657.718	56.505
661.634	56.422
665.549	30.11
669.461	6.504
673.372	29.432
677.281	49.769
681.188	28.555
685.093	16.512
688.997	41.301
692.898	66.303
696.798	6.154
700.696	78.728
704.592	44.052
708.486	3.744
712.378	3.687
716.269	33.184
720.158	48.918
724.045	12.522
727.93	33.982
731.813	33.309
735.694	84.541
739.574	39.716
743.452	102.843
747.328	193.933
751.202	266.988
755.075	324.003
758.945	319.979
762.814	243.92
766.681	168.826
770.546	144.699
774.409	63.541
778.271	161.35
782.131	128.124
785.989	227.864
789.845	202.574
793.699	237.005
797.552	219.93
801.402	264.472
805.251	382.459
809.098	504.468
812.944	598.167
816.787	501.792
820.629	412.405
824.469	364.402
828.307	336.774
832.144	358.299
835.978	456.052
839.811	545.273
843.642	772.695
847.472	984.487
851.299	1364.62
855.125	1888.64
858.949	2082.68
862.771	1836.05
866.591	1590.64
870.41	1697.5
874.227	1874.71
878.042	2326.73
881.855	2931.09
885.667	3899.04
889.476	5198.19
893.284	6671.58
897.09	9166.12
900.895	14258.8
904.698	24031.7
908.499	40644.7
912.298	50087.9
916.095	38351.3
919.891	23004.8
923.685	13758.6
927.477	8492.45
931.267	5342.52
935.056	3586.77
938.843	2560.2
942.628	1918.82
946.411	1542.62
950.193	1373.6
953.973	1128.78
957.751	1070.27
961.527	1068.69
965.302	1198.17
969.075	1398.67
972.846	1693.02
976.615	1885.43
980.383	1553.64
984.149	1050.22
987.913	857.962
991.675	678
995.436	569.706
999.195	571.849
1002.95	582.926
1006.71	610.728
1010.46	674.086
1014.21	766.4
1017.96	866.907
1021.71	1057.59
1025.46	1356.43
1029.2	1776.45
1032.95	2193.7
1036.69	1939.14
1040.43	1434.78
1044.17	896.591
1047.9	565.531
1051.64	400.621
1055.37	256.871
1059.1	237.259
1062.83	180.773
1066.56	123.402
1070.29	112.154
1074.01	59.03
1077.73	77.004
1081.46	25.086
1085.17	93.267
1088.89	114.549
1092.61	140.913
1096.32	42.344
1100.04	46.836
1103.75	16.619
1107.46	23.053
1111.16	65.5
1114.87	58.123
1118.57	12.026
1122.28	179.131
1125.98	24.261
1129.67	54.661
1133.37	70.82
1137.07	2.68
1140.76	6.03
1144.45	18.118
1148.14	63.296
1151.83	137.106
1155.52	166.355
1159.21	155.178
1162.89	178.76
1166.57	183.425
1170.25	234.354
1173.93	246.195
1177.61	262.562
1181.28	250.31
1184.96	182.349
1188.63	173.057
1192.3	201.211
1195.97	146.433
1199.64	170.685
1203.3	189.475
1206.97	220.522
1210.63	190.114
1214.29	166.522
1217.95	149.426
1221.6	137.743
1225.26	120.828
1228.91	110.143
1232.57	211.313
1236.21	252.419
1239.86	279.127
1243.51	209.14
1247.16	209.487
1250.8	290.36
1254.44	262.903
1258.08	287.084
1261.72	333.312
1265.36	265.891
1268.99	294.649
1272.63	312.606
1276.26	296.652
1279.89	244.339
1283.52	209.914
1287.15	193.933
1290.77	120.091
1294.4	61.239
1298.02	116.131
1301.64	110.753
1305.26	103.085
1308.88	41.162
1312.49	26.022
1316.11	32.683
1319.72	5.136
1323.33	9.249
1326.94	35.067
1330.55	18.592
1334.15	29.792
1337.76	55.712
1341.36	22.6
1344.96	31.174
1348.56	2.984
1352.16	72.898
1355.75	7.596
1359.35	8.081
1362.94	37.358
1366.53	24.458
1370.12	60.481
1373.71	46.54
1377.3	29.683
1380.88	13.046
1384.46	42.113
1388.05	37.942
1391.63	47.889
1395.2	45.788
1398.78	73.646
1402.36	106.956
1405.93	97.287
1409.5	66.687
1413.07	65.352
1416.64	95.494
1420.21	73.181
1423.78	69.62
1427.34	50.031
1430.9	37.641
1434.46	71.312
1438.02	104.824
1441.58	142.203
1445.13	95.2
1448.69	117.163
1452.24	62.381
1455.79	49.612
1459.34	28.009
1462.89	111.406
1466.44	112
1469.98	76.615
1473.53	88.844
1477.07	96.247
1480.61	122.85
1484.14	136.88
1487.68	98.59
1491.22	144.091
1494.75	54.256
1498.28	92.359
1501.81	55.207
1505.34	61.205
1508.87	1.908
1512.4	3.233
1515.92	0
