Measurement: Raman, 514 nm, depolarized, Raman Data Processed
Mineral: Pyrope
Rruff sample: R050112
Ideal chemistry: Mg_3_Al_2_(SiO_4_)_3_
Locality: Cruzeiro mine, San Jose, Minas Gerais, Brazil
Source: Carlos and Paulo Vasconcelos
Description: Dark red crystal fragment
Measured chemistry: (Mg_1.49_Fe^2+^_1.18_Ca_0.29_Mn_0.04_)_Σ=3_(Al_1.99_Fe^3+^_0.01_)_Σ=2_(Si_1.00_O_4_)_3_
Pin_id: L00493
Orientation: Laser parallel to -a* (-1 0 0). Fiducial mark perpendicular to laser is parallel to -b [0 -1 0]
Raman shift (cm-1)	intensity
82.27	0
86.461	146.401
90.65	36.784
94.838	73.232
99.023	82.439
103.206	23.614
107.387	123.499
111.566	79.09
115.744	87.607
119.919	165.437
124.092	178.083
128.263	147.271
132.432	188.1
136.599	214.708
140.764	237.042
144.927	246.772
149.088	156.325
153.247	199.316
157.404	132.228
161.559	1.504
165.711	60.531
169.862	29.432
174.011	144.433
178.158	241.914
182.303	203.749
186.446	81.82
190.587	41.873
194.726	68.69
198.862	133.27
202.997	244.547
207.13	343.308
211.261	361.022
215.39	272.411
219.517	226.626
223.642	112.579
227.765	130.393
231.886	159.143
236.005	170.832
240.122	180.418
244.237	198.918
248.35	187.566
252.461	225.689
256.57	248.863
260.677	287.24
264.782	294.572
268.885	317.623
272.986	327.605
277.085	364.018
281.182	376.836
285.278	374.13
289.371	397.423
293.462	472.272
297.552	507.61
301.639	497.23
305.724	588.513
309.808	720.088
313.889	897.722
317.969	1019.1
322.046	1057.8
326.122	1247.14
330.196	1596.17
334.267	2139.05
338.337	2874.86
342.405	3809.2
346.471	5252.91
350.535	7938.28
354.597	10783.7
358.657	10188.5
362.715	7238.47
366.771	5056.66
370.825	3981.41
374.877	3282.21
378.928	2522.07
382.976	1854.89
387.023	1277.81
391.067	865.459
395.11	608.196
399.15	395.241
403.189	280.55
407.226	201.12
411.261	145.756
415.294	56.527
419.325	43.139
423.354	24.563
427.381	7.212
431.406	3.217
435.43	17.557
439.451	0.14
443.471	12.45
447.488	8.236
451.504	5.254
455.518	0.428
459.53	65.279
463.54	62.885
467.548	87.387
471.554	168.792
475.558	193.113
479.561	330.358
483.561	443.529
487.559	444.659
491.556	344.809
495.551	494.146
499.544	622.394
503.535	1161.63
507.524	1252.77
511.511	815.955
515.496	610.505
519.48	598.309
523.461	651.124
527.441	690.609
531.418	697.938
535.394	812.749
539.368	975.646
543.34	1316.58
547.311	1837.75
551.279	2813.66
555.245	4887.23
559.21	6293.57
563.173	4608.31
567.133	2432.7
571.092	1541.94
575.049	880.926
579.005	631.787
582.958	539.939
586.909	518.813
590.859	441.456
594.807	429.846
598.753	316.152
602.697	340.272
606.639	378.485
610.579	359.749
614.518	312.753
618.454	210.448
622.389	223.376
626.322	229.196
630.253	310.679
634.182	560.044
638.109	832.29
642.035	824.418
645.958	601.427
649.88	409.32
653.8	290.093
657.718	215.747
661.634	153.281
665.549	116.698
669.461	74.999
673.372	43.174
677.281	18.215
681.188	17.119
685.093	14.868
688.997	0.423
692.898	50.247
696.798	25.266
700.696	57.587
704.592	30.271
708.486	10.24
712.378	24.423
716.269	3.12
720.158	11.52
724.045	9.318
727.93	0.246
731.813	7.694
735.694	17.515
739.574	12.764
743.452	7.877
747.328	13.5
751.202	31.071
755.075	25.606
758.945	33.111
762.814	38.611
766.681	28.125
770.546	38.624
774.409	19.103
778.271	12.555
782.131	43.984
785.989	17.385
789.845	44.758
793.699	79.107
797.552	57.434
801.402	116.744
805.251	190.043
809.098	233.342
812.944	301.642
816.787	354.963
820.629	359.321
824.469	362.443
828.307	366.141
832.144	457.592
835.978	493.158
839.811	574.021
843.642	744.434
847.472	997.823
851.299	1389.84
855.125	1919.18
858.949	2784.03
862.771	3143.66
866.591	2787.43
870.41	2315.99
874.227	2021.49
878.042	1972.31
881.855	2127.61
885.667	2409.18
889.476	2873.23
893.284	3690.61
897.09	4718.08
900.895	6210.07
904.698	8803.5
908.499	14261.5
912.298	24329.7
916.095	39207.9
919.891	45846.3
923.685	34384.8
927.477	20343.3
931.267	11952
935.056	7500.77
938.843	5121.64
942.628	3587.62
946.411	2669.71
950.193	1973.91
953.973	1652.21
957.751	1332.27
961.527	1180.34
965.302	1001.8
969.075	936.92
972.846	893.925
976.615	820.881
980.383	794.002
984.149	817.745
987.913	796.88
991.675	701.626
995.436	608.274
999.195	556
1002.95	498.105
1006.71	481.462
1010.46	513.209
1014.21	559.946
1017.96	645.259
1021.71	757.113
1025.46	795.091
1029.2	845.176
1032.95	1140.36
1036.69	1062.66
1040.43	1209.06
1044.17	1432.55
1047.9	1635.13
1051.64	1681.81
1055.37	1409.57
1059.1	978.414
1062.83	620.339
1066.56	405.334
1070.29	285.401
1074.01	208.549
1077.73	174.772
1081.46	120.074
1085.17	111.456
1088.89	67.918
1092.61	101.437
1096.32	35.004
1100.04	31.612
1103.75	1.741
1107.46	1.075
1111.16	9.605
1114.87	28.706
1118.57	14.07
1122.28	60.526
1125.98	28.13
1129.67	32.269
1133.37	39.776
1137.07	31.417
1140.76	26.195
1144.45	20.107
1148.14	1.874
1151.83	6.218
1155.52	8.578
1159.21	27.721
1162.89	50.882
1166.57	27.442
1170.25	86.961
1173.93	90.739
1177.61	118.293
1181.28	122.049
1184.96	151.662
1188.63	155.279
1192.3	105.217
1195.97	143.304
1199.64	139.214
1203.3	140.005
1206.97	122.817
1210.63	137.291
1214.29	136.574
1217.95	118.459
1221.6	116.75
1225.26	121.188
1228.91	106.205
1232.57	143.115
1236.21	136.972
1239.86	149.973
1243.51	124.484
1247.16	107.078
1250.8	131.973
1254.44	128.201
1258.08	146.476
1261.72	141.695
1265.36	191.1
1268.99	198.704
1272.63	194.509
1276.26	189.639
1279.89	185.513
1283.52	165.808
1287.15	145.182
1290.77	129.76
1294.4	128.313
1298.02	117.595
1301.64	130.964
1305.26	138.953
1308.88	101.339
1312.49	84.895
1316.11	56.873
1319.72	72.792
1323.33	42.597
1326.94	52.126
1330.55	65.484
1334.15	28.699
1337.76	52.712
1341.36	31.552
1344.96	6.209
1348.56	164.705
1352.16	0.032
1355.75	12.183
1359.35	10.354
1362.94	15.194
1366.53	33.877
1370.12	6.598
1373.71	7.017
1377.3	6.98
1380.88	13.797
1384.46	2.639
1388.05	22.733
1391.63	0.942
1395.2	17.088
1398.78	9.094
1402.36	13.179
1405.93	25.43
1409.5	35.755
1413.07	76.19
1416.64	56.649
1420.21	21.626
1423.78	52.129
1427.34	47.273
1430.9	43.314
1434.46	36.082
1438.02	54.323
1441.58	48.564
1445.13	56.769
1448.69	33.605
1452.24	43.482
1455.79	55.578
1459.34	56.906
1462.89	72.113
1466.44	41.062
1469.98	56.845
1473.53	27.325
1477.07	33.76
1480.61	26.156
1484.14	30.952
1487.68	44.539
1491.22	70.93
1494.75	70.857
1498.28	33.489
1501.81	42.722
1505.34	36.426
1508.87	48.993
1512.4	18.994
1515.92	29.481
