Measurement: Raman, 514 nm, ccw, Raman Data Processed
Mineral: Pyrope
Rruff sample: R060448
Ideal chemistry: Mg_3_Al_2_(SiO_4_)_3_
Locality: India
Source: Gemological Institute of America
Description: Deep red water worn pebble, variety rhodolite
Measured chemistry: (Mg_1.47_Fe_1.27_Ca_0.21_Mn_0.05_)_Î£=3_Al_2.00_(Si_1.00_O_4_)_3_
Pin_id: L00709
Orientation: Laser parallel to a* (1 0 0). Fiducial mark perpendicular to laser is parallel to c [0 0 1]
Raman shift (cm-1)	intensity
62.899	0
67.89	52.5627
72.879	128.564
77.864	125.272
82.846	3.83984
87.824	53.6729
92.8	64.6262
97.773	235.501
102.742	603.012
107.708	1192.79
112.672	1561.5
117.632	1828.57
122.589	1728.7
127.543	1742.9
132.494	1793.2
137.441	1699.34
142.386	1940.76
147.328	1817.31
152.266	1614.59
157.202	1563.39
162.134	1586.09
167.063	1559.76
171.99	1889.45
176.913	2570.09
181.833	2686.59
186.75	2057.04
191.664	1514.9
196.575	1397.64
201.483	1324.43
206.388	1365.86
211.29	1276.01
216.189	1392.35
221.085	1347.3
225.977	1206.69
230.867	1355.41
235.754	1514.87
240.638	1638.13
245.518	1742.49
250.396	1622.67
255.271	1806.56
260.143	1716.06
265.011	1765.12
269.877	1894.65
274.74	1893.62
279.6	1860.96
284.457	1935.44
289.31	1920.32
294.161	1976.68
299.009	2145.88
303.854	2182.9
308.696	2467.13
313.535	2779.16
318.371	3182.95
323.204	3815.94
328.034	5165.23
332.861	7211.93
337.686	10110.3
342.507	13539.6
347.325	18680.8
352.141	27265.9
356.953	32193.8
361.763	24515.7
366.569	16493.7
371.373	13354.8
376.174	11128
380.972	8491.36
385.767	5578.84
390.559	3423.28
395.348	2035.66
400.134	1309.01
404.918	830.299
409.698	558.547
414.476	391.002
419.25	202.788
424.022	26.8115
428.791	37.9365
433.557	58.8914
438.32	105.013
443.081	69.6531
447.838	116.861
452.593	34.9878
457.344	82.1177
462.093	18.1499
466.839	37.0852
471.582	16.718
476.323	50.7114
481.06	206.118
485.795	311.878
490.526	237.964
495.255	332.351
499.981	532.013
504.705	847.133
509.425	1048.07
514.143	797.312
518.857	1006.13
523.569	1327.51
528.278	1675.22
532.985	1754
537.688	1939.86
542.389	2574.05
547.087	4036.93
551.782	6880.35
556.474	12234.3
561.164	15485.7
565.851	10121.8
570.535	4666.28
575.216	2402.39
579.894	1517.47
584.57	1165.24
589.243	1010.48
593.913	872.145
598.58	866.821
603.245	919.393
607.907	1039.65
612.566	1321.74
617.222	772.68
621.875	509.324
626.526	398.483
631.174	525.149
635.82	739.312
640.462	882.96
645.102	751.195
649.739	630.431
654.373	474.483
659.005	383.997
663.634	189.167
668.26	270.654
672.884	130.485
677.504	68.7058
682.122	42.2022
686.738	87.3005
691.35	69.2353
695.96	110.926
700.567	42.2903
705.172	60.1531
709.774	3.40454
714.373	6.06396
718.969	86.3955
723.563	57.7903
728.154	71.0478
732.743	28.4407
737.328	24.5203
741.912	2.38599
746.492	55.6868
751.07	74.5352
755.645	97.9094
760.217	203.883
764.787	94.5107
769.354	119.809
773.918	47.7988
778.48	73.4961
783.039	35.0806
787.596	18.0518
792.15	44.9502
796.701	18.6338
801.25	9.8833
805.796	119.835
810.339	57.3643
814.88	230.223
819.418	284.914
823.953	308.045
828.486	336.515
833.016	422.509
837.544	581.059
842.069	714.304
846.591	1069.11
851.111	1601.15
855.628	2507.34
860.143	3518.63
864.655	4346.71
869.164	4233.72
873.671	3599.24
878.176	3645.44
882.677	4054.36
887.176	5063.45
891.673	6603.38
896.167	9279.68
900.658	13217.4
905.147	21248.6
909.633	39148.2
914.117	75173.2
918.598	117404
923.077	107917
927.553	61968.3
932.026	31840.2
936.497	18092.4
940.966	10769.3
945.431	7023.77
949.895	4764.79
954.355	3542.42
958.814	2792.25
963.269	2270.7
967.723	1813.79
972.173	1628.63
976.621	1425.46
981.067	1414.66
985.51	1239.12
989.951	1169.57
994.389	1154.94
998.824	917.105
1003.26	933.101
1007.69	828.915
1012.12	942.224
1016.54	1108.25
1020.96	1317.41
1025.38	1328.61
1029.8	1559.52
1034.22	1513.72
1038.63	1691.27
1043.04	1991.16
1047.45	2160.39
1051.86	2096.94
1056.26	1621.81
1060.66	1061.98
1065.06	574.428
1069.45	406.152
1073.85	314.162
1078.24	109.453
1082.63	146.006
1087.01	201.815
1091.4	45.103
1095.78	21.8755
1100.16	28.498
1104.53	24.0107
1108.91	77.251
1113.28	13.6294
1117.65	26.0312
1122.01	89.5054
1126.38	43.4145
1130.74	68.7939
1135.1	10.7749
1139.45	6.74219
1143.81	30.8145
1148.16	24.3569
1152.51	17.1206
1156.86	15.3286
1161.2	79.3354
1165.54	212.222
1169.88	219.983
1174.22	287.607
1178.56	391.085
1182.89	373.408
1187.22	421.563
1191.55	539.546
1195.87	472.352
1200.19	451.958
1204.52	375.466
1208.83	394.67
1213.15	361.421
1217.46	352.385
1221.78	313.623
1226.08	336.244
1230.39	326.024
1234.69	239.37
1239	254.006
1243.3	360.438
1247.59	360.237
1251.89	240.235
1256.18	346.403
1260.47	307.211
1264.76	368.615
1269.04	431.855
1273.33	434.575
1277.61	519.417
1281.88	265.239
1286.16	385.884
1290.43	316.127
1294.7	345.359
1298.97	326.387
1303.24	308.213
1307.51	168.84
1311.77	204.28
1316.03	229.532
1320.28	141.612
1324.54	160.518
1328.79	3.71143
1333.04	28.7588
1337.29	112.954
1341.54	26.8564
1345.78	100.358
1350.02	21.3892
1354.26	53.1602
1358.5	13.4111
1362.73	45.7173
1366.96	26.3823
1371.19	94.4238
1375.42	33.0952
1379.65	40.6763
1383.87	77.3262
1388.09	120.067
1392.31	39.9253
1396.52	84.8833
1400.74	122.86
1404.95	164.802
1409.16	133.791
1413.37	142.798
1417.57	195.768
1421.77	236.689
1425.97	167.577
1430.17	217.915
1434.37	171.417
1438.56	76.8237
1442.75	211.904
1446.94	181.494
1451.13	201.239
1455.31	200.142
1459.5	189.377
1463.68	205.105
1467.85	167.73
1472.03	192.099
1476.2	213.417
1480.37	219.137
1484.54	299.884
1488.71	231.059
1492.88	367.863
1497.04	97.6172
1501.2	296.193
1505.36	234.78
1509.51	259.694
1513.66	372.466
1517.82	323.744
1521.97	268.027
1526.11	142.962
1530.26	164.404
1534.4	227.777
1538.54	161.768
1542.68	168.417
1546.82	83.0034
1550.95	156.645
1555.08	198.756
1559.21	13.6851
1563.34	65.8662
1567.46	10.6396
1571.59	128.513
1575.71	50.9849
