Measurement: Raman, 514 nm, ccw, Raman Data Processed
Mineral: Pyrope
Rruff sample: R060445
Ideal chemistry: Mg_3_Al_2_(SiO_4_)_3_
Locality: Tanzania
Source: Gemological Institute of America
Description: Deep red water worn pebble, variety rhodolite
Measured chemistry: (Mg_1.83_Fe_1.08_Ca_0.07_Mn_0.02_)_Î£=3_Al_2.00_(Si_1.00_O_4_)_3_
Pin_id: L00835
Orientation: Laser parallel to a* (1 0 0). Fiducial mark perpendicular to laser is parallel to -c [0 0 -1]
Raman shift (cm-1)	intensity
61.448	0
66.421	9.11298
71.392	55.5413
76.36	273.292
81.325	245.652
86.287	88.8186
91.246	35.7574
96.203	87.6357
101.156	322.23
106.107	684.086
111.055	800.28
116.001	1004.35
120.944	1119.12
125.883	1201.57
130.821	1328.71
135.755	1395.33
140.686	1473.45
145.615	1573.53
150.541	1476.36
155.464	1434.6
160.385	1200.08
165.303	1197.86
170.218	1053.96
175.13	1123.56
180.039	1221.93
184.946	1226.36
189.85	1224.63
194.751	1370.35
199.649	1717.18
204.545	2436.08
209.438	2765.18
214.328	2042.87
219.215	1263.84
224.1	946.65
228.982	750.884
233.861	731.643
238.737	798.901
243.611	807.949
248.482	863.562
253.35	980.286
258.216	891.065
263.078	917.852
267.938	1031.61
272.795	1069.31
277.65	1044.9
282.502	1054.3
287.351	1024.68
292.197	1008.47
297.041	1031.36
301.881	1215.09
306.72	1366.32
311.555	1880.93
316.388	2542.91
321.218	2262.23
326.045	2244.71
330.869	2756.87
335.691	3813.66
340.51	5415.06
345.327	8164.05
350.14	13520.6
354.951	18694.8
359.76	15161.6
364.565	8620.13
369.368	5460.38
374.168	4295.34
378.966	2723.01
383.76	1378.44
388.552	797.698
393.342	512.598
398.128	330.172
402.912	158.43
407.693	125.531
412.472	154.425
417.248	54.2764
422.021	4.92456
426.792	26.7561
431.559	26.9595
436.324	84.7275
441.087	47.3708
445.847	39.8435
450.604	9.28223
455.358	76.5019
460.11	10.4941
464.859	50.7524
469.605	133.425
474.349	314.422
479.09	709.713
483.828	1433.32
488.564	1379.24
493.297	903.442
498.027	1343.91
502.755	2625.68
507.48	3151.71
512.202	1677.93
516.922	1044.32
521.639	937.84
526.353	1049.48
531.065	1080.22
535.774	1255.15
540.48	1627.8
545.184	2551.6
549.885	4736.58
554.583	8825.13
559.279	12480.4
563.972	8613.04
568.662	3942
573.35	1917.06
578.035	1162.06
582.718	935.682
587.398	903.439
592.075	905.769
596.75	633.825
601.422	473.623
606.091	438.928
610.758	392.56
615.422	326.033
620.083	364.732
624.742	479.918
629.398	690.445
634.051	1242.26
638.702	2392.07
643.351	2661.7
647.996	1502.11
652.639	713.33
657.28	398.154
661.917	376.156
666.553	101.654
671.185	156.29
675.815	54.5325
680.442	147.276
685.067	20.3931
689.689	32.3674
694.309	55.0845
698.926	42.9656
703.54	53.2744
708.151	2.76831
712.761	36.6931
717.367	72.1975
721.971	46.4815
726.572	86.4868
731.171	0.666504
735.767	72.7654
740.36	23.8518
744.951	12.5398
749.539	92.7952
754.125	39.7842
758.708	14.5212
763.288	55.0269
767.866	10.0771
772.442	6.90918
777.014	14.4692
781.584	44.3193
786.152	16.3892
790.717	13.3672
795.279	7.0415
799.839	37.4224
804.396	110.759
808.951	241.026
813.503	70.293
818.053	279.406
822.599	317.676
827.144	233.582
831.686	409.663
836.225	415.228
840.761	730.449
845.295	1028.96
849.827	1607.2
854.356	2793.35
858.882	5019.2
863.406	8074.09
867.927	8393.24
872.446	5610.7
876.962	3601.07
881.476	3088.02
885.987	3235.69
890.495	4043.44
895.001	5714.15
899.505	7743.24
904.005	10143.7
908.504	15744.6
912.999	29781.6
917.493	58773.1
921.983	84706.8
926.471	61277.6
930.957	30155.5
935.44	15452.8
939.92	8817.68
944.398	5235.9
948.874	3650.4
953.346	2329.63
957.817	1763.3
962.285	1308.77
966.75	1188.83
971.213	972.704
975.673	934.166
980.13	1017.26
984.586	1145.34
989.038	1154.95
993.488	1026.71
997.936	718.437
1002.38	683.219
1006.82	481.352
1011.26	432.122
1015.7	411.753
1020.14	563.153
1024.57	695.454
1029	817.125
1033.43	1132.12
1037.85	1330.55
1042.27	1850.43
1046.69	2570.16
1051.11	3667.2
1055.53	3882.48
1059.94	3199.97
1064.35	1836.29
1068.76	963.505
1073.16	581.528
1077.56	460.711
1081.96	141.041
1086.36	224.507
1090.75	59.1987
1095.15	126.012
1099.54	40.0938
1103.92	99.8291
1108.31	31.8447
1112.69	129.044
1117.07	91.2891
1121.45	46.5332
1125.82	76.6099
1130.2	15.1309
1134.57	60.001
1138.93	35.771
1143.3	50.1704
1147.66	15.2676
1152.02	51.978
1156.38	6.86182
1160.73	74.2075
1165.09	30.0693
1169.44	5.17481
1173.79	75.0864
1178.13	152.835
1182.47	213.408
1186.81	197.794
1191.15	304.988
1195.49	246.988
1199.82	306.778
1204.15	271.28
1208.48	301.002
1212.8	181.007
1217.13	298.327
1221.45	261.252
1225.77	299.202
1230.08	199.199
1234.39	301.448
1238.7	272.1
1243.01	208.535
1247.32	242.682
1251.62	277.988
1255.92	271.461
1260.22	223.851
1264.52	297.506
1268.81	285.11
1273.1	317.334
1277.39	346.007
1281.68	345.66
1285.96	394.569
1290.24	342.471
1294.52	344.539
1298.8	290.184
1303.07	294.173
1307.35	268.464
1311.62	275.534
1315.88	253.41
1320.15	124.586
1324.41	236.078
1328.67	31.3452
1332.92	139.377
1337.18	48.207
1341.43	151.705
1345.68	61.9458
1349.93	81.7988
1354.17	119.154
1358.42	9.70947
1362.66	3.20606
1366.89	2.70312
1371.13	78.1963
1375.36	100.645
1379.59	37.3262
1383.82	139.929
1388.05	59.5732
1392.27	81.1352
1396.49	5.35107
1400.71	134.094
1404.93	19.4644
1409.14	208.81
1413.35	116.305
1417.56	100.806
1421.77	77.3032
1425.97	135.72
1430.17	221.08
1434.37	128.405
1438.57	146.839
1442.76	139.5
1446.96	193.14
1451.15	154.919
1455.33	198.853
1459.52	99.8706
1463.7	180.208
1467.88	171.224
1472.06	72.0918
1476.23	143.766
1480.41	144.838
1484.58	66.876
1488.75	288.613
1492.91	195.522
1497.08	205.326
1501.24	187.481
1505.4	144.232
1509.55	103.56
1513.71	186.518
1517.86	161.914
1522.01	175.965
1526.15	193.946
1530.3	188.127
1534.44	310.603
1538.58	101.98
1542.72	202.345
1546.85	155.196
1550.99	176.378
1555.12	133.781
1559.24	154.646
1563.37	91.3648
1567.49	125.822
1571.62	101.764
1575.73	35.4043
