Measurement: Raman, 514 nm, ccw, Raman Data Processed
Mineral: Pyrope
Rruff sample: R050446
Ideal chemistry: Mg_3_Al_2_(SiO_4_)_3_
Locality: Sunset Crater, Arizona, USA
Source: Marcus Origlieri
Description: Red fragment
Measured chemistry: (Mg_1.93_Fe^2+^_0.65_Ca_0.42_)_Î£=3_Al_2.00_(Si_1.00_O_4_)_3_
Pin_id: L01215
Orientation: Laser parallel to a* (1 0 0). Fiducial mark perpendicular to laser is parallel to c [0 0 1]
Raman shift (cm-1)	intensity
62.899	0
67.89	38.5278
72.879	99.1744
77.864	101.564
82.846	5.97031
87.824	37.2392
92.8	74.2076
97.773	320.109
102.742	674.927
107.708	1131.09
112.672	1303.11
117.632	1616.39
122.589	1712.71
127.543	1720.13
132.494	1760.66
137.441	1782.05
142.386	1808.18
147.328	1740.17
152.266	1596.6
157.202	1467.2
162.134	1392.21
167.063	1213.7
171.99	1235.69
176.913	1262.33
181.833	1361.13
186.75	1562.58
191.664	1597.39
196.575	1653.58
201.483	1775.02
206.388	1861.67
211.29	1923.58
216.189	1796.33
221.085	1607.83
225.977	1447.72
230.867	1373.06
235.754	1180.86
240.638	1248.27
245.518	1150.92
250.396	1157.95
255.271	1145.26
260.143	1003.8
265.011	1076.5
269.877	974.329
274.74	914.24
279.6	934.377
284.457	889.839
289.31	950.878
294.161	916.131
299.009	929.458
303.854	977.45
308.696	1084.35
313.535	1389.18
318.371	1429.12
323.204	1532.76
328.034	1523.88
332.861	1755.79
337.686	2224.44
342.507	2928.81
347.325	4171.87
352.141	6275.61
356.953	9473.03
361.763	11722.2
366.569	10115.3
371.373	6749.21
376.174	4352.01
380.972	3010.75
385.767	2022.38
390.559	1427.77
395.348	931.916
400.134	590.797
404.918	431.435
409.698	214.529
414.476	229.199
419.25	47.3071
424.022	70.4197
428.791	51.2803
433.557	83.147
438.32	20.1389
443.081	92.6016
447.838	99.8003
452.593	90.9085
457.344	0.166504
462.093	13.6257
466.839	104.521
471.582	168.944
476.323	294.851
481.06	493.168
485.795	724.897
490.526	766.977
495.255	632.372
499.981	756.072
504.705	1292.05
509.425	1933.28
514.143	1491.74
518.857	956.404
523.569	937.259
528.278	998.653
532.985	1012.42
537.688	1186.69
542.389	1587.87
547.087	2325.45
551.782	3905.06
556.474	6737.56
561.164	8770.84
565.851	6278.32
570.535	2989.64
575.216	1483.43
579.894	949.363
584.57	702.345
589.243	533.93
593.913	560.514
598.58	358.966
603.245	407.274
607.907	299.523
612.566	237.329
617.222	318.678
621.875	298.745
626.526	439.289
631.174	652.189
635.82	1052.67
640.462	1705.13
645.102	1955.84
649.739	1370.22
654.373	868.252
659.005	532.154
663.634	432.484
668.26	299.454
672.884	192.06
677.504	168.299
682.122	183.108
686.738	46.4209
691.35	23.9482
695.96	43.8726
700.567	57.0669
705.172	40.8857
709.774	21.1265
714.373	15.4102
718.969	74.5615
723.563	48.5527
728.154	72.8584
732.743	6.21533
737.328	53.2065
741.912	58.2749
746.492	60.9141
751.07	99.0308
755.645	89.7007
760.217	11.0303
764.787	7.00342
769.354	99.7178
773.918	10.79
778.48	63.4707
783.039	75.5376
787.596	23.4248
792.15	41.145
796.701	183.707
801.25	150.123
805.796	168.417
810.339	366.599
814.88	326.688
819.418	479.883
823.953	646.738
828.486	911.104
833.016	1097.48
837.544	1149.28
842.069	1449.52
846.591	2108.77
851.111	3423.34
855.628	5028.78
860.143	6086.78
864.655	5415.38
869.164	4076.27
873.671	3140.32
878.176	2868.36
882.677	2762.41
887.176	3504.32
891.673	4353.93
896.167	5550.67
900.658	7819.27
905.147	12187.8
909.633	21796.1
914.117	38186.3
918.598	50227.8
923.077	40813.7
927.553	23400
932.026	12669.5
936.497	7474.52
940.966	4736.96
945.431	3025.79
949.895	2079.02
954.355	1642.78
958.814	1292.93
963.269	1067.31
967.723	930.944
972.173	847.664
976.621	826.432
981.067	659.438
985.51	737.519
989.951	721.095
994.389	556.957
998.824	304.775
1003.26	361.58
1007.69	364.091
1012.12	431.619
1016.54	510.325
1020.96	693.492
1025.38	1031.18
1029.8	1179.3
1034.22	1238.95
1038.63	1565.85
1043.04	1925.05
1047.45	2483.32
1051.86	2672.85
1056.26	2405.61
1060.66	1576.61
1065.06	1002.26
1069.45	550.732
1073.85	285.596
1078.24	118.218
1082.63	153.242
1087.01	34.4341
1091.4	22.8223
1095.78	6.37061
1100.16	130.036
1104.53	0.768066
1108.91	82.3169
1113.28	17.2871
1117.65	19.7808
1122.01	82.0361
1126.38	27.8955
1130.74	28.6099
1135.1	45.729
1139.45	94.978
1143.81	63.4023
1148.16	26.6177
1152.51	83.46
1156.86	47.9111
1161.2	55.1787
1165.54	36.3272
1169.88	6.38184
1174.22	91.292
1178.56	170.122
1182.89	127.867
1187.22	212.519
1191.55	12.0752
1195.87	202.493
1200.19	202.814
1204.52	148.019
1208.83	232.108
1213.15	324.074
1217.46	99.8169
1221.78	240.891
1226.08	105.831
1230.39	189.011
1234.69	193.643
1239	156.792
1243.3	157.185
1247.59	263.964
1251.89	219.735
1256.18	161.159
1260.47	288.638
1264.76	187.794
1269.04	209.118
1273.33	216
1277.61	220.643
1281.88	218.608
1286.16	213.995
1290.43	135.675
1294.7	210.064
1298.97	75.001
1303.24	182.445
1307.51	54.8179
1311.77	169.123
1316.03	108.372
1320.28	66.4209
1324.54	257.953
1328.79	108.027
1333.04	171.067
1337.29	198.061
1341.54	109.958
1345.78	3.19629
1350.02	111.56
1354.26	48.2822
1358.5	92.9707
1362.73	75.4785
1366.96	82.7344
1371.19	151.253
1375.42	159.847
1379.65	120.537
1383.87	103.343
1388.09	36.3164
1392.31	45.4355
1396.52	78.1977
1400.74	162.103
1404.95	16.0483
1409.16	44.1909
1413.37	24.5303
1417.57	136.895
1421.77	39.9048
1425.97	50.8037
1430.17	138.359
1434.37	133.989
1438.56	22.7158
1442.75	58.5532
1446.94	157.602
1451.13	131.153
1455.31	160.503
1459.5	203.625
1463.68	188.901
1467.85	30.3076
1472.03	145.391
1476.2	1170.62
1480.37	522.435
1484.54	96.417
1488.71	116.491
1492.88	216.479
1497.04	171.874
1501.2	93.917
1505.36	103.688
1509.51	174.685
1513.66	142.072
1517.82	173.06
1521.97	207.561
1526.11	160.195
1530.26	90.667
1534.4	191.708
1538.54	81.5923
1542.68	116.728
1546.82	71.1489
1550.95	35.4307
1555.08	93.5
1559.21	150.689
1563.34	151.227
1567.46	46.7593
1571.59	199.248
1575.71	67.7993
