Measurement: Raman, 514 nm, depolarized, Raman Data Processed
Mineral: Quartz
Rruff sample: R060604
Ideal chemistry: SiO_2_
Locality: Piedras Parada, Veracruz, Mexico
Source: Michael Scott
Description: Purple hexagonal prisms, variety amethyst
Measured chemistry: Si_1.00_O_2_
Pin_id: L00806
Orientation: Laser parallel to a* (1 0 0). Fiducial mark perpendicular to laser is parallel to c [0 0 1]
Raman shift (cm-1)	intensity
96.897	0
101.848	73.4712
106.795	38.7285
111.74	60.2212
116.682	171.233
121.622	663.519
126.558	2842.71
131.492	3738.4
136.423	1096.89
141.352	610.896
146.277	578.705
151.2	629.657
156.121	470.596
161.038	538.726
165.953	526.684
170.865	641.991
175.774	929.114
180.681	1077.87
185.585	1636.56
190.486	2501.37
195.384	3864.79
200.28	5972.77
205.173	7723.01
210.063	7714.72
214.95	6162.34
219.835	4258.23
224.717	2805.78
229.597	1939.68
234.473	1436.07
239.347	1036.57
244.218	1010.45
249.087	709.766
253.953	681.165
258.816	590.953
263.676	781.562
268.534	702.755
273.389	282.375
278.241	176.304
283.091	194.458
287.938	99.7725
292.782	24.7979
297.623	104.689
302.462	77.2051
307.298	18.6406
312.131	6.96631
316.962	88.7729
321.79	20.6958
326.615	41.6997
331.438	11.1479
336.258	88.793
341.075	20.3564
345.889	40.8174
350.701	357.076
355.51	2003.09
360.317	1071.83
365.12	52.186
369.921	184.801
374.72	15.2759
379.515	9.26709
384.309	5.95215
389.099	73.1216
393.886	336.258
398.671	331.465
403.454	456.694
408.233	182.926
413.01	98.1499
417.785	109.356
422.556	70.5332
427.325	140.681
432.091	191.206
436.855	330.052
441.616	575.267
446.374	947.117
451.13	1924.86
455.883	4389.88
460.633	13546.3
465.38	30539.7
470.125	19419
474.868	7165.67
479.607	3513.41
484.344	1947.45
489.078	1443.24
493.81	1108.31
498.539	883.383
503.265	657.662
507.989	677.801
512.71	765.911
517.428	559.144
522.144	375.366
526.857	292.096
531.567	167.177
536.275	157.235
540.98	200.541
545.683	196.785
550.383	197.043
555.08	136.423
559.774	129.705
564.466	35.0039
569.155	76.3164
573.842	158.651
578.526	50.042
583.207	146.057
587.886	181.47
592.562	217.993
597.235	22.8545
601.906	51.0469
606.574	81.9141
611.24	22.0146
615.903	79.0527
620.563	25.2725
625.221	164.941
629.876	121.675
634.528	80.9209
639.178	7.5918
643.825	104.269
648.47	78.0312
653.112	106.178
657.751	37.2812
662.388	100.416
667.022	80.6299
671.653	15.1143
676.282	78.0654
680.908	59.2607
685.532	67.4639
690.153	171.664
694.771	316.908
699.387	111.11
704	148.329
708.61	74.6582
713.218	75.0439
717.824	15.581
722.426	40.7334
727.026	28.2168
731.624	225.675
736.219	66.0049
740.811	87.291
745.401	55.5371
749.988	55.6494
754.572	148.685
759.154	113.713
763.734	31.3125
768.31	115.61
772.884	28.6992
777.456	173.802
782.025	61.417
786.591	120.057
791.155	52.5615
795.716	206.804
800.275	159.355
804.831	184.153
809.384	586.102
813.935	426.824
818.483	143.892
823.029	300.337
827.572	38.7568
832.112	205.421
836.65	361.262
841.186	115.725
845.718	265.278
850.249	122.56
854.776	183.485
859.301	90.7275
863.824	189.931
868.344	137.097
872.861	69.1494
877.376	240.727
881.888	155.675
886.397	51.6748
890.904	116.682
895.409	86.6982
899.911	286.805
904.41	87.7891
908.907	181.773
913.401	123.517
917.893	128.848
922.382	32.2139
926.869	234.181
931.353	151.231
935.834	23.2666
940.313	57.6103
944.789	196.702
949.263	36.1631
953.734	24.8965
958.203	29.9707
962.669	110.064
967.133	115.123
971.594	94.2158
976.052	3.33106
980.508	176.098
984.961	197.887
989.412	0.716797
993.861	140.685
998.306	15.5127
1002.75	51.71
1007.19	78.7129
1011.63	30.6973
1016.06	119.28
1020.5	154.279
1024.93	130.584
1029.36	210.737
1033.78	78.0488
1038.2	105.465
1042.62	216.955
1047.04	293.536
1051.46	170.606
1055.87	133.4
1060.28	131.282
1064.69	44.2617
1069.09	339.329
1073.5	153.45
1077.9	424.653
1082.29	656.281
1086.69	505.677
1091.08	253.173
1095.47	17.7715
1099.86	215.096
1104.24	166.441
1108.63	176.988
1113.01	69.0791
1117.38	102.27
1121.76	317.425
1126.13	167.883
1130.5	104.472
1134.87	21.9834
1139.23	87.6084
1143.6	162.635
1147.96	265.756
1152.32	188.076
1156.67	327.408
1161.02	631.002
1165.37	395.464
1169.72	148.377
1174.07	128.602
1178.41	140.16
1182.75	181.594
1187.08	123.179
1191.42	134.952
1195.75	148.637
1200.08	118.965
1204.41	152.807
1208.73	83.3037
1213.06	205.827
1217.38	178.542
1221.69	166.411
1226.01	188.435
1230.32	192.618
1234.63	32.5312
1238.94	80.0869
1243.24	249.947
1247.55	325.67
1251.85	31.8379
1256.14	125.163
1260.44	180.644
1264.73	115.798
1269.02	59.7568
1273.31	212.821
1277.6	178.088
1281.88	44.3877
1286.16	102.778
1290.44	136.8
1294.71	66.4043
1298.98	21.8574
1303.26	13.9844
1307.52	107.315
1311.79	31.418
1316.05	195.652
1320.31	152.564
1324.57	157.036
1328.83	26.6367
1333.08	156.675
1337.33	90.5283
1341.58	230.507
1345.82	114.607
1350.07	87.9551
1354.31	269.152
1358.55	53.8398
1362.78	141.164
1367.02	74.8379
1371.25	121.627
1375.48	128.518
1379.7	49.3711
1383.92	178.453
1388.15	149.668
1392.37	193.584
1396.58	188.389
1400.8	306.898
1405.01	81.5332
1409.22	202.43
1413.42	201.34
1417.63	76.3516
1421.83	203.816
1426.03	162.83
1430.22	209.283
1434.42	118.234
1438.61	196.041
1442.8	176.107
1446.99	226.445
1451.17	227.879
1455.35	229.625
1459.53	120.779
1463.71	104.213
1467.89	68.7832
1472.06	128.856
1476.23	128.67
1480.4	225.732
1484.56	220.775
1488.72	176.668
1492.88	289.637
1497.04	239.773
1501.2	211.4
1505.35	158.315
1509.5	28.2559
1513.65	68.7109
1517.8	42.4883
1521.94	143.367
1526.08	248.07
1530.22	82.084
1534.36	113.406
1538.49	212.078
1542.62	352.098
1546.75	133.291
1550.88	90.5293
1555	158.574
1559.12	170.965
1563.24	153.596
1567.36	4.87891
1571.47	123.383
1575.58	153.014
