Measurement: Raman, 514 nm, ccw, Raman Data Processed
Mineral: Quartz
Rruff sample: R040031
Ideal chemistry: SiO_2_
Locality: Spruce Claim, King County, Washington, USA
Source: Bob Downs
Description: Colorless hexagonal prism
Measured chemistry: Si_1.00_O_2_
Pin_id: L00402
Orientation: Laser parallel to c* (0 0 1). Fiducial mark perpendicular to laser is parallel to a [1 0 0]
Raman shift (cm-1)	intensity
102.256	0
107.181	10391.2
112.105	3454.75
117.025	561.682
121.943	4468.66
126.859	17653.5
131.773	40711.5
136.684	11806.3
141.592	2528.86
146.499	1644.83
151.402	1278.39
156.304	666.41
161.203	337.183
166.099	738.658
170.993	1830.88
175.885	3253.23
180.774	5540.85
185.661	8822.65
190.545	14330.8
195.427	23852.1
200.307	37688.3
205.184	52747.3
210.059	57407
214.931	48377.8
219.801	33414.9
224.668	21518.4
229.533	14553
234.396	10074.5
239.256	7149.88
244.114	5304.35
248.969	4114.04
253.822	3189.93
258.672	2652.77
263.52	2290.91
268.365	1777.44
273.208	756.156
278.049	411.68
282.887	175.956
287.723	71.7407
292.556	140.044
297.387	208.687
302.215	227.653
307.041	276.814
311.865	223.409
316.686	193.051
321.504	108.551
326.32	2.33521
331.134	32.9703
335.945	140.622
340.754	485.507
345.56	1175.49
350.364	3321.52
355.165	12887.5
359.964	10183.5
364.76	1499.92
369.554	300.107
374.346	182.573
379.135	287.957
383.921	675.268
388.705	2206.29
393.487	8736.74
398.266	8112.77
403.043	1602.98
407.817	779.13
412.589	803.081
417.358	994.751
422.125	1280.09
426.889	1602.07
431.651	2036.25
436.41	2740.89
441.167	4191.86
445.921	6966.49
450.673	13751.1
455.423	30923
460.17	85125.6
464.914	219721
469.656	187587
474.396	70958.9
479.133	31730
483.867	18794.1
488.599	12599.9
493.329	9172.1
498.056	6993.77
502.78	5640
507.502	4556.83
512.222	3622.41
516.939	3162.71
521.654	2858.65
526.366	2434.65
531.075	2137.71
535.782	1986.23
540.487	1767.3
545.189	1539.7
549.889	1291.86
554.586	1184.79
559.28	872.517
563.973	710.069
568.662	621.472
573.349	568.856
578.034	496.516
582.716	425.978
587.396	420.853
592.073	425.002
596.747	406.168
601.419	240.47
606.089	290.529
610.756	171.705
615.42	131.05
620.082	215.665
624.742	100.006
629.399	51.3522
634.053	137.867
638.705	98.8934
643.355	81.76
648.002	41.7485
652.646	4.88208
657.288	41.6755
661.927	48.0206
666.564	105.693
671.199	86.99
675.831	21.4186
680.46	175.894
685.087	338.512
689.711	923.285
694.333	2345.22
698.952	3010.31
703.569	1171.57
708.183	448.01
712.794	256.673
717.403	84.5913
722.01	110.778
726.614	42.1366
731.216	54.6249
735.815	64.7826
740.411	67.7327
745.005	40.3167
749.596	40.8845
754.185	4.36926
758.772	9.81445
763.355	43.9368
767.937	0.325317
772.515	25.4768
777.091	103.213
781.665	59.8828
786.236	217.487
790.805	314.015
795.371	675.783
799.934	819.876
804.495	537.837
809.054	395.241
813.61	336.588
818.163	371.353
822.714	288.459
827.262	293.512
831.808	268.508
836.351	224.442
840.891	282.397
845.429	406.645
849.965	290.893
854.498	372.913
859.028	377.214
863.556	313.844
868.082	270.848
872.604	247.343
877.125	255.979
881.642	294.472
886.157	331.113
890.67	403.916
895.18	506.38
899.687	458.891
904.192	439.184
908.695	343.388
913.194	375.302
917.692	458.365
922.186	540.325
926.678	430.184
931.168	397.984
935.655	275.842
940.139	262.973
944.621	308.353
949.101	236.8
953.577	173.18
958.052	264.47
962.523	253.669
966.992	201.778
971.459	92.7981
975.923	18.2696
980.384	24.4966
984.843	14.9397
989.299	21.6716
993.753	16.2719
998.204	8.97156
1002.65	16.318
1007.1	17.9528
1011.54	10.1714
1015.98	9.78589
1020.42	30.1001
1024.86	44.9417
1029.29	102.802
1033.72	41.7001
1038.15	113.578
1042.57	108.443
1047	103.266
1051.42	168.052
1055.84	155.858
1060.25	375.655
1064.66	723.415
1069.07	1001.16
1073.48	678.865
1077.88	568.537
1082.29	1089.17
1086.69	828.8
1091.08	439.428
1095.48	223.057
1099.87	240.69
1104.26	215.313
1108.65	155.204
1113.03	164.575
1117.41	94.5089
1121.79	128.217
1126.17	116.677
1130.54	132.83
1134.91	239.585
1139.28	351.938
1143.65	546.668
1148.01	846.8
1152.37	1613.33
1156.73	3575.23
1161.09	8336.69
1165.44	7670.75
1169.79	2690.99
1174.14	1066.67
1178.48	516.454
1182.83	468.923
1187.17	184.444
1191.51	131.163
1195.84	159.261
1200.17	95.2561
1204.5	180.141
1208.83	142.579
1213.15	126.528
1217.48	167.299
1221.8	129.821
1226.11	152.475
1230.43	183.606
1234.74	93.4994
1239.05	146.248
1243.36	137.389
1247.66	96.6909
1251.96	105.903
1256.26	82.1306
1260.56	118.647
1264.85	146.147
1269.14	150.23
1273.43	138.776
1277.71	97.3381
1282	79.8964
1286.28	107.448
1290.56	4.63806
1294.83	20.1793
1299.11	61.5671
1303.38	21.8908
1307.64	27.1831
1311.91	38.5831
1316.17	56.45
1320.43	36.4187
1324.69	14.6697
1328.94	43.1398
1333.19	6.10242
1337.44	13.5831
1341.69	54.8451
1345.93	74.5485
1350.18	47.8563
1354.41	1.33325
1358.65	38.3433
1362.89	102.353
1367.12	7.28528
1371.35	9.15759
1375.57	39.9526
1379.8	52.7529
1384.02	1.7821
1388.23	10.9077
1392.45	7.37183
1396.66	136.095
1400.87	34.6847
1405.08	54.2709
1409.29	39.6018
1413.49	99.4373
1417.69	124.763
1421.89	88.5808
1426.08	111.009
1430.27	138.038
1434.46	162.264
1438.65	122.171
1442.83	83.7862
1447.02	104.424
1451.19	87.9971
1455.37	115.459
1459.55	154.319
1463.72	87.803
1467.88	82.5925
1472.05	89.0172
1476.21	71.3217
1480.38	109.473
1484.53	140.953
1488.69	49.2263
1492.84	76.6576
1496.99	110.1
1501.14	50.2112
1505.29	49.5048
1509.43	6.67871
1513.57	64.0396
1517.71	140.414
1521.84	44.7776
1525.97	31.5459
1530.1	66.3218
1534.23	71.8977
1538.35	10.0625
1542.47	105.225
1546.59	47.6953
1550.71	90.7056
1554.82	60.3137
1558.94	51.1382
1563.04	12.1238
1567.15	59.1877
1571.25	20.4675
1575.35	25.5488
