Measurement: Raman, 514 nm, ccw, Raman Data Processed
Mineral: Quartz
Rruff sample: R060604
Ideal chemistry: SiO_2_
Locality: Piedras Parada, Veracruz, Mexico
Source: Michael Scott
Description: Purple hexagonal prisms, variety amethyst
Measured chemistry: Si_1.00_O_2_
Raman shift (cm-1)	intensity
109.268	0
114.212	77.8789
119.152	601.488
124.09	3286.76
129.026	10965.5
133.958	5667.73
138.888	1599.74
143.815	1489.51
148.739	895.125
153.661	380.035
158.58	181.215
163.496	24.1865
168.409	264.092
173.32	389.372
178.228	766.299
183.133	1257.99
188.035	1870.77
192.935	3372.6
197.832	5329.03
202.727	7754.94
207.618	9089.77
212.507	8084.76
217.393	5956.66
222.277	3820.85
227.157	2594.1
232.035	1753.83
236.911	1203.45
241.783	1351.08
246.653	777.546
251.52	548.806
256.385	389.658
261.246	424.334
266.105	499.163
270.962	279.398
275.815	130.952
280.666	229.338
285.514	60.2051
290.36	26.7095
295.203	52.6919
300.043	27.9053
304.88	46.4609
309.715	26.4419
314.547	11.7319
319.376	27.6567
324.203	27.727
329.027	18.4902
333.848	64.1929
338.667	39.5054
343.482	49.7588
348.296	321.372
353.106	1422.61
357.914	1969.89
362.719	475.181
367.521	41.5185
372.321	15.6675
377.118	83.6548
381.912	91.6934
386.704	372.5
391.493	976.945
396.279	2636.22
401.063	734.441
405.844	212.578
410.622	198.537
415.398	233.249
420.171	213.68
424.941	214.809
429.709	286.622
434.473	442.503
439.236	537.751
443.995	901.778
448.752	1907.13
453.506	3954.7
458.258	9336.25
463.007	28883.4
467.753	35346.4
472.497	14998.7
477.238	6156.06
481.976	3426.28
486.712	2187.24
491.445	1617.05
496.175	1214.72
500.902	963.281
505.627	848.713
510.35	689.406
515.069	508.796
519.786	472.03
524.501	320.691
529.213	334.293
533.922	339.384
538.628	247.542
543.332	229.32
548.033	232.077
552.731	191.06
557.427	79.5762
562.121	160.44
566.811	164.871
571.499	88.4473
576.184	54.3125
580.867	97.2734
585.547	42.3125
590.224	66.9971
594.899	72.043
599.571	16.3457
604.241	20.3447
608.908	34.873
613.572	30.6982
618.233	179.44
622.892	107.572
627.549	151.481
632.202	82.6348
636.853	143.93
641.502	107.302
646.148	88.5
650.791	86.75
655.432	69.541
660.069	93.3623
664.705	85.1406
669.338	59.7412
673.968	68.1943
678.595	60.5303
683.22	205.128
687.842	198.922
692.462	568.849
697.079	816.269
701.694	365.079
706.305	185.363
710.915	286.981
715.521	238.897
720.125	141.62
724.727	15.6055
729.325	40.7207
733.922	4.61914
738.515	72.0957
743.106	43.8232
747.695	38.999
752.28	91.4336
756.864	104.061
761.444	88.3438
766.022	102.084
770.598	142.231
775.17	18.457
779.741	113.398
784.308	94.0654
788.873	152.35
793.436	387.598
797.996	339.262
802.553	290.376
807.108	292.872
811.66	153.607
816.209	216.938
820.756	141.332
825.301	140.916
829.842	117.962
834.382	119.833
838.918	45.7676
843.452	98.1885
847.984	175.963
852.513	28.6777
857.039	197.993
861.563	203.598
866.084	266.809
870.603	135.18
875.119	106.878
879.632	82.042
884.143	140.785
888.651	39.9883
893.157	221.055
897.66	291.37
902.161	144.201
906.659	293.441
911.154	35.6855
915.647	337.868
920.138	208.48
924.626	85.3721
929.111	167.947
933.594	142.363
938.074	193.238
942.551	69.8369
947.026	78.1572
951.499	64.1768
955.969	23.3672
960.436	123.149
964.901	93.7324
969.363	58.6016
973.823	89.5391
978.28	126.976
982.735	117.9
987.187	123.784
991.637	56.5967
996.084	21.8516
1000.53	202.988
1004.97	138.548
1009.41	110.241
1013.85	76.583
1018.28	72.4385
1022.71	31.4775
1027.14	35.1728
1031.57	226.274
1035.99	93.0791
1040.41	252.986
1044.83	392.681
1049.25	380.683
1053.66	216.413
1058.08	11.1621
1062.48	323.697
1066.89	390.877
1071.3	45.7295
1075.7	95.124
1080.1	172.473
1084.49	981.01
1088.89	1038.61
1093.28	210.147
1097.67	108.824
1102.05	209.307
1106.44	69.4316
1110.82	202.278
1115.2	149.852
1119.57	66.9326
1123.95	82.4033
1128.32	218.06
1132.69	128.315
1137.05	125.581
1141.42	134.954
1145.78	236.512
1150.14	329.543
1154.49	713.923
1158.85	1487.05
1163.2	2008.11
1167.55	832.709
1171.89	202.573
1176.24	214.252
1180.58	197.551
1184.92	126.035
1189.25	176.044
1193.59	93.1533
1197.92	41.123
1202.25	14.0312
1206.57	76.9482
1210.9	234.844
1215.22	171.568
1219.54	5.99219
1223.85	45.458
1228.17	59.7725
1232.48	233.745
1236.79	162.544
1241.09	304.632
1245.4	202.239
1249.7	133.507
1254	160.435
1258.29	3.03516
1262.59	239.067
1266.88	109.62
1271.17	107.616
1275.45	241.205
1279.74	232.567
1284.02	1.17188
1288.3	35.3213
1292.58	110.034
1296.85	16.4043
1301.12	202.273
1305.39	208.947
1309.66	61.498
1313.92	85.3164
1318.18	131.082
1322.44	98.7812
1326.7	87.1074
1330.95	147.422
1335.2	184.516
1339.45	128.809
1343.7	116.029
1347.95	123.143
1352.19	98.7598
1356.43	200.469
1360.66	136.996
1364.9	135.027
1369.13	212.738
1373.36	44.2734
1377.59	227.492
1381.81	70.1211
1386.04	215.045
1390.26	224.19
1394.47	38.4199
1398.69	58.5664
1402.9	245.891
1407.11	290.008
1411.32	26.502
1415.53	129.397
1419.73	89.5781
1423.93	17.8848
1428.13	41.0566
1432.32	141.56
1436.52	280.039
1440.71	119.367
1444.89	111.973
1449.08	169.885
1453.26	80.8457
1457.44	283.441
1461.62	88.5215
1465.8	271.486
1469.97	170.594
1474.14	216.023
1478.31	225.477
1482.48	168.691
1486.64	199.117
1490.81	190.283
1494.96	44.9434
1499.12	281.963
1503.28	224.408
1507.43	130.449
1511.58	31.7793
1515.72	113.504
1519.87	102.133
1524.01	239.06
1528.15	23.5449
1532.29	141.863
1536.42	248.207
1540.55	127.002
1544.68	233.723
1548.81	84.4844
1552.94	191.06
1557.06	339.445
1561.18	120.297
1565.3	0.882813
1569.41	133.057
1573.53	124.836
1577.64	133.432
