Measurement: Raman, 514 nm, ccw, Raman Data Processed
Mineral: Quartz
Rruff sample: R060604
Ideal chemistry: SiO_2_
Locality: Piedras Parada, Veracruz, Mexico
Source: Michael Scott
Description: Purple hexagonal prisms, variety amethyst
Measured chemistry: Si_1.00_O_2_
Raman shift (cm-1)	intensity
111.74	0
116.682	259.648
121.622	824.816
126.558	4782.23
131.492	6195.19
136.423	1700.51
141.352	1002.69
146.277	881.021
151.2	378.351
156.121	223.972
161.038	4.89404
165.953	167.254
170.865	256.295
175.774	402.312
180.681	798.256
185.585	1434.13
190.486	2240.99
195.384	4062.64
200.28	5958.32
205.173	7703.42
210.063	7892.57
214.95	6267.7
219.835	4178.35
224.717	2776.23
229.597	1797.35
234.473	1316.59
239.347	928.698
244.218	735.39
249.087	530.669
253.953	417.677
258.816	411.592
263.676	594.991
268.534	331.168
273.389	98.1826
278.241	202.145
283.091	229.643
287.938	77.0478
292.782	16.4502
297.623	88.9971
302.462	13.6777
307.298	25.292
312.131	172.284
316.962	139.019
321.79	61.2783
326.615	87.0088
331.438	9.23145
336.258	95.5635
341.075	12.2354
345.889	145.216
350.701	554.675
355.51	2097.39
360.317	1011.62
365.12	434.706
369.921	47.5166
374.72	81.7344
379.515	194.598
384.309	286.339
389.099	508.844
393.886	1662.03
398.671	1154
403.454	356.768
408.233	253.373
413.01	221.724
417.785	328.768
422.556	214.579
427.325	403.428
432.091	506.573
436.855	554.616
441.616	675.626
446.374	1242.31
451.13	2625.22
455.883	5273.56
460.633	15929.7
465.38	34662.9
470.125	22015.8
474.868	8250.51
479.607	3958.72
484.344	2389.9
489.078	1446.22
493.81	1195.08
498.539	915.757
503.265	837.626
507.989	646.148
512.71	508.178
517.428	504.617
522.144	415.271
526.857	297.92
531.567	210.304
536.275	229.128
540.98	269.84
545.683	243.443
550.383	150.941
555.08	159.285
559.774	191.619
564.466	46.8975
569.155	100.236
573.842	143.852
578.526	42.2588
583.207	49.2168
587.886	69.1768
592.562	2.6543
597.235	71.5244
601.906	84.0508
606.574	72.9971
611.24	191.743
615.903	42.333
620.563	145.702
625.221	116.228
629.876	122.211
634.528	137.742
639.178	72.7002
643.825	94.3731
648.47	191.654
653.112	2.4668
657.751	76.6416
662.388	48.292
667.022	3.58008
671.653	126.019
676.282	489.603
680.908	329.063
685.532	181.605
690.153	319.201
694.771	622.22
699.387	549.519
704	208.272
708.61	17.1133
713.218	76.8037
717.824	70.4746
722.426	78.2353
727.026	82.7871
731.624	77.249
736.219	37.2998
740.811	64.6484
745.401	12.9824
749.988	117.348
754.572	111.382
759.154	16.7256
763.734	177.745
768.31	68.9307
772.884	111.916
777.456	31.6572
782.025	0.730469
786.591	85.9394
791.155	306.077
795.716	428.3
800.275	321.088
804.831	290.357
809.384	116.945
813.935	211.062
818.483	179.514
823.029	115.917
827.572	211.242
832.112	87.5322
836.65	136.335
841.186	57.499
845.718	235.851
850.249	196.674
854.776	253.869
859.301	248.042
863.824	291.555
868.344	142.77
872.861	252.181
877.376	115.046
881.888	54.3281
886.397	396.615
890.904	200.335
895.409	233.69
899.911	115.809
904.41	120.026
908.907	179.399
913.401	244.466
917.893	315.732
922.382	241.725
926.869	160.407
931.353	153.298
935.834	261.129
940.313	14.0469
944.789	183.493
949.263	96.9033
953.734	120.176
958.203	145.103
962.669	68.8115
967.133	125.772
971.594	32.4736
976.052	40.0781
980.508	149.202
984.961	231.452
989.412	137.147
993.861	163.965
998.306	76.6045
1002.75	203.236
1007.19	257.75
1011.63	90.6055
1016.06	46.1172
1020.5	12.0508
1024.93	113.259
1029.36	243.351
1033.78	87.6016
1038.2	261.805
1042.62	669.952
1047.04	861.068
1051.46	407.262
1055.87	348.238
1060.28	441.047
1064.69	432.954
1069.09	334.024
1073.5	200.208
1077.9	197.478
1082.29	325.255
1086.69	1278.17
1091.08	439.055
1095.47	37.3359
1099.86	98.4863
1104.24	154.014
1108.63	237.568
1113.01	184.137
1117.38	5.07031
1121.76	70.916
1126.13	175.168
1130.5	302.769
1134.87	101.309
1139.23	99.0723
1143.6	192.885
1147.96	252.281
1152.32	323.527
1156.67	651.074
1161.02	1583.28
1165.37	1020.29
1169.72	441.441
1174.07	160.518
1178.41	90.7051
1182.75	83.9434
1187.08	25.2383
1191.42	22.5742
1195.75	125.283
1200.08	58.6367
1204.41	8.00586
1208.73	168.477
1213.06	61.9414
1217.38	65.4863
1221.69	190.113
1226.01	128.731
1230.32	141.328
1234.63	20.959
1238.94	86.9082
1243.24	27.1016
1247.55	137.332
1251.85	98.5508
1256.14	52.9707
1260.44	110.551
1264.73	223.315
1269.02	255.273
1273.31	39.377
1277.6	178.652
1281.88	100.133
1286.16	165.195
1290.44	70.8223
1294.71	190.481
1298.98	323.252
1303.26	345.135
1307.52	109.133
1311.79	120.252
1316.05	197.506
1320.31	71.2422
1324.57	208.977
1328.83	175.654
1333.08	83.2109
1337.33	90.2402
1341.58	24.4121
1345.82	144.748
1350.07	99.2441
1354.31	116.33
1358.55	270.623
1362.78	304.924
1367.02	117.356
1371.25	243.955
1375.48	431.701
1379.7	225.795
1383.92	97.1758
1388.15	119.037
1392.37	33.4648
1396.58	97.8965
1400.8	96.6387
1405.01	117.365
1409.22	86.9082
1413.42	127.383
1417.63	183.033
1421.83	222.041
1426.03	422.275
1430.22	397.781
1434.42	418.176
1438.61	259.438
1442.8	437.057
1446.99	471.121
1451.17	448.619
1455.35	403.346
1459.53	386.568
1463.71	362.006
1467.89	196.32
1472.06	430.812
1476.23	380.869
1480.4	297.615
1484.56	180.027
1488.72	201.18
1492.88	226.084
1497.04	275.793
1501.2	51.4043
1505.35	223.236
1509.5	5.72461
1513.65	168.06
1517.8	366.723
1521.94	513.566
1526.08	118.195
1530.22	70.791
1534.36	128.969
