Measurement: Raman, 514 nm, ccw, Raman Data Processed
Mineral: Quartz
Rruff sample: R060604
Ideal chemistry: SiO_2_
Locality: Piedras Parada, Veracruz, Mexico
Source: Michael Scott
Description: Purple hexagonal prisms, variety amethyst
Measured chemistry: Si_1.00_O_2_
Pin_id: L00806
Orientation: Laser parallel to a* (1 0 0). Fiducial mark perpendicular to laser is parallel to c [0 0 1]
Raman shift (cm-1)	intensity
100.61	0
105.559	35.4028
110.504	29.3378
115.447	24.5818
120.387	197.359
125.324	865.431
130.259	1550.2
135.191	620.66
140.12	521.447
145.046	362.441
149.97	229.684
154.891	379.34
159.809	550.38
164.724	826.565
169.637	1056.78
174.547	1351.17
179.454	1909.75
184.359	2760.91
189.261	4309.93
194.16	6669.94
199.056	10484
203.95	14276.3
208.841	15303.2
213.729	12803.5
218.614	8978.84
223.497	6170.65
228.377	4148.52
233.254	3052.53
238.129	2126.61
243.001	1755.71
247.87	1449.05
252.737	1129.4
257.6	1015.06
262.461	1131.92
267.32	983.585
272.175	403.815
277.028	327.456
281.879	189.394
286.726	105.537
291.571	82.8318
296.413	9.24048
301.252	13.7351
306.089	21.2622
310.923	31.6987
315.755	24.0032
320.583	8.75024
325.409	28.5994
330.232	66.6091
335.053	6.94336
339.871	1.56323
344.686	33.4421
349.498	327.519
354.308	2811.32
359.115	2662
363.92	612.174
368.721	264.726
373.52	160.124
378.317	63.5664
383.111	97.0823
387.902	26.7209
392.69	143.513
397.475	127.523
402.258	186.649
407.039	142.826
411.816	102.028
416.591	165.244
421.364	272.464
426.133	264.683
430.9	381.904
435.664	553.137
440.426	975.373
445.185	1540.7
449.941	3313.78
454.695	6758.51
459.445	20134.4
464.194	54257.7
468.939	43394.7
473.682	15974.2
478.423	7189.11
483.16	4278.62
487.895	2783.3
492.627	2071.93
497.357	1475.6
502.084	1223.32
506.808	977.1
511.53	786.942
516.249	807.855
520.965	618.426
525.679	475.614
530.39	373.545
535.098	400.485
539.804	302.539
544.507	254.642
549.208	270.955
553.906	277.311
558.601	131.707
563.293	135.143
567.983	183.62
572.671	102.49
577.355	162.214
582.037	115.618
586.717	129.777
591.393	168.468
596.067	165.371
600.739	132.907
605.408	115.423
610.074	86.2478
614.737	99.5242
619.398	125.07
624.057	102.148
628.712	94.301
633.365	72.4546
638.016	73.6216
642.664	68.8005
647.309	81.9888
651.951	56.1838
656.591	90.3833
661.229	8.42725
665.863	41.3167
670.495	16.4219
675.125	53.7297
679.752	27.2715
684.376	48.1294
688.998	12.5508
693.617	62.9602
698.233	106.357
702.847	87.7398
707.458	77.1243
712.066	8.5061
716.672	145.897
721.276	45.7051
725.877	20.4529
730.475	16.5388
735.07	52.5576
739.663	21.5039
744.254	14.5535
748.841	78.2803
753.426	54.989
758.009	31.6382
762.589	16.2324
767.166	43.7678
771.741	118.247
776.313	115.67
780.883	117.037
785.45	109.346
790.014	117.597
794.576	404.79
799.135	309.853
803.692	280.688
808.246	505.417
812.797	353.25
817.346	235.987
821.893	206.791
826.436	228.652
830.977	159.475
835.516	224.258
840.052	148.093
844.585	213.647
849.116	102.481
853.645	162.347
858.17	236.328
862.693	131.182
867.214	165.661
871.732	161.351
876.247	152.164
880.76	217.499
885.27	134.574
889.778	191.858
894.283	170.193
898.786	163.155
903.286	178.442
907.783	146.709
912.278	165.009
916.77	180.192
921.26	138.418
925.747	207.631
930.232	107.832
934.714	77.0344
939.193	86.281
943.67	125.637
948.145	102.112
952.617	64.6719
957.086	32.1853
961.553	82.6643
966.017	87.144
970.479	84.6267
974.938	0.890137
979.394	1.45996
983.848	76.928
988.3	14.1736
992.749	60.3809
997.195	6.7085
1001.64	75.019
1006.08	18.7378
1010.52	77.387
1014.96	36.6963
1019.39	68.0581
1023.82	48.4868
1028.25	100.937
1032.67	38.4194
1037.1	23.9448
1041.52	145.613
1045.94	231.255
1050.35	174.322
1054.77	126.022
1059.18	145.756
1063.59	190.516
1067.99	267.308
1072.4	365.135
1076.8	642.93
1081.19	1880.87
1085.59	1283.83
1089.98	422.93
1094.38	207.968
1098.76	75.0652
1103.15	119.195
1107.53	104.107
1111.91	93.4321
1116.29	30.269
1120.67	9.36646
1125.04	77.1894
1129.41	49.0149
1133.78	34.4438
1138.14	36.9255
1142.51	37.0823
1146.87	71.6399
1151.23	83.2239
1155.58	182.884
1159.93	252.592
1164.29	61.728
1168.63	160.072
1172.98	70.8259
1177.32	32.7502
1181.66	84.7141
1186	139.71
1190.34	35.7498
1194.67	47.8174
1199	141.004
1203.33	38.3831
1207.65	66.1514
1211.98	0.368408
1216.3	25.6245
1220.62	99.6387
1224.93	72.499
1229.24	44.9209
1233.56	109.382
1237.86	32.8823
1242.17	27.4851
1246.47	47.1758
1250.77	31.002
1255.07	87.9143
1259.37	47.8237
1263.66	45.4177
1267.95	96.0606
1272.24	113.829
1276.53	35.9553
1280.81	21.4177
1285.09	99.6152
1289.37	42.8945
1293.64	59.4463
1297.92	23.3384
1302.19	56.311
1306.46	65.4565
1310.72	16.2324
1314.99	105.431
1319.25	95.6426
1323.51	32.876
1327.76	62.1255
1332.02	96.3687
1336.27	64.645
1340.52	78.0732
1344.76	14.0117
1349.01	63.2051
1353.25	52.4082
1357.49	65.6724
1361.72	75.8633
1365.96	38.2041
1370.19	108.318
1374.42	91.5278
1378.64	25.2471
1382.87	74.6123
1387.09	81.7944
1391.31	112.962
1395.53	59.1338
1399.74	47.3198
1403.95	67.519
1408.16	57.7261
1412.37	24.041
1416.58	77.1099
1420.78	102.91
1424.98	62.6084
1429.18	94.0674
1433.37	151.039
1437.56	146.854
1441.75	133.749
1445.94	159.572
1450.13	168.636
1454.31	112.323
1458.49	239.083
1462.67	168.621
1466.84	95.8081
1471.02	81.2847
1475.19	71.7368
1479.36	118.102
1483.52	97.4146
1487.68	91.5635
1491.85	82.7915
1496	153.53
1500.16	47.0991
1504.31	4.24023
1508.46	80.9805
1512.61	65.1709
1516.76	124.367
1520.9	143.721
1525.05	85.2422
1529.18	102.816
1533.32	73.2959
1537.45	123.105
1541.59	140.225
1545.72	3.79394
1549.84	154.947
1553.97	102.378
1558.09	108.655
1562.21	97.8687
1566.33	103.922
1570.44	12.6943
1574.56	28.0342
1578.67	0
