Measurement: Raman, 514 nm, ccw, Raman Data Processed
Mineral: Quartz
Rruff sample: R040031
Ideal chemistry: SiO_2_
Locality: Spruce Claim, King County, Washington, USA
Source: Bob Downs
Description: Colorless hexagonal prism
Measured chemistry: Si_1.00_O_2_
Pin_id: L00425
Orientation: Laser parallel to b [0 1 0]. Fiducial mark perpendicular to laser is parallel to -c [0 0 -1]
Raman shift (cm-1)	intensity
94.863	0
99.792	57.6655
104.719	678.009
109.643	9742.62
114.565	1756.29
119.485	6571.89
124.402	7426.59
129.316	16693.3
134.229	11772.5
139.138	3092.35
144.046	1678.32
148.951	1552.39
153.853	1394.76
158.753	1027.51
163.651	1122.23
168.547	1487.59
173.439	1840.77
178.33	2847.03
183.218	3953.97
188.104	6205.89
192.987	9570.05
197.868	15240
202.746	22167.8
207.622	27100.2
212.495	25467.3
217.366	19366.3
222.235	12879.6
227.101	8709.82
231.965	5968.85
236.826	4099.21
241.685	3219.43
246.542	2594.39
251.396	2098.94
256.247	2190.38
261.096	2932.59
265.943	5449.34
270.787	3250.84
275.629	1049.49
280.468	416.875
285.305	347.697
290.14	62.7676
294.972	64.082
299.801	21.7622
304.629	155.998
309.453	106.842
314.275	53.7407
319.095	136.542
323.912	61.3227
328.727	115.091
333.54	44.0098
338.35	14.9487
343.157	191.241
347.962	784.985
352.765	2931.93
357.565	7340.24
362.362	2095.7
367.158	445.427
371.95	199.812
376.741	5.18408
381.528	51.1289
386.314	61.5527
391.096	328.834
395.877	603.283
400.655	1417.54
405.43	3104.41
410.203	880.829
414.974	455.745
419.742	354.129
424.507	536.96
429.27	729.222
434.031	953.905
438.789	1554.78
443.545	2586.26
448.298	4679.9
453.048	10162
457.797	26761.4
462.542	71340.7
467.285	107480
472.026	49867.2
476.764	19844.5
481.5	10226.5
486.233	6528.43
490.964	4775.69
495.693	3569.64
500.418	2933
505.142	3086.41
509.862	3492.62
514.581	2097.59
519.297	1428.15
524.01	1138.49
528.721	897.61
533.429	918.068
538.135	804.734
542.838	626.564
547.539	584.351
552.238	478.609
556.933	455.668
561.627	409.537
566.318	302.227
571.006	373.951
575.692	281.207
580.375	238.282
585.056	283.133
589.734	343.602
594.41	270.468
599.084	214.984
603.754	201.81
608.423	184.449
613.088	37.1948
617.752	233.428
622.412	54.7012
627.071	142.637
631.726	193.184
636.38	1.021
641.03	139.17
645.679	139.302
650.324	77.3691
654.967	33.3804
659.608	15.4243
664.246	36.417
668.882	106.614
673.515	37.4756
678.145	60.1245
682.774	3.56055
687.399	241.941
692.022	432.29
696.643	763.655
701.26	882.006
705.876	237.353
710.489	165.906
715.099	12.5254
719.707	70.0273
724.312	27.6958
728.915	100.463
733.515	51.583
738.113	113.644
742.708	22.6631
747.301	18.688
751.891	89.6826
756.479	52.648
761.064	45.4048
765.646	122.026
770.226	149.533
774.804	96.6773
779.379	141.692
783.951	233.018
788.521	304.208
793.088	349.484
797.653	579.021
802.215	1118.54
806.775	2387.66
811.332	3311.02
815.887	1473.44
820.439	641.578
824.988	448.338
829.535	360.831
834.08	374.202
838.621	374.445
843.161	415.79
847.698	560.533
852.232	545.917
856.763	579.567
861.293	715.301
865.819	545.351
870.343	296.726
874.865	229.843
879.384	391.209
883.9	459.139
888.414	507.883
892.925	523.333
897.434	555.041
901.94	444.335
906.444	283.805
910.945	544.715
915.443	354.742
919.939	312.903
924.433	370.979
928.923	376.709
933.412	225.303
937.897	291.908
942.381	243.725
946.861	157.597
951.339	131.793
955.815	176.739
960.288	64.5366
964.758	46.8242
969.226	97.5293
973.691	41.7319
978.154	24.3545
982.614	8.95557
987.071	202.973
991.526	22.8652
995.979	32.0054
1000.43	137.671
1004.88	554.191
1009.32	27.4273
1013.76	13.3535
1018.2	15.3115
1022.64	120.665
1027.07	110.89
1031.51	229.039
1035.93	120.07
1040.36	152.921
1044.79	167.493
1049.21	114.911
1053.63	97.0879
1058.04	123.177
1062.46	224.747
1066.87	225.656
1071.28	348.516
1075.68	648.889
1080.09	1694.27
1084.49	2395.57
1088.88	1223.8
1093.28	385.516
1097.67	260.671
1102.07	113.468
1106.45	181.17
1110.84	131.452
1115.22	35.4473
1119.6	108.014
1123.98	48.1201
1128.36	6.66016
1132.73	136.299
1137.1	45.1895
1141.46	35.4355
1145.83	217.318
1150.19	421.935
1154.55	1248.16
1158.91	2321.63
1163.26	1489.92
1167.62	642.086
1171.96	297.142
1176.31	177.322
1180.65	248.797
1185	180.015
1189.34	23.2529
1193.67	94.6406
1198.01	25.5293
1202.34	148.583
1206.67	220.109
1210.99	119.699
1215.32	337.032
1219.64	418.498
1223.95	640.287
1228.27	1136.24
1232.58	1376.43
1236.89	1180.03
1241.2	673.312
1245.51	385.816
1249.81	524.529
1254.11	430.187
1258.41	245.969
1262.7	267.021
1266.99	251.175
1271.29	336.446
1275.57	414.842
1279.86	244.606
1284.14	161.537
1288.42	167.388
1292.69	253.545
1296.97	345.839
1301.24	116.805
1305.51	154.468
1309.78	208.346
1314.04	348.424
1318.3	124.853
1322.56	167.279
1326.82	218.812
1331.07	265.093
1335.32	139.917
1339.57	63.2158
1343.81	6.67188
1348.06	85.5469
1352.3	31.5107
1356.53	73.5742
1360.77	32.7207
1365	6.95703
1369.23	16.7002
1373.46	124.737
1377.68	159.279
1381.91	142.956
1386.12	33.8428
1390.34	69.8955
1394.56	103.077
1398.77	23.6104
1402.98	69.8272
1407.18	42.417
1411.39	22.1631
1415.59	62.8535
1419.79	4.08496
1423.98	133.17
1428.18	197.636
1432.37	76.0664
1436.56	390.042
1440.74	664.109
1444.92	770.434
1449.11	831.449
1453.28	999.096
1457.46	979.298
1461.63	783.361
1465.8	648.479
1469.97	394.559
1474.13	366.889
1478.3	337.993
1482.45	351.403
1486.61	177.017
1490.77	121.576
1494.92	58.5273
1499.07	112.892
1503.21	26.2432
1507.36	42.4258
1511.5	60.541
1515.64	128.691
1519.77	128.906
1523.91	187.753
1528.04	172.523
1532.17	239.862
1536.29	118.689
1540.41	252.287
1544.54	195.804
1548.65	209.355
1552.77	234.314
1556.88	204.925
1560.99	4.69824
1565.1	329.415
1569.2	121.492
1573.3	219.718
1577.4	178.539
