Measurement: Raman, 514 nm, ccw, Raman Data Processed
Mineral: Quartz
Rruff sample: R040031
Ideal chemistry: SiO_2_
Locality: Spruce Claim, King County, Washington, USA
Source: Bob Downs
Description: Colorless hexagonal prism
Measured chemistry: Si_1.00_O_2_
Pin_id: L00425
Orientation: Laser parallel to b [0 1 0]. Fiducial mark perpendicular to laser is parallel to -c [0 0 -1]
Raman shift (cm-1)	intensity
94.863	0
99.792	9.70557
104.719	451.577
109.643	8460.57
114.565	1658.77
119.485	3120.8
124.402	837.215
129.316	1145.63
134.229	941.253
139.138	810.208
144.046	1685.31
148.951	2201.51
153.853	2129.79
158.753	1815.96
163.651	2060.22
168.547	2630.03
173.439	3546.39
178.33	5127.93
183.218	7671.83
188.104	11616.6
192.987	18298.4
197.868	28771.3
202.746	40944.3
207.622	50107.9
212.495	47624
217.366	35968.3
222.235	24058.2
227.101	16401.3
231.965	11326.7
236.826	7957.17
241.685	6127.39
246.542	4926.71
251.396	4167.41
256.247	3362.46
261.096	2888.74
265.943	2539.5
270.787	1615.29
275.629	915.346
280.468	588.447
285.305	515.371
290.14	253.984
294.972	41.1738
299.801	0.597168
304.629	1.42481
309.453	107.395
314.275	123.325
319.095	74.8857
323.912	137
328.727	146.711
333.54	109.214
338.35	93.4829
343.157	152.392
347.962	1090.42
352.765	4767.86
357.565	13586.9
362.362	4752.04
367.158	1322.17
371.95	725.828
376.741	441.057
381.528	371.869
386.314	240.307
391.096	360.432
395.877	405.3
400.655	376.972
405.43	492.327
410.203	350.171
414.974	506.377
419.742	798.956
424.507	940.881
429.27	1366.12
434.031	1728.87
438.789	2529.24
443.545	4530.28
448.298	8218.18
453.048	17820.5
457.797	47141.1
462.542	125699
467.285	184723
472.026	84521.8
476.764	33126
481.5	17512.1
486.233	10958.6
490.964	7676.12
495.693	5935.87
500.418	5010.39
505.142	4672.74
509.862	3599.94
514.581	2636.03
519.297	2242.99
524.01	2093.62
528.721	1600.17
533.429	1490.27
538.135	1322.73
542.838	1214.43
547.539	1180.99
552.238	1120.5
556.933	880.786
561.627	743.167
566.318	563.6
571.006	453.099
575.692	604.877
580.375	486.269
585.056	534.882
589.734	488.769
594.41	636.117
599.084	493.086
603.754	415.483
608.423	375.844
613.088	225.673
617.752	375.178
622.412	336.076
627.071	835.685
631.726	588.954
636.38	301.996
641.03	354.966
645.679	625.859
650.324	565.674
654.967	493.408
659.608	184.057
664.246	35.3828
668.882	48.0776
673.515	48.1211
678.145	100.746
682.774	111.168
687.399	63.7173
692.022	27.2822
696.643	97.6421
701.26	15.7988
705.876	81.3408
710.489	120.071
715.099	69.437
719.707	81.2998
724.312	6.52588
728.915	119.114
733.515	85.3999
738.113	66.3838
742.708	100.199
747.301	255.9
751.891	196.435
756.479	7.75146
761.064	172.786
765.646	133.565
770.226	203.074
774.804	234.328
779.379	150.328
783.951	246.075
788.521	333.569
793.088	521.81
797.653	599.798
802.215	762.393
806.775	1132.73
811.332	1543.07
815.887	998.557
820.439	618.956
824.988	555.312
829.535	488.054
834.08	663.3
838.621	597.696
843.161	709.233
847.698	798.904
852.232	707.27
856.763	896.596
861.293	981.498
865.819	745.057
870.343	575.442
874.865	599.778
879.384	513.387
883.9	667.849
888.414	658.621
892.925	646.521
897.434	567.379
901.94	598.859
906.444	543.653
910.945	532.496
915.443	575.24
919.939	496.933
924.433	392.537
928.923	428.086
933.412	315.612
937.897	285.125
942.381	207.706
946.861	141.381
951.339	372.317
955.815	138.527
960.288	124.947
964.758	140.428
969.226	37.0752
973.691	3.30664
978.154	14.3955
982.614	54.5742
987.071	32.3262
991.526	139.246
995.979	140.236
1000.43	136.115
1004.88	631.126
1009.32	115.189
1013.76	76.9121
1018.2	81.0137
1022.64	243.938
1027.07	144.889
1031.51	151.893
1035.93	121.936
1040.36	158.024
1044.79	63.1514
1049.21	255.631
1053.63	114.847
1058.04	227.56
1062.46	259.244
1066.87	412.497
1071.28	813.905
1075.68	1708.93
1080.09	4686.52
1084.49	6874.19
1088.88	2765.93
1093.28	932.713
1097.67	479.685
1102.07	393.207
1106.45	260.68
1110.84	317.109
1115.22	206.638
1119.6	152.008
1123.98	72.5049
1128.36	53.8145
1132.73	212.264
1137.1	19.9707
1141.46	23.2529
1145.83	103.596
1150.19	40.8418
1154.55	229.309
1158.91	441.353
1163.26	395.469
1167.62	221.658
1171.96	31.4316
1176.31	143.26
1180.65	107.65
1185	120.053
1189.34	72.5244
1193.67	74.001
1198.01	54.4307
1202.34	19.1182
1206.67	78.6758
1210.99	11.2773
1215.32	256.797
1219.64	142.496
1223.95	102.255
1228.27	253.766
1232.58	129.632
1236.89	247.931
1241.2	383.144
1245.51	189.48
1249.81	297.048
1254.11	178.678
1258.41	294.567
1262.7	370.428
1266.99	466.328
1271.29	339.383
1275.57	348.397
1279.86	412.548
1284.14	280.759
1288.42	275.006
1292.69	285.29
1296.97	138.608
1301.24	299.965
1305.51	195.356
1309.78	311.5
1314.04	364.058
1318.3	390.197
1322.56	395.447
1326.82	204.194
1331.07	289.279
1335.32	40.502
1339.57	84.3682
1343.81	131.69
1348.06	146.162
1352.3	110.962
1356.53	1.02637
1360.77	32.9238
1365	48.8076
1369.23	135.716
1373.46	158.612
1377.68	74.5273
1381.91	78.458
1386.12	116.034
1390.34	295.942
1394.56	66.9873
1398.77	135.899
1402.98	28.6201
1407.18	68.5977
1411.39	31.6152
1415.59	259.687
1419.79	48.6504
1423.98	229.98
1428.18	59.2158
1432.37	97.6074
1436.56	326.258
1440.74	612.631
1444.92	643.055
1449.11	818.293
1453.28	859.912
1457.46	880.821
1461.63	943.137
1465.8	490.952
1469.97	495.104
1474.13	315.191
1478.3	445.746
1482.45	372.584
1486.61	345.049
1490.77	35.2266
1494.92	114.526
1499.07	205.823
1503.21	53.1025
1507.36	53.3447
1511.5	94.1943
1515.64	202.966
1519.77	166.862
1523.91	57.3076
1528.04	128.147
1532.17	132.351
1536.29	240.977
1540.41	249.163
1544.54	471.573
1548.65	195.397
1552.77	188.839
1556.88	104.089
1560.99	80.7002
1565.1	207.007
1569.2	106.419
1573.3	148.36
1577.4	0.5
