Measurement: Raman, 514 nm, ccw, Raman Data Processed
Mineral: Quartz
Rruff sample: R060604
Ideal chemistry: SiO_2_
Locality: Piedras Parada, Veracruz, Mexico
Source: Michael Scott
Description: Purple hexagonal prisms, variety amethyst
Measured chemistry: Si_1.00_O_2_
Pin_id: L00806
Orientation: Laser parallel to a* (1 0 0). Fiducial mark perpendicular to laser is parallel to c [0 0 1]
Raman shift (cm-1)	intensity
101.848	0
106.795	53.3057
111.74	32.853
116.682	129.121
121.622	753.398
126.558	3563.02
131.492	4417.03
136.423	1318.17
141.352	621.905
146.277	473.908
151.2	451.407
156.121	294.783
161.038	317.133
165.953	338.112
170.865	539.674
175.774	623.597
180.681	1066.37
185.585	1555.88
190.486	2400.47
195.384	3699.95
200.28	5706.93
205.173	7348.64
210.063	7407.27
214.95	5886.22
219.835	4067.44
224.717	2577.18
229.597	1795.42
234.473	1191.87
239.347	1033.4
244.218	875.549
249.087	678.674
253.953	478.654
258.816	539.574
263.676	384.052
268.534	384.6
273.389	197.209
278.241	112.165
283.091	53.5879
287.938	28.3696
292.782	18.4404
297.623	30.7607
302.462	2.77295
307.298	76.7602
312.131	4.39697
316.962	100.112
321.79	11.8794
326.615	89.6836
331.438	83.4727
336.258	130.302
341.075	24.0869
345.889	147.939
350.701	513.682
355.51	1974.41
360.317	918.188
365.12	199.872
369.921	51.5117
374.72	42.7803
379.515	61.1728
384.309	12.8242
389.099	75.0654
393.886	730.885
398.671	437.986
403.454	617.253
408.233	241.629
413.01	138.087
417.785	104.832
422.556	160.393
427.325	273.995
432.091	225.56
436.855	342.679
441.616	589.018
446.374	982.565
451.13	1999.71
455.883	4797.26
460.633	14756.4
465.38	31368.8
470.125	20049.3
474.868	7567.47
479.607	3643.67
484.344	2270.64
489.078	1533.74
493.81	1134.87
498.539	971.149
503.265	675.455
507.989	667.117
512.71	602.391
517.428	448.884
522.144	516.167
526.857	249.012
531.567	320.253
536.275	232.014
540.98	195.453
545.683	294.804
550.383	291.31
555.08	38.043
559.774	207.516
564.466	180.27
569.155	104.061
573.842	41.9072
578.526	128.781
583.207	221.686
587.886	64.79
592.562	27.8975
597.235	225.062
601.906	157.047
606.574	7.29785
611.24	55.706
615.903	136.1
620.563	36.6299
625.221	190.399
629.876	126.908
634.528	134.83
639.178	25.5801
643.825	8.28027
648.47	10.6738
653.112	110.112
657.751	63.5664
662.388	53.206
667.022	38.1787
671.653	19.2959
676.282	70.6836
680.908	206.108
685.532	197.898
690.153	260.697
694.771	391.53
699.387	399.157
704	187.023
708.61	80.9121
713.218	127.821
717.824	152.284
722.426	86.207
727.026	132.133
731.624	80.0615
736.219	46.0078
740.811	21.4414
745.401	45.043
749.988	71.7471
754.572	115.546
759.154	16.2197
763.734	50.8779
768.31	16.667
772.884	111.406
777.456	106.945
782.025	237.259
786.591	49.4629
791.155	251.304
795.716	75.2402
800.275	60.6406
804.831	149.918
809.384	300.727
813.935	127.355
818.483	224.861
823.029	214.872
827.572	239.97
832.112	108.281
836.65	154.836
841.186	194.406
845.718	105.535
850.249	173.121
854.776	220.726
859.301	207.349
863.824	157.889
868.344	247.541
872.861	186.831
877.376	101.863
881.888	209.77
886.397	77.4502
890.904	136.158
895.409	84.6797
899.911	204.493
904.41	47.5781
908.907	41.2685
913.401	198.025
917.893	82.8418
922.382	261.03
926.869	176.225
931.353	69.4951
935.834	5.8291
940.313	52.8867
944.789	221.395
949.263	297.633
953.734	226.119
958.203	129.684
962.669	141.294
967.133	192.933
971.594	94.6357
976.052	16.416
980.508	66.2373
984.961	104.588
989.412	74.1025
993.861	60.165
998.306	106.317
1002.75	87.5644
1007.19	107.92
1011.63	82.6162
1016.06	16.7881
1020.5	147.723
1024.93	170.356
1029.36	49.3613
1033.78	82.5518
1038.2	209.856
1042.62	49.3135
1047.04	117.93
1051.46	250.679
1055.87	117.574
1060.28	76.6045
1064.69	328.774
1069.09	148.094
1073.5	72.6182
1077.9	130.183
1082.29	254.871
1086.69	84.6797
1091.08	70.6094
1095.47	95.0879
1099.86	194.992
1104.24	148.785
1108.63	18.2158
1113.01	163.223
1117.38	11.9072
1121.76	199.722
1126.13	31.665
1130.5	100.736
1134.87	193.938
1139.23	274.269
1143.6	189.996
1147.96	113.703
1152.32	371.568
1156.67	742.742
1161.02	982.738
1165.37	478.709
1169.72	178.566
1174.07	301.923
1178.41	149.528
1182.75	136.98
1187.08	154.666
1191.42	128.191
1195.75	103.46
1200.08	337.459
1204.41	20.2354
1208.73	63.0723
1213.06	237.435
1217.38	217.975
1221.69	216.656
1226.01	240.454
1230.32	354.365
1234.63	325.37
1238.94	329.466
1243.24	174.678
1247.55	294.728
1251.85	205.38
1256.14	355.883
1260.44	171.469
1264.73	264.12
1269.02	279.892
1273.31	320.759
1277.6	201.739
1281.88	76.1016
1286.16	28.2549
1290.44	54.6699
1294.71	34.123
1298.98	197.644
1303.26	163.939
1307.52	183.622
1311.79	189.384
1316.05	26.7715
1320.31	19.8936
1324.57	162.045
1328.83	73.0049
1333.08	167.019
1337.33	153.094
1341.58	126.228
1345.82	121.204
1350.07	150.45
1354.31	222.754
1358.55	243.11
1362.78	198.522
1367.02	199.985
1371.25	231.502
1375.48	201.057
1379.7	174.415
1383.92	210.094
1388.15	104.852
1392.37	152.69
1396.58	155.615
1400.8	310.631
1405.01	93.625
1409.22	193.667
1413.42	177.351
1417.63	40.3623
1421.83	222.852
1426.03	100.923
1430.22	233.534
1434.42	55.3193
1438.61	19.3184
1442.8	150.781
1446.99	114.426
1451.17	91.0254
1455.35	327.435
1459.53	313.918
1463.71	134.475
1467.89	142.018
1472.06	111.635
1476.23	131.328
1480.4	109.066
1484.56	259.824
1488.72	103.643
1492.88	219.514
1497.04	184.91
1501.2	130.123
1505.35	400.574
1509.5	245.283
1513.65	234.172
1517.8	272.289
1521.94	147.772
1526.08	212.176
1530.22	134.969
1534.36	57.2402
1538.49	279.1
1542.62	105.922
1546.75	247.598
1550.88	77.8398
1555	169.428
1559.12	384.6
1563.24	77.4805
1567.36	92.7051
1571.47	119.512
1575.58	282.193
