Measurement: Raman, 514 nm, depolarized, Raman Data Processed
Mineral: Quartz
Rruff sample: R040031
Ideal chemistry: SiO_2_
Locality: Spruce Claim, King County, Washington, USA
Source: Bob Downs
Description: Colorless hexagonal prism
Measured chemistry: Si_1.00_O_2_
Pin_id: L00425
Orientation: Laser parallel to b [0 1 0]. Fiducial mark perpendicular to laser is parallel to -c [0 0 -1]
Raman shift (cm-1)	intensity
94.863	0
99.792	59.0654
104.719	792.864
109.643	6143.71
114.565	2007.36
119.485	5232.28
124.402	5776.8
129.316	13439.9
134.229	9800
139.138	2851.28
144.046	1897.78
148.951	2039.53
153.853	1632.76
158.753	1353.53
163.651	1642.65
168.547	1940.39
173.439	2766.97
178.33	3919.69
183.218	5725.97
188.104	8518.46
192.987	13260.3
197.868	21202.7
202.746	31176.8
207.622	37792.2
212.495	35799.4
217.366	27637.6
222.235	18672.1
227.101	12426.2
231.965	8504.86
236.826	6072.21
241.685	4601.61
246.542	3645.74
251.396	2840.42
256.247	2804.72
261.096	2890.91
265.943	4127.7
270.787	2643.3
275.629	1014.12
280.468	491.578
285.305	256.467
290.14	155.589
294.972	20.2637
299.801	210.766
304.629	177.659
309.453	113.204
314.275	104.501
319.095	90.2207
323.912	53.3418
328.727	155.681
333.54	7.42188
338.35	12.2715
343.157	261.647
347.962	981.078
352.765	3928.45
357.565	10221.5
362.362	3279.62
367.158	778.214
371.95	197.923
376.741	68.7051
381.528	39.7266
386.314	269.093
391.096	291.853
395.877	513.762
400.655	1519.83
405.43	3239.84
410.203	1024.75
414.974	696.523
419.742	514.144
424.507	649.614
429.27	995.479
434.031	1281.53
438.789	2010.72
443.545	3300.16
448.298	6309.16
453.048	13471.3
457.797	35761.6
462.542	95578.4
467.285	149524
472.026	70878.3
476.764	27946.9
481.5	14387.4
486.233	9205.56
490.964	6256.39
495.693	4845.92
500.418	4110.68
505.142	4063.19
509.862	3620.53
514.581	2690.46
519.297	2047.8
524.01	1679.93
528.721	1400.18
533.429	1220.49
538.135	1083.96
542.838	991.273
547.539	886.16
552.238	759.943
556.933	560.789
561.627	512.361
566.318	494.731
571.006	534.95
575.692	420.853
580.375	353.742
585.056	409.837
589.734	505.197
594.41	389.458
599.084	229.499
603.754	318.911
608.423	269.114
613.088	100.976
617.752	275.431
622.412	265.474
627.071	567.984
631.726	492.315
636.38	183.705
641.03	279.856
645.679	440.56
650.324	338.545
654.967	439.975
659.608	109.957
664.246	88.2822
668.882	43.1025
673.515	66.9863
678.145	56.8496
682.774	135.823
687.399	93.1943
692.022	330.345
696.643	792.949
701.26	742.067
705.876	361.853
710.489	84.5459
715.099	198.815
719.707	57.4697
724.312	109.495
728.915	106.988
733.515	16.1123
738.113	9.93262
742.708	64.3135
747.301	36.3496
751.891	11.0361
756.479	44.3623
761.064	0.976563
765.646	115.329
770.226	44.7217
774.804	101.139
779.379	182.565
783.951	130.953
788.521	203.261
793.088	344.775
797.653	580.56
802.215	810.432
806.775	1621.43
811.332	2356.04
815.887	1261.22
820.439	594.356
824.988	378.536
829.535	320.179
834.08	268.044
838.621	539.089
843.161	470.603
847.698	480.914
852.232	599.023
856.763	667.332
861.293	744.494
865.819	658.52
870.343	297.062
874.865	498.536
879.384	312.94
883.9	514.305
888.414	427.266
892.925	628.352
897.434	484.714
901.94	605.247
906.444	485.583
910.945	517.231
915.443	523.508
919.939	408.024
924.433	478.911
928.923	421.032
933.412	329.413
937.897	271.081
942.381	82.0469
946.861	155.175
951.339	189.67
955.815	187.434
960.288	171.419
964.758	69.5625
969.226	13.1729
973.691	107.002
978.154	80.2676
982.614	48.6875
987.071	109.454
991.526	10.0957
995.979	59.2793
1000.43	160.472
1004.88	448.786
1009.32	0.412109
1013.76	71.1436
1018.2	110.533
1022.64	286.776
1027.07	157.353
1031.51	174.413
1035.93	191.835
1040.36	38.6123
1044.79	131.725
1049.21	178.215
1053.63	225.131
1058.04	205.669
1062.46	223.54
1066.87	385.194
1071.28	408.81
1075.68	803.129
1080.09	2125.88
1084.49	3528.15
1088.88	1609.41
1093.28	644.766
1097.67	459.335
1102.07	284.32
1106.45	229.04
1110.84	234.099
1115.22	175.999
1119.6	119.323
1123.98	124.055
1128.36	87.4365
1132.73	139.019
1137.1	181.469
1141.46	208.409
1145.83	197.24
1150.19	309.661
1154.55	968.11
1158.91	2063.28
1163.26	1476.12
1167.62	621.017
1171.96	252.647
1176.31	170.759
1180.65	102.561
1185	102.517
1189.34	51.8291
1193.67	110.501
1198.01	19.4795
1202.34	156.898
1206.67	69.6924
1210.99	283.943
1215.32	306.475
1219.64	336.691
1223.95	734.356
1228.27	1085.54
1232.58	1165.29
1236.89	992.727
1241.2	753.156
1245.51	318.545
1249.81	457.752
1254.11	237.953
1258.41	372.074
1262.7	361.606
1266.99	517.354
1271.29	500.752
1275.57	585.127
1279.86	524.689
1284.14	372.775
1288.42	194.525
1292.69	310.443
1296.97	254.16
1301.24	365.443
1305.51	40.4375
1309.78	336.127
1314.04	411.516
1318.3	486.443
1322.56	216.967
1326.82	228.367
1331.07	213.582
1335.32	167.502
1339.57	1.98242
1343.81	186.162
1348.06	0.068359
1352.3	172.379
1356.53	141.508
1360.77	6.31445
1365	121.801
1369.23	120.955
1373.46	91.7266
1377.68	173.357
1381.91	245.367
1386.12	142.055
1390.34	300.406
1394.56	181.408
1398.77	188.066
1402.98	62.3828
1407.18	41.6348
1411.39	77.9863
1415.59	26.2754
1419.79	198.56
1423.98	155
1428.18	155.019
1432.37	146.596
1436.56	371.678
1440.74	660.537
1444.92	481.574
1449.11	870.746
1453.28	828.506
1457.46	831.238
1461.63	768.84
1465.8	471.668
1469.97	481.779
1474.13	358.609
1478.3	305.394
1482.45	395.477
1486.61	352.072
1490.77	284.43
1494.92	173.268
1499.07	108.078
1503.21	85.0781
1507.36	96
1511.5	182.635
1515.64	226.766
1519.77	293.656
1523.91	112.914
1528.04	176.758
1532.17	289.092
1536.29	187.084
1540.41	201.32
1544.54	382.352
1548.65	173.065
1552.77	234.451
1556.88	200.338
1560.99	13.9844
1565.1	195.857
1569.2	213.502
1573.3	301.914
1577.4	0.201172
