Measurement: Raman, 514 nm, ccw, Raman Data Processed
Mineral: Quartz
Rruff sample: R060604
Ideal chemistry: SiO_2_
Locality: Piedras Parada, Veracruz, Mexico
Source: Michael Scott
Description: Purple hexagonal prisms, variety amethyst
Measured chemistry: Si_1.00_O_2_
Pin_id: L00806
Orientation: Laser parallel to a* (1 0 0). Fiducial mark perpendicular to laser is parallel to c [0 0 1]
Raman shift (cm-1)	intensity
90.706	0
95.659	31.8425
100.61	62.4404
105.559	47.804
110.504	68.1252
115.447	286.691
120.387	754.287
125.324	3462.74
130.259	6558.69
135.191	2570.9
140.12	768.662
145.046	548.726
149.97	420.67
154.891	396.675
159.809	260.3
164.724	326.81
169.637	521.039
174.547	598.131
179.454	819.024
184.359	1131.93
189.261	1745.1
194.16	2883.11
199.056	4417.53
203.95	6090.96
208.841	6574.53
213.729	5628.39
218.614	3968.69
223.497	2534.72
228.377	1775.79
233.254	1276.5
238.129	956.937
243.001	751.03
247.87	631.663
252.737	494.493
257.6	561.202
262.461	951.405
267.32	1223.96
272.175	435.782
277.028	196.777
281.879	69.8967
286.726	57.1043
291.571	61.3718
296.413	24.665
301.252	5.07886
306.089	23.0901
310.923	29.1916
315.755	7.20117
320.583	29.0049
325.409	35.6201
330.232	22.8755
335.053	49.4851
339.871	0.29248
344.686	73.8013
349.498	299.733
354.308	1439.25
359.115	1206.41
363.92	214.367
368.721	35.3013
373.52	69.2007
378.317	23.0386
383.111	69.7837
387.902	139.443
392.69	423.135
397.475	524.823
402.258	883.502
407.039	580.145
411.816	151.742
416.591	93.2861
421.364	88.7715
426.133	202.197
430.9	218.411
435.664	259.71
440.426	373.945
445.185	630.636
449.941	1362.52
454.695	3022.01
459.445	8519.97
464.194	24116.4
468.939	20582.7
473.682	7764.42
478.423	3507.69
483.16	2123.74
487.895	1549.71
492.627	1128.64
497.357	747.533
502.084	617.446
506.808	562.303
511.53	734.354
516.249	638.659
520.965	473.188
525.679	275.895
530.39	285.306
535.098	213.108
539.804	223.826
544.507	130.622
549.208	172.378
553.906	74.0102
558.601	105.619
563.293	90.2022
567.983	106.865
572.671	58.5102
577.355	74.2012
582.037	111.434
586.717	21.0869
591.393	31.5689
596.067	74.7012
600.739	86.6118
605.408	54.3584
610.074	59.3857
614.737	67.8813
619.398	1.17041
624.057	41.2559
628.712	90.1738
633.365	62.1069
638.016	72.6851
642.664	44.6704
647.309	90.3613
651.951	65.9595
656.591	27.4468
661.229	43.0918
665.863	44.6323
670.495	15.1606
675.125	65.6108
679.752	59.0132
684.376	111.349
688.998	131.643
693.617	244.899
698.233	434.134
702.847	154.377
707.458	70.5615
712.066	24.7314
716.672	163.856
721.276	80.9038
725.877	59.8408
730.475	76.938
735.07	71.5972
739.663	111.172
744.254	28.6977
748.841	13.0781
753.426	43.8516
758.009	13.2197
762.589	98.8198
767.166	44.0615
771.741	99.2573
776.313	12.4048
780.883	12.4536
785.45	157.474
790.014	186.226
794.576	241.139
799.135	228.082
803.692	429.595
808.246	1073.97
812.797	684.705
817.346	377.385
821.893	200.918
826.436	171.194
830.977	153.995
835.516	218.768
840.052	222.221
844.585	91.3648
849.116	209.531
853.645	192.727
858.17	203.987
862.693	156.027
867.214	124.833
871.732	112.826
876.247	159.615
880.76	62.6826
885.27	120.23
889.778	158.388
894.283	100.531
898.786	143.684
903.286	119.869
907.783	149.981
912.278	127.95
916.77	150.743
921.26	90.8852
925.747	136.941
930.232	17.0088
934.714	132.01
939.193	15.0156
943.67	107.053
948.145	115.092
952.617	89.1309
957.086	124.174
961.553	112.213
966.017	16.7524
970.479	52.2329
974.938	107.312
979.394	136.228
983.848	82.1143
988.3	35.0083
992.749	15.0659
997.195	156.844
1001.64	66.6992
1006.08	110.179
1010.52	132.252
1014.96	19.3428
1019.39	4.54297
1023.82	14.5005
1028.25	13.5376
1032.67	78.5078
1037.1	102.488
1041.52	102.481
1045.94	159.492
1050.35	227.177
1054.77	105.603
1059.18	107.733
1063.59	184.571
1067.99	146.769
1072.4	200.397
1076.8	285.666
1081.19	417.959
1085.59	398.281
1089.98	277.631
1094.38	37.0088
1098.76	87.1699
1103.15	191.623
1107.53	16.1182
1111.91	80.8203
1116.29	135.44
1120.67	115.129
1125.04	89.1357
1129.41	7.09326
1133.78	6.92822
1138.14	100.418
1142.51	192.161
1146.87	137.686
1151.23	283.07
1155.58	437.667
1159.93	803.951
1164.29	527.971
1168.63	313.885
1172.98	162.031
1177.32	92.2554
1181.66	34.5132
1186	156.905
1190.34	65.6343
1194.67	36.75
1199	128.726
1203.33	54.269
1207.65	117.852
1211.98	89.4922
1216.3	40.1904
1220.62	125.949
1224.93	130.767
1229.24	147.649
1233.56	284.056
1237.86	193.97
1242.17	200.036
1246.47	51.916
1250.77	83.1899
1255.07	220.538
1259.37	21.438
1263.66	42.1172
1267.95	159.633
1272.24	53.2153
1276.53	152.875
1280.81	169.86
1285.09	14.6538
1289.37	133.514
1293.64	126.767
1297.92	30.3882
1302.19	80.5088
1306.46	87.6773
1310.72	79.8272
1314.99	14.1152
1319.25	106.445
1323.51	24.8584
1327.76	110.323
1332.02	70.7568
1336.27	81.3301
1340.52	2.97168
1344.76	57.6748
1349.01	35.4238
1353.25	161.205
1357.49	70.0361
1361.72	1.87305
1365.96	137.016
1370.19	99.0088
1374.42	209.051
1378.64	16.4629
1382.87	38.5693
1387.09	43.7725
1391.31	66.0576
1395.53	41.4424
1399.74	147.906
1403.95	26.7021
1408.16	77.2969
1412.37	50.3369
1416.58	10.9355
1420.78	18.9824
1424.98	99.0137
1429.18	197.049
1433.37	102.232
1437.56	91.2178
1441.75	215.728
1445.94	180.594
1450.13	203.841
1454.31	207.483
1458.49	234.548
1462.67	246.926
1466.84	80.4219
1471.02	132.389
1475.19	74.9238
1479.36	210.575
1483.52	99.3184
1487.68	109.24
1491.85	73.4326
1496	184.098
1500.16	81.9707
1504.31	150.758
1508.46	61.5986
1512.61	201.082
1516.76	130.631
1520.9	82.3506
1525.05	153.262
1529.18	222.576
1533.32	113.77
1537.45	152.269
1541.59	236.69
1545.72	215.598
1549.84	176.609
1553.97	95.5488
1558.09	157.957
1562.21	225.669
1566.33	214.466
1570.44	175.599
1574.56	4.33691
1578.67	0
