Measurement: Raman, 514 nm, depolarized, Raman Data Processed
Mineral: Quartz
Rruff sample: R040031
Ideal chemistry: SiO_2_
Locality: Spruce Claim, King County, Washington, USA
Source: Bob Downs
Description: Colorless hexagonal prism
Measured chemistry: Si_1.00_O_2_
Pin_id: L00402
Orientation: Laser parallel to c* (0 0 1). Fiducial mark perpendicular to laser is parallel to a [1 0 0]
Raman shift (cm-1)	intensity
102.256	0
107.181	14.6096
112.105	6045.75
117.025	1955.26
121.943	5507.65
126.859	19397.4
131.773	42983
136.684	12659.9
141.592	3674.4
146.499	2571.77
151.402	2195.77
156.304	1638.59
161.203	1103.15
166.099	1590.79
170.993	2582.03
175.885	3865.19
180.774	5947.85
185.661	9387.68
190.545	14695.6
195.427	23780.5
200.307	36857.2
205.184	51623.3
210.059	55514.8
214.931	46679
219.801	31923.8
224.668	20948.3
229.533	14163.1
234.396	9789.64
239.256	7110.34
244.114	5285.35
248.969	4226.84
253.822	3278.02
258.672	2831.68
263.52	2550.81
268.365	1894.21
273.208	855.027
278.049	479.068
282.887	236.425
287.723	34.4905
292.556	120.126
297.387	171.042
302.215	176.119
307.041	175.06
311.865	134.126
316.686	209.179
321.504	167.231
326.32	63.019
331.134	7.76709
335.945	34.3071
340.754	399.871
345.56	1073.06
350.364	3135.01
355.165	12886.4
359.964	8709.65
364.76	1160.12
369.554	182.846
374.346	56.907
379.135	120.176
383.921	471.857
388.705	2033.81
393.487	9018.6
398.266	7666.47
403.043	1472.08
407.817	548.209
412.589	696.718
417.358	735.528
422.125	1017.58
426.889	1323.84
431.651	1753.29
436.41	2490.94
441.167	3855.39
445.921	6759.48
450.673	13229.6
455.423	30356.8
460.17	83733
464.914	218570
469.656	175469
474.396	65464
479.133	29601.8
483.867	17368.4
488.599	11748.8
493.329	8627.02
498.056	6690.92
502.78	5340.59
507.502	4313.07
512.222	3338.3
516.939	2900.77
521.654	2463.02
526.366	2112.01
531.075	1895.89
535.782	1779.64
540.487	1557.22
545.189	1333.66
549.889	1175
554.586	923.226
559.28	739.364
563.973	557.426
568.662	463.427
573.349	357.385
578.034	406.376
582.716	375.852
587.396	284.212
592.073	435.112
596.747	399.859
601.419	192.427
606.089	240.068
610.756	138.537
615.42	145.637
620.082	111.552
624.742	117.175
629.399	204.813
634.053	36.9053
638.705	38.9006
643.355	100.274
648.002	86.4524
652.646	61.7315
657.288	37.9954
661.927	71.7317
666.564	73.2952
671.199	59.4966
675.831	71.8201
680.46	180.092
685.087	367.459
689.711	966.924
694.333	2523.49
698.952	2999.15
703.569	1194.44
708.183	477.796
712.794	197.036
717.403	182.126
722.01	67.4536
726.614	77.8603
731.216	13.3699
735.815	29.9214
740.411	42.4976
745.005	68.9609
749.596	65.4749
754.185	4.48364
758.772	23.9233
763.355	6.37866
767.937	73.2373
772.515	36.9062
777.091	18.4863
781.665	141.966
786.236	240.356
790.805	389.652
795.371	883.923
799.934	859.283
804.495	471.432
809.054	411.054
813.61	357.958
818.163	322.732
822.714	305.44
827.262	352.078
831.808	341.643
836.351	290.166
840.891	312.791
845.429	352.003
849.965	357.965
854.498	268.689
859.028	417.957
863.556	355.659
868.082	261.717
872.604	249.007
877.125	291.807
881.642	229.05
886.157	300.74
890.67	385.87
895.18	502.614
899.687	425.576
904.192	461.327
908.695	403.878
913.194	443.217
917.692	423.735
922.186	568.148
926.678	364.454
931.168	449.673
935.655	291.993
940.139	276.212
944.621	273.425
949.101	300.44
953.577	137.379
958.052	213.227
962.523	212.985
966.992	158.656
971.459	107.241
975.923	21.7346
980.384	23.9656
984.843	23.0344
989.299	6.92871
993.753	3.72315
998.204	2.6062
1002.65	28.8887
1007.1	15.2354
1011.54	6.57056
1015.98	0.451416
1020.42	32.7835
1024.86	55.7581
1029.29	12.1885
1033.72	13.4045
1038.15	49.0791
1042.57	178.55
1047	114.985
1051.42	154.389
1055.84	176.759
1060.25	350.108
1064.66	890.457
1069.07	996.862
1073.48	568.236
1077.88	620.623
1082.29	1113
1086.69	765.394
1091.08	423.772
1095.48	260.159
1099.87	208.534
1104.26	248.877
1108.65	116.001
1113.03	152.607
1117.41	71.1133
1121.79	138.838
1126.17	140.949
1130.54	220.228
1134.91	305.425
1139.28	345.005
1143.65	624.586
1148.01	840.76
1152.37	1712.86
1156.73	3742.25
1161.09	8521.88
1165.44	7568.46
1169.79	2694.05
1174.14	1025.82
1178.48	599.501
1182.83	334.246
1187.17	259.932
1191.51	159.007
1195.84	157.712
1200.17	107.553
1204.5	181.31
1208.83	162.258
1213.15	116.152
1217.48	182.049
1221.8	343.102
1226.11	163.367
1230.43	151.019
1234.74	106.561
1239.05	138.596
1243.36	101.016
1247.66	156.937
1251.96	175.981
1256.26	70.3857
1260.56	201.85
1264.85	121.418
1269.14	153.251
1273.43	114.041
1277.71	97.9258
1282	79.7671
1286.28	127.657
1290.56	73.7502
1294.83	91.8294
1299.11	11.8809
1303.38	20.4104
1307.64	24.936
1311.91	54.9397
1316.17	10.9424
1320.43	55.8887
1324.69	51.7053
1328.94	74.3606
1333.19	44.9497
1337.44	27.5886
1341.69	59.2273
1345.93	64.188
1350.18	46.6428
1354.41	71.417
1358.65	38.3911
1362.89	78.2803
1367.12	42.0923
1371.35	16.3987
1375.57	22.3723
1379.8	75.5147
1384.02	86.3936
1388.23	125.472
1392.45	21.8132
1396.66	115.56
1400.87	120.087
1405.08	92.667
1409.29	114.906
1413.49	87.2329
1417.69	123.376
1421.89	151.151
1426.08	127.687
1430.27	157.013
1434.46	177.264
1438.65	162.355
1442.83	104.984
1447.02	173.555
1451.19	116.793
1455.37	228.31
1459.55	163.44
1463.72	123.634
1467.88	42.7312
1472.05	66.1231
1476.21	203.311
1480.38	111.999
1484.53	107.515
1488.69	88.6728
1492.84	64.2432
1496.99	119.063
1501.14	27.4978
1505.29	8.02271
1509.43	34.301
1513.57	88.4377
1517.71	91.8833
1521.84	36.5894
1525.97	90.1699
1530.1	107.372
1534.23	49.885
1538.35	121.978
1542.47	70.1523
1546.59	114.7
1550.71	79.2236
1554.82	119.012
1558.94	88.657
1563.04	3.68628
1567.15	154.632
1571.25	70.2126
1575.35	64.8311
