Measurement: Raman, 514 nm, depolarized, Raman Data Processed
Mineral: Quartz
Rruff sample: R050125
Ideal chemistry: SiO_2_
Locality: Linopolis, Minas Gerais, Brazil
Source: Carlos and Paulo Vasconcelos
Description: Pale pink group of single crystals, variety rose quartz
Measured chemistry: Si_1.00_O_2_
Pin_id: L00315
Orientation: Laser parallel to a* (1 0 0). Fiducial mark perpendicular to laser is parallel to c [0 0 1]
Raman shift (cm-1)	intensity
47.49	0
51.717	59.981
55.942	106.46
60.165	150.654
64.386	168.274
68.604	149.687
72.82	128.978
77.034	91.301
81.246	39.865
85.455	2.027
89.663	0.606
93.868	13.64
98.07	40.01
102.271	70.609
106.469	179.349
110.665	563.207
114.859	370.296
119.05	851.96
123.24	2580.14
127.427	4395.25
131.612	1958.31
135.794	945.557
139.975	779.952
144.153	776.361
148.329	698.711
152.503	641.854
156.674	599.561
160.843	593.644
165.011	661.553
169.175	868.493
173.338	1036.46
177.499	1339.74
181.657	1763.55
185.813	2470.73
189.967	3529.65
194.119	5024.29
198.268	7006.94
202.415	8308.65
206.561	8583.4
210.703	7702.19
214.844	5995.1
218.983	4165
223.119	3027.29
227.253	2339.06
231.385	1793.37
235.515	1327.96
239.643	1074.01
243.768	985.002
247.891	832.437
252.012	718.517
256.131	720.257
260.248	987.567
264.363	1120.91
268.475	615.086
272.585	311.51
276.693	211.971
280.799	144.47
284.903	106.997
289.005	81.546
293.104	66.115
297.201	44.706
301.296	3.682
305.389	11.945
309.48	23.412
313.569	2.786
317.655	13.161
321.74	5.526
325.822	13.88
329.902	30.234
333.98	15.733
338.056	7.001
342.129	44.647
346.201	165.331
350.27	899.033
354.337	2564.74
358.402	1156.42
362.465	297.155
366.526	106.929
370.585	35.734
374.642	31.569
378.696	33.429
382.748	29.275
386.799	125.096
390.847	417.92
394.893	528.754
398.936	298.612
402.978	375.496
407.018	155.433
411.055	90.425
415.091	101.471
419.124	152.592
423.155	201.778
427.184	241.015
431.211	302.286
435.236	411.58
439.259	649.902
443.28	1084.25
447.298	1943.61
451.315	3354
455.329	6949.41
459.341	18340.8
463.352	35748.2
467.36	26705.6
471.366	12021.5
475.37	5944.77
479.372	3516.98
483.371	2500.61
487.369	1934.14
491.365	1501.78
495.358	1208.65
499.35	1127.08
503.339	1075.1
507.326	1008.65
511.311	737.344
515.295	589.942
519.276	534.857
523.255	461.977
527.232	407.263
531.207	357.489
535.179	346.264
539.15	296.05
543.119	279.621
547.086	272.433
551.05	210.257
555.013	171.55
558.973	117.402
562.932	114.502
566.888	101.339
570.842	93.485
574.795	103.37
578.745	88.26
582.693	99.45
586.639	80.767
590.583	108.67
594.525	59.923
598.465	52.247
602.403	61.748
606.339	64.826
610.273	55.569
614.205	13.476
618.135	39.382
622.063	9.288
625.989	5.189
629.912	12.098
633.834	62.042
637.754	7.002
641.671	25.957
645.587	10.074
649.501	2.919
653.412	16.004
657.322	1.004
661.23	20.014
665.135	17.153
669.039	25.383
672.94	17.306
676.84	15.96
680.738	11.568
684.633	49.16
688.527	80.742
692.418	220.338
696.308	295.936
700.195	137.536
704.081	71.132
707.964	31.721
711.846	43.302
715.726	24.867
719.603	22.567
723.479	0.92
727.352	27.374
731.224	25.517
735.094	29.241
738.961	27.651
742.827	32.033
746.691	7.396
750.552	38.74
754.412	26.064
758.27	45.374
762.125	39.668
765.979	36.948
769.831	46.213
773.681	69.464
777.529	66.608
781.375	63.83
785.219	96.02
789.06	130.211
792.901	292.902
796.739	331.062
800.575	308.496
804.409	493.607
808.241	610.72
812.071	442.606
815.899	228.101
819.726	135.457
823.55	124.478
827.372	106.163
831.193	144.448
835.011	114.287
838.828	128.503
842.642	132.512
846.455	101.232
850.266	119.235
854.075	82.213
857.881	87.44
861.686	77.715
865.489	62.086
869.29	84.339
873.089	53.692
876.886	98.114
880.682	88.008
884.475	78.917
888.266	109.819
892.056	87.422
895.843	107.895
899.629	119.74
903.413	96.329
907.194	72.212
910.974	82.087
914.752	80.96
918.528	92.836
922.302	133.709
926.074	86.579
929.844	76.444
933.613	41.312
937.379	26.177
941.144	29.042
944.906	73.907
948.667	60.776
952.426	69.648
956.183	58.526
959.938	24.403
963.691	10.282
967.442	28.209
971.191	2.198
974.939	13.778
978.684	8.766
982.428	6.236
986.169	3.75
989.909	9.258
993.647	12.666
997.383	0.229
1001.12	18.194
1004.85	4.824
1008.58	5.847
1012.31	14.859
1016.03	36.116
1019.76	56.085
1023.48	52.043
1027.2	39.032
1030.92	24.036
1034.64	22.048
1038.36	42.084
1042.07	49.138
1045.78	72.215
1049.49	50.008
1053.2	55.097
1056.9	105.191
1060.61	173.297
1064.31	266.396
1068.01	221.522
1071.71	251.627
1075.41	444.735
1079.1	868.861
1082.79	628.992
1086.48	261.125
1090.17	151.261
1093.86	125.398
1097.55	88.537
1101.23	79.678
1104.91	46.846
1108.59	65.989
1112.27	59.133
1115.95	10.978
1119.62	49.126
1123.3	68.953
1126.97	43.678
1130.63	68.891
1134.3	68.603
1137.97	59.699
1141.63	74.537
1145.29	88.008
1148.95	213.004
1152.61	378.877
1156.27	615.145
1159.92	588.719
1163.57	299.9
1167.22	186.73
1170.87	57.827
1174.52	58.932
1178.16	51.161
1181.81	51.959
1185.45	57.007
1189.09	16.954
1192.73	10.531
1196.36	24.554
1200	59.594
1203.63	20.655
1207.26	72.766
1210.89	83.835
1214.52	83.935
1218.14	32.093
1221.77	53.211
1225.39	83.468
1229.01	154.502
1232.62	146.568
1236.24	113.527
1239.86	75.505
1243.47	69.482
1247.08	13.419
1250.69	37.345
1254.3	36.267
1257.9	8.43
1261.5	62.456
1265.11	65.392
1268.71	24.228
1272.3	85.059
1275.9	59.924
1279.49	17.79
1283.09	29.545
1286.68	9.273
1290.27	12.008
1293.86	28.679
1297.44	58.346
1301.03	69.983
1304.61	44.573
1308.19	21.15
1311.77	1.239
1315.34	28.317
1318.92	14.149
1322.49	16.342
1326.06	22.804
1329.63	2.245
1333.2	36.948
1336.77	57.606
1340.33	26.956
1343.89	19.358
1347.46	6.684
1351.02	12.993
1354.57	22.308
1358.13	23.614
1361.68	40.899
1365.23	8.178
1368.79	11.452
1372.33	65.026
1375.88	49.465
1379.43	71.797
1382.97	20.635
1386.51	46.493
1390.05	51.484
1393.59	49.262
1397.13	22.992
1400.66	82.643
1404.19	114.406
1407.72	93.713
1411.25	80.963
1414.78	52.355
1418.31	24.351
1421.83	35.681
1425.36	25.222
1428.88	46.674
1432.39	44.796
1435.91	51.693
1439.43	53.34
1442.94	95.745
1446.45	98.296
1449.96	65.016
1453.47	39.629
1456.98	99.211
1460.48	32.734
1463.99	30.999
1467.49	13.416
1470.99	27.843
1474.49	50.636
1477.99	67.43
1481.48	106.375
1484.97	72.283
1488.46	54.464
1491.95	51.946
1495.44	43.606
1498.93	74.329
1502.41	57.734
1505.9	33.877
1509.38	1.634
1512.86	27.851
1516.34	0
