Measurement: Raman, 514 nm, ccw, Raman Data Processed
Mineral: Quartz
Rruff sample: R040031
Ideal chemistry: SiO_2_
Locality: Spruce Claim, King County, Washington, USA
Source: Bob Downs
Description: Colorless hexagonal prism
Measured chemistry: Si_1.00_O_2_
Pin_id: L00402
Orientation: Laser parallel to c* (0 0 1). Fiducial mark perpendicular to laser is parallel to a [1 0 0]
Raman shift (cm-1)	intensity
102.256	0
107.181	22.8765
112.105	5976.73
117.025	1928.52
121.943	5540.79
126.859	20468
131.773	46058.1
136.684	13693.8
141.592	3984.46
146.499	2792.68
151.402	2177.26
156.304	1609.65
161.203	1170.35
166.099	1624.67
170.993	2660.72
175.885	3927.31
180.774	6117.61
185.661	9324.06
190.545	14877.6
195.427	24310
200.307	37574.2
205.184	51713.5
210.059	55189.9
214.931	45938.4
219.801	31194.6
224.668	20414.6
229.533	13648.6
234.396	9534.28
239.256	6932.08
244.114	5080.24
248.969	4097
253.822	3252.8
258.672	2664.47
263.52	2425.03
268.365	1755.72
273.208	961.73
278.049	342.584
282.887	217.294
287.723	17.3562
292.556	113.328
297.387	104.34
302.215	155.474
307.041	213.523
311.865	227.799
316.686	168.231
321.504	149.571
326.32	42.6111
331.134	9.11352
335.945	154.109
340.754	363.409
345.56	1087.31
350.364	3317.01
355.165	13397.9
359.964	8264.83
364.76	1004.92
369.554	170.33
374.346	19.0796
379.135	128.012
383.921	605.302
388.705	2123.82
393.487	9807.26
398.266	7804.7
403.043	1517.87
407.817	593.525
412.589	671.54
417.358	851.83
422.125	994.341
426.889	1385.04
431.651	1774.9
436.41	2595.61
441.167	3872.12
445.921	6807.02
450.673	13672.8
455.423	31209.9
460.17	87350
464.914	221840
469.656	169156
474.396	62466.8
479.133	28872.3
483.867	17178.9
488.599	11628.4
493.329	8604.55
498.056	6628.52
502.78	5228.19
507.502	4129.66
512.222	3389.22
516.939	2917.06
521.654	2621.19
526.366	2207.55
531.075	1903.49
535.782	1796.61
540.487	1559.61
545.189	1398.85
549.889	1241.96
554.586	956.937
559.28	666.801
563.973	545.566
568.662	582.248
573.349	411.865
578.034	378.27
582.716	428.586
587.396	353.475
592.073	386.779
596.747	368.915
601.419	293.181
606.089	248.869
610.756	150.887
615.42	81.5979
620.082	75.8931
624.742	100.717
629.399	104.43
634.053	106.84
638.705	72.2292
643.355	37.7751
648.002	65.2935
652.646	11.0925
657.288	101.156
661.927	72.0478
666.564	103.361
671.199	67.3374
675.831	27.0735
680.46	166.454
685.087	347.909
689.711	1008.46
694.333	2596.09
698.952	3082.83
703.569	1331.66
708.183	503.648
712.794	214.802
717.403	140.174
722.01	106.763
726.614	9.42847
731.216	35.154
735.815	64.9531
740.411	59.792
745.005	1.32983
749.596	33.6233
754.185	24.5203
758.772	7.66724
763.355	61.063
767.937	32.1821
772.515	66.2837
777.091	20.2856
781.665	109.199
786.236	246.027
790.805	364.511
795.371	849.775
799.934	789.557
804.495	527.674
809.054	366.027
813.61	299.461
818.163	311.139
822.714	240.362
827.262	281.527
831.808	322.634
836.351	338.678
840.891	354.657
845.429	385.322
849.965	317.285
854.498	372.2
859.028	385.402
863.556	308.083
868.082	214.86
872.604	211.411
877.125	268.075
881.642	200.675
886.157	412.455
890.67	381.541
895.18	455.3
899.687	398.204
904.192	392.029
908.695	324.757
913.194	389.923
917.692	390.129
922.186	535.235
926.678	385.245
931.168	397.217
935.655	310.283
940.139	230.656
944.621	263.284
949.101	262.126
953.577	181.902
958.052	125.594
962.523	192.2
966.992	101.721
971.459	60.158
975.923	35.4878
980.384	19.585
984.843	39.5315
989.299	8.96021
993.753	19.2065
998.204	26.6279
1002.65	86.3547
1007.1	64.1787
1011.54	0.866699
1015.98	75.6882
1020.42	12.4038
1024.86	56.4397
1029.29	17.5642
1033.72	96.4429
1038.15	3.46655
1042.57	154.593
1047	94.6218
1051.42	115.666
1055.84	200.718
1060.25	375.738
1064.66	843.756
1069.07	920.771
1073.48	581.759
1077.88	580.726
1082.29	1066.67
1086.69	772.581
1091.08	469.472
1095.48	221.382
1099.87	130.275
1104.26	209.136
1108.65	134.261
1113.03	156.026
1117.41	144.848
1121.79	173.391
1126.17	98.7681
1130.54	148.42
1134.91	238.77
1139.28	313.542
1143.65	586.754
1148.01	794.391
1152.37	1758.33
1156.73	3932.23
1161.09	8995.38
1165.44	7807.67
1169.79	2799.36
1174.14	1074.6
1178.48	572.1
1182.83	371.232
1187.17	238.559
1191.51	149.939
1195.84	107.378
1200.17	162.946
1204.5	159.617
1208.83	142.688
1213.15	75.197
1217.48	142.786
1221.8	194.536
1226.11	89.6255
1230.43	29.2886
1234.74	118.883
1239.05	176.756
1243.36	99.2236
1247.66	129.07
1251.96	129.363
1256.26	197.858
1260.56	18.2344
1264.85	165.904
1269.14	103.29
1273.43	85.5925
1277.71	154.084
1282	31.7351
1286.28	126.415
1290.56	58.1177
1294.83	148.808
1299.11	65.5896
1303.38	34.262
1307.64	22.085
1311.91	55.4031
1316.17	106.821
1320.43	67.2004
1324.69	32.4573
1328.94	30.6379
1333.19	44.7756
1337.44	93.8618
1341.69	13.1187
1345.93	100.838
1350.18	49.1362
1354.41	25.6226
1358.65	34.406
1362.89	64.0164
1367.12	36.4878
1371.35	56.9214
1375.57	37.8215
1379.8	15.0898
1384.02	148.207
1388.23	8.49756
1392.45	30.3914
1396.66	5.58984
1400.87	111.508
1405.08	47.5989
1409.29	69.4553
1413.49	67.0181
1417.69	86.7666
1421.89	126.569
1426.08	103.768
1430.27	167.054
1434.46	126.467
1438.65	230.207
1442.83	185.249
1447.02	184.935
1451.19	111.377
1455.37	228.769
1459.55	190.512
1463.72	219.858
1467.88	153.941
1472.05	130.755
1476.21	134.197
1480.38	85.4131
1484.53	145.796
1488.69	169.988
1492.84	49.2188
1496.99	69.71
1501.14	76.9517
1505.29	9.88281
1509.43	33.9919
1513.57	131.253
1517.71	118.759
1521.84	68.2659
1525.97	81.9331
1530.1	49.4106
1534.23	37.4131
1538.35	61.1055
1542.47	181.817
1546.59	151.235
1550.71	104.122
1554.82	84.0088
1558.94	31.3909
1563.04	68.1416
1567.15	81.4873
1571.25	128.606
1575.35	0.365967
