Measurement: Raman, 514 nm, depolarized, Raman Data Processed
Mineral: Quartz
Rruff sample: R050125
Ideal chemistry: SiO_2_
Locality: Linopolis, Minas Gerais, Brazil
Source: Carlos and Paulo Vasconcelos
Description: Pale pink group of single crystals, variety rose quartz
Measured chemistry: Si_1.00_O_2_
Pin_id: L00165
Orientation: Laser parallel to -c* (0 0 -1). Fiducial mark perpendicular to laser is parallel to -b [0 -1 0]
Raman shift (cm-1)	intensity
47.49	0
51.717	49.709
55.942	99.462
60.165	192.109
64.386	228.18
68.604	224.016
72.82	162.77
77.034	82.252
81.246	38.115
85.455	1.811
89.663	2.85
93.868	34.932
98.07	30.077
102.271	103.418
106.469	164.799
110.665	258.429
114.859	1090.82
119.05	1246.2
123.24	4404.61
127.427	7160.64
131.612	2850.44
135.794	1192.52
139.975	921.769
144.153	803.964
148.329	741.91
152.503	667.422
156.674	519.329
160.843	534.014
165.011	717.696
169.175	849.003
173.338	1086.06
177.499	1408.39
181.657	1951.8
185.813	2673.93
189.967	3876.98
194.119	5576.94
198.268	7697.84
202.415	9306.52
206.561	9407.15
210.703	8340.22
214.844	6373.82
218.983	4381.21
223.119	3173.09
227.253	2387.85
231.385	1822.44
235.515	1387.81
239.643	1144.79
243.768	954.939
247.891	808.356
252.012	692.716
256.131	598.991
260.248	592.594
264.363	480.934
268.475	255.544
272.585	174.829
276.693	132.444
280.799	97.012
284.903	50.515
289.005	46.942
293.104	12.292
297.201	9.451
301.296	7.712
305.389	8.208
309.48	26.238
313.569	13.409
317.655	0.119
321.74	1.088
325.822	24.575
329.902	13.832
333.98	33.168
338.056	43.399
342.129	109.534
346.201	299.504
350.27	1176.34
354.337	2996.07
358.402	1027.75
362.465	188.403
366.526	14.031
370.585	3.374
374.642	2.166
378.696	10.618
382.748	98.943
386.799	274.158
390.847	1313.28
394.893	1624.33
398.936	441.305
402.978	231.24
407.018	121.144
411.055	138.034
415.091	161.92
419.124	178.847
423.155	251.834
427.184	342.826
431.211	452.812
435.236	557.778
439.259	808.711
443.28	1199.56
447.298	2067.9
451.315	3664.02
455.329	7881.14
459.341	21092.7
463.352	42400.2
467.36	30696.9
471.366	13410.1
475.37	6607.5
479.372	4097.4
483.371	2854.42
487.369	2146.01
491.365	1698.59
495.358	1372.53
499.35	1177.58
503.339	1030.98
507.326	842.493
511.311	707.702
515.295	626.945
519.276	538.589
523.255	485.182
527.232	435.215
531.207	408.727
535.179	383.369
539.15	323.889
543.119	292.056
547.086	259.528
551.05	187.995
555.013	205.46
558.973	129.943
562.932	151.427
566.888	139.349
570.842	119.868
574.795	105.432
578.745	89.237
582.693	98.264
586.639	71.49
590.583	84.716
594.525	111.282
598.465	82.727
602.403	68.13
606.339	31.958
610.273	37.377
614.205	19.913
618.135	56.416
622.063	28.909
625.989	24.206
629.912	40.792
633.834	46.424
637.754	14.101
641.671	23.819
645.587	15.593
649.501	1.602
653.412	7.195
657.322	19.961
661.23	17.307
665.135	17.618
669.039	8.002
672.94	0.552
676.84	11.089
680.738	32.625
684.633	80.158
688.527	197.703
692.418	439.276
696.308	493.861
700.195	244.447
704.081	123.037
707.964	83.642
711.846	35.25
715.726	10.85
719.603	19.443
723.479	5.021
727.352	1.412
731.224	26.138
735.094	12.679
738.961	11.2
742.827	2.699
746.691	4.165
750.552	22.608
754.412	2.973
758.27	1.4
762.125	11.268
765.979	41.017
769.831	12.291
773.681	25.508
777.529	47.758
781.375	12.922
785.219	80.128
789.06	104.276
792.901	136.453
796.739	148.618
800.575	125.731
804.409	72.713
808.241	101.77
812.071	65.771
815.899	96.888
819.726	76.396
823.55	55.65
827.372	72.587
831.193	42.996
835.011	53.001
838.828	67.585
842.642	70.18
846.455	107.327
850.266	81.477
854.075	85.677
857.881	80.951
861.686	73.469
865.489	69.4
869.29	52.271
873.089	81.627
876.886	71.87
880.682	70.514
884.475	84.468
888.266	103.13
892.056	103.464
895.843	83.418
899.629	98.476
903.413	77.216
907.194	64.545
910.974	69.586
914.752	83.176
918.528	111.908
922.302	110.535
926.074	73.272
929.844	52.002
933.613	20.914
937.379	36.631
941.144	54.341
944.906	52.046
948.667	64.744
952.426	60.437
956.183	16.124
959.938	55.818
963.691	18.553
967.442	14.691
971.191	25.018
974.939	11.246
978.684	7.481
982.428	5.199
986.169	1.095
989.909	15.599
993.647	11.277
997.383	2.061
1001.12	29.594
1004.85	6.248
1008.58	16.126
1012.31	25.452
1016.03	18.024
1019.76	0.597
1023.48	28.178
1027.2	1.761
1030.92	25.339
1034.64	12.915
1038.36	56.493
1042.07	88.128
1045.78	62.749
1049.49	68.383
1053.2	39.021
1056.9	56.673
1060.61	160.344
1064.31	223.061
1068.01	166.796
1071.71	120.534
1075.41	133.273
1079.1	205.018
1082.79	157.776
1086.48	101.176
1090.17	83.309
1093.86	52.079
1097.55	58.872
1101.23	65.639
1104.91	41.404
1108.59	25.183
1112.27	30.944
1115.95	17.751
1119.62	54.091
1123.3	62.852
1126.97	29.173
1130.63	42.484
1134.3	102.102
1137.97	106.472
1141.63	98.728
1145.29	172.316
1148.95	322.64
1152.61	618.193
1156.27	1225.07
1159.92	1478.31
1163.57	721.146
1167.22	311.596
1170.87	156.912
1174.52	99.369
1178.16	97.025
1181.81	71.681
1185.45	42.888
1189.09	44.697
1192.73	26.686
1196.36	30.437
1200	16.194
1203.63	55.939
1207.26	75.262
1210.89	98.546
1214.52	35.208
1218.14	84.086
1221.77	51.207
1225.39	59.199
1229.01	95.73
1232.62	74.629
1236.24	59.253
1239.86	71.753
1243.47	60.251
1247.08	50.932
1250.69	20.445
1254.3	56.927
1257.9	31.85
1261.5	51.284
1265.11	77.706
1268.71	75.121
1272.3	47.612
1275.9	52.996
1279.49	18.748
1283.09	6.373
1286.68	1.672
1290.27	4.047
1293.86	38.164
1297.44	1.198
1301.03	50.962
1304.61	6.073
1308.19	24.147
1311.77	3.814
1315.34	15.185
1318.92	35.109
1322.49	31.001
1326.06	23.853
1329.63	31.636
1333.2	65.335
1336.77	60.009
1340.33	20.623
1343.89	12.195
1347.46	3.275
1351.02	36.792
1354.57	30.621
1358.13	1.213
1361.68	25.583
1365.23	4.57
1368.79	26.157
1372.33	64.387
1375.88	17.264
1379.43	25.49
1382.97	52.721
1386.51	7.918
1390.05	42.057
1393.59	25.177
1397.13	42.315
1400.66	79.204
1404.19	65.309
1407.72	54.624
1411.25	43.324
1414.78	84.291
1418.31	2.073
1421.83	2.818
1425.36	38.737
1428.88	57.006
1432.39	92.193
1435.91	68.777
1439.43	71.442
1442.94	105.741
1446.45	67.701
1449.96	120.473
1453.47	66.555
1456.98	51.245
1460.48	45.24
1463.99	34.919
1467.49	34.504
1470.99	23.149
1474.49	12.63
1477.99	93.323
1481.48	74.768
1484.97	66.999
1488.46	67.456
1491.95	60.967
1495.44	32.651
1498.93	32.787
1502.41	21.315
1505.9	19.596
1509.38	0.222
1512.86	0
