Measurement: Raman, 514 nm, depolarized, Raman Data Processed
Mineral: Quartz
Rruff sample: R060604
Ideal chemistry: SiO_2_
Locality: Piedras Parada, Veracruz, Mexico
Source: Michael Scott
Description: Purple hexagonal prisms, variety amethyst
Measured chemistry: Si_1.00_O_2_
Raman shift (cm-1)	intensity
115.447	0
120.387	287.219
125.324	3836.2
130.259	7602.71
135.191	2362.8
140.12	909.488
145.046	1144.62
149.97	499.039
154.891	31.8691
159.809	49.918
164.724	24.627
169.637	324.766
174.547	437.502
179.454	751.141
184.359	1252.04
189.261	2413.35
194.16	4015.7
199.056	6042.9
203.95	8711.98
208.841	9188.53
213.729	7840.77
218.614	5436.87
223.497	3691.65
228.377	2402.42
233.254	1817.45
238.129	1439.54
243.001	973.018
247.87	691.049
252.737	830.59
257.6	567.572
262.461	663.229
267.32	564.482
272.175	265.893
277.028	283.277
281.879	9.57031
286.726	110.445
291.571	160.707
296.413	72.9258
301.252	14.9082
306.089	117.336
310.923	65.2793
315.755	63.7188
320.583	138.158
325.409	37.5977
330.232	320.062
335.053	246.168
339.871	248.674
344.686	99.8223
349.498	401.603
354.308	2210.84
359.115	1440.78
363.92	343.383
368.721	184.004
373.52	78.6934
378.317	168.94
383.111	111.971
387.902	185.801
392.69	1544.24
397.475	1895.46
402.258	567.51
407.039	97.3984
411.816	158.188
416.591	356.144
421.364	249.795
426.133	373.562
430.9	401.336
435.664	425.865
440.426	793.098
445.185	1129.2
449.941	2439.41
454.695	5034.91
459.445	13590.7
464.194	35742.2
468.939	30091
473.682	11596.6
478.423	5153.87
483.16	3172.45
487.895	2174.4
492.627	1547.43
497.357	1266.12
502.084	1189.7
506.808	725.082
511.53	765.812
516.249	631.953
520.965	447.002
525.679	572.885
530.39	193.746
535.098	398.371
539.804	360.299
544.507	349.57
549.208	165.662
553.906	193.393
558.601	255.978
563.293	27.3945
567.983	301.816
572.671	114.213
577.355	121.018
582.037	49.9121
586.717	178.897
591.393	293.092
596.067	208.371
600.739	255.127
605.408	27.2012
610.074	55.0859
614.737	55.7305
619.398	32.0332
624.057	210.203
628.712	231.883
633.365	372.422
638.016	252.482
642.664	179.188
647.309	282.084
651.951	189.391
656.591	117.852
661.229	162.115
665.863	88.082
670.495	143.918
675.125	19.3086
679.752	275.463
684.376	312.996
688.998	209.731
693.617	564.701
698.233	698.016
702.847	121.389
707.458	267.504
712.066	46.8809
716.672	99.8848
721.276	248.293
725.877	236.117
730.475	41.9297
735.07	163.648
739.663	237.133
744.254	38.7891
748.841	142.352
753.426	195.981
758.009	33.75
762.589	25.3438
767.166	47.3672
771.741	41.9883
776.313	312.457
780.883	288.418
785.45	350.371
790.014	132.039
794.576	416.062
799.135	372.051
803.692	438.492
808.246	54.6211
812.797	138.352
817.346	267.062
821.893	342.957
826.436	241.023
830.977	337.223
835.516	124.211
840.052	219.602
844.585	451.078
849.116	130.254
853.645	296.769
858.17	424.695
862.693	429.902
867.214	553.828
871.732	185.941
876.247	445.156
880.76	27.9141
885.27	245.316
889.778	354.227
894.283	470.25
898.786	111.297
903.286	104.426
907.783	15.7344
912.278	55.8086
916.77	230.144
921.26	161.898
925.747	329.758
930.232	246.59
934.714	308.406
939.193	32.0508
943.67	118.914
948.145	174.371
952.617	281.168
957.086	226.68
961.553	115.356
966.017	99.082
970.479	90.7578
974.938	67.0156
979.394	85.0508
983.848	290.949
988.3	249.574
992.749	143.859
997.195	142.82
1001.64	155.566
1006.08	71.1992
1010.52	49.75
1014.96	1.84375
1019.39	149.742
1023.82	104.898
1028.25	181.738
1032.67	274.262
1037.1	146.535
1041.52	520.668
1045.94	520.359
1050.35	371.211
1054.77	242.434
1059.18	155.234
1063.59	392.527
1067.99	201.434
1072.4	330.598
1076.8	292.469
1081.19	586.715
1085.59	575.102
1089.98	203.023
1094.38	236.629
1098.76	155.934
1103.15	66.3281
1107.53	309.707
1111.91	258.094
1116.29	202.977
1120.67	231.137
1125.04	408.613
1129.41	176.957
1133.78	372.223
1138.14	230.418
1142.51	474.586
1146.87	527.199
1151.23	619.012
1155.58	700.606
1159.93	1870.37
1164.29	1504.53
1168.63	555.637
1172.98	590.457
1177.32	298.188
1181.66	372.75
1186	310.312
1190.34	253.586
1194.67	87.7734
1199	311.562
1203.33	352.035
1207.65	189.676
1211.98	363.844
1216.3	387.852
1220.62	483.828
1224.93	162.012
1229.24	326.832
1233.56	526.504
1237.86	484.613
1242.17	365.719
1246.47	188.871
1250.77	284.867
1255.07	92.1523
1259.37	603.492
1263.66	431.231
1267.95	251.219
1272.24	199.719
1276.53	45.8906
1280.81	112.652
1285.09	293.234
1289.37	195.215
1293.64	86.9844
1297.92	186.394
1302.19	64.25
1306.46	223.805
1310.72	367.965
1314.99	403.898
1319.25	500.969
1323.51	94.6914
1327.76	153.644
1332.02	70.5664
1336.27	63.3789
1340.52	595.32
1344.76	230.332
1349.01	273.191
1353.25	410.898
1357.49	132.5
1361.72	346.086
1365.96	107.676
1370.19	210.789
1374.42	397.301
1378.64	543.191
1382.87	543.688
1387.09	436.141
1391.31	503.727
1395.53	432.738
1399.74	205.242
1403.95	405.859
1408.16	261.074
1412.37	314.047
1416.58	425.703
1420.78	435.223
1424.98	243.949
1429.18	442.144
1433.37	61.0234
1437.56	193.277
1441.75	459.258
1445.94	310.863
1450.13	479.277
1454.31	282.621
1458.49	139.887
1462.67	261.07
1466.84	174.141
1471.02	488.019
1475.19	260.457
1479.36	105.297
1483.52	402.106
1487.68	678.449
1491.85	15.3242
1496	102.277
1500.16	178.352
1504.31	296.438
1508.46	324.199
1512.61	253.996
1516.76	25.5117
1520.9	556.363
1525.05	9.96094
1529.18	335.125
1533.32	203.875
1537.45	206.41
1541.59	262.394
1545.72	8.15234
1549.84	376.008
