Measurement: Raman, 514 nm, ccw, Raman Data Processed
Mineral: Quartz
Rruff sample: R040031
Ideal chemistry: SiO_2_
Locality: Spruce Claim, King County, Washington, USA
Source: Bob Downs
Description: Colorless hexagonal prism
Measured chemistry: Si_1.00_O_2_
Pin_id: L00425
Orientation: Laser parallel to b [0 1 0]. Fiducial mark perpendicular to laser is parallel to -c [0 0 -1]
Raman shift (cm-1)	intensity
94.863	0
99.792	69.4551
104.719	425.909
109.643	8918.93
114.565	1802.68
119.485	6340.16
124.402	9712.04
129.316	23578.4
134.229	17203.7
139.138	4770.62
144.046	2786.39
148.951	2747.93
153.853	2398
158.753	1838.8
163.651	2429.66
168.547	2641.8
173.439	3390.11
178.33	5166.65
183.218	7336.13
188.104	10718.2
192.987	16981.2
197.868	27012.5
202.746	38714.9
207.622	47753.7
212.495	44821.9
217.366	34067
222.235	22870.8
227.101	15195.2
231.965	10474.2
236.826	7192.99
241.685	5576.36
246.542	4578.45
251.396	3720.83
256.247	2991.77
261.096	2664.68
265.943	2818.12
270.787	1758.22
275.629	893.616
280.468	484.815
285.305	279.471
290.14	82.3457
294.972	44.7744
299.801	166.369
304.629	96.0122
309.453	138.733
314.275	31.7007
319.095	144.956
323.912	67.4639
328.727	48.9287
333.54	14.2832
338.35	138.81
343.157	664.376
347.962	1787.99
352.765	5599.43
357.565	13311.1
362.362	3326.53
367.158	404.403
371.95	74.3027
376.741	142.211
381.528	104.359
386.314	132.483
391.096	397.442
395.877	1327.51
400.655	3154.31
405.43	7320.71
410.203	2090.52
414.974	819.679
419.742	758.147
424.507	930.904
429.27	1321.93
434.031	1727.22
438.789	2615.5
443.545	4227.3
448.298	8055.33
453.048	17540.2
457.797	46549.8
462.542	126192
467.285	197654
472.026	94136.4
476.764	36744.2
481.5	19221.5
486.233	12301.6
490.964	8851.25
495.693	6695.48
500.418	5797.31
505.142	5102.78
509.862	4381.89
514.581	3390.13
519.297	2645.6
524.01	2156.34
528.721	1919.75
533.429	1643.65
538.135	1417.38
542.838	1416.01
547.539	1338.43
552.238	983.35
556.933	759.075
561.627	653.619
566.318	531.993
571.006	466.214
575.692	445.3
580.375	400.362
585.056	453.55
589.734	426.309
594.41	557.696
599.084	334.791
603.754	261.897
608.423	368.246
613.088	180.205
617.752	295.084
622.412	282.588
627.071	723.99
631.726	470.241
636.38	373.882
641.03	223.977
645.679	452.113
650.324	365.901
654.967	266.782
659.608	152.476
664.246	107.019
668.882	44.1846
673.515	79.8887
678.145	12.7441
682.774	112.064
687.399	139.171
692.022	737.24
696.643	1848.29
701.26	2036.31
705.876	755.365
710.489	255.691
715.099	172.418
719.707	118.795
724.312	194.626
728.915	21.499
733.515	10.665
738.113	121.494
742.708	10.5928
747.301	102.684
751.891	87.7305
756.479	3.52734
761.064	22.8584
765.646	44.7744
770.226	37.4658
774.804	192.008
779.379	30.415
783.951	193.7
788.521	185.907
793.088	314.996
797.653	443.941
802.215	573.474
806.775	1067.48
811.332	1636.49
815.887	1100.33
820.439	595.395
824.988	429.096
829.535	360.966
834.08	476.697
838.621	515.451
843.161	664.534
847.698	720.465
852.232	719.664
856.763	707.547
861.293	867.727
865.819	599.019
870.343	521.679
874.865	546.768
879.384	574.981
883.9	621.321
888.414	584.713
892.925	669.309
897.434	810.749
901.94	592.541
906.444	630.12
910.945	531.388
915.443	570.107
919.939	509.548
924.433	534.036
928.923	499.362
933.412	408.336
937.897	294.258
942.381	370.454
946.861	228.842
951.339	272.348
955.815	388.862
960.288	278.31
964.758	197.629
969.226	147.822
973.691	12.8916
978.154	43.3428
982.614	188.369
987.071	111.712
991.526	34.7275
995.979	5.36231
1000.43	316.664
1004.88	642.642
1009.32	62.3135
1013.76	69.1553
1018.2	110.042
1022.64	182.106
1027.07	72.2246
1031.51	140.469
1035.93	23.7959
1040.36	85.1133
1044.79	18.4102
1049.21	43.6533
1053.63	67.0772
1058.04	108.951
1062.46	139.965
1066.87	203.961
1071.28	159.956
1075.68	257.947
1080.09	593.938
1084.49	1177.02
1088.88	617.213
1093.28	297.425
1097.67	323.666
1102.07	202.933
1106.45	60.7617
1110.84	87.5312
1115.22	106.667
1119.6	126.386
1123.98	16.2432
1128.36	25.6162
1132.73	29.2354
1137.1	9.99609
1141.46	200.323
1145.83	458.029
1150.19	691.446
1154.55	2049.09
1158.91	3915.86
1163.26	2833.75
1167.62	1140.76
1171.96	470.883
1176.31	363.127
1180.65	117.824
1185	181.107
1189.34	90.7236
1193.67	312.276
1198.01	124.162
1202.34	134.188
1206.67	373.352
1210.99	483.656
1215.32	422.554
1219.64	843.44
1223.95	1448.72
1228.27	2438.94
1232.58	2686.79
1236.89	2095.39
1241.2	1289.85
1245.51	794.713
1249.81	648.994
1254.11	382.396
1258.41	490.041
1262.7	373.278
1266.99	464.178
1271.29	326.182
1275.57	438.356
1279.86	276.761
1284.14	287.286
1288.42	148.706
1292.69	253.427
1296.97	235.24
1301.24	226.143
1305.51	123.134
1309.78	281.256
1314.04	405.43
1318.3	283.824
1322.56	193.306
1326.82	306.896
1331.07	213.553
1335.32	263.272
1339.57	121.085
1343.81	73.5361
1348.06	86.7373
1352.3	14.2354
1356.53	104.835
1360.77	77.0606
1365	64.1689
1369.23	149.549
1373.46	117.289
1377.68	123.233
1381.91	263.884
1386.12	43.4639
1390.34	304.747
1394.56	270.591
1398.77	119.443
1402.98	144.315
1407.18	195.234
1411.39	1.78906
1415.59	162.204
1419.79	195.046
1423.98	168.836
1428.18	141.648
1432.37	368.512
1436.56	455.356
1440.74	666.477
1444.92	715.589
1449.11	667.992
1453.28	940.666
1457.46	902.562
1461.63	903.602
1465.8	615.955
1469.97	393.945
1474.13	335.949
1478.3	373.249
1482.45	440.366
1486.61	254.106
1490.77	146.03
1494.92	145.905
1499.07	34.5156
1503.21	276.154
1507.36	46.7129
1511.5	265.041
1515.64	265.147
1519.77	247.982
1523.91	307.317
1528.04	231.19
1532.17	197.243
1536.29	231.683
1540.41	330.181
1544.54	337.632
1548.65	139.602
1552.77	271.907
1556.88	16.0742
1560.99	194.922
1565.1	138.071
1569.2	150.774
1573.3	300.038
1577.4	65.165
