Measurement: Raman, 514 nm, ccw, Raman Data Processed
Mineral: Quartz
Rruff sample: R060604
Ideal chemistry: SiO_2_
Locality: Piedras Parada, Veracruz, Mexico
Source: Michael Scott
Description: Purple hexagonal prisms, variety amethyst
Measured chemistry: Si_1.00_O_2_
Raman shift (cm-1)	intensity
111.74	0
116.682	208.4
121.622	788.46
126.558	5113.61
131.492	6702.72
136.423	1520.04
141.352	767.982
146.277	676.668
151.2	233.186
156.121	108.897
161.038	61.2793
165.953	100.371
170.865	268.743
175.774	471.134
180.681	863.054
185.585	1432.2
190.486	2380.67
195.384	4061.34
200.28	6136.47
205.173	8257.63
210.063	8283.99
214.95	6685.9
219.835	4391.54
224.717	2833.49
229.597	1956.06
234.473	1325.23
239.347	882.236
244.218	769.625
249.087	614.8
253.953	521.524
258.816	467.296
263.676	396.791
268.534	256.098
273.389	167.997
278.241	87.7236
283.091	34.855
287.938	21.9658
292.782	13.9531
297.623	0.096191
302.462	28.438
307.298	30.498
312.131	26.4639
316.962	78.3423
321.79	11.5024
326.615	30.9526
331.438	0.041992
336.258	32.6167
341.075	89.3198
345.889	231.786
350.701	597.564
355.51	2359.63
360.317	1041.65
365.12	201.802
369.921	0.195801
374.72	109.085
379.515	110.807
384.309	347.344
389.099	446.365
393.886	1688.63
398.671	1286.6
403.454	308.443
408.233	213.192
413.01	281.753
417.785	240.082
422.556	312.154
427.325	302.165
432.091	345.933
436.855	503.577
441.616	758.039
446.374	1243.59
451.13	2470.49
455.883	5360.94
460.633	16231.9
465.38	36948.5
470.125	23125
474.868	8566.23
479.607	4121.4
484.344	2531.25
489.078	1670.48
493.81	1394.83
498.539	1015.35
503.265	820.548
507.989	734.719
512.71	563.491
517.428	484.81
522.144	426.129
526.857	483.242
531.567	299.918
536.275	305.606
540.98	289.412
545.683	149.05
550.383	151.424
555.08	204.236
559.774	161.026
564.466	75.7925
569.155	7.55469
573.842	59.4102
578.526	196.328
583.207	103.427
587.886	76.7041
592.562	108.804
597.235	96.6177
601.906	119.613
606.574	64.4644
611.24	113.314
615.903	75.0117
620.563	80.9541
625.221	35.9805
629.876	138.649
634.528	65.6885
639.178	95.1592
643.825	98.4102
648.47	53.978
653.112	19.1987
657.751	22.2886
662.388	22.1875
667.022	6.36621
671.653	24.3828
676.282	78.3394
680.908	17.1143
685.532	11.1362
690.153	128.523
694.771	443.379
699.387	492.14
704	283.878
708.61	70.7417
713.218	38.5391
717.824	40.3306
722.426	12.8555
727.026	39.0898
731.624	31.5659
736.219	140.409
740.811	72.9932
745.401	12.5727
749.988	64.9429
754.572	132.882
759.154	90.7764
763.734	52.5977
768.31	5.29981
772.884	7.47021
777.456	40.6338
782.025	12.9458
786.591	109.137
791.155	109.156
795.716	190.148
800.275	228.956
804.831	153.539
809.384	124.579
813.935	147.423
818.483	147.998
823.029	90.2822
827.572	207.254
832.112	101.493
836.65	59.6768
841.186	29.0117
845.718	87.3223
850.249	147.705
854.776	196.862
859.301	127.935
863.824	133.701
868.344	20.7158
872.861	202.669
877.376	158.44
881.888	37.4409
886.397	62.0425
890.904	128.519
895.409	125.43
899.911	153.344
904.41	136.162
908.907	226
913.401	241.59
917.893	144.867
922.382	189.157
926.869	123.593
931.353	73.1963
935.834	73.7837
940.313	103.345
944.789	94.917
949.263	177.496
953.734	115.151
958.203	182.768
962.669	98.3965
967.133	9.78369
971.594	162.717
976.052	9.08203
980.508	20.8135
984.961	0.668945
989.412	40.7353
993.861	6.79102
998.306	34.8247
1002.75	120.631
1007.19	12.3481
1011.63	57.626
1016.06	25.5015
1020.5	95.5234
1024.93	34.6865
1029.36	86.8921
1033.78	108.126
1038.2	291.397
1042.62	566.118
1047.04	709.49
1051.46	338.894
1055.87	188.435
1060.28	241.943
1064.69	368.465
1069.09	213.002
1073.5	171.501
1077.9	257.068
1082.29	245.297
1086.69	581.846
1091.08	211.428
1095.47	77.4951
1099.86	156.216
1104.24	177.053
1108.63	3.58203
1113.01	104.746
1117.38	80.4434
1121.76	97.7568
1126.13	190.294
1130.5	115.432
1134.87	70.3975
1139.23	140.712
1143.6	131.133
1147.96	316.745
1152.32	345.677
1156.67	850.031
1161.02	1722.18
1165.37	1133.47
1169.72	520.952
1174.07	196.305
1178.41	178.686
1182.75	216.489
1187.08	103.922
1191.42	234.375
1195.75	80.8545
1200.08	103.36
1204.41	92.8369
1208.73	163.31
1213.06	10.627
1217.38	128.792
1221.69	69.2188
1226.01	115.681
1230.32	149.778
1234.63	33.294
1238.94	48.4893
1243.24	124.132
1247.55	149.817
1251.85	25.2695
1256.14	64.041
1260.44	81.8496
1264.73	193.686
1269.02	168.551
1273.31	167.726
1277.6	120.667
1281.88	0.287109
1286.16	101.219
1290.44	136.097
1294.71	130.968
1298.98	102.849
1303.26	166.714
1307.52	198.598
1311.79	119.476
1316.05	229.242
1320.31	72.1758
1324.57	154.134
1328.83	77.1035
1333.08	76.1289
1337.33	40.9258
1341.58	104.844
1345.82	202.356
1350.07	256.172
1354.31	129.053
1358.55	213.273
1362.78	119.101
1367.02	136.951
1371.25	48.8066
1375.48	155.811
1379.7	10.793
1383.92	90.8447
1388.15	104.943
1392.37	88.9228
1396.58	96.416
1400.8	120.45
1405.01	135.784
1409.22	157.988
1413.42	230.117
1417.63	81.5537
1421.83	234.688
1426.03	125.473
1430.22	242.891
1434.42	226.133
1438.61	198.365
1442.8	250.751
1446.99	232.356
1451.17	244.608
1455.35	211.637
1459.53	256.431
1463.71	264.95
1467.89	171.588
1472.06	189.788
1476.23	92.2549
1480.4	8.24512
1484.56	271.284
1488.72	79.834
1492.88	116.016
1497.04	155.672
1501.2	114.467
1505.35	4.36231
1509.5	126.353
1513.65	113.332
1517.8	3.32519
1521.94	124.569
1526.08	139.182
1530.22	174.418
1534.36	67.5332
1538.49	124.112
1542.62	163.834
1546.75	141.91
1550.88	174.686
1555	140.222
1559.12	68.1113
1563.24	117.728
1567.36	66.9785
1571.47	108.772
1575.58	70.1367
