Measurement: Raman, 514 nm, ccw, Raman Data Processed
Mineral: Quartz
Rruff sample: R040031
Ideal chemistry: SiO_2_
Locality: Spruce Claim, King County, Washington, USA
Source: Bob Downs
Description: Colorless hexagonal prism
Measured chemistry: Si_1.00_O_2_
Pin_id: L00402
Orientation: Laser parallel to c* (0 0 1). Fiducial mark perpendicular to laser is parallel to a [1 0 0]
Raman shift (cm-1)	intensity
102.256	0
107.181	100.026
112.105	5886.05
117.025	1995.92
121.943	5693.59
126.859	20024.9
131.773	44517.8
136.684	12732.6
141.592	3729.05
146.499	2584.38
151.402	2174.6
156.304	1417.19
161.203	1114.44
166.099	1496.09
170.993	2552.83
175.885	3859.67
180.774	5831.9
185.661	8975.24
190.545	14372.7
195.427	23607
200.307	36799.8
205.184	50213.1
210.059	53261.6
214.931	44377
219.801	30286.9
224.668	19645.7
229.533	13242.7
234.396	9132.36
239.256	6648.26
244.114	5015.64
248.969	4056.48
253.822	3240.01
258.672	2633.58
263.52	2413.7
268.365	1919.09
273.208	826.862
278.049	369.818
282.887	175.034
287.723	32.8955
292.556	139.018
297.387	149.359
302.215	185.813
307.041	248.113
311.865	221.674
316.686	208.435
321.504	103.252
326.32	84.5266
331.134	61.9605
335.945	58.4883
340.754	386.902
345.56	1117.78
350.364	3351.57
355.165	13074.5
359.964	7567.4
364.76	1110.16
369.554	205.12
374.346	60.4607
379.135	116.062
383.921	549.115
388.705	2201.56
393.487	9049.8
398.266	8267.04
403.043	1497
407.817	618.412
412.589	624.159
417.358	799.154
422.125	1012.34
426.889	1376.69
431.651	1675.17
436.41	2479.11
441.167	3848.73
445.921	6648.54
450.673	13277.6
455.423	30754.4
460.17	85549.9
464.914	215936
469.656	163010
474.396	60789.2
479.133	27876.9
483.867	16782.3
488.599	11287.3
493.329	8273.96
498.056	6336.37
502.78	5103.52
507.502	4003.46
512.222	3242.38
516.939	2863.08
521.654	2549.15
526.366	2189.59
531.075	1835.24
535.782	1791.76
540.487	1513.64
545.189	1285.37
549.889	1196.97
554.586	935.436
559.28	678.795
563.973	568.06
568.662	516.247
573.349	429.375
578.034	334.569
582.716	390.266
587.396	335.716
592.073	403.617
596.747	374.213
601.419	230.994
606.089	192.784
610.756	107.524
615.42	100.133
620.082	126.486
624.742	91.4734
629.399	84.655
634.053	98.7305
638.705	53.9312
643.355	68.4414
648.002	103.719
652.646	82.5217
657.288	22.6148
661.927	101.605
666.564	78.1143
671.199	108.282
675.831	27.0757
680.46	186.417
685.087	406.858
689.711	1070.4
694.333	2570.05
698.952	2939.8
703.569	1215.66
708.183	497.653
712.794	258.766
717.403	104.053
722.01	34.5132
726.614	23.1704
731.216	8.93188
735.815	44.7188
740.411	83.5654
745.005	57.5432
749.596	23.6521
754.185	36.6103
758.772	81.5957
763.355	36.1243
767.937	60.0732
772.515	50.1274
777.091	60.0508
781.665	130.896
786.236	185.659
790.805	400.337
795.371	973.127
799.934	1022.35
804.495	560.736
809.054	431.628
813.61	376.683
818.163	357.915
822.714	331.094
827.262	258.217
831.808	277.28
836.351	324.28
840.891	327.215
845.429	348.594
849.965	425.075
854.498	354.428
859.028	305.819
863.556	319.894
868.082	262.908
872.604	221.476
877.125	300.525
881.642	273.976
886.157	384.258
890.67	400.447
895.18	409.318
899.687	496.769
904.192	458.44
908.695	304.974
913.194	415.255
917.692	404.436
922.186	478.516
926.678	396.497
931.168	351.398
935.655	298.419
940.139	289.778
944.621	238.375
949.101	261.133
953.577	211.821
958.052	210.422
962.523	125.935
966.992	142.364
971.459	73.7087
975.923	30.0269
980.384	31.0696
984.843	25.9338
989.299	3.17627
993.753	53.6682
998.204	45.5183
1002.65	32.5667
1007.1	40.5234
1011.54	38.7305
1015.98	22.3525
1020.42	2.33911
1024.86	3.64844
1029.29	64.6189
1033.72	75.6533
1038.15	111.722
1042.57	72.7983
1047	110.867
1051.42	188.716
1055.84	137.917
1060.25	433.896
1064.66	859.862
1069.07	1162.82
1073.48	654.753
1077.88	638.678
1082.29	1053.57
1086.69	750.462
1091.08	410.369
1095.48	239.325
1099.87	155.282
1104.26	187.25
1108.65	151.876
1113.03	143.585
1117.41	172.744
1121.79	178.461
1126.17	120.478
1130.54	76.6963
1134.91	250.553
1139.28	313.277
1143.65	524.607
1148.01	925.37
1152.37	1705.37
1156.73	3735.72
1161.09	8827.44
1165.44	7872.67
1169.79	2833.93
1174.14	1062.77
1178.48	531.337
1182.83	430.695
1187.17	268.082
1191.51	149.161
1195.84	69.7378
1200.17	245.3
1204.5	142.054
1208.83	126.578
1213.15	155.363
1217.48	97.8997
1221.8	131.737
1226.11	98.0989
1230.43	161.892
1234.74	105.586
1239.05	207.389
1243.36	126.175
1247.66	177.956
1251.96	44.0942
1256.26	135.436
1260.56	58.9641
1264.85	168.651
1269.14	54.8484
1273.43	93.6902
1277.71	49.6475
1282	86.2954
1286.28	64.9497
1290.56	80.6799
1294.83	32.3516
1299.11	58.436
1303.38	74.0601
1307.64	57.6199
1311.91	51.1401
1316.17	5.62793
1320.43	70.0703
1324.69	23.4358
1328.94	12.7441
1333.19	36.9795
1337.44	5.15796
1341.69	37.7893
1345.93	85.0886
1350.18	48.8599
1354.41	19.5247
1358.65	87.0552
1362.89	95.2549
1367.12	49.6101
1371.35	57.5632
1375.57	23.741
1379.8	40.8108
1384.02	100.888
1388.23	50.8247
1392.45	66.0254
1396.66	106.85
1400.87	147.251
1405.08	125.88
1409.29	47.4211
1413.49	34.05
1417.69	52.4419
1421.89	156.797
1426.08	120.044
1430.27	99.3379
1434.46	207.722
1438.65	151.194
1442.83	174.792
1447.02	136.805
1451.19	120.774
1455.37	184.269
1459.55	241.591
1463.72	238.782
1467.88	197.094
1472.05	88.5408
1476.21	173.061
1480.38	52.3352
1484.53	93.2236
1488.69	114.348
1492.84	14.2576
1496.99	87.4348
1501.14	15.5017
1505.29	53.7192
1509.43	66.5886
1513.57	132.394
1517.71	94.2363
1521.84	10.9241
1525.97	89.4578
1530.1	34.0188
1534.23	92.7944
1538.35	22.0291
1542.47	17.6255
1546.59	162.37
1550.71	86.6758
1554.82	81.8035
1558.94	6.67432
1563.04	67.6262
1567.15	41.874
1571.25	95.6091
1575.35	92.9221
