Measurement: Raman, 514 nm, ccw, Raman Data Processed
Mineral: Rhodonite
Rruff sample: R060549
Ideal chemistry: CaMn^2+^_3_Mn^2+^Si_5_O_15_
Locality: unknown
Source: Gemological Institute of America
Description: Pink cleavage fragment
Measured chemistry: (Mn_0.76_Ca_0.12_Fe_0.07_Mg_0.06_)Si_0.99_O_3_
Pin_id: L01637
Orientation: Laser parallel to a* (1 0 0). Fiducial mark perpendicular to laser is parallel to b [0 1 0]
Raman shift (cm-1)	intensity
142.328	0
147.24	23.6294
152.15	417.628
157.057	1204.51
161.961	2036.89
166.863	2043.23
171.763	1494.71
176.66	957.223
181.555	770.548
186.447	313.542
191.337	41.3179
196.224	5.37988
201.109	61.189
205.991	146.345
210.871	497.259
215.748	841.703
220.623	715.946
225.496	452.787
230.366	664.232
235.233	877.194
240.098	1449.67
244.96	1983.69
249.82	2803.59
254.678	3511.14
259.533	4715.36
264.385	5925.79
269.236	4581.75
274.083	2659.77
278.928	1557.92
283.771	891.176
288.611	674.727
293.448	981.306
298.283	1398.73
303.116	1740.7
307.946	1707.93
312.774	1526.47
317.599	1618.62
322.422	2082.96
327.242	2667.81
332.059	3161.13
336.874	3416.69
341.687	3004.08
346.497	2391.35
351.305	1851.43
356.11	1391.45
360.912	1228.61
365.712	1206.59
370.51	1049.27
375.305	653.211
380.098	657.702
384.888	898.081
389.675	1188.26
394.46	854.838
399.243	347.043
404.023	333.576
408.8	331.138
413.575	425.685
418.348	271.185
423.118	234.615
427.885	189.981
432.65	186.275
437.413	253.569
442.173	280.871
446.93	255.15
451.685	251.725
456.437	404.965
461.187	349.511
465.934	438.647
470.679	480.675
475.421	421.619
480.161	32.4761
484.898	40.7358
489.633	30.5742
494.365	279.726
499.095	234.903
503.822	40.1758
508.547	155.252
513.269	101.165
517.988	10.96
522.705	101.611
527.42	110.19
532.132	80.8384
536.841	9.59619
541.548	168.341
546.252	366.213
550.954	374.88
555.653	733.875
560.35	871.502
565.044	589.521
569.736	855.27
574.425	964.743
579.112	525.935
583.796	305.839
588.477	243.451
593.156	229.759
597.833	167.757
602.507	183.441
607.178	347.804
611.847	221.852
616.513	424.58
621.177	585.723
625.838	899.192
630.497	1086.91
635.153	1090.8
639.806	1582.99
644.457	2551.91
649.106	3851.18
653.752	6628.64
658.395	13157.3
663.036	22898.2
667.674	35708.8
672.31	36335.1
676.943	22310.9
681.574	13884.3
686.202	7589.51
690.827	4226.24
695.45	2708.42
700.071	2016.04
704.688	1964.67
709.304	2107.96
713.916	2323.96
718.527	2364.92
723.134	2123.1
727.739	1448.25
732.342	1001.77
736.942	1127.29
741.539	1037.12
746.134	776.402
750.726	476.264
755.316	274.889
759.903	111.285
764.488	55.5147
769.07	200.72
773.649	68.4497
778.226	42.3687
782.801	25.8994
787.372	21.2764
791.942	26.1211
796.508	9.29541
801.072	28.2031
805.634	30.8901
810.193	9.20947
814.749	137.266
819.303	80.8144
823.854	37.2349
828.403	52.1885
832.949	16.9199
837.493	1.229
842.034	44.3335
846.572	90.8774
851.108	156.413
855.641	329.95
860.172	418.501
864.7	301.074
869.226	193.685
873.749	319.342
878.269	315.075
882.787	343.888
887.302	207.773
891.815	341.74
896.325	329.828
900.833	465.691
905.338	573.715
909.84	928.492
914.34	1080.3
918.837	972.075
923.332	745.459
927.824	757.912
932.313	839.683
936.8	1547.13
941.285	1910.57
945.766	1348.22
950.246	1274.45
954.722	1424.5
959.196	2031.93
963.668	3759.09
968.136	7465.27
972.603	14435
977.066	17305.3
981.528	13664.9
985.986	12944.7
990.442	14244.7
994.895	17819.1
999.346	22708.7
1003.79	21055.6
1008.24	13008.8
1012.68	7542.67
1017.12	4609.37
1021.56	3735.34
1026	3163.58
1030.43	2625.89
1034.86	2049.15
1039.29	1764.21
1043.71	1536.69
1048.13	1878.63
1052.55	1796.82
1056.97	1335.27
1061.38	688.134
1065.8	626.074
1070.21	489.738
1074.61	365.423
1079.02	446.209
1083.42	404.213
1087.82	233.168
1092.21	142.858
1096.61	145.949
1101	278.54
1105.39	101.314
1109.78	282.864
1114.16	150.476
1118.54	168.15
1122.92	289.882
1127.29	122.662
1131.67	34.666
1136.04	129.523
1140.4	25.5449
1144.77	96.3662
1149.13	93.2803
1153.49	17.1963
1157.85	15.7051
1162.2	35.0859
1166.56	10.7334
1170.91	119.66
1175.25	84.8584
1179.6	55.8018
1183.94	53.1445
1188.28	49.6797
1192.62	58.3984
1196.95	47.6103
1201.28	88.04
1205.61	5.98438
1209.94	12.6455
1214.26	0.959961
1218.58	55.1855
1222.9	2.60938
1227.22	176.73
1231.53	188.864
1235.84	264.844
1240.15	138.667
1244.45	192.346
1248.76	140.874
1253.06	216.299
1257.36	53.6602
1261.65	189.865
1265.94	257.924
1270.23	353.888
1274.52	226.872
1278.8	249.531
1283.09	207.074
1287.37	154.884
1291.64	131.852
1295.92	239.415
1300.19	273.903
1304.46	265.102
1308.72	391.723
1312.99	305.711
1317.25	340.073
1321.51	407.485
1325.76	384.956
1330.02	188.831
1334.27	160.14
1338.52	217.433
1342.76	117.689
1347.01	21.5293
1351.24	144.748
1355.48	181.004
1359.72	176.188
1363.95	179.29
1368.18	47.668
1372.41	85.0478
1376.63	88.5772
1380.85	217.641
1385.07	216.886
1389.29	237.63
1393.51	65.7705
1397.72	149.116
1401.93	117.498
1406.13	67.4297
1410.34	71.3926
1414.54	242.837
1418.74	167.473
1422.93	109.811
1427.12	167.22
1431.32	296.787
1435.5	296.076
1439.69	431.207
1443.87	649.701
1448.05	801.648
1452.23	908.244
1456.41	775.999
1460.58	797.435
1464.75	663.741
1468.91	527.062
1473.08	304.6
1477.24	412.283
1481.4	453.937
1485.56	309.587
1489.71	276.137
1493.86	115.699
1498.01	107.377
1502.16	54.7705
1506.3	84.374
1510.44	11.7539
1514.58	76.4258
1518.72	47.5195
1522.85	165.959
1526.98	168.768
1531.11	289.843
1535.24	230.641
1539.36	285.513
1543.48	197.956
1547.6	202.256
1551.71	191.95
1555.82	87.3818
1559.93	169.46
1564.04	34.4727
1568.14	181.681
1572.25	38.5322
1576.35	102.808
