Measurement: Raman, 514 nm, depolarized, Raman Data Processed
Mineral: Rhodonite
Rruff sample: R060549
Ideal chemistry: CaMn^2+^_3_Mn^2+^Si_5_O_15_
Locality: unknown
Source: Gemological Institute of America
Description: Pink cleavage fragment
Measured chemistry: (Mn_0.76_Ca_0.12_Fe_0.07_Mg_0.06_)Si_0.99_O_3_
Pin_id: L01873
Orientation: Laser parallel to c* (0 0 1). Fiducial mark perpendicular to laser is parallel to a [1 0 0]
Raman shift (cm-1)	intensity
85.749	0
90.706	536.692
95.659	844.188
100.61	442.245
105.559	231.037
110.504	1877.96
115.447	3463.28
120.387	2609.2
125.324	1900.75
130.259	1657.87
135.191	1914.22
140.12	1668.32
145.046	613.089
149.97	122.235
154.891	84.5845
159.809	386.01
164.724	808.232
169.637	813.476
174.547	426.578
179.454	247.536
184.359	62.2778
189.261	124.056
194.16	44.8413
199.056	30.3872
203.95	147.132
208.841	119.36
213.729	264.789
218.614	177.492
223.497	55.8755
228.377	69.4981
233.254	44.0513
238.129	93.8721
243.001	383.197
247.87	776.053
252.737	1128.28
257.6	1272.37
262.461	1850.98
267.32	1889.93
272.175	1423.14
277.028	1069.52
281.879	660.081
286.726	252.262
291.571	34.6748
296.413	54.5147
301.252	0.595703
306.089	27.5107
310.923	148.264
315.755	634.274
320.583	1682.46
325.409	3054.8
330.232	3316.26
335.053	3182.21
339.871	2735.94
344.686	1946.94
349.498	1722.4
354.308	1224.53
359.115	825.873
363.92	766.237
368.721	648.6
373.52	361.358
378.317	309.935
383.111	258.553
387.902	548.146
392.69	662.062
397.475	630.811
402.258	531.28
407.039	1092.68
411.816	1789
416.591	2882.25
421.364	4138.4
426.133	3077.47
430.9	1451.44
435.664	917.036
440.426	749.183
445.185	440.012
449.941	248.975
454.695	397.717
459.445	417.45
464.194	248.263
468.939	193.309
473.682	104.627
478.423	9.62158
483.16	69.6201
487.895	35.6196
492.627	134.75
497.357	316.856
502.084	416.855
506.808	691.737
511.53	1246.54
516.249	964.261
520.965	393.964
525.679	24.6733
530.39	54.1938
535.098	22.8008
539.804	124.804
544.507	301.24
549.208	260.572
553.906	634.903
558.601	946.451
563.293	630.456
567.983	441.849
572.671	470.702
577.355	293.591
582.037	186.329
586.717	122.028
591.393	34.3511
596.067	109.261
600.739	93.7866
605.408	33.0068
610.074	75.9233
614.737	234.625
619.398	249.383
624.057	446.098
628.712	547.395
633.365	740.55
638.016	1054.63
642.664	1640.82
647.309	2566.31
651.951	4455.66
656.591	8832
661.229	16951.1
665.863	24863.7
670.495	30805.5
675.125	21440.8
679.752	11733.6
684.376	6458.78
688.998	3429.98
693.617	2021.81
698.233	1366.68
702.847	1069.6
707.458	998.58
712.066	992.594
716.672	980.885
721.276	725.837
725.877	619.204
730.475	384.517
735.07	435.091
739.663	474.575
744.254	346.04
748.841	253.083
753.426	113.225
758.009	149.129
762.589	126.985
767.166	32.939
771.741	93.8486
776.313	1.54346
780.883	78.9263
785.45	4.97607
790.014	12.6792
794.576	63.4878
799.135	20.4126
803.692	25.3755
808.246	47.0601
812.797	18.314
817.346	26.998
821.893	91.9624
826.436	105.325
830.977	54.2837
835.516	97.6431
840.052	73.5361
844.585	67.2017
849.116	50.2539
853.645	55.0772
858.17	167.334
862.693	151.575
867.214	288.905
871.732	676.269
876.247	1306.64
880.76	1667.71
885.27	1241.34
889.778	864.591
894.283	707.538
898.786	398.457
903.286	537.181
907.783	511.979
912.278	587.723
916.77	726.077
921.26	603.378
925.747	620.628
930.232	858.971
934.714	1416.11
939.193	2328.97
943.67	2152.88
948.145	1551.69
952.617	1562.27
957.086	2041.81
961.553	3255.5
966.017	6162.47
970.479	11996.3
974.938	18745.3
979.394	16809.1
983.848	13785.1
988.3	14267.7
992.749	15841.5
997.195	18404.3
1001.64	19461.3
1006.08	15034.3
1010.52	9707.62
1014.96	5742.14
1019.39	3655.7
1023.82	2873.39
1028.25	2359.91
1032.67	2227.79
1037.1	2441.11
1041.52	2836.9
1045.94	2492.91
1050.35	2067.18
1054.77	1401.44
1059.18	874.683
1063.59	538.405
1067.99	364.599
1072.4	462.302
1076.8	126.307
1081.19	150.967
1085.59	378.844
1089.98	159.149
1094.38	141.024
1098.76	152.536
1103.15	83.4297
1107.53	63.5703
1111.91	174.89
1116.29	21.3574
1120.67	115.978
1125.04	58.8477
1129.41	16.083
1133.78	51.6357
1138.14	122.597
1142.51	31.9492
1146.87	106.322
1151.23	100.039
1155.58	77.583
1159.93	29.6621
1164.29	35.4619
1168.63	53.8906
1172.98	140.889
1177.32	76.3965
1181.66	42.9551
1186	61.6455
1190.34	45.4775
1194.67	11.8613
1199	48.0918
1203.33	131.407
1207.65	40.2451
1211.98	60.1562
1216.3	3.61035
1220.62	54.4512
1224.93	116.159
1229.24	32.7637
1233.56	115.776
1237.86	46.4082
1242.17	140.102
1246.47	109.821
1250.77	143.432
1255.07	177.298
1259.37	134.692
1263.66	4.30957
1267.95	155.57
1272.24	202.905
1276.53	78.9639
1280.81	108.454
1285.09	95.916
1289.37	112.755
1293.64	118.274
1297.92	165.301
1302.19	83.0449
1306.46	72.9102
1310.72	190.71
1314.99	149.172
1319.25	151.892
1323.51	127.341
1327.76	189.237
1332.02	96.75
1336.27	54.2012
1340.52	58.1504
1344.76	302.618
1349.01	68.2803
1353.25	21.8027
1357.49	257.99
1361.72	275.456
1365.96	278.351
1370.19	143.877
1374.42	319.681
1378.64	30.1709
1382.87	208.102
1387.09	265.309
1391.31	251.836
1395.53	62.2022
1399.74	127.523
1403.95	42.2236
1408.16	191.793
1412.37	110.04
1416.58	13.1592
1420.78	150.176
1424.98	118.248
1429.18	18.0869
1433.37	109.071
1437.56	235.853
1441.75	129.389
1445.94	48.5264
1450.13	146.337
1454.31	70.2139
1458.49	219.57
1462.67	34.7998
1466.84	81.9228
1471.02	127.514
1475.19	159.044
1479.36	123.089
1483.52	52.0352
1487.68	113.967
1491.85	65.3711
1496	155.222
1500.16	149.405
1504.31	103.456
1508.46	17.3076
1512.61	215.758
1516.76	57.793
1520.9	75.5791
1525.05	162.03
1529.18	1.21875
1533.32	167.221
1537.45	103.143
1541.59	133.939
1545.72	187.153
1549.84	150.902
1553.97	289.618
1558.09	142.003
1562.21	124.213
1566.33	102.648
1570.44	160.059
1574.56	133.951
