Measurement: Raman, 514 nm, depolarized, Raman Data Processed
Mineral: Rhodochrosite
Rruff sample: R050116
Ideal chemistry: Mn^2+^CO_3_
Locality: Wudong mine, Liubao, Guangxi Autonomous Region, China
Source: He Xin Jian
Description: Pink crystal associated with colorless quartz
Measured chemistry: (Mn_0.81_Fe_0.17_Mg_0.01_Ca_0.01_)CO_3_
Pin_id: L00413
Orientation: Laser parallel to c* (0 0 1). Fiducial mark perpendicular to laser is parallel to a [1 0 0]
Raman shift (cm-1)	intensity
53.126	0
57.35	74.648
61.572	136.945
65.792	98.133
70.01	89.673
74.225	126.448
78.438	72.686
82.649	22.136
86.858	28.871
91.065	18.51
95.269	56.261
99.471	82.511
103.67	101.148
107.868	132.603
112.063	147.734
116.256	173.58
120.447	144.461
124.636	133.379
128.822	129.35
133.006	134.67
137.188	164.291
141.368	139.077
145.545	107.884
149.72	171.483
153.893	142.728
158.064	211.852
162.233	250.882
166.399	298.945
170.563	381.044
174.725	719.166
178.885	1408.31
183.043	1873.46
187.198	1207.63
191.351	487.846
195.502	213.109
199.651	100.462
203.797	54.04
207.942	48.373
212.084	35.187
216.224	13.228
220.362	13.793
224.497	19.516
228.631	8.629
232.762	23.754
236.891	9.821
241.018	35.992
245.143	15.154
249.265	30.109
253.386	34.193
257.504	64.924
261.62	62.514
265.734	81.491
269.845	124.628
273.955	204.383
278.062	362.908
282.167	740.378
286.27	1158.79
290.371	1135.21
294.47	687.552
298.567	364.911
302.661	191.304
306.753	128.656
310.843	92.955
314.931	61.234
319.017	33.945
323.101	34.768
327.182	47.029
331.261	27.289
335.339	14.547
339.414	27.801
343.487	8.052
347.557	19.298
351.626	3.465
355.693	36.46
359.757	14.976
363.819	42.189
367.879	0.385
371.937	12.511
375.993	3.149
380.047	3.422
384.099	16.125
388.148	17.136
392.196	8.436
396.241	25.077
400.284	2.59
404.325	6.185
408.364	2.757
412.401	5.439
416.435	7.07
420.468	0.02
424.498	1.732
428.527	8.771
432.553	3.756
436.577	22.707
440.599	14.659
444.619	0.628
448.637	21.563
452.653	20
456.667	33.897
460.678	4.566
464.688	28.459
468.695	31.723
472.701	37.693
476.704	58.228
480.705	48.118
484.704	34.909
488.701	56.737
492.696	35.609
496.689	56.354
500.68	67.162
504.668	53.886
508.655	26.631
512.639	60.25
516.622	46.996
520.602	63.957
524.581	77.65
528.557	78.956
532.531	67.598
536.503	62.151
540.473	40.244
544.441	40.824
548.407	37.608
552.371	54.955
556.333	33.614
560.293	50.199
564.251	33.826
568.206	13.104
572.16	43.674
576.112	53.252
580.061	12.584
584.009	0.924
587.954	42.458
591.897	36.964
595.839	24.191
599.778	11.605
603.716	20.004
607.651	40.86
611.584	17.999
615.515	11.478
619.444	5.066
623.372	36.599
627.297	9.104
631.22	19.529
635.141	1.421
639.06	14.847
642.977	94.688
646.892	54.659
650.805	33.997
654.716	32.658
658.625	20.242
662.532	24.921
666.437	26.212
670.34	21.48
674.241	0.049
678.139	14.164
682.036	16.356
685.931	35.677
689.824	7.836
693.715	24.742
697.604	40.657
701.491	51.899
705.376	88.648
709.259	150.219
713.139	374.503
717.018	1273.55
720.895	1526.05
724.77	662.056
728.643	284.135
732.514	157.142
736.383	96.324
740.25	94.263
744.115	76.15
747.978	45.583
751.839	22.671
755.698	17.489
759.555	42.267
763.41	8.3
767.263	29.526
771.114	10.459
774.964	9.142
778.811	8.845
782.656	45.085
786.499	13.461
790.341	8.31
794.18	17.26
798.017	19.714
801.853	22.772
805.686	45.341
809.518	24.63
813.347	0.972
817.175	9.325
821.001	12.663
824.824	2.945
828.646	42.118
832.466	24.369
836.284	5.61
840.1	33.778
843.914	21.117
847.726	26.315
851.536	1.478
855.344	3.616
859.15	26.728
862.954	0.656
866.756	15.874
870.557	14.923
874.355	8.953
878.152	10.967
881.946	9.031
885.739	1.936
889.53	12.892
893.318	43.847
897.105	9.206
900.89	16.72
904.673	20.637
908.454	44.502
912.234	32.406
916.011	20.912
919.786	29.22
923.56	33.08
927.331	36.86
931.101	29.698
934.868	24.568
938.634	31.456
942.398	17.859
946.16	11.297
949.92	42.511
953.678	24.482
957.435	42.392
961.189	42.07
964.941	37.214
968.692	25.123
972.441	14.059
976.187	9.132
979.932	36.749
983.675	12.73
987.416	16.684
991.155	8.412
994.893	6.605
998.628	38.869
1002.36	93.994
1006.09	115.022
1009.82	120.507
1013.55	150.935
1017.28	154.069
1021	178.223
1024.72	185.937
1028.44	228.134
1032.16	246.641
1035.88	252.469
1039.59	276.772
1043.31	294.076
1047.02	361.883
1050.73	460.285
1054.43	596.493
1058.14	693.952
1061.84	997.437
1065.54	1151.69
1069.24	1382.26
1072.94	2287.84
1076.64	5004.73
1080.33	17320.4
1084.03	43797.2
1087.71	18803.1
1091.4	4929.93
1095.09	1751.94
1098.78	876.854
1102.46	557.807
1106.14	410.877
1109.82	303.82
1113.5	214.808
1117.17	130.837
1120.85	178.014
1124.52	119.868
1128.19	90.944
1131.86	72.085
1135.52	73.199
1139.19	73.215
1142.85	69.5
1146.51	36.625
1150.17	39.938
1153.83	44.626
1157.48	72.091
1161.14	25.424
1164.79	76.717
1168.44	32.022
1172.09	47.743
1175.73	29.103
1179.38	46.045
1183.02	17.032
1186.66	36.7
1190.3	53.858
1193.94	49.383
1197.58	33.789
1201.21	14.146
1204.84	18.113
1208.47	29.36
1212.1	19.408
1215.72	32.087
1219.35	40.716
1222.97	45.255
1226.59	3.742
1230.21	37.276
1233.83	50.757
1237.45	0.458
1241.06	5.696
1244.67	5.035
1248.28	26.373
1251.89	40.71
1255.5	54.595
1259.1	18.93
1262.7	0.705
1266.31	46.602
1269.9	46.896
1273.5	8.185
1277.1	39.44
1280.69	17.645
1284.29	18.784
1287.88	33.895
1291.46	13.973
1295.05	6.998
1298.64	48.983
1302.22	20.907
1305.8	24.7
1309.38	27.433
1312.96	1.874
1316.54	17.765
1320.11	27.352
1323.68	41.873
1327.25	42.382
1330.82	19.22
1334.39	11.1
1337.96	21.367
1341.52	59.58
1345.08	1.745
1348.64	38.863
1352.2	32.988
1355.76	17.065
1359.31	53.333
1362.87	38.373
1366.42	35.99
1369.97	41.24
1373.52	12.803
1377.06	6.238
1380.61	31.182
1384.15	38.964
1387.69	74.906
1391.23	99.63
1394.77	57.448
1398.3	50.269
1401.84	58.002
1405.37	90.692
1408.9	166.008
1412.43	224.566
1415.96	206.355
1419.48	202.208
1423.01	120.123
1426.53	133.661
1430.05	133.577
1433.57	145.632
1437.08	134.744
1440.6	84.683
1444.11	80.046
1447.62	73.64
1451.13	43.568
1454.64	107.09
1458.15	86.923
1461.65	56.691
1465.16	72.22
1468.66	95.691
1472.16	86.17
1475.65	105.497
1479.15	41.804
1482.64	20.785
1486.14	17.812
1489.63	2.942
1493.12	14.908
1496.61	3.522
1500.09	58.411
1503.58	54.092
1507.06	43.515
1510.54	41.389
