Measurement: Raman, 514 nm, ccw, Raman Data Processed
Mineral: Rhodonite
Rruff sample: R060549
Ideal chemistry: CaMn^2+^_3_Mn^2+^Si_5_O_15_
Locality: unknown
Source: Gemological Institute of America
Description: Pink cleavage fragment
Measured chemistry: (Mn_0.76_Ca_0.12_Fe_0.07_Mg_0.06_)Si_0.99_O_3_
Pin_id: L01637
Orientation: Laser parallel to a* (1 0 0). Fiducial mark perpendicular to laser is parallel to b [0 1 0]
Raman shift (cm-1)	intensity
153.377	0
158.283	262.16
163.187	921.61
168.088	1201.45
172.987	966.373
177.884	699.389
182.778	844.144
187.67	760.208
192.559	311.997
197.445	95.8232
202.33	78.5244
207.211	26.186
212.091	348.357
216.967	1024.89
221.842	1189.87
226.713	860.792
231.583	625.083
236.449	1088.56
241.314	2054.32
246.176	3379.31
251.035	3899.22
255.892	3139.58
260.746	2185.13
265.598	1450.91
270.448	1086.94
275.295	894.638
280.139	873.777
284.981	666.781
289.82	693.4
294.657	1307.6
299.492	2100.43
304.324	2420.85
309.153	2063.81
313.98	1455.5
318.805	1262.29
323.627	1820.97
328.446	2892.04
333.263	3980.3
338.078	4940.6
342.89	5105.59
347.699	5352.29
352.506	5090.51
357.311	4432.42
362.113	4384.04
366.912	3892.31
371.709	2588.67
376.504	1581.56
381.295	1197.49
386.085	1530.17
390.872	2176.87
395.656	1995.53
400.438	1233.71
405.218	1474.32
409.994	2113
414.769	2794.58
419.541	4393.37
424.31	3883.31
429.077	2132.36
433.841	1767.5
438.603	1730.7
443.362	1081.97
448.119	404.033
452.873	286.505
457.625	282.352
462.374	357.681
467.121	261.421
471.865	98.6953
476.607	31.0523
481.346	21.5225
486.082	60.8716
490.816	264.116
495.548	727.843
500.277	692.824
505.003	530.849
509.727	902.986
514.449	990.123
519.168	483.278
523.884	160.768
528.598	114.671
533.309	179.725
538.018	133.214
542.724	2.37988
547.428	187.602
552.129	151.544
556.828	473.198
561.524	587.582
566.217	965.673
570.909	1796.44
575.597	1786.87
580.283	865.952
584.966	414.677
589.647	231.032
594.326	150.954
599.001	163.391
603.675	142.275
608.345	233.179
613.014	297.579
617.679	411.766
622.342	620.472
627.003	1068.06
631.661	976.237
636.316	1353.99
640.969	1860.45
645.62	2803.35
650.267	4805.85
654.913	8977.97
659.555	17721
664.196	28297
668.833	40157.4
673.468	34049.6
678.101	20802
682.731	12875.4
687.358	6688.38
691.983	3776.2
696.605	2502.14
701.225	1790.43
705.842	1623.15
710.457	1671.39
715.069	1742.31
719.679	1506.6
724.286	1217.25
728.89	717.605
733.492	599.13
738.091	548.688
742.688	595.263
747.282	315.579
751.874	149.091
756.463	16.5547
761.05	11.3657
765.634	60.2065
770.215	5.75928
774.794	64.5688
779.37	84.7959
783.944	49.6182
788.515	15.6968
793.084	94.6953
797.65	27.75
802.213	68.6997
806.774	88.9604
811.332	74.4795
815.888	47.6719
820.441	91.9849
824.992	83.3843
829.54	2.41797
834.085	43.3394
838.628	18.564
843.169	52.3711
847.706	140.742
852.242	207.818
856.774	255.491
861.304	459.153
865.832	433.82
870.357	657.544
874.879	1167.35
879.399	1720.29
883.916	1189.33
888.431	701.458
892.943	320.175
897.452	253.532
901.959	241.427
906.463	332.929
910.965	385.381
915.464	493.294
919.961	460.638
924.455	689.044
928.946	883.656
933.435	1605.36
937.922	3216.15
942.405	3340.82
946.886	2026.8
951.365	1557.73
955.841	1929.59
960.314	3196.32
964.785	6117.88
969.253	12545.5
973.719	21689.2
978.182	22856
982.642	18015.2
987.1	17986.9
991.556	21366.9
996.008	30225.3
1000.46	40656.1
1004.91	40128.4
1009.35	26567
1013.79	16128
1018.23	8427.48
1022.67	5275.21
1027.11	4130.8
1031.54	3236.68
1035.97	2925.25
1040.39	3120.2
1044.82	4656.77
1049.24	6970.5
1053.66	6278.28
1058.08	3867.12
1062.49	2626.64
1066.9	1841.65
1071.31	1294.73
1075.71	1006.68
1080.12	805.463
1084.52	626.545
1088.92	539.515
1093.31	452.119
1097.71	383.938
1102.1	338.57
1106.48	215.387
1110.87	276.389
1115.25	262.466
1119.63	237.661
1124.01	315.959
1128.39	104.348
1132.76	53.8164
1137.13	214.352
1141.5	49.9443
1145.86	67.5811
1150.22	113.251
1154.58	25.9141
1158.94	83.5293
1163.29	134.132
1167.64	41.3057
1171.99	22.0576
1176.34	18.2354
1180.68	43.8193
1185.03	8.31836
1189.36	116.273
1193.7	58.8897
1198.03	160.315
1202.36	57.459
1206.69	7.02441
1211.02	23.8789
1215.34	60.8057
1219.66	112.281
1223.98	17.4609
1228.3	134.248
1232.61	198.708
1236.92	83.9717
1241.22	215.05
1245.53	107.921
1249.83	199.629
1254.13	281.097
1258.43	132.398
1262.72	172.419
1267.02	311.404
1271.3	275.09
1275.59	364.678
1279.88	263.903
1284.16	240.09
1288.43	190.981
1292.71	169.546
1296.98	351.682
1301.26	179.82
1305.52	382.714
1309.79	336.798
1314.05	383.017
1318.31	412.68
1322.57	412.214
1326.83	268.616
1331.08	232.279
1335.33	172.383
1339.58	119.027
1343.82	169.012
1348.07	134.27
1352.31	43.9287
1356.54	102.804
1360.78	92.8057
1365.01	210.703
1369.24	296.492
1373.46	278.247
1377.69	152.935
1381.91	181.442
1386.13	200.9
1390.35	94.6279
1394.56	88.7031
1398.77	14.4658
1402.98	134.089
1407.18	55.5772
1411.39	73.9971
1415.59	152.498
1419.79	34.0166
1423.98	158.416
1428.17	65.9561
1432.36	129.155
1436.55	323.383
1440.74	490.406
1444.92	623.874
1449.1	691.058
1453.28	696.173
1457.45	793.735
1461.62	667.403
1465.79	518.27
1469.96	443.606
1474.12	452.012
1478.28	279.413
1482.44	313.853
1486.6	301.251
1490.75	127.545
1494.9	26.042
1499.05	96.7803
1503.19	17.0508
1507.34	25.9346
1511.48	34.9141
1515.62	153.109
1519.75	62.1103
1523.88	86.3662
1528.02	72.8398
1532.14	63.5684
1536.27	175.815
1540.39	34.9316
1544.51	190.132
1548.62	18.9238
1552.74	104.587
1556.85	128.885
1560.96	5.23731
1565.07	126.231
1569.17	142.481
1573.27	57.5166
1577.37	0
