Measurement: Raman, 514 nm, depolarized, Raman Data Processed
Mineral: Rhodochrosite
Rruff sample: R040133
Ideal chemistry: Mn^2+^CO_3_
Locality: Imuris, Sonora, Mexico
Source: University of Arizona Mineral Museum
Description: Pink cleavage fragment
Measured chemistry: (Mn_0.92_Mg_0.02_Ca_0.01_)C_1.02_O_3_
Pin_id: L00279
Orientation: Laser parallel to a* (1 0 0). Fiducial mark perpendicular to laser is parallel to c [0 0 1]
Raman shift (cm-1)	intensity
50.765	0
54.966	52.057
59.164	80.058
63.36	93.981
67.554	24.197
71.747	3.715
75.937	102.645
80.125	160.983
84.311	173.394
88.496	122.246
92.678	166.008
96.858	89.374
101.036	67.38
105.212	105.334
109.387	78.581
113.559	55.849
117.729	65.461
121.897	22.31
126.063	3.088
130.228	12.876
134.39	9.024
138.55	35.096
142.709	29.331
146.865	30.897
151.019	22.43
155.171	26.676
159.322	33.013
163.47	28.184
167.617	47.826
171.761	129.254
175.904	297.31
180.044	887.982
184.183	2120.36
188.319	1307.47
192.454	330.323
196.586	107.994
200.717	47.725
204.846	14.286
208.972	14.178
213.097	0.175
217.22	7.731
221.341	14.065
225.46	2.858
229.577	15.735
233.692	18.68
237.805	4.721
241.916	25.37
246.025	40.471
250.132	72.937
254.237	84.729
258.34	104.809
262.442	138.133
266.541	157.566
270.639	242.543
274.734	416.226
278.828	862.335
282.919	2021.5
287.009	4500.89
291.097	5922.14
295.183	3454.04
299.266	1485.51
303.348	744.323
307.428	495.619
311.507	349.661
315.583	258.86
319.657	202.34
323.729	166.355
327.8	161.257
331.868	142.248
335.935	131.282
339.999	104.006
344.062	88.683
348.123	85.166
352.182	72.722
356.239	104.214
360.294	71.364
364.347	90.738
368.398	79.181
372.448	75.397
376.495	82.786
380.54	63.659
384.584	43.668
388.626	38.95
392.666	48.216
396.704	63.613
400.74	36.862
404.774	43.72
408.806	30.769
412.836	41.823
416.865	44.936
420.891	39.125
424.916	46.551
428.939	31.103
432.959	18.675
436.978	37.553
440.996	35.199
445.011	25.633
449.024	22.401
453.036	19.349
457.045	14.795
461.053	36.172
465.059	18.012
469.063	27.051
473.065	19.484
477.065	14.803
481.063	17.112
485.06	20.475
489.054	32.636
493.047	52.962
497.038	10.296
501.027	2.633
505.014	27.885
508.999	46.097
512.982	13.167
516.964	27.356
520.944	27.388
524.921	39.383
528.897	19.495
532.871	5.541
536.844	6.495
540.814	22.545
544.783	22.51
548.749	38.486
552.714	16.517
556.677	21.616
560.638	6.606
564.597	19.689
568.555	22.607
572.511	30.674
576.464	40.833
580.416	21.944
584.366	22.106
588.315	26.219
592.261	35.285
596.206	23.386
600.148	24.442
604.089	15.546
608.028	27.373
611.965	2.333
615.901	17.576
619.834	10.628
623.766	2.031
627.696	2.058
631.624	17.331
635.551	17.959
639.475	6.035
643.398	25.057
647.318	5.109
651.237	6.754
655.155	13.481
659.07	0.478
662.984	8.837
666.895	18.905
670.805	1.1
674.713	29.212
678.62	33.415
682.524	5.587
686.427	7.577
690.328	17.545
694.227	32.073
698.124	41.811
702.02	32.849
705.913	69.939
709.805	145.876
713.695	423.82
717.584	2202.53
721.47	1989.39
725.355	415.205
729.238	157.214
733.119	86.088
736.998	49.939
740.876	52.73
744.752	34.944
748.626	25.756
752.498	19.299
756.368	18.899
760.237	23.068
764.104	8.665
767.969	6.046
771.832	11.935
775.693	6.597
779.553	9.076
783.411	2.391
787.267	12.265
791.122	18.891
794.974	12.474
798.825	10.036
802.674	21.281
806.522	1.195
810.367	3.488
814.211	5.817
818.053	11.505
821.893	21.867
825.732	19.266
829.568	1.646
833.403	0.005
837.236	10.289
841.068	8.539
844.898	10.844
848.726	9.109
852.552	34.359
856.376	13.406
860.199	13.773
864.02	23.927
867.839	17.07
871.656	25.205
875.472	15.588
879.286	11.451
883.098	17.56
886.909	25.658
890.717	4.748
894.524	9.831
898.33	15.904
902.133	5.74
905.935	20.018
909.735	26.06
913.533	12.111
917.33	6.975
921.124	5.039
924.918	18.082
928.709	7.891
932.499	23.743
936.286	13.381
940.073	17.409
943.857	28.735
947.64	15.681
951.421	11.297
955.2	30.722
958.978	7.853
962.753	16.38
966.527	6.629
970.3	1.165
974.071	12.21
977.84	19.911
981.607	9.66
985.372	11.475
989.136	26.547
992.898	43.602
996.659	60.638
1000.42	83.114
1004.17	99.233
1007.93	137.589
1011.68	141.013
1015.43	180.121
1019.18	183.319
1022.93	199.551
1026.68	207.795
1030.42	193.05
1034.17	189.188
1037.91	212.478
1041.65	273.782
1045.39	331.087
1049.12	388.015
1052.86	468.4
1056.59	527.689
1060.33	628.382
1064.06	968.813
1067.78	1115.26
1071.51	1271.54
1075.23	1904.02
1078.96	3592.05
1082.68	12664.1
1086.4	60343.2
1090.12	19321.7
1093.83	4738.33
1097.55	1729.96
1101.26	952.026
1104.97	592.663
1108.68	391.323
1112.39	288.826
1116.1	227.335
1119.8	215.273
1123.5	215.078
1127.2	162.051
1130.9	135.1
1134.6	121.894
1138.3	112.991
1141.99	71.818
1145.69	100.051
1149.38	52.313
1153.07	42.556
1156.76	58.57
1160.44	50.504
1164.13	45.301
1167.81	40.3
1171.49	25.241
1175.17	38.262
1178.85	47.196
1182.52	43.912
1186.2	31.009
1189.87	28.537
1193.54	14.152
1197.21	1.245
1200.88	28.914
1204.55	35.314
1208.21	22.518
1211.88	14.838
1215.54	39.927
1219.2	31.973
1222.86	25.64
1226.51	10.646
1230.17	10.767
1233.82	33.832
1237.47	25.03
1241.12	32.038
1244.77	40.946
1248.42	16.844
1252.06	8.747
1255.71	27.668
1259.35	29.562
1262.99	28.45
1266.63	0.675
1270.26	23.167
1273.9	11.987
1277.53	36.764
1281.16	5.528
1284.8	13.267
1288.42	20.975
1292.05	4.361
1295.68	19.745
1299.3	4.825
1302.92	22.374
1306.55	28.88
1310.16	16.325
1313.78	16.719
1317.4	5.086
1321.01	117.429
1324.62	10.742
1328.24	12.048
1331.85	2.305
1335.45	2.415
1339.06	26.761
1342.66	30.895
1346.27	2.982
1349.87	27.094
1353.47	4.865
1357.07	4.279
1360.66	18.14
1364.26	22.376
1367.85	21.342
1371.44	0.278
1375.04	26.576
1378.62	36.339
1382.21	19.365
1385.8	23.968
1389.38	38.574
1392.96	56.116
1396.54	23.324
1400.12	52.846
1403.7	65.706
1407.28	214.383
1410.85	432.555
1414.42	1258.72
1417.99	1432.08
1421.56	685.022
1425.13	361.15
1428.7	210.591
1432.26	150.96
1435.83	152.094
1439.39	129.026
1442.95	130.063
1446.51	113.234
1450.06	105.14
1453.62	79.36
1457.17	75.495
1460.73	41.441
1464.28	41.279
1467.83	24.017
1471.37	15.771
1474.92	6.489
1478.46	36.195
1482.01	16.074
1485.55	43.95
1489.09	16.091
1492.63	25.324
1496.16	32.481
1499.7	18.463
1503.23	2.99
1506.76	22.991
1510.29	35.672
1513.82	20.121
1517.35	25.27
1520.88	0.091
