Measurement: Raman, 514 nm, depolarized, Raman Data Processed
Mineral: Rhodonite
Rruff sample: R060549
Ideal chemistry: CaMn^2+^_3_Mn^2+^Si_5_O_15_
Locality: unknown
Source: Gemological Institute of America
Description: Pink cleavage fragment
Measured chemistry: (Mn_0.76_Ca_0.12_Fe_0.07_Mg_0.06_)Si_0.99_O_3_
Pin_id: L01642
Orientation: Laser parallel to (1 1 0). Fiducial mark perpendicular to laser is parallel to c [0 0 1]
Raman shift (cm-1)	intensity
153.377	0
158.283	285.589
163.187	950.151
168.088	1205.18
172.987	823.852
177.884	526.679
182.778	278.82
187.67	61.7275
192.559	64.9224
197.445	39.437
202.33	188.181
207.211	226.921
212.091	502.136
216.967	436.432
221.842	229.583
226.713	307.181
231.583	426.62
236.449	735.832
241.314	1181.08
246.176	1690.38
251.035	2349.4
255.892	2789.44
260.746	3367.47
265.598	3883.45
270.448	2963.36
275.295	1781.83
280.139	1436.11
284.981	949.082
289.82	470.693
294.657	377.904
299.492	484.173
304.324	424.103
309.153	429.923
313.98	617.001
318.805	1445.47
323.627	3067.09
328.446	3914.09
333.263	4492.46
338.078	4264.81
342.89	3353.85
347.699	2894.2
352.506	2367.8
357.311	1407.01
362.113	968.792
366.912	905.098
371.709	826.877
376.504	359.101
381.295	334.76
386.085	462.245
390.872	467.483
395.656	415.005
400.438	325.364
405.218	808.741
409.994	1717.36
414.769	2938.2
419.541	4301.23
424.31	3824.43
429.077	1657.76
433.841	505.206
438.603	138.762
443.362	175.428
448.119	241.751
452.873	599.746
457.625	467.299
462.374	366.772
467.121	248.435
471.865	247.549
476.607	62.5107
481.346	91.4356
486.082	150.99
490.816	13.4136
495.548	362.015
500.277	520.535
505.003	991.065
509.727	1925.63
514.449	1531.19
519.168	724.743
523.884	176.389
528.598	103.034
533.309	72.5781
538.018	45.875
542.724	140.281
547.428	382.293
552.129	610.117
556.828	1285.9
561.524	1171.51
566.217	605.02
570.909	680.332
575.597	517.458
580.283	339.358
584.966	110.964
589.647	2.86768
594.326	31.3355
599.001	41.7915
603.675	138.687
608.345	189.173
613.014	288.279
617.679	409.107
622.342	508.587
627.003	792.598
631.661	1043.59
636.316	1564.15
640.969	2239.34
645.62	3333.32
650.267	5870.7
654.913	11723.1
659.555	23919.2
664.196	36069
668.833	47681.4
673.468	38908.3
678.101	21902.9
682.731	12753.4
687.358	6818.72
691.983	4025.65
696.605	2751.03
701.225	1970.63
705.842	1759.36
710.457	1882.35
715.069	1796.1
719.679	1712.6
724.286	1255.62
728.89	1012.06
733.492	694.114
738.091	752.052
742.688	577.454
747.282	433.512
751.874	126.831
756.463	179.004
761.05	152.847
765.634	107.733
770.215	41.5391
774.794	87.8457
779.37	10.6133
783.944	21.8574
788.515	12.6094
793.084	23.8428
797.65	24.5205
802.213	140.538
806.774	37.9941
811.332	101.804
815.888	12.9727
820.441	62.582
824.992	37.7988
829.54	45.3008
834.085	29.0771
838.628	57.8516
843.169	70.7607
847.706	73.8389
852.242	57.1992
856.774	116.08
861.304	284.862
865.832	505.698
870.357	803.78
874.879	1603.01
879.399	2536.26
883.916	2124.51
888.431	1488.65
892.943	1100.98
897.452	1060.52
901.959	1034.9
906.463	986.79
910.965	1326.47
915.464	1341.84
919.961	1305.89
924.455	1098.53
928.946	1280.55
933.435	2013.48
937.922	3596.91
942.405	3670.41
946.886	2457.84
951.365	2086.91
955.841	2415.23
960.314	4030.68
964.785	7528.7
969.253	15289.8
973.719	26670.6
978.182	26642.5
982.642	19377.8
987.1	18070.9
991.556	18658.3
996.008	20659
1000.46	22569.1
1004.91	18757.5
1009.35	12904.1
1013.79	7766.17
1018.23	5051.41
1022.67	3904.07
1027.11	3420.86
1031.54	3169.93
1035.97	3601.28
1040.39	4358.18
1044.82	4276.47
1049.24	3547.31
1053.66	2346.27
1058.08	1512.4
1062.49	846.684
1066.9	582.246
1071.31	486.924
1075.71	265.657
1080.12	306.95
1084.52	221.388
1088.92	132.196
1093.31	118.773
1097.71	157.507
1102.1	165.509
1106.48	113.1
1110.87	147.306
1115.25	12.0928
1119.63	18.5449
1124.01	119.129
1128.39	166.37
1132.76	128.487
1137.13	179.102
1141.5	67.875
1145.86	43.2559
1150.22	8.19141
1154.58	289.949
1158.94	133.45
1163.29	94.3574
1167.64	168.703
1171.99	88.5635
1176.34	18.458
1180.68	30.9639
1185.03	25.1543
1189.36	36.3379
1193.7	0.316406
1198.03	85.1172
1202.36	95.7129
1206.69	1.76172
1211.02	9.88672
1215.34	78.0908
1219.66	119.068
1223.98	167.691
1228.3	109.936
1232.61	34.332
1236.92	92.2002
1241.22	97.6699
1245.53	24.04
1249.83	57.7236
1254.13	106.881
1258.43	75.9375
1262.72	90.0772
1267.02	152.8
1271.3	48.6299
1275.59	142.077
1279.88	127.814
1284.16	110.701
1288.43	204.364
1292.71	68.584
1296.98	138.1
1301.26	61.5156
1305.52	101.227
1309.79	192.152
1314.05	117.056
1318.31	201.734
1322.57	164.368
1326.83	16.1816
1331.08	208.577
1335.33	212.276
1339.58	196.819
1343.82	237.684
1348.07	172.299
1352.31	94.2197
1356.54	156.726
1360.78	184.452
1365.01	116.158
1369.24	319.832
1373.46	203.857
1377.69	216.616
1381.91	100.463
1386.13	197.431
1390.35	108.835
1394.56	71.5527
1398.77	11.0537
1402.98	219.709
1407.18	112.913
1411.39	196.991
1415.59	171.175
1419.79	267.988
1423.98	148.763
1428.17	102.086
1432.36	208.416
1436.55	113.713
1440.74	112.768
1444.92	212.664
1449.1	59.8281
1453.28	274.622
1457.45	118.358
1461.62	135.513
1465.79	129.004
1469.96	154.348
1474.12	223.232
1478.28	142.395
1482.44	202.627
1486.6	120.916
1490.75	174.933
1494.9	121.193
1499.05	123.799
1503.19	211.581
1507.34	231.693
1511.48	66.9717
1515.62	192.162
1519.75	267.61
1523.88	92.6582
1528.02	83.4727
1532.14	197.812
1536.27	187.175
1540.39	15.1133
1544.51	234.221
1548.62	134.59
1552.74	52.0947
1556.85	151.202
1560.96	218.675
1565.07	97.0342
1569.17	181.719
1573.27	238.444
1577.37	0
