Measurement: Raman, 514 nm, ccw, Raman Data Processed
Mineral: Rhodonite
Rruff sample: R040041
Ideal chemistry: CaMn^2+^_3_Mn^2+^Si_5_O_15_
Locality: Franklin, Sussex County, New Jersey, USA
Source: University of Arizona Mineral Museum
Description: Pink prismatic crystals
Measured chemistry: (Mn_0.63_Ca_0.21_Zn_0.12_Mg_0.02_Fe_0.02_)_Î£=1_Si_1.00_O_3_
Pin_id: L00154
Orientation: Laser parallel to (1 1 0). Fiducial mark perpendicular to laser is parallel to c [0 0 1]
Raman shift (cm-1)	intensity
88.075	0
93.002	1297.16
97.928	7652.34
102.851	16872.9
107.772	28034.5
112.69	42230.4
117.606	31917.3
122.52	16810.4
127.431	13906.8
132.34	8876.51
137.247	4103.4
142.151	2814.95
147.053	3434.52
151.952	4186.15
156.849	6537.88
161.744	5584.81
166.637	3759.41
171.527	2892.67
176.414	3028.09
181.299	2204.79
186.182	95.6338
191.063	434.68
195.941	204.528
200.817	1079.92
205.69	766.063
210.561	934.852
215.429	2017.02
220.296	675.662
225.159	405.446
230.021	233.06
234.88	1859.7
239.736	4817.33
244.591	8605
249.442	10737.2
254.292	10450.1
259.139	11099.4
263.983	12221
268.826	9922.82
273.665	7753.68
278.503	7417.84
283.338	6331.42
288.17	4326.86
293	2381.91
297.828	1355.34
302.653	1494.63
307.476	2367.74
312.297	4445.04
317.115	7887.4
321.93	13352.5
326.744	17754.7
331.555	22902.5
336.363	28373
341.169	27170.9
345.972	20278.6
350.773	14496.9
355.572	9362.67
360.368	7504.92
365.162	7144.98
369.954	5850.82
374.742	4023.86
379.529	2885.69
384.313	3011.55
389.095	3588.79
393.874	2670.9
398.651	1632.49
403.425	2229.85
408.197	4566.16
412.966	9995.69
417.733	17254.4
422.498	19506.1
427.26	12177.2
432.019	4809.31
436.776	2266.18
441.531	1352.01
446.283	1334.37
451.033	1745.47
455.78	2325.93
460.525	1553.5
465.268	57.168
470.008	420.038
474.745	540.711
479.48	427.498
484.213	134.842
488.943	868.828
493.671	2303.84
498.396	2751.39
503.118	2691.07
507.839	4836.84
512.556	8184.15
517.272	7620.43
521.985	4308.72
526.695	1766.81
531.403	719.364
536.108	340.549
540.811	385.216
545.512	1042.32
550.209	2094.93
554.905	4116.09
559.598	4978.63
564.288	2920.51
568.976	1250.58
573.662	776.701
578.345	486.707
583.026	233.408
587.704	220.119
592.379	172.352
597.052	190.301
601.723	290.176
606.391	400.656
611.057	608.342
615.72	850.648
620.38	1070.19
625.038	1408.5
629.694	2123.76
634.347	3149.97
638.998	4744.09
643.646	7157.91
648.291	11467.6
652.934	20817.8
657.575	42956.3
662.213	91341.4
666.849	150010
671.482	150542
676.112	90089.1
680.74	49120.4
685.366	27317.4
689.989	13740.8
694.609	7791.17
699.227	5327.71
703.843	4461.66
708.456	5079.33
713.066	6660.89
717.674	6330.07
722.279	4035.59
726.882	2452.69
731.482	2024.03
736.08	2109.3
740.675	2069.71
745.268	1773.48
749.858	1038.73
754.446	490.22
759.031	323.408
763.614	55.7627
768.194	141.394
772.772	70.3496
777.347	23.1318
781.919	49.2012
786.489	131.61
791.057	46.6807
795.621	72.8897
800.184	4.90332
804.744	41.8359
809.301	23.5781
813.856	73.6807
818.408	21.3389
822.958	51.3887
827.505	131.081
832.049	169.286
836.591	16.9619
841.131	107.709
845.668	199.536
850.202	202.199
854.734	338.476
859.263	915.532
863.79	2220.62
868.314	4873.83
872.836	8792.25
877.355	10277.9
881.871	8794.73
886.385	8279.57
890.897	8159.35
895.405	5776.5
899.912	4026.99
904.415	4291.91
908.917	6901.91
913.415	9825.86
917.911	8915.93
922.405	6108.07
926.896	5262.73
931.384	8046.59
935.87	13889.8
940.353	13826.3
944.834	7289.73
949.312	4767.3
953.787	4848.06
958.26	7106.24
962.731	13471.3
967.199	30036.5
971.664	55581.5
976.126	59214.1
980.587	44547.2
985.044	46353.1
989.499	68988.2
993.951	78822.4
998.401	61371.7
1002.85	55200
1007.29	39467.3
1011.74	23275.7
1016.17	17322.1
1020.61	16744.4
1025.05	19198.7
1029.48	21593.9
1033.91	21789.1
1038.33	21705.4
1042.76	27334.6
1047.18	31447.8
1051.6	23201.9
1056.01	10712.2
1060.43	5250
1064.84	2893.44
1069.25	2005.3
1073.65	1653.31
1078.06	1623.15
1082.46	1221.72
1086.86	967.023
1091.25	733.489
1095.64	398.937
1100.03	309.67
1104.42	76.9853
1108.81	343.026
1113.19	282.998
1117.57	331.464
1121.95	327.363
1126.32	112.076
1130.69	231.681
1135.06	280.025
1139.43	212.232
1143.79	153.415
1148.16	203.311
1152.52	284.374
1156.87	263.807
1161.22	222.75
1165.58	138.422
1169.92	26.8955
1174.27	65.2119
1178.62	0.216797
1182.96	130.439
1187.29	18.7451
1191.63	25.5537
1195.96	40.5449
1200.29	67.584
1204.62	25.6357
1208.95	92.2129
1213.27	90.5195
1217.59	52.7227
1221.91	29.5879
1226.22	91.2969
1230.53	214.742
1234.84	56.084
1239.15	44.001
1243.45	40.919
1247.76	154.701
1252.06	102.504
1256.35	76.6787
1260.65	236.304
1264.94	231.141
1269.22	145.684
1273.51	246.669
1277.8	237.154
1282.08	441.977
1286.35	507.315
1290.63	357.435
1294.9	494.762
1299.17	460.597
1303.44	364.247
1307.7	384.88
1311.97	217.07
1316.23	415.644
1320.48	502.784
1324.74	495.312
1328.99	434.715
1333.24	247.949
1337.49	606.794
1341.73	538.214
1345.97	337.373
1350.21	401.459
1354.45	444.942
1358.68	338.721
1362.91	472.008
1367.14	396.344
1371.37	309.365
1375.59	376.242
1379.81	295.143
1384.03	327.67
1388.24	221.843
1392.45	260.862
1396.66	199.897
1400.87	215.482
1405.07	162.91
1409.28	72.6338
1413.47	153.829
1417.67	230.558
1421.87	175.635
1426.06	285.003
1430.25	156.565
1434.43	268.522
1438.62	222.766
1442.8	138.644
1446.97	126.571
1451.15	169.633
1455.32	147.436
1459.49	276.056
1463.66	209.484
1467.82	212.954
1471.99	399.366
1476.15	161.007
1480.3	236.51
1484.46	338.134
1488.61	227.546
1492.76	3.77051
1496.9	39.3828
1501.05	14.6465
1505.19	190.162
1509.33	17.0117
1513.46	3.50293
1517.6	90.3467
1521.73	28.4355
1525.85	267.873
1529.98	196.914
1534.1	85.8613
1538.22	246.012
1542.34	226.089
1546.45	173.397
1550.56	307.598
1554.67	521.891
1558.78	301.195
1562.88	289.654
1566.98	276.92
1571.08	108.256
1575.18	14.7109
1579.27	0
