Measurement: Raman, 514 nm, ccw, Raman Data Processed
Mineral: Rhodonite
Rruff sample: R060549
Ideal chemistry: CaMn^2+^_3_Mn^2+^Si_5_O_15_
Locality: unknown
Source: Gemological Institute of America
Description: Pink cleavage fragment
Measured chemistry: (Mn_0.76_Ca_0.12_Fe_0.07_Mg_0.06_)Si_0.99_O_3_
Pin_id: L00779
Orientation: Laser parallel to (0 1 1). Fiducial mark perpendicular to laser is parallel to a [1 0 0]
Raman shift (cm-1)	intensity
80.912	0
85.863	128.76
90.812	940.034
95.759	3422.39
100.703	4209.29
105.644	2701.09
110.583	8889.05
115.52	13125.2
120.453	9182
125.385	6220.21
130.313	3779.36
135.239	2426.51
140.163	1284.71
145.084	219.312
150.002	115.032
154.918	411.414
159.832	1321.82
164.742	2218.14
169.651	2370.24
174.556	816.373
179.459	222.513
184.36	81.4233
189.258	180.626
194.153	63.377
199.046	93.5259
203.936	189.81
208.824	235.458
213.709	268.527
218.592	203.341
223.472	191.93
228.349	270.12
233.224	206.716
238.096	442.749
242.966	842.911
247.833	1620.76
252.698	2217.35
257.56	2148.88
262.419	1978.64
267.276	1830.22
272.13	1194.74
276.982	711.053
281.831	528.727
286.677	143.107
291.521	4.98975
296.363	127.85
301.202	279.911
306.038	219.998
310.872	31.2056
315.703	165.651
320.531	962.306
325.357	2374.04
330.181	3735.06
335.001	4595.87
339.82	4348.52
344.635	3749.01
349.448	4410.83
354.259	3530.66
359.067	1784
363.872	955.847
368.675	483.153
373.475	223.929
378.272	61.6826
383.067	539.133
387.86	1024.75
392.649	909.657
397.437	457.135
402.221	801.688
407.003	1902.32
411.783	3512.36
416.56	5589.77
421.334	7881.5
426.106	5583.52
430.875	2413.8
435.641	1036.31
440.405	618.052
445.167	739.059
449.925	1176.36
454.681	1486.04
459.435	1317.79
464.186	676.035
468.934	281.265
473.68	24.4429
478.423	149.576
483.164	162.898
487.902	112.372
492.637	111.613
497.37	563.433
502.1	615.204
506.828	1302.88
511.553	2063.44
516.276	1213.83
520.995	365.032
525.713	110.129
530.427	25.7163
535.139	42.3105
539.849	168.94
544.556	420.056
549.26	837.007
553.962	1881.76
558.661	3459.22
563.357	2132.3
568.051	988.967
572.742	608.192
577.431	474.911
582.117	329.101
586.801	240.747
591.481	129.917
596.16	250.824
600.835	176.212
605.508	334.828
610.179	410.823
614.847	617.92
619.512	724.261
624.175	901.428
628.835	1143.98
633.492	1648.07
638.147	2310.89
642.799	3318.02
647.449	5366.78
652.096	9523.35
656.74	19568.5
661.382	37567.3
666.021	51425
670.658	60820.1
675.292	43129.6
679.923	24002.6
684.552	13545.9
689.178	7241.81
693.802	4398.67
698.423	2938.16
703.041	2176.01
707.657	1855.85
712.27	1717.43
716.881	1602.97
721.489	1388.99
726.094	1065.15
730.697	783.539
735.297	743.329
739.894	729.337
744.489	626.683
749.081	338.898
753.671	120.714
758.258	126.362
762.842	42.4639
767.424	19.8511
772.003	12.7568
776.58	75.6885
781.154	24.043
785.725	2.84033
790.294	37.0703
794.86	24.8931
799.424	8.83008
803.985	79.2022
808.543	24.0806
813.099	28.3677
817.652	32.5986
822.202	104.496
826.75	68.2944
831.295	53.2949
835.838	33.5132
840.378	80.4404
844.915	86.1309
849.45	64.6773
853.982	89.165
858.512	151.624
863.039	387.076
867.563	542.634
872.085	1265.36
876.604	2548.2
881.12	3343.19
885.634	2838.26
890.145	2094.35
894.654	1780.62
899.16	1823.27
903.663	1915.61
908.164	2207.82
912.662	2580.99
917.158	2558.49
921.651	2142.13
926.141	1920.62
930.628	2361.07
935.113	4290.68
939.596	7212.36
944.076	5981.79
948.553	3801.2
953.027	3192.79
957.499	3850.68
961.969	6093.88
966.435	11848.2
970.899	23522.2
975.361	36821
979.82	32223.4
984.276	24426
988.73	23378.6
993.181	22890.7
997.629	22707.3
1002.08	22392.3
1006.52	17720.8
1010.96	12547.7
1015.4	7660.01
1019.83	5277.79
1024.26	4435.97
1028.69	3984.81
1033.12	3692.81
1037.55	4361.3
1041.97	5254.53
1046.39	4583.48
1050.81	3278.05
1055.22	1864.13
1059.63	1216.07
1064.04	793.031
1068.45	562.297
1072.85	456.103
1077.25	350.461
1081.65	342.634
1086.05	133.866
1090.44	190.374
1094.83	141.323
1099.22	99.6792
1103.6	217.473
1107.99	110.398
1112.37	128.238
1116.74	194.266
1121.12	58.2451
1125.49	101.719
1129.86	143.583
1134.23	50.8691
1138.59	28.6816
1142.95	116.91
1147.31	13.4517
1151.67	81.3169
1156.02	162.819
1160.38	45.0732
1164.72	22.8413
1169.07	63.3423
1173.41	24.165
1177.75	6.60303
1182.09	16.2227
1186.43	17.6939
1190.76	78.4209
1195.09	69.8672
1199.42	5.12158
1203.74	19.312
1208.07	1.05566
1212.39	7.16016
1216.7	63.0147
1221.02	28.3306
1225.33	15.9556
1229.64	24.0762
1233.95	6.84375
1238.25	54.9863
1242.55	64.7617
1246.85	34.0508
1251.15	47.8809
1255.44	20.25
1259.73	41.1367
1264.02	125.551
1268.31	120.522
1272.59	152.182
1276.87	90.4902
1281.15	102.965
1285.42	124.46
1289.69	174.117
1293.96	87.6431
1298.23	145.91
1302.5	178.522
1306.76	158.135
1311.02	102.783
1315.27	182.889
1319.53	230.204
1323.78	224.172
1328.03	188.894
1332.28	276.647
1336.52	253.066
1340.76	156.891
1345	182.817
1349.23	209.984
1353.47	113.642
1357.7	168.461
1361.93	141.952
1366.15	216.73
1370.37	185.511
1374.59	219.819
1378.81	135.081
1383.03	111.499
1387.24	184.085
1391.45	118.124
1395.65	173.795
1399.86	103.264
1404.06	142.797
1408.26	115.12
1412.46	216.671
1416.65	103.082
1420.84	73.166
1425.03	78.0347
1429.22	210.12
1433.4	153.355
1437.58	167.383
1441.76	64.6045
1445.93	164.335
1450.11	120.834
1454.28	129.108
1458.44	188.436
1462.61	127.919
1466.77	207.218
1470.93	69.7769
1475.09	73.437
1479.24	183.166
1483.39	179.065
1487.54	134.162
1491.69	57.0273
1495.84	136.324
1499.98	75.7476
1504.12	45.8369
1508.25	139.245
1512.38	144.952
1516.52	47.7861
1520.64	107.367
1524.77	22.564
1528.89	116.986
1533.01	26.6064
1537.13	105.268
1541.25	110.522
1545.36	127.1
1549.47	119.683
1553.58	147.922
1557.68	58.2266
1561.78	78.1802
1565.88	171.002
1569.98	30.0771
1574.07	1.70166
