Measurement: Raman, 514 nm, ccw, Raman Data Processed
Mineral: Rhodonite
Rruff sample: R060549
Ideal chemistry: CaMn^2+^_3_Mn^2+^Si_5_O_15_
Locality: unknown
Source: Gemological Institute of America
Description: Pink cleavage fragment
Measured chemistry: (Mn_0.76_Ca_0.12_Fe_0.07_Mg_0.06_)Si_0.99_O_3_
Pin_id: L01873
Orientation: Laser parallel to c* (0 0 1). Fiducial mark perpendicular to laser is parallel to a [1 0 0]
Raman shift (cm-1)	intensity
85.749	0
90.706	341.144
95.659	1306.36
100.61	1131.17
105.559	1593.77
110.504	7897.56
115.447	11499.5
120.387	8376.59
125.324	5796.96
130.259	3490.59
135.191	2796.42
140.12	1647.13
145.046	230.671
149.97	314.231
154.891	156.321
159.809	888.214
164.724	2340.99
169.637	2500.91
174.547	1297.84
179.454	498.254
184.359	144.794
189.261	117.499
194.16	250.617
199.056	502.147
203.95	478.533
208.841	463.337
213.729	714.515
218.614	239.498
223.497	27.6865
228.377	342.968
233.254	97.5742
238.129	328.525
243.001	1046.73
247.87	1847.7
252.737	2341.19
257.6	2048.66
262.461	1914.29
267.32	1672.35
272.175	1104.21
277.028	860.534
281.879	450.839
286.726	268.938
291.571	74.8467
296.413	36.8525
301.252	19.585
306.089	37.5879
310.923	158.123
315.755	891.64
320.583	2483.88
325.409	4444.68
330.232	5616.01
335.053	6098.3
339.871	4993.04
344.686	4063.19
349.498	3866.2
354.308	3184.69
359.115	1908.62
363.92	1484.97
368.721	1208.71
373.52	839.817
378.317	561.285
383.111	616.17
387.902	1020.62
392.69	1269.26
397.475	1256.63
402.258	2110.46
407.039	3619.54
411.816	6048.85
416.591	9845.42
421.364	13208.2
426.133	9517.25
430.9	4610.48
435.664	2365.88
440.426	1434.81
445.185	1197.23
449.941	1375.56
454.695	1881.86
459.445	1657.06
464.194	1059.21
468.939	347.585
473.682	160.964
478.423	89.374
483.16	6.58008
487.895	25.4463
492.627	713.227
497.357	994.977
502.084	1077.83
506.808	1677.67
511.53	2174.54
516.249	1304.45
520.965	308.427
525.679	85.2647
530.39	197.224
535.098	110.576
539.804	2.29199
544.507	260.1
549.208	309.719
553.906	1005.39
558.601	1728.25
563.293	1336.83
567.983	575.148
572.671	551.307
577.355	601.141
582.037	147.659
586.717	2.8584
591.393	87.8428
596.067	26.457
600.739	85.7549
605.408	209.382
610.074	264.572
614.737	230.332
619.398	547.039
624.057	579.723
628.712	904.584
633.365	1342.86
638.016	1834.9
642.664	2693.97
647.309	4282.85
651.951	7321.35
656.591	15392.6
661.229	28619.2
665.863	39504.3
670.495	45867.5
675.125	32083.9
679.752	19158.2
684.376	10422.1
688.998	5685.82
693.617	3298.54
698.233	2293.68
702.847	1680.33
707.458	1536.72
712.066	1229.41
716.672	973.611
721.276	844.573
725.877	676.964
730.475	656.249
735.07	720.856
739.663	713.608
744.254	643.118
748.841	362.212
753.426	79.9072
758.009	96.1856
762.589	3.79297
767.166	77.8418
771.741	115.028
776.313	47.6963
780.883	94.7324
785.45	117.173
790.014	116.014
794.576	11.8535
799.135	42.6611
803.692	67.1231
808.246	13.1768
812.797	31.1328
817.346	38.7129
821.893	33.2119
826.436	21.3457
830.977	18.167
835.516	103.73
840.052	25.1514
844.585	204.308
849.116	108.164
853.645	193.95
858.17	213.699
862.693	516.866
867.214	905.412
871.732	1735.43
876.247	3412.69
880.76	4085.03
885.27	3230.42
889.778	2043.53
894.283	1550.78
898.786	1333.5
903.286	1236.96
907.783	1289.7
912.278	1314.07
916.77	1380.72
921.26	1118.22
925.747	1246.89
930.232	2020.69
934.714	3679.85
939.193	6141.5
943.67	5012.67
948.145	2938.78
952.617	2315.82
957.086	2888.62
961.553	4345.87
966.017	8984.13
970.479	17833.9
974.938	27355.2
979.394	23614.7
983.848	18519.7
988.3	17382.1
992.749	16911
997.195	17865.1
1001.64	19859
1006.08	17588.6
1010.52	13474
1014.96	8355.51
1019.39	6127.38
1023.82	5122.45
1028.25	4538.42
1032.67	4274.33
1037.1	4818.8
1041.52	5471.57
1045.94	4832.28
1050.35	3521.42
1054.77	1997.79
1059.18	1117.31
1063.59	759.075
1067.99	469.91
1072.4	522.093
1076.8	218.454
1081.19	218.557
1085.59	115.231
1089.98	211.394
1094.38	176.506
1098.76	119.243
1103.15	43.1611
1107.53	181.069
1111.91	174.425
1116.29	163.308
1120.67	42.709
1125.04	158.427
1129.41	28.0322
1133.78	52.4404
1138.14	6.76758
1142.51	113.894
1146.87	225.01
1151.23	81.2197
1155.58	160.169
1159.93	226.408
1164.29	105.14
1168.63	80.2881
1172.98	158.215
1177.32	10.3418
1181.66	77.5996
1186	62.0947
1190.34	4.57227
1194.67	16.2871
1199	10.7295
1203.33	81.4785
1207.65	53.5361
1211.98	128.734
1216.3	13.8652
1220.62	46.1621
1224.93	35.3545
1229.24	139.856
1233.56	68.041
1237.86	143.954
1242.17	143.871
1246.47	58.7598
1250.77	176.244
1255.07	4.36426
1259.37	151.922
1263.66	107.013
1267.95	185.394
1272.24	283.507
1276.53	276.217
1280.81	190.269
1285.09	118.281
1289.37	78.9785
1293.64	7.99316
1297.92	131.075
1302.19	164.486
1306.46	192.543
1310.72	149.91
1314.99	191.836
1319.25	289.993
1323.51	258.916
1327.76	192.348
1332.02	322.354
1336.27	202.019
1340.52	207.852
1344.76	224.217
1349.01	195.446
1353.25	60.206
1357.49	196.112
1361.72	194.197
1365.96	25.8262
1370.19	178.717
1374.42	169.876
1378.64	120.442
1382.87	144.711
1387.09	3.46484
1391.31	36.6533
1395.53	256.581
1399.74	16.9541
1403.95	219.404
1408.16	47.3115
1412.37	105.902
1416.58	106.648
1420.78	123.767
1424.98	58.7041
1429.18	84.043
1433.37	95.4053
1437.56	63.3242
1441.75	206.474
1445.94	27.0127
1450.13	120.486
1454.31	1.17285
1458.49	168.798
1462.67	143.46
1466.84	206.149
1471.02	211.638
1475.19	188.158
1479.36	232.04
1483.52	200.481
1487.68	345.022
1491.85	54.5459
1496	47.6328
1500.16	207.195
1504.31	283.696
1508.46	154.931
1512.61	213.37
1516.76	65.0938
1520.9	160.62
1525.05	210.184
1529.18	235.662
1533.32	231.324
1537.45	281.383
1541.59	185.231
1545.72	136.945
1549.84	135.06
1553.97	324.031
1558.09	247.773
1562.21	164.513
1566.33	168.478
1570.44	88.4844
1574.56	214.967
