Measurement: Raman, 514 nm, depolarized, Raman Data Processed
Mineral: Rhodonite
Rruff sample: R040041
Ideal chemistry: CaMn^2+^_3_Mn^2+^Si_5_O_15_
Locality: Franklin, Sussex County, New Jersey, USA
Source: University of Arizona Mineral Museum
Description: Pink prismatic crystals
Measured chemistry: (Mn_0.63_Ca_0.21_Zn_0.12_Mg_0.02_Fe_0.02_)_Î£=1_Si_1.00_O_3_
Pin_id: L00154
Orientation: Laser parallel to (1 1 0). Fiducial mark perpendicular to laser is parallel to c [0 0 1]
Raman shift (cm-1)	intensity
89.307	0
94.234	1741.87
99.159	6987.71
104.081	14178.1
109.002	23404.2
113.919	32992.6
118.835	20084.3
123.748	12651.4
128.659	11779
133.567	7753.44
138.473	3728.66
143.377	2559.88
148.278	2740.26
153.177	3183.37
158.073	4207.16
162.968	3630.66
167.859	3221.56
172.749	4309.53
177.636	5343.35
182.52	2773.59
187.403	132.955
192.283	554.527
197.16	754.419
202.035	1286.48
206.908	372.725
211.778	1293.94
216.646	2092.15
221.512	1076.03
226.375	472.963
231.236	1332.23
236.094	3265.96
240.95	7565.07
245.804	11704.2
250.655	14128.5
255.504	14936.4
260.35	17726.8
265.194	18254.7
270.036	12903.6
274.875	8626.23
279.712	7097.26
284.546	5539.06
289.378	4041.65
294.208	2202.23
299.035	1980.03
303.859	2321.27
308.682	3305.9
313.502	5535.72
318.319	9725.44
323.134	14841
327.947	17908.6
332.757	20665.3
337.565	23380.8
342.37	21037.2
347.173	16517.5
351.973	12060.1
356.771	8578.96
361.567	8625.02
366.36	9632.14
371.151	9520.42
375.939	6658.82
380.725	4391.33
385.509	3626.7
390.29	3346.24
395.068	2051.08
399.844	1182.81
404.618	1776.22
409.389	3930.35
414.158	7943.66
418.924	12874.1
423.688	12974.8
428.45	6764.6
433.209	2473.57
437.965	2457.93
442.719	809.088
447.471	872.441
452.22	1170.62
456.967	1565.62
461.711	657.048
466.453	210.369
471.192	300.881
475.929	406.031
480.664	437.68
485.396	29.4238
490.125	888.876
494.852	1985.03
499.577	2208.47
504.299	2606.22
509.018	5172.4
513.736	8056.81
518.45	7061.16
523.162	3690.52
527.872	1520.56
532.579	444.985
537.284	164.05
541.986	356.31
546.686	801.074
551.384	1757.33
556.078	3534.44
560.771	3623.13
565.461	1849.51
570.148	871.173
574.833	512.953
579.515	359.794
584.195	127.518
588.873	108.579
593.548	139.577
598.22	71.6533
602.89	386.906
607.558	519.179
612.223	744.102
616.885	872.384
621.545	1289.7
626.202	1947.31
630.857	2655.8
635.51	3916.88
640.16	5675.27
644.807	8640.91
649.452	13876.2
654.095	25849.7
658.735	54275.8
663.372	112353
668.007	170428
672.64	152597
677.269	85449.5
681.897	47471.6
686.522	25620.7
691.144	13710.9
695.764	7690.89
700.381	5588.33
704.996	5203.38
709.608	6818.33
714.218	9431.17
718.825	8286.44
723.43	4604.86
728.032	2671.93
732.632	2250.92
737.229	2146.76
741.824	2092.51
746.416	1445.74
751.006	697.239
755.593	360.413
760.177	241.744
764.759	218.681
769.339	5.27832
773.916	115.091
778.49	4.62012
783.062	86.0254
787.631	102.322
792.198	46.8105
796.762	73.1152
801.324	38.4912
805.883	16.4131
810.44	103.991
814.994	48.2783
819.546	65.4014
824.095	124.356
828.641	80.7022
833.185	41.8047
837.726	138.366
842.265	105.344
846.801	11.0361
851.335	105.823
855.866	230.31
860.395	770.6
864.921	2183.99
869.445	4663.69
873.966	7805.59
878.484	8194.68
883	6798.8
887.513	6396.87
892.024	5989.91
896.532	4021.73
901.038	3025.4
905.541	3661.63
910.042	6240.48
914.54	8386.5
919.035	6778.31
923.528	4983.61
928.018	4622.78
932.506	7322.09
936.991	11530.1
941.474	9759.49
945.954	5400.95
950.431	4241.31
954.906	5040.48
959.378	9096.15
963.848	16994.1
968.315	38166.9
972.78	64083.5
977.242	60859.2
981.701	45462.7
986.158	51335.2
990.612	74484.9
995.064	77931.6
999.513	66341.1
1003.96	63817.7
1008.4	42126.2
1012.85	23618.7
1017.28	17413.2
1021.72	16496.6
1026.15	18072.9
1030.59	19241.2
1035.01	18573.4
1039.44	19434.7
1043.86	24398.6
1048.28	28197.2
1052.7	18766.1
1057.12	9120.55
1061.53	4433.59
1065.94	2651.4
1070.35	1935.83
1074.75	1553.66
1079.16	1299.28
1083.56	1320.75
1087.95	1090.6
1092.35	653.407
1096.74	469.081
1101.13	494.963
1105.52	444.345
1109.9	446.016
1114.28	426.705
1118.66	343.74
1123.04	265.448
1127.41	309.794
1131.79	262.143
1136.15	332.808
1140.52	351.3
1144.88	357.672
1149.25	206.731
1153.6	183.804
1157.96	202.48
1162.31	177.629
1166.66	121.847
1171.01	70.4707
1175.36	35.0137
1179.7	88.5273
1184.04	118.788
1188.38	95.0664
1192.71	90.7324
1197.05	52.1191
1201.38	173.767
1205.7	3.83984
1210.03	138.019
1214.35	95.1182
1218.67	76.79
1222.99	10.2607
1227.3	144.199
1231.61	193.203
1235.92	262.762
1240.23	171.786
1244.53	304.063
1248.83	184.023
1253.13	243.414
1257.42	257.899
1261.72	238.579
1266.01	218.11
1270.3	234.915
1274.58	354.795
1278.87	273.91
1283.14	413.118
1287.42	363.845
1291.7	468.632
1295.97	416.572
1300.24	266.478
1304.51	535.709
1308.77	501.231
1313.03	468.567
1317.29	337.388
1321.55	347.169
1325.8	424.946
1330.05	404.93
1334.3	425.136
1338.55	325.097
1342.79	393.685
1347.03	276.184
1351.27	318.597
1355.51	364.081
1359.74	216.334
1363.97	289.133
1368.2	259.147
1372.42	298.47
1376.64	258.589
1380.86	215.451
1385.08	235.968
1389.29	324.09
1393.51	314.651
1397.71	317.738
1401.92	173.094
1406.12	56.8799
1410.33	249.638
1414.53	205.105
1418.72	169.6
1422.91	220.685
1427.1	164.344
1431.29	121.747
1435.48	296.934
1439.66	286.535
1443.84	169.158
1448.02	165.56
1452.19	418.238
1456.37	155.817
1460.53	81.8184
1464.7	209.542
1468.87	290.107
1473.03	314.208
1477.18	222.227
1481.34	109.938
1485.49	160.745
1489.65	215.529
1493.79	166.906
1497.94	56.9678
1502.08	72.8897
1506.22	62.2227
1510.36	44.5801
1514.5	128.655
1518.63	16.8096
1522.76	61.5107
1526.88	57.0629
1531.01	45.1504
1535.13	426.033
1539.25	258.398
1543.37	194.514
1547.48	418.166
1551.59	144.99
1555.7	563.305
1559.81	294.891
1563.91	182.133
1568.01	15.6406
1572.11	252.451
1576.2	108.133
