Measurement: Raman, 514 nm, ccw, Raman Data Processed
Mineral: Rhodonite
Rruff sample: R060549
Ideal chemistry: CaMn^2+^_3_Mn^2+^Si_5_O_15_
Locality: unknown
Source: Gemological Institute of America
Description: Pink cleavage fragment
Measured chemistry: (Mn_0.76_Ca_0.12_Fe_0.07_Mg_0.06_)Si_0.99_O_3_
Pin_id: L01637
Orientation: Laser parallel to a* (1 0 0). Fiducial mark perpendicular to laser is parallel to b [0 1 0]
Raman shift (cm-1)	intensity
146.012	0
150.922	243.238
155.83	776.852
160.735	1543.92
165.638	1845.26
170.538	1469.12
175.436	944.14
180.331	783.646
185.224	386.005
190.115	67.4951
195.002	70.4956
199.888	0.557617
204.771	17.3579
209.651	373.901
214.529	752.295
219.405	627.38
224.278	491.416
229.148	498.291
234.016	885.887
238.882	1340.03
243.745	1714.74
248.606	2355.61
253.464	3083.08
258.319	4046.19
263.173	5075.08
268.023	4496.79
272.871	2691.94
277.717	1657.88
282.56	1027.02
287.401	568.343
292.239	713.486
297.075	1193.3
301.908	1622.36
306.739	1597.74
311.567	1350.1
316.393	1302.49
321.216	1934.61
326.037	2449.21
330.855	2986.38
335.671	3213.07
340.484	2900.33
345.295	2336.76
350.103	1849.09
354.909	1447.38
359.712	1201.97
364.513	1134.99
369.311	1038.8
374.107	814.064
378.9	620.37
383.691	790.58
388.479	945.411
393.264	945.238
398.048	408.184
402.828	179.529
407.606	238.962
412.382	359.455
417.155	398.964
421.926	324.457
426.694	177.925
431.459	249.36
436.222	319.762
440.983	328.19
445.741	184.625
450.496	234.05
455.249	426.775
460	457.397
464.748	277.993
469.493	410.411
474.236	392.736
478.977	149.009
483.714	14.8188
488.45	2.6831
493.183	191.397
497.913	294.457
502.641	93.5044
507.366	4.55273
512.088	129.566
516.809	52.4287
521.526	109.605
526.241	64.4805
530.954	63.1025
535.664	37.8901
540.371	129.404
545.076	320.504
549.779	304.558
554.479	589.456
559.176	865.13
563.871	572.639
568.563	747.944
573.253	929.05
577.94	685.912
582.625	299.523
587.307	162.88
591.987	172.336
596.664	145.802
601.338	180.326
606.01	179.553
610.68	204.493
615.347	292.148
620.011	404.661
624.673	740.714
629.332	933.64
633.989	1003.79
638.643	1245.41
643.295	2012.5
647.944	3100.83
652.59	5166.19
657.234	10177.1
661.876	18199.5
666.515	29191.5
671.151	34022.3
675.785	22181.3
680.416	13602
685.045	7708.37
689.671	4214.88
694.295	2615.93
698.916	1954.64
703.534	1660.62
708.15	1811.41
712.764	2058.84
717.374	2062.99
721.983	1787.88
726.588	1389.51
731.191	1051.88
735.792	961.624
740.39	1066.32
744.986	701.724
749.579	409.059
754.169	190.225
758.757	132.171
763.342	89.9697
767.925	23.6411
772.505	10.9629
777.082	5.93359
781.657	56.5122
786.23	96.6157
790.8	89.626
795.367	71.5762
799.932	6.45654
804.494	33.4062
809.053	26.376
813.61	39.7041
818.165	83.8633
822.717	82.8096
827.266	12.8633
831.813	124.421
836.357	17.9087
840.899	86.2109
845.438	9.42773
849.974	10.5596
854.508	106.675
859.04	132.785
863.568	235.897
868.095	252.022
872.618	176.172
877.139	291.373
881.658	361.642
886.174	244.968
890.687	228.352
895.198	297.657
899.706	460.09
904.212	475.937
908.715	907.565
913.215	1000.96
917.713	952.779
922.208	690.762
926.701	630.84
931.191	800.062
935.679	1187.07
940.164	1728.73
944.646	1418.03
949.126	1109.82
953.603	1102.17
958.078	1811.96
962.55	3000.37
967.019	5995.68
971.486	11610.2
975.951	15870
980.413	13226.9
984.872	11463
989.328	12849.5
993.782	15335.1
998.234	20108
1002.68	20743.1
1007.13	13939.5
1011.57	8093.17
1016.01	4799.24
1020.45	3486.28
1024.89	3119.54
1029.32	2484.04
1033.75	2008.78
1038.18	1560.82
1042.61	1460.85
1047.03	1768.23
1051.45	2066.76
1055.87	1391.72
1060.28	1079.23
1064.69	691.349
1069.11	564.444
1073.51	434.577
1077.92	405.742
1082.32	446.692
1086.72	283.806
1091.12	259.418
1095.51	123.405
1099.9	120.541
1104.29	160.141
1108.68	186.881
1113.06	227.702
1117.44	134.594
1121.82	155.529
1126.2	221.505
1130.57	143.512
1134.94	40.5459
1139.31	235.597
1143.68	36.3438
1148.04	194.669
1152.4	61.6768
1156.76	32.6758
1161.12	35.291
1165.47	12.7725
1169.82	39.582
1174.17	51.8115
1178.51	0.675781
1182.86	23.4326
1187.19	39.6338
1191.53	0.262695
1195.87	48.3525
1200.2	54.9775
1204.53	18.9131
1208.86	28.665
1213.18	4.39746
1217.5	76.791
1221.82	122.963
1226.14	34.916
1230.45	118.698
1234.76	159.345
1239.07	140.899
1243.38	211.296
1247.68	99.585
1251.98	150.778
1256.28	128.857
1260.58	10.8662
1264.87	337.722
1269.16	360.441
1273.45	303.656
1277.73	229.112
1282.02	148.43
1286.3	59.8916
1290.57	278.981
1294.85	194.252
1299.12	211.266
1303.39	169.516
1307.66	399.625
1311.92	351.123
1316.18	250.459
1320.44	330.952
1324.7	318.647
1328.95	313.43
1333.2	146.45
1337.45	53.7266
1341.7	97.5791
1345.94	128.865
1350.18	147.113
1354.42	70.0791
1358.66	148.119
1362.89	5.67285
1367.12	312.2
1371.35	90.1074
1375.58	195.765
1379.8	165.356
1384.02	22.9014
1388.24	175.445
1392.45	333.115
1396.66	124.28
1400.87	76.8125
1405.08	66.3848
1409.29	53.0312
1413.49	93.8096
1417.69	86.7481
1421.88	1.10156
1426.08	173.058
1430.27	148.225
1434.46	232.343
1438.64	372.95
1442.83	526.967
1447.01	586.215
1451.19	736.452
1455.36	841.412
1459.54	742.033
1463.71	633.727
1467.87	338.8
1472.04	308.997
1476.2	336.31
1480.36	361.588
1484.52	415.791
1488.67	312.048
1492.83	29.4111
1496.98	25.4053
1501.12	134.882
1505.27	139.795
1509.41	72.0879
1513.55	24.2822
1517.68	144.019
1521.82	69.0693
1525.95	314.37
1530.08	230.935
1534.2	166.843
1538.33	108.179
1542.45	166.329
1546.57	258.19
1550.68	147.678
1554.8	177.164
1558.91	18.4521
1563.01	178.235
1567.12	198.001
1571.22	73.4883
1575.32	0.831055
