Measurement: Raman, 514 nm, ccw, Raman Data Processed
Mineral: Rhodonite
Rruff sample: R060549
Ideal chemistry: CaMn^2+^_3_Mn^2+^Si_5_O_15_
Locality: unknown
Source: Gemological Institute of America
Description: Pink cleavage fragment
Measured chemistry: (Mn_0.76_Ca_0.12_Fe_0.07_Mg_0.06_)Si_0.99_O_3_
Pin_id: L01642
Orientation: Laser parallel to (1 1 0). Fiducial mark perpendicular to laser is parallel to c [0 0 1]
Raman shift (cm-1)	intensity
153.377	0
158.283	210.976
163.187	794.824
168.088	996.454
172.987	951.962
177.884	1039.33
182.778	798.091
187.67	234.216
192.559	29.5117
197.445	64.8589
202.33	82.3774
207.211	237.485
212.091	617.117
216.967	712.093
221.842	624.372
226.713	587.079
231.583	1001.73
236.449	1504.82
241.314	2147.12
246.176	2856.55
251.035	3649.45
255.892	4568.67
260.746	6490.21
265.598	7538.07
270.448	5564.22
275.295	3818.11
280.139	2704.06
284.981	1741.69
289.82	1196.3
294.657	960.792
299.492	964.755
304.324	932.17
309.153	1090.43
313.98	1349.79
318.805	2350.63
323.627	4016.98
328.446	4699.6
333.263	4845.7
338.078	4655.23
342.89	3431.68
347.699	2530.45
352.506	1958
357.311	1505.59
362.113	1520.37
366.912	1674.31
371.709	1816.38
376.504	1202.55
381.295	709.785
386.085	414.078
390.872	298.911
395.656	151.812
400.438	79.3603
405.218	107.384
409.994	331.361
414.769	316.88
419.541	380.369
424.31	220.829
429.077	144.26
433.841	9.34277
438.603	0.052246
443.362	19.0776
448.119	24.4375
452.873	53.1006
457.625	64.7715
462.374	288.581
467.121	691.375
471.865	864.164
476.607	621.933
481.346	142.683
486.082	14.5796
490.816	38.4482
495.548	143.349
500.277	269.09
505.003	762.784
509.727	1450.43
514.449	1171.1
519.168	576.777
523.884	163.536
528.598	1.70703
533.309	32.1562
538.018	3.22168
542.724	113.143
547.428	50.2222
552.129	190.194
556.828	299.264
561.524	454.429
566.217	410.611
570.909	795.794
575.597	883.248
580.283	438.873
584.966	266.617
589.647	80.6231
594.326	98.4404
599.001	95.582
603.675	107.306
608.345	245.913
613.014	310.401
617.679	411.766
622.342	597.004
627.003	828.068
631.661	1088.86
636.316	1487.89
640.969	2095.95
645.62	3325.58
650.267	5632.65
654.913	11277.1
659.555	22493.4
664.196	36300.2
668.833	51128.9
673.468	42484.4
678.101	23892.1
682.731	14191.5
687.358	7554.92
691.983	4396.26
696.605	3076.29
701.225	2466.49
705.842	2272.84
710.457	2491.3
715.069	2501.25
719.679	2389.87
724.286	1802.37
728.89	1185.17
733.492	1044.88
738.091	842.603
742.688	646.125
747.282	460.445
751.874	270.565
756.463	221.486
761.05	85.2114
765.634	93.7427
770.215	82.1016
774.794	40.3125
779.37	83.3257
783.944	17.1025
788.515	64.3369
793.084	5.20898
797.65	152.54
802.213	32.8603
806.774	62.8906
811.332	26.8672
815.888	50.9312
820.441	1.93848
824.992	32.9365
829.54	51.3481
834.085	111.339
838.628	8.83398
843.169	54.6768
847.706	121.862
852.242	146.446
856.774	44.5693
861.304	62.5786
865.832	117.417
870.357	186.22
874.879	496.992
879.399	865.74
883.916	814.475
888.431	549.205
892.943	398.938
897.452	309.682
901.959	448.356
906.463	463.052
910.965	624.462
915.464	790.278
919.961	781.812
924.455	740.446
928.946	840.771
933.435	1104.07
937.922	1587.15
942.405	1669.48
946.886	1616.38
951.365	1763.13
955.841	2346.97
960.314	3943.1
964.785	7669.34
969.253	15270.8
973.719	26393.4
978.182	25942.5
982.642	18810.2
987.1	18052.3
991.556	20336.2
996.008	25381.5
1000.46	29337.9
1004.91	22813.5
1009.35	13799.5
1013.79	7505.67
1018.23	4716.1
1022.67	3687.76
1027.11	3111.67
1031.54	2758.81
1035.97	2639.39
1040.39	2812.06
1044.82	2921.62
1049.24	3029.93
1053.66	2413.31
1058.08	1606.68
1062.49	1022.97
1066.9	761.594
1071.31	470.187
1075.71	577.513
1080.12	371.709
1084.52	211.343
1088.92	201.148
1093.31	249.186
1097.71	251.147
1102.1	160.733
1106.48	107.33
1110.87	188.492
1115.25	274.065
1119.63	87.3311
1124.01	147.708
1128.39	195.53
1132.76	151.858
1137.13	73.1577
1141.5	159.875
1145.86	125.249
1150.22	99.6094
1154.58	208.486
1158.94	185.75
1163.29	58.2983
1167.64	113.102
1171.99	0.924805
1176.34	5.54639
1180.68	120.627
1185.03	104.9
1189.36	88.9038
1193.7	126.193
1198.03	60.9663
1202.36	14.5352
1206.69	49.4336
1211.02	27.9253
1215.34	42.2031
1219.66	81.2549
1223.98	120.973
1228.3	26.4229
1232.61	80.5059
1236.92	38.0801
1241.22	210.382
1245.53	39.3291
1249.83	26.8857
1254.13	117.887
1258.43	33.6182
1262.72	192.605
1267.02	4.23438
1271.3	148.435
1275.59	112.707
1279.88	89.1973
1284.16	198.685
1288.43	234.538
1292.71	39.3213
1296.98	209.174
1301.26	178.828
1305.52	229.63
1309.79	191.186
1314.05	183.663
1318.31	191.189
1322.57	129.516
1326.83	300
1331.08	72.209
1335.33	149.477
1339.58	266.365
1343.82	259.796
1348.07	197.044
1352.31	123.92
1356.54	77.1592
1360.78	120.542
1365.01	217.805
1369.24	229.137
1373.46	168.472
1377.69	99.3252
1381.91	113.511
1386.13	15.6865
1390.35	49.2363
1394.56	108.04
1398.77	0.87207
1402.98	88.8545
1407.18	101.508
1411.39	103.793
1415.59	130.143
1419.79	141.192
1423.98	48.2988
1428.17	76.7266
1432.36	100.753
1436.55	73.001
1440.74	87.2334
1444.92	23.7246
1449.1	2.88281
1453.28	147.924
1457.45	50.1221
1461.62	122.574
1465.79	145.898
1469.96	53.9326
1474.12	75.3184
1478.28	7.65527
1482.44	89.3477
1486.6	94.9189
1490.75	173.731
1494.9	15.5713
1499.05	119.623
1503.19	24.1426
1507.34	36.7588
1511.48	70.5635
1515.62	90.584
1519.75	64.249
1523.88	193.01
1528.02	233.496
1532.14	112.402
1536.27	114.925
1540.39	133.781
1544.51	115.634
1548.62	185.378
1552.74	5.72949
1556.85	98.2227
1560.96	50.3369
1565.07	111.253
1569.17	86.3975
1573.27	266.331
1577.37	0
