Measurement: Raman, 514 nm, ccw, Raman Data Processed
Mineral: Rhodonite
Rruff sample: R060549
Ideal chemistry: CaMn^2+^_3_Mn^2+^Si_5_O_15_
Locality: unknown
Source: Gemological Institute of America
Description: Pink cleavage fragment
Measured chemistry: (Mn_0.76_Ca_0.12_Fe_0.07_Mg_0.06_)Si_0.99_O_3_
Pin_id: L01873
Orientation: Laser parallel to c* (0 0 1). Fiducial mark perpendicular to laser is parallel to a [1 0 0]
Raman shift (cm-1)	intensity
82.03	0
86.989	402.314
91.944	1001.61
96.897	689.768
101.848	177.768
106.795	151.667
111.74	868.07
116.682	1762.93
121.622	1135.08
126.558	1089.46
131.492	1904.32
136.423	2504
141.352	1908.32
146.277	832.779
151.2	388.794
156.121	298.493
161.038	557.518
165.953	798.811
170.865	407.595
175.774	229.392
180.681	243.977
185.585	210.322
190.486	133.89
195.384	28.3152
200.28	7.30786
205.173	86.9116
210.063	109.949
214.95	261.803
219.835	343.488
224.717	147.972
229.597	24.3352
234.473	110.867
239.347	277.395
244.218	460.763
249.087	841.574
253.953	1317.78
258.816	1991.14
263.676	2858.64
268.534	2869.54
273.389	2051.37
278.241	1519.86
283.091	1054.07
287.938	628.132
292.782	321.649
297.623	141.274
302.462	143.441
307.298	358.289
312.131	722.485
316.962	1525.98
321.79	2862.12
326.615	4042.13
331.438	3712.96
336.258	3039.03
341.075	2321.08
345.889	1593.93
350.701	1300.09
355.51	846.734
360.317	437.357
365.12	322.78
369.921	363.006
374.72	292.025
379.515	127.342
384.309	216.958
389.099	418.416
393.886	479.791
398.671	150.973
403.454	30.3423
408.233	71.813
413.01	86.7966
417.785	78.9165
422.556	33.1165
427.325	55.1079
432.091	39.2969
436.855	175.433
441.616	222.369
446.374	124.106
451.13	26.6074
455.883	111.85
460.633	194.869
465.38	244.694
470.125	196.327
474.868	401.77
479.607	347.026
484.344	148.11
489.078	46.0173
493.81	87.7676
498.539	171.348
503.265	282.859
507.989	709.398
512.71	1225.89
517.428	846.238
522.144	542.385
526.857	179.6
531.567	95.6733
536.275	97.6438
540.98	222.472
545.683	407.232
550.383	594.366
555.08	1346.6
559.774	1812.56
564.466	938.366
569.155	522.264
573.842	430.013
578.526	321.371
583.207	156.976
587.886	83.7805
592.562	40.3665
597.235	78.3457
601.906	108.618
606.574	221.944
611.24	258.217
615.903	399.438
620.563	548.143
625.221	834.596
629.876	1122.74
634.528	1494.67
639.178	2247.99
643.825	3246.24
648.47	5220.11
653.112	9234.87
657.751	18891.6
662.388	33316.1
667.022	47063.9
671.653	51826.2
676.282	31226.5
680.908	16283.5
685.532	8546.03
690.153	4541.54
694.771	2937.78
699.387	2025.41
704	1686.26
708.61	1540.41
713.218	1543.94
717.824	1418.25
722.426	1088.89
727.026	689.959
731.624	513.936
736.219	599.825
740.811	460.603
745.401	326.264
749.988	175.808
754.572	91.2368
759.154	73.543
763.734	31.7141
768.31	48.2317
772.884	17.5859
777.456	20.2466
782.025	44.2825
786.591	1.39429
791.155	36.8699
795.716	27.7222
800.275	7.38013
804.831	22.7759
809.384	16.9636
813.935	5.5769
818.483	1.93359
823.029	4.93384
827.572	20.0713
832.112	9.42554
836.65	26.1514
841.186	13.863
845.718	40.6926
850.249	36.3433
854.776	13.0642
859.301	93.4749
863.824	104.991
868.344	157.492
872.861	279.984
877.376	701.476
881.888	897.973
886.397	749.484
890.904	537.015
895.409	545.037
899.911	538.277
904.41	607.846
908.907	765.282
913.401	908.542
917.893	1079.69
922.382	1046.48
926.869	1137.5
931.353	1321.22
935.834	1792.57
940.313	2257.26
944.789	2128.01
949.263	2245.66
953.734	2705.39
958.203	3999.49
962.669	6924.41
967.133	13271.7
971.594	25023.6
976.052	33946.3
980.508	27900.6
984.961	25355.8
989.412	29109
993.861	32822.8
998.306	36688
1002.75	33339.4
1007.19	20568.1
1011.63	10858
1016.06	5619.22
1020.5	3496.63
1024.93	2499.28
1029.36	2028.17
1033.78	2101.31
1038.2	2310.7
1042.62	2612.51
1047.04	2534.58
1051.46	1905.77
1055.87	1222.37
1060.28	847.87
1064.69	653.121
1069.09	488.615
1073.5	360.959
1077.9	250.113
1082.29	251.224
1086.69	175.406
1091.08	192.754
1095.47	106.573
1099.86	155.617
1104.24	157.361
1108.63	103.997
1113.01	88.7236
1117.38	136.892
1121.76	93.1016
1126.13	73.0505
1130.5	83.3731
1134.87	128.771
1139.23	95.7703
1143.6	128.508
1147.96	38.189
1152.32	6.55127
1156.67	78.2463
1161.02	73.532
1165.37	29.6758
1169.72	4.87402
1174.07	20.7798
1178.41	39.1931
1182.75	7.93848
1187.08	67.6064
1191.42	3.53833
1195.75	30.4839
1200.08	8.74463
1204.41	74.2705
1208.73	18.7649
1213.06	9.35352
1217.38	10.2678
1221.69	1.48291
1226.01	14.4639
1230.32	8.88892
1234.63	32.3972
1238.94	76.5225
1243.24	31.3279
1247.55	3.81738
1251.85	27.3699
1256.14	83.3591
1260.44	26.1426
1264.73	58.4168
1269.02	46.5403
1273.31	66.511
1277.6	152.171
1281.88	42.7515
1286.16	86.0147
1290.44	84.9751
1294.71	162.735
1298.98	88.221
1303.26	83.7097
1307.52	92.2683
1311.79	99.2329
1316.05	136.232
1320.31	127.06
1324.57	165.269
1328.83	129.708
1333.08	142.682
1337.33	119.072
1341.58	107.439
1345.82	100.903
1350.07	97.7363
1354.31	100.334
1358.55	75.9497
1362.78	105.597
1367.02	43.1103
1371.25	93.3589
1375.48	18.4226
1379.7	88.9778
1383.92	19.8005
1388.15	119.111
1392.37	34.5215
1396.58	96.5747
1400.8	43.9373
1405.01	43.0652
1409.22	12.0586
1413.42	30.0408
1417.63	52.2734
1421.83	47.5769
1426.03	39.2136
1430.22	86.8965
1434.42	90.8784
1438.61	66.6921
1442.8	75.7627
1446.99	88.9375
1451.17	21.1167
1455.35	57.959
1459.53	50.783
1463.71	60.6567
1467.89	53.5566
1472.06	56.9065
1476.23	55.0632
1480.4	60.0537
1484.56	44.2773
1488.72	49.9102
1492.88	72.0549
1497.04	19.5703
1501.2	75.0833
1505.35	3.0918
1509.5	24.7954
1513.65	17.5706
1517.8	77.4673
1521.94	41.335
1526.08	46.6782
1530.22	72.9817
1534.36	40.5757
1538.49	70.0049
1542.62	43.637
1546.75	9.4624
1550.88	99.0591
1555	158.958
1559.12	57.7297
1563.24	89.9009
1567.36	109.361
1571.47	41.0786
1575.58	55.852
