Measurement: Raman, 514 nm, depolarized, Raman Data Processed
Mineral: Rhodonite
Rruff sample: R040041
Ideal chemistry: CaMn^2+^_3_Mn^2+^Si_5_O_15_
Locality: Franklin, Sussex County, New Jersey, USA
Source: University of Arizona Mineral Museum
Description: Pink prismatic crystals
Measured chemistry: (Mn_0.63_Ca_0.21_Zn_0.12_Mg_0.02_Fe_0.02_)_Î£=1_Si_1.00_O_3_
Pin_id: L00227
Orientation: Laser parallel to c* (0 0 1). Fiducial mark perpendicular to laser is parallel to a [1 0 0]
Raman shift (cm-1)	intensity
119.251	0
123.422	837.934
127.59	1272.3
131.756	1298.66
135.92	1583.55
140.082	2314.12
144.242	1030.25
148.4	293.623
152.556	535.314
156.71	376.73
160.862	705.654
165.012	512.129
169.16	842.367
173.306	1041.41
177.449	864.172
181.591	241.568
185.731	149.857
189.869	248.955
194.005	79.016
198.139	350.375
202.271	289.162
206.4	145.738
210.528	368.441
214.654	564.098
218.778	420.74
222.9	101.979
227.019	95.766
231.137	103.52
235.253	271.078
239.367	1008.28
243.479	1794
247.589	1828.64
251.697	1424.15
255.803	1179.98
259.906	1435
264.008	1526.74
268.108	1032.18
272.206	917.816
276.302	1004.09
280.396	821.043
284.488	531.969
288.578	121.936
292.666	432.93
296.753	743.746
300.837	1135.72
304.919	1476.92
308.999	1385.99
313.077	1202.64
317.154	1687.57
321.228	2371.48
325.3	2441.02
329.371	2549.57
333.439	3157.92
337.506	3595.87
341.57	3363.23
345.633	3220.17
349.693	2766.12
353.752	2032.91
357.809	2276.39
361.863	2747.39
365.916	2128.28
369.967	1933.24
374.016	1231.89
378.063	704.188
382.108	410.605
386.151	560.783
390.192	660.328
394.231	311.102
398.269	36.016
402.304	26.893
406.337	450.113
410.369	988.311
414.398	1736.15
418.426	3083.76
422.452	2705.19
426.475	1330.02
430.497	537.494
434.517	389.074
438.535	452.217
442.551	329.432
446.565	68.129
450.577	204.381
454.588	422.877
458.596	190.133
462.602	108.131
466.607	164.49
470.61	224.703
474.61	382.371
478.609	464.148
482.606	297.242
486.601	580.242
490.594	693.07
494.585	1055.82
498.575	698.381
502.562	590.795
506.548	963.117
510.531	1335.37
514.513	1467.48
518.493	1219.33
522.47	941.207
526.446	353.365
530.421	154.49
534.393	167.127
538.363	161.867
542.331	198.285
546.298	237.984
550.263	397.455
554.225	696.672
558.186	764.156
562.145	568.932
566.103	307.09
570.058	374.852
574.011	192.203
577.963	69.443
581.912	26.068
585.86	152.311
589.806	22.396
593.75	17.475
597.692	56.5
601.632	231.248
605.571	86.359
609.507	176.568
613.442	107.758
617.375	93.453
621.306	251.533
625.235	381.289
629.162	779.934
633.087	759.744
637.011	1138.9
640.932	1459.57
644.852	1959.39
648.77	2769.68
652.686	4318.66
656.6	7462.9
660.513	14247.4
664.423	26788.6
668.332	33783
672.239	24077.9
676.144	14062
680.047	9489.4
683.948	5712.7
687.848	3101.74
691.746	1981.14
695.641	1425.7
699.535	1129.07
703.427	1156.56
707.318	1085.26
711.206	1914.28
715.093	2082.85
718.978	1690.99
722.861	728.342
726.742	554.572
730.621	559.59
734.499	834.469
738.374	824.951
742.248	513.102
746.12	553.289
749.99	282.84
753.859	282.975
757.725	346.436
761.59	198.688
765.453	101.461
769.314	42.635
773.174	125.309
777.031	145.613
780.887	26.547
784.741	306.906
788.593	77.09
792.443	13.24
796.291	254.133
800.138	205.902
803.983	261.566
807.826	91.438
811.667	114.949
815.507	248.961
819.344	246.35
823.18	161.262
827.014	255.836
830.847	80.223
834.677	185.656
838.506	157.928
842.333	51.408
846.158	224.857
849.981	178.398
853.803	252.002
857.623	215.518
861.441	668.918
865.257	862.199
869.071	1395.44
872.884	1898.33
876.695	1902.14
880.504	1645.57
884.311	1048.97
888.117	1272.02
891.92	1275.24
895.722	598.318
899.523	712.008
903.321	585.127
907.118	989.012
910.913	1761.62
914.706	1784.07
918.497	1570.54
922.287	1386.29
926.075	1209.74
929.861	1763.99
933.645	2565.81
937.428	3040.88
941.208	2263.53
944.987	1245.5
948.765	1202.18
952.54	1459.63
956.314	1605.77
960.086	2421.45
963.856	3777.75
967.625	7925.85
971.392	13281.5
975.157	12247.6
978.92	9696.47
982.682	10201.5
986.441	13443.4
990.199	19953.1
993.956	18728.8
997.71	19100.6
1001.46	23091.1
1005.21	18218.4
1008.96	10657.6
1012.71	6705.42
1016.46	5496.47
1020.2	4665.77
1023.94	4196.86
1027.68	4082.24
1031.42	4324.01
1035.16	3615.97
1038.9	4077.93
1042.63	4864.43
1046.36	6520.24
1050.09	5990.57
1053.82	4072.57
1057.55	2827.9
1061.27	1689.93
1065	1092
1068.72	863.043
1072.44	773.703
1076.16	893.914
1079.87	1034.35
1083.59	744.227
1087.3	765.355
1091.01	226.465
1094.72	307.555
1098.43	288.547
1102.14	420.391
1105.84	482.418
1109.55	554.695
1113.25	615.004
1116.94	105.93
1120.64	3.84
1124.34	237.531
1128.03	397.961
1131.73	199.258
1135.42	431.211
1139.11	84.031
1142.8	112.801
1146.48	411.574
1150.16	244.754
1153.85	97.297
1157.53	327.277
1161.21	241.406
1164.88	81.414
1168.56	187.129
1172.23	211.242
1175.91	4.461
1179.58	9.75
1183.25	231.836
1186.91	128.699
1190.58	320.547
1194.24	442.465
1197.91	415.012
1201.57	24.766
1205.23	45.293
1208.88	144.004
1212.54	452.336
1216.19	552.305
1219.85	688.461
1223.5	964.82
1227.14	746.727
1230.79	359.281
1234.44	409.852
1238.08	885.035
1241.72	648.996
1245.37	751.188
1249	782.027
1252.64	922.57
1256.28	842.051
1259.91	510.074
1263.54	896.812
1267.17	680.895
1270.8	681.645
1274.43	491.512
1278.06	313.723
1281.68	574.504
1285.3	600.574
1288.92	296.566
1292.54	504.449
1296.16	187.953
1299.78	117.602
1303.39	535.211
1307	317.512
1310.61	864.992
1314.22	684.113
1317.83	634.812
1321.44	669.527
1325.04	303.012
1328.64	86.234
1332.24	23.02
1335.85	243.484
1339.44	679.625
1343.04	459.867
1346.63	972.34
1350.23	780.043
1353.82	849.52
1357.41	868.25
1360.99	396.852
1364.58	483.922
1368.17	69.18
1371.75	346.305
1375.33	386.156
1378.91	305.895
1382.49	1014.96
1386.07	1205.81
1389.64	962.438
1393.21	906.188
1396.79	811.625
1400.36	493.707
1403.92	8.211
1407.49	44.176
1411.06	287.32
1414.62	850.75
1418.18	832.555
1421.74	752.898
1425.3	1218.74
1428.86	435.414
1432.42	825.062
1435.97	351.684
1439.52	242.559
1443.07	509.215
1446.62	486.23
1450.17	793.012
1453.72	748.059
1457.26	659.102
1460.81	1370.13
1464.35	1444.43
1467.89	933.828
1471.42	945.992
1474.96	1015.2
1478.49	675.32
1482.03	122.262
1485.56	4.895
1489.09	247.82
1492.62	574.547
1496.15	853.441
1499.67	879.398
