Measurement: Raman, 514 nm, depolarized, Raman Data Processed
Mineral: Rhodonite
Rruff sample: R040041
Ideal chemistry: CaMn^2+^_3_Mn^2+^Si_5_O_15_
Locality: Franklin, Sussex County, New Jersey, USA
Source: University of Arizona Mineral Museum
Description: Pink prismatic crystals
Measured chemistry: (Mn_0.63_Ca_0.21_Zn_0.12_Mg_0.02_Fe_0.02_)_Î£=1_Si_1.00_O_3_
Pin_id: M00442
Orientation: Laser parallel to a* (1 0 0). Fiducial mark perpendicular to laser is parallel to -b [0 -1 0]
Raman shift (cm-1)	intensity
88.496	0
92.678	3.223
96.858	582.366
101.036	1189.06
105.212	1790.34
109.387	5533.6
113.559	4518.79
117.729	2295.93
121.897	2557.13
126.063	2769.96
130.228	2305.98
134.39	1807.97
138.55	2256.26
142.709	1548.22
146.865	709.305
151.019	629.521
155.171	839.256
159.322	937.218
163.47	751.065
167.617	991.717
171.761	1429.02
175.904	1169.01
180.044	428.862
184.183	10.191
188.319	207.923
192.454	182.162
196.586	176.458
200.717	298.28
204.846	55.021
208.972	462.956
213.097	912.643
217.22	870.029
221.341	521.076
225.46	414.718
229.577	450.688
233.692	1054.95
237.805	2119.71
241.916	3108.27
246.025	3448.42
250.132	2909.14
254.237	2249.51
258.34	2348.08
262.442	2314.01
266.541	1740.35
270.639	1507.43
274.734	1571.89
278.828	1565.48
282.919	1310.88
287.009	1052.71
291.097	1024.95
295.183	1457.62
299.266	2111.7
303.348	2215.93
307.428	2199.28
311.507	1958.7
315.583	2211.33
319.657	3055.2
323.729	3450.54
327.8	3888.32
331.868	5103.51
335.935	5730.09
339.999	5337.05
344.062	4936.37
348.123	4239.43
352.182	3121.44
356.239	3013.76
360.294	3511.07
364.347	3625.33
368.398	3322.05
372.448	2509.77
376.495	1428.15
380.54	1020.21
384.584	992.655
388.626	907.991
392.666	587.528
396.704	303.269
400.74	295.194
404.774	761.286
408.806	1445.53
412.836	2528.93
416.865	4268.48
420.891	4369.85
424.916	2559.09
428.939	1001.32
432.959	519.338
436.978	287.201
440.996	226.383
445.011	113.963
449.024	234.863
453.036	400.769
457.045	381.745
461.053	48.843
465.059	98.994
469.063	79.369
473.065	5.282
477.065	76.598
481.063	102.398
485.06	232.357
489.054	785.369
493.047	1314.45
497.038	1155.53
501.027	786.65
505.014	1014.87
508.999	1867.08
512.982	2322.29
516.964	1706.51
520.944	1004.76
524.921	429.357
528.897	87.266
532.871	33.861
536.844	125.29
540.814	32.281
544.783	170.334
548.749	400.828
552.714	1033.2
556.677	1517.46
560.638	1003.58
564.597	540.561
568.555	402.404
572.511	214.098
576.464	98.64
580.416	32.005
584.366	25.962
588.315	15.417
592.261	81.421
596.206	0.864
600.148	110.768
604.089	121.472
608.028	138.594
611.965	212.191
615.901	313.619
619.834	454.439
623.766	619.289
627.696	784.061
631.624	1172.36
635.551	1346.06
639.475	1804.95
643.398	2405.79
647.318	3479.31
651.237	5519.31
655.155	9774.58
659.07	18776.3
662.984	36233.1
666.895	48237.1
670.805	37321.2
674.713	22146
678.62	14340.9
682.524	8793.58
686.427	4954.17
690.328	3025.79
694.227	2080.1
698.124	1591.3
702.02	1475.96
705.913	1739.12
709.805	2521.02
713.695	3160.68
717.584	2251.1
721.47	1376.27
725.355	840.188
729.238	613.87
733.119	574.314
736.998	455.506
740.876	367.997
744.752	270.89
748.626	189.036
752.498	141.15
756.368	127.139
760.237	49.343
764.104	13.069
767.969	38.637
771.832	32.002
775.693	30.019
779.553	36.326
783.411	5.811
787.267	18.502
791.122	0.442
794.974	15.599
798.825	18.009
802.674	9.657
806.522	58.474
810.367	42.523
814.211	67.817
818.053	50.574
821.893	20.839
825.732	26.94
829.568	0.843
833.403	35.44
837.236	1.89
841.068	24.579
844.898	57.002
848.726	33.531
852.552	95.229
856.376	192.964
860.199	401.658
864.02	822.317
867.839	1658.95
871.656	2650.56
875.472	2853.15
879.286	2309.75
883.098	1940.39
886.909	2066.06
890.717	1746.79
894.524	1163.67
898.33	948.804
902.133	939.208
905.935	1385.93
909.735	2186.7
913.533	2493.65
917.33	1941.73
921.124	1493.85
924.918	1385.39
928.709	1812.7
932.499	3057.67
936.286	4119
940.073	2816.31
943.857	1727.36
947.64	1484.06
951.421	1626.52
955.2	2034.87
958.978	3104.02
962.753	5299.87
966.527	10653.5
970.3	18527.8
974.071	18590.4
977.84	14052.8
981.607	12794.3
985.372	16344.3
989.136	24319.1
992.898	23714.6
996.659	22140.2
1000.42	25225.9
1004.17	21101.8
1007.93	12737.9
1011.68	8354.08
1015.43	6547.41
1019.18	5720.89
1022.93	5617.91
1026.68	5622.88
1030.42	5728.38
1034.17	5393.06
1037.91	5818.06
1041.65	7468.22
1045.39	9891.32
1049.12	8951.57
1052.86	6073.77
1056.59	3291.32
1060.33	1931.09
1064.06	1326.13
1067.78	1028.74
1071.51	927.271
1075.23	804.381
1078.96	709.24
1082.68	546.054
1086.4	466.939
1090.12	372.88
1093.83	326.009
1097.55	293.892
1101.26	240.142
1104.97	287.588
1108.68	291.146
1112.39	235.847
1116.1	229.005
1119.8	192.515
1123.5	286.399
1127.2	230.094
1130.9	109.052
1134.6	171.115
1138.3	135.026
1141.99	121.392
1145.69	130.737
1149.38	92.714
1153.07	87.028
1156.76	91.85
1160.44	117.331
1164.13	70.664
1167.81	57.23
1171.49	9.97
1175.17	28.398
1178.85	56.127
1182.52	11.025
1186.2	5.902
1189.87	4.946
1193.54	6.264
1197.21	12.162
1200.88	50.589
1204.55	10.449
1208.21	39.434
1211.88	0.352
1215.54	9.058
1219.2	38.472
1222.86	45.7
1226.51	33.835
1230.17	21.194
1233.82	9.556
1237.47	0.867
1241.12	6.97
1244.77	21.861
1248.42	1.135
1252.06	45.311
1255.71	6.573
1259.35	22.295
1262.99	5.367
1266.63	24.22
1270.26	10.914
1273.9	53.194
1277.53	87.448
1281.16	77.451
1284.8	46.219
1288.42	42.73
1292.05	113.95
1295.68	2.452
1299.3	39.386
1302.92	48.324
1306.55	23.948
1310.16	131.292
1313.78	177.446
1317.4	153.767
1321.01	138.513
1324.62	58.725
1328.24	89.813
1331.85	99.293
1335.45	71.609
1339.06	104.416
1342.66	128.569
1346.27	173.422
1349.87	182.27
1353.47	144.518
1357.07	98.713
1360.66	97.101
1364.26	146.481
1367.85	88.188
1371.44	47.226
1375.04	133.821
1378.62	93.584
1382.21	133.511
1385.8	104.345
1389.38	68.34
1392.96	92.439
1396.54	154.691
1400.12	51.233
1403.7	28.968
1407.28	37.592
1410.85	58.624
1414.42	98.208
1417.99	30.103
1421.56	113.291
1425.13	76.926
1428.7	50.592
1432.26	108.242
1435.83	3.836
1439.39	50.667
1442.95	0.989
1446.51	20.436
1450.06	54.774
1453.62	35.211
1457.17	102.731
1460.73	154.367
1464.28	118.309
1467.83	125.602
1471.37	171.729
1474.92	135.04
1478.46	98.333
1482.01	82.035
1485.55	4.842
1489.09	52.638
1492.63	142.46
1496.16	113.532
1499.7	98.775
1503.23	113.699
1506.76	132.702
1510.29	164.033
1513.82	128.558
1517.35	35.494
1520.88	0.238
