Measurement: Raman, 514 nm, depolarized, Raman Data Processed
Mineral: Rhodonite
Rruff sample: R060549
Ideal chemistry: CaMn^2+^_3_Mn^2+^Si_5_O_15_
Locality: unknown
Source: Gemological Institute of America
Description: Pink cleavage fragment
Measured chemistry: (Mn_0.76_Ca_0.12_Fe_0.07_Mg_0.06_)Si_0.99_O_3_
Pin_id: L00779
Orientation: Laser parallel to (0 1 1). Fiducial mark perpendicular to laser is parallel to a [1 0 0]
Raman shift (cm-1)	intensity
82.15	0
87.101	178.135
92.049	1215.17
96.995	2537.43
101.939	2269.22
106.879	1870.37
111.818	5085.15
116.753	6416.63
121.686	4689.05
126.617	3134.43
131.545	2063.95
136.471	1841.62
141.393	1529.11
146.314	690.642
151.232	308.052
156.147	667.737
161.06	1120.24
165.97	1501.86
170.877	1145.21
175.782	662.303
180.685	448.985
185.585	71.0493
190.482	233.866
195.377	171.906
200.269	183.15
205.158	57.6694
210.045	172.447
214.93	217.804
219.812	164.222
224.691	49.978
229.568	119.327
234.442	89.521
239.314	387.134
244.183	692.29
249.049	1325.22
253.913	2030.79
258.775	2688.3
263.633	3802.08
268.49	3651.97
273.343	2594.91
278.194	1794.84
283.043	1264.49
287.889	584.017
292.732	72.4976
297.573	79.9268
302.411	58.2319
307.247	54.3784
312.08	281.434
316.91	886.313
321.738	2517
326.563	3863.36
331.386	4072.75
336.206	4140.41
341.024	3195.4
345.839	2384.48
350.651	2143.64
355.461	1485.35
360.268	752.027
365.073	553.984
369.875	546.181
374.674	341.747
379.471	119.843
384.266	402.975
389.057	765.657
393.846	678.118
398.633	192.726
403.417	195.491
408.198	710.416
412.977	1394.48
417.753	2328.65
422.527	2919.91
427.298	1717.23
432.067	637.617
436.832	209.081
441.596	155.6
446.356	257.188
451.115	466.87
455.87	499.887
460.623	466.309
465.373	284.082
470.121	107.485
474.866	48.6865
479.609	57.3242
484.349	206.994
489.086	119.482
493.821	13.9233
498.553	302.902
503.283	473.709
508.01	1053.35
512.734	1510.84
517.456	860.352
522.175	379.707
526.892	95.0308
531.606	45.8638
536.317	81.0854
541.026	235.831
545.732	569.403
550.436	831.775
555.137	1299.96
559.835	1763.82
564.531	1067.37
569.224	534.637
573.915	564.608
578.603	396.238
583.288	218.482
587.971	175.332
592.651	188.688
597.329	208.456
602.004	152.651
606.676	356.272
611.346	288.442
616.013	435.762
620.678	548.629
625.34	784.739
629.999	1005.86
634.656	1102.82
639.31	1767.39
643.962	2559.67
648.611	4045.97
653.257	7525.08
657.901	15862.9
662.542	27726.3
667.181	39543.5
671.817	44391.1
676.45	27284
681.081	15094
685.709	8532.51
690.334	4505.97
694.957	2862.85
699.578	1972.19
704.195	1566.34
708.811	1496.99
713.423	1553.37
718.033	1365.61
722.64	1263.49
727.245	871.481
731.847	647.551
736.446	753.933
741.043	761.601
745.637	552.243
750.229	304.923
754.818	126.321
759.404	184.597
763.988	89.2686
768.569	61.4165
773.148	128.859
777.724	26.8901
782.297	19.5586
786.868	13.876
791.436	67.2783
796.001	99.8594
800.564	73.7163
805.125	71.5996
809.682	38.4228
814.237	22.1074
818.79	141.621
823.339	30.3428
827.887	57.7666
832.431	10.4316
836.973	34.5312
841.513	135.264
846.049	14.8066
850.583	30.8896
855.115	6.7168
859.644	79.3848
864.17	236.444
868.694	471.55
873.215	839.729
877.733	1557.01
882.249	1760.38
886.762	1451.79
891.273	980.242
895.781	926.706
900.286	943.894
904.789	1079.74
909.289	1231.52
913.786	1317.31
918.281	1301.43
922.773	1046.36
927.263	1102.66
931.75	1513.35
936.234	2559.35
940.716	3656.06
945.195	2883.16
949.672	2030.58
954.146	2138.71
958.617	3034.59
963.086	5122.94
967.552	9698.76
972.015	19406.9
976.476	27112.6
980.934	21383.9
985.39	18201.4
989.843	18876.8
994.293	20350.9
998.741	22345.2
1003.19	21288.9
1007.63	14891.9
1012.07	8834.4
1016.5	5116.43
1020.94	3620.09
1025.37	2889.52
1029.8	2674.67
1034.23	2658.9
1038.65	3084.59
1043.07	3361.03
1047.49	2844.72
1051.91	2039.74
1056.32	1255.18
1060.73	793.259
1065.14	485.779
1069.55	368.834
1073.95	291.749
1078.35	358.482
1082.75	223.965
1087.14	198.182
1091.54	33.0654
1095.93	134.578
1100.31	55.918
1104.7	135.668
1109.08	100.258
1113.46	55.9512
1117.84	162.48
1122.21	42.7949
1126.58	81.4492
1130.95	187.368
1135.32	115.061
1139.68	93.0908
1144.04	106.487
1148.4	108.124
1152.76	127.499
1157.11	225.787
1161.46	59.1445
1165.81	22.2363
1170.16	28.3945
1174.5	126.859
1178.84	106.668
1183.18	85.0869
1187.51	107.369
1191.84	227.305
1196.17	85.9551
1200.5	15.1592
1204.83	61.6611
1209.15	14.544
1213.47	29.1143
1217.78	77.8525
1222.1	27.6221
1226.41	85.7451
1230.72	123.473
1235.02	26.833
1239.33	13.6582
1243.63	80.0078
1247.92	209.921
1252.22	19.376
1256.51	2.65918
1260.8	37.7656
1265.09	206.715
1269.38	130.259
1273.66	113.63
1277.94	93.1269
1282.21	37.9795
1286.49	89.9482
1290.76	291.513
1295.03	34.582
1299.3	126.516
1303.56	235.844
1307.82	21.7021
1312.08	188.69
1316.34	143.065
1320.59	158.523
1324.84	139.618
1329.09	284.746
1333.34	138.593
1337.58	76.125
1341.82	136.932
1346.06	236.065
1350.29	245.395
1354.53	225.482
1358.76	65.5283
1362.98	146.332
1367.21	202.125
1371.43	170.27
1375.65	151.746
1379.87	145.658
1384.08	104.87
1388.29	81.9033
1392.5	216.924
1396.71	107.573
1400.91	128.569
1405.11	7.89844
1409.31	136.269
1413.51	185.429
1417.7	79.9795
1421.89	24.4414
1426.08	117.839
1430.26	50.501
1434.44	33.3691
1438.62	187.672
1442.8	220.178
1446.98	10.332
1451.15	121.598
1455.32	111.072
1459.49	145.213
1463.65	194.725
1467.81	224.259
1471.97	302.664
1476.13	110.322
1480.28	92.0996
1484.43	299.118
1488.58	271.209
1492.73	104.384
1496.87	192.618
1501.01	0.719727
1505.15	59.1621
1509.29	166.037
1513.42	101.705
1517.55	175.96
1521.67	186.35
1525.8	265.633
1529.92	228.145
1534.04	215.81
1538.16	75.0977
1542.27	282.875
1546.39	194.092
1550.49	113.733
1554.6	122.555
1558.71	15.876
1562.81	128.056
1566.91	8.77051
1571	38.873
1575.1	121.529
