Measurement: Raman, 514 nm, depolarized, Raman Data Processed
Mineral: Rhodonite
Rruff sample: R060549
Ideal chemistry: CaMn^2+^_3_Mn^2+^Si_5_O_15_
Locality: unknown
Source: Gemological Institute of America
Description: Pink cleavage fragment
Measured chemistry: (Mn_0.76_Ca_0.12_Fe_0.07_Mg_0.06_)Si_0.99_O_3_
Pin_id: L01637
Orientation: Laser parallel to a* (1 0 0). Fiducial mark perpendicular to laser is parallel to b [0 1 0]
Raman shift (cm-1)	intensity
153.377	0
158.283	464.063
163.187	1068.94
168.088	1172.35
172.987	940.845
177.884	867.558
182.778	793.882
187.67	457.231
192.559	279.774
197.445	29.772
202.33	87.5894
207.211	1.31299
212.091	355.092
216.967	894.79
221.842	795.867
226.713	598.992
231.583	584.256
236.449	947.065
241.314	1726.8
246.176	2609.52
251.035	3293.73
255.892	3385.27
260.746	3669.56
265.598	3794.74
270.448	2631.25
275.295	1669.39
280.139	1135.63
284.981	791.277
289.82	688.292
294.657	1060.65
299.492	1941.21
304.324	2178.23
309.153	1972.22
313.98	1451.58
318.805	1527.27
323.627	2216.1
328.446	2845.9
333.263	3737.38
338.078	4252.79
342.89	3905.04
347.699	3684.93
352.506	3137.99
357.311	2853.31
362.113	2767.44
366.912	2356.01
371.709	1720.99
376.504	1067.33
381.295	776.856
386.085	1238.26
390.872	1501.47
395.656	1245.1
400.438	658.628
405.218	701.526
409.994	1096.62
414.769	1377.9
419.541	2036.3
424.31	1919.76
429.077	1057.28
433.841	904.83
438.603	1066.4
443.362	607.989
448.119	282.077
452.873	322.712
457.625	392.721
462.374	404.239
467.121	212.085
471.865	221.369
476.607	91.7812
481.346	20.9273
486.082	18.7378
490.816	98.7529
495.548	487.804
500.277	444.935
505.003	309.046
509.727	431.271
514.449	506.654
519.168	181.995
523.884	70.8198
528.598	180.168
533.309	267.801
538.018	87.854
542.724	204.33
547.428	214.303
552.129	314.318
556.828	597.207
561.524	541.918
566.217	707.434
570.909	1253.71
575.597	1360.72
580.283	659.463
584.966	244.917
589.647	38.0757
594.326	25.8799
599.001	75.2886
603.675	5.33203
608.345	152.922
613.014	241.155
617.679	313.036
622.342	457.714
627.003	829.977
631.661	828.056
636.316	1026.92
640.969	1698.03
645.62	2605.56
650.267	4164.69
654.913	7676.57
659.555	15336.9
664.196	25422.8
668.833	37195.3
673.468	33399.9
678.101	20053.5
682.731	12384.6
687.358	6554.49
691.983	3794.84
696.605	2543.68
701.225	1767.57
705.842	1645.1
710.457	1754.67
715.069	1955.3
719.679	1899.54
724.286	1514.4
728.89	1131.83
733.492	922.675
738.091	981.704
742.688	797.598
747.282	583.553
751.874	194.371
756.463	201.563
761.05	131.556
765.634	60.3081
770.215	15.6387
774.794	50.5366
779.37	37.0762
783.944	34.1484
788.515	42.5708
793.084	66.9985
797.65	33.1675
802.213	36.9815
806.774	60.4917
811.332	43.0151
815.888	20.6304
820.441	24.8057
824.992	121.586
829.54	11.9326
834.085	2.78516
838.628	1.79688
843.169	75.0264
847.706	57.7134
852.242	147.308
856.774	185.839
861.304	310.319
865.832	257.769
870.357	325.228
874.879	659.719
879.399	899.247
883.916	790.846
888.431	498.489
892.943	286.178
897.452	301.591
901.959	338.489
906.463	548.093
910.965	725.623
915.464	996.717
919.961	805.213
924.455	597.054
928.946	731.031
933.435	1256.28
937.922	2285.57
942.405	2568.73
946.886	1705.59
951.365	1482.44
955.841	1645.64
960.314	2646.47
964.785	4860.24
969.253	10061.8
973.719	17949.6
978.182	19126.6
982.642	15131.4
987.1	15291
991.556	17574
996.008	23632.3
1000.46	31403.8
1004.91	28119.8
1009.35	19100
1013.79	11424.5
1018.23	6413.38
1022.67	4286.55
1027.11	3403.03
1031.54	2850.84
1035.97	2466.56
1040.39	2381.11
1044.82	3019.57
1049.24	4347.75
1053.66	3770.96
1058.08	2509.74
1062.49	1625.47
1066.9	1125.93
1071.31	785.645
1075.71	699.088
1080.12	528.265
1084.52	538.463
1088.92	422.78
1093.31	254.23
1097.71	291.543
1102.1	211.545
1106.48	223.976
1110.87	206.285
1115.25	249.596
1119.63	216.235
1124.01	137.919
1128.39	207.726
1132.76	74.4541
1137.13	70.2988
1141.5	8.0791
1145.86	88.915
1150.22	57.793
1154.58	11.6885
1158.94	85.6006
1163.29	19.5186
1167.64	15.4414
1171.99	10.6709
1176.34	143.141
1180.68	6.17188
1185.03	23.623
1189.36	33.3848
1193.7	19.6504
1198.03	19.791
1202.36	49.8076
1206.69	81.5791
1211.02	63.6699
1215.34	36.3262
1219.66	109.538
1223.98	63.8945
1228.3	0.239258
1232.61	104.097
1236.92	232.639
1241.22	173.954
1245.53	50.0801
1249.83	107.143
1254.13	61.875
1258.43	82.3965
1262.72	70.7295
1267.02	187.861
1271.3	308.848
1275.59	240.338
1279.88	311.841
1284.16	306.19
1288.43	216.284
1292.71	203.164
1296.98	196.118
1301.26	171.239
1305.52	277.233
1309.79	361.999
1314.05	351.074
1318.31	357.38
1322.57	385.502
1326.83	336.042
1331.08	266.915
1335.33	271.741
1339.58	129.231
1343.82	256.004
1348.07	238.785
1352.31	53.1475
1356.54	172.076
1360.78	61.7734
1365.01	178.543
1369.24	43.54
1373.46	213.405
1377.69	192.338
1381.91	185.782
1386.13	71.8897
1390.35	125.074
1394.56	101.798
1398.77	69.4824
1402.98	34.9746
1407.18	136.445
1411.39	38.9111
1415.59	33.3623
1419.79	241.826
1423.98	28.2324
1428.17	136.769
1432.36	285.298
1436.55	221.245
1440.74	460.394
1444.92	516.63
1449.1	494.349
1453.28	530.977
1457.45	604.579
1461.62	512.516
1465.79	391.029
1469.96	383.97
1474.12	438.18
1478.28	449.842
1482.44	290.13
1486.6	114.491
1490.75	42.3857
1494.9	74.8184
1499.05	1.08008
1503.19	125.24
1507.34	66.4473
1511.48	43.4512
1515.62	85.4404
1519.75	58.793
1523.88	186.429
1528.02	155.287
1532.14	227.564
1536.27	106.006
1540.39	141.614
1544.51	183.719
1548.62	46.2529
1552.74	172.106
1556.85	125.782
1560.96	213.622
1565.07	255.457
1569.17	194.588
1573.27	220.073
1577.37	0
