Measurement: Raman, 514 nm, depolarized, Raman Data Processed
Mineral: Rhodonite
Rruff sample: R040041
Ideal chemistry: CaMn^2+^_3_Mn^2+^Si_5_O_15_
Locality: Franklin, Sussex County, New Jersey, USA
Source: University of Arizona Mineral Museum
Description: Pink prismatic crystals
Measured chemistry: (Mn_0.63_Ca_0.21_Zn_0.12_Mg_0.02_Fe_0.02_)_Î£=1_Si_1.00_O_3_
Pin_id: L00324
Orientation: Laser parallel to (0 -1 -1). Fiducial mark perpendicular to laser is parallel to a [1 0 0]
Raman shift (cm-1)	intensity
54.966	0
59.164	366.763
63.36	525.215
67.554	60.5
71.747	26.002
75.937	323.67
80.125	74.2
84.311	129.653
88.496	832.599
92.678	3574
96.858	6904.12
101.036	5105.28
105.212	5813.87
109.387	9309.49
113.559	5877.75
117.729	5062.39
121.897	6207.23
126.063	5409.1
130.228	4319.9
134.39	3567.51
138.55	3819.82
142.709	2481.32
146.865	1853.2
151.019	2439.87
155.171	2592.65
159.322	1975.08
163.47	1826.27
167.617	1936.3
171.761	1766.69
175.904	1537.03
180.044	1090.75
184.183	844.359
188.319	948.843
192.454	658.188
196.586	342.375
200.717	217.391
204.846	327.216
208.972	868.831
213.097	555.216
217.22	283.385
221.341	179.048
225.46	136.234
229.577	231.888
233.692	517.725
237.805	1244.53
241.916	1849.76
246.025	2082.64
250.132	2032.32
254.237	2716.09
258.34	4322.81
262.442	4582.48
266.541	3213.16
270.639	2570.89
274.734	2125.61
278.828	1692.23
282.919	1023.64
287.009	642.754
291.097	592.473
295.183	1037.76
299.266	1703.58
303.348	2191.93
307.428	2413.77
311.507	2094.12
315.583	2043.94
319.657	2843.23
323.729	3187.98
327.8	3054.17
331.868	3207.8
335.935	3461.26
339.999	3814.32
344.062	4313.2
348.123	3871.48
352.182	2903.13
356.239	2696.16
360.294	2997.56
364.347	2973.31
368.398	2607.4
372.448	1884.06
376.495	1167.82
380.54	787.874
384.584	668.229
388.626	502.928
392.666	174.034
396.704	136.399
400.74	245.589
404.774	171.926
408.806	69.306
412.836	194.571
416.865	762.724
420.891	946.565
424.916	482.739
428.939	463.091
432.959	856.079
436.978	1265.07
440.996	935.168
445.011	431.174
449.024	423.061
453.036	633.092
457.045	589.958
461.053	294.041
465.059	340.31
469.063	570.778
473.065	753.433
477.065	966.262
481.063	666.262
485.06	349.433
489.054	454.769
493.047	800.272
497.038	735.936
501.027	426.745
505.014	304.719
508.999	451.865
512.982	793.141
516.964	1038.57
520.944	739.125
524.921	383.753
528.897	122.425
532.871	107.139
536.844	99.838
540.814	342.521
544.783	501.274
548.749	415.026
552.714	384.761
556.677	400.052
560.638	262.438
564.597	193.084
568.555	195.175
572.511	224.72
576.464	81.239
580.416	57.338
584.366	76.279
588.315	69.752
592.261	72.875
596.206	45.599
600.148	50.807
604.089	0.347
608.028	115.964
611.965	237.446
615.901	282.69
619.834	441.03
623.766	516.716
627.696	753.621
631.624	880.9
635.551	1211.78
639.475	1673.98
643.398	2190.62
647.318	3018.02
651.237	4699.22
655.155	8253.85
659.07	15434.3
662.984	30971
666.895	47775.7
670.805	40353
674.713	23900.9
678.62	15416.8
682.524	9960.35
686.427	5682.31
690.328	3147.66
694.227	2142.3
698.124	1567.57
702.02	1400.58
705.913	1562.52
709.805	2511.24
713.695	3535.77
717.584	2824.32
721.47	1738.94
725.355	1088.5
729.238	994.863
733.119	990.089
736.998	1095.2
740.876	1273.38
744.752	968.98
748.626	481.457
752.498	259.926
756.368	224.358
760.237	108.294
764.104	39.051
767.969	9.333
771.832	29.51
775.693	42.47
779.553	2.239
783.411	27.765
787.267	2.913
791.122	10.81
794.974	20.929
798.825	33.289
802.674	30.103
806.522	48.249
810.367	62.147
814.211	10.212
818.053	12.117
821.893	9.165
825.732	37.947
829.568	35.551
833.403	46.697
837.236	32.818
841.068	5.804
844.898	110.655
848.726	3.439
852.552	39.891
856.376	46.586
860.199	79.997
864.02	138.955
867.839	341.638
871.656	647.875
875.472	754.067
879.286	739.427
883.098	672.439
886.909	658.739
890.717	714.093
894.524	631.658
898.33	613.453
902.133	882.58
905.935	1289.96
909.735	2123.53
913.533	3043.21
917.33	2962.51
921.124	2169.95
924.918	1705.2
928.709	1612.8
932.499	2002.5
936.286	2987.02
940.073	2694.97
943.857	1779.95
947.64	1460.34
951.421	1518.06
955.2	1838.65
958.978	2489.51
962.753	3783.71
966.527	7068.63
970.3	13241.5
974.071	17249.5
977.84	14502.9
981.607	13194
985.372	16672.8
989.136	24019.3
992.898	29930.2
996.659	26414.6
1000.42	31734.6
1004.17	34219.2
1007.93	22119.7
1011.68	11959.1
1015.43	7945.69
1019.18	5887.32
1022.93	4905.23
1026.68	4261.2
1030.42	3661.24
1034.17	3093.23
1037.91	2560.38
1041.65	2450.47
1045.39	2868.06
1049.12	3473.12
1052.86	3265.59
1056.59	2184.7
1060.33	1295.94
1064.06	1002.79
1067.78	813.307
1071.51	667.358
1075.23	638.777
1078.96	609.512
1082.68	551.723
1086.4	618.15
1090.12	510.525
1093.83	315.487
1097.55	329.044
1101.26	271.083
1104.97	256.688
1108.68	248.255
1112.39	228.056
1116.1	260.046
1119.8	250.024
1123.5	400.575
1127.2	306.259
1130.9	159.903
1134.6	198.892
1138.3	213.381
1141.99	58.097
1145.69	128.897
1149.38	82.644
1153.07	83.293
1156.76	78.621
1160.44	81.188
1164.13	95.604
1167.81	145.349
1171.49	21.789
1175.17	42.113
1178.85	15.462
1182.52	64
1186.2	21.156
1189.87	24.865
1193.54	56.446
1197.21	43.047
1200.88	19.855
1204.55	131.619
1208.21	10.915
1211.88	16.313
1215.54	48.351
1219.2	2.211
1222.86	56.885
1226.51	29.349
1230.17	90.217
1233.82	47.64
1237.47	114.424
1241.12	37.008
1244.77	5.689
1248.42	20.075
1252.06	48.101
1255.71	26.398
1259.35	13.536
1262.99	38.756
1266.63	41.613
1270.26	62.589
1273.9	131.273
1277.53	35.686
1281.16	86.851
1284.8	4.769
1288.42	66.429
1292.05	45.144
1295.68	100.997
1299.3	13.11
1302.92	42.449
1306.55	41.817
1310.16	25.944
1313.78	92.824
1317.4	75.463
1321.01	159.302
1324.62	97.28
1328.24	124.66
1331.85	125.877
1335.45	87.414
1339.06	87.469
1342.66	262.056
1346.27	119.419
1349.87	183.764
1353.47	166.405
1357.07	225.242
1360.66	185.691
1364.26	128.404
1367.85	145.18
1371.44	131.771
1375.04	139.995
1378.62	208.874
1382.21	185.468
1385.8	155.922
1389.38	92.892
1392.96	66.537
1396.54	153.334
1400.12	147.15
1403.7	163.365
1407.28	147.708
1410.85	150.146
1414.42	211.336
1417.99	182.378
1421.56	151.284
1425.13	162.796
1428.7	147.621
1432.26	250.069
1435.83	177.812
1439.39	208.538
1442.95	226.947
1446.51	186.021
1450.06	262.834
1453.62	288.45
1457.17	328.748
1460.73	194.085
1464.28	189.437
1467.83	225.425
1471.37	245.867
1474.92	79.574
1478.46	170.508
1482.01	43.611
1485.55	255.036
1489.09	109.007
1492.63	131.666
1496.16	199.727
1499.7	78.188
1503.23	14.384
1506.76	173.003
1510.29	194.513
1513.82	0.438
1517.35	41.328
