Measurement: Raman, 514 nm, ccw, Raman Data Processed
Mineral: Rhodonite
Rruff sample: R060549
Ideal chemistry: CaMn^2+^_3_Mn^2+^Si_5_O_15_
Locality: unknown
Source: Gemological Institute of America
Description: Pink cleavage fragment
Measured chemistry: (Mn_0.76_Ca_0.12_Fe_0.07_Mg_0.06_)Si_0.99_O_3_
Pin_id: L00779
Orientation: Laser parallel to (0 1 1). Fiducial mark perpendicular to laser is parallel to a [1 0 0]
Raman shift (cm-1)	intensity
80.912	0
85.863	296.627
90.812	1216.62
95.759	2081.43
100.703	1760.93
105.644	1241.99
110.583	2259.19
115.52	3770.57
120.453	3505.55
125.385	2680.5
130.313	2033.48
135.239	2080.37
140.163	2230.57
145.084	1336.27
150.002	848.766
154.918	670.982
159.832	1002.39
164.742	1292.71
169.651	1045.05
174.556	778.583
179.459	704.717
184.36	370.264
189.258	87.957
194.153	205.981
199.046	86.1658
203.936	67.6899
208.824	113.389
213.709	463.372
218.592	360.546
223.472	245.487
228.349	61.2849
233.224	299.014
238.096	451.726
242.966	737.722
247.833	1333.75
252.698	2153.14
257.56	3349.48
262.419	5373.7
267.276	5887.8
272.13	4472.25
276.982	3199.05
281.831	2148.46
286.677	1302.83
291.521	594.691
296.363	315.318
301.202	309.48
306.038	371.935
310.872	738.594
315.703	1557.12
320.531	3318.89
325.357	5118.88
330.181	5386.06
335.001	4667.33
339.82	3683.98
344.635	2429.73
349.448	1561.61
354.259	1114.84
359.067	773.041
363.872	702.622
368.675	684.169
373.475	618.688
378.272	513.38
383.067	493.176
387.86	788.989
392.649	831.77
397.437	412.472
402.221	33.0752
407.003	40.5515
411.783	181.89
416.56	359.719
421.334	552.155
426.106	397.063
430.875	91.8262
435.641	18.4285
440.405	47.2434
445.167	36.6411
449.925	88.9304
454.681	136.253
459.435	76.48
464.186	185.251
468.934	308.832
473.68	226.215
478.423	68.4077
483.164	136.398
487.902	85.9287
492.637	5.32153
497.37	16.5464
502.1	303.17
506.828	1019.63
511.553	1645.93
516.276	1169.1
520.995	508.097
525.713	223.908
530.427	138.555
535.139	203.023
539.849	272.239
544.556	552.265
549.26	493.644
553.962	744.352
558.661	1237.89
563.357	876.259
568.051	557.554
572.742	663.62
577.431	520.743
582.117	228.208
586.801	195.856
591.481	94.4568
596.16	136.39
600.835	133.094
605.508	150.571
610.179	212.824
614.847	310.856
619.512	468.485
624.175	557.765
628.835	740.734
633.492	1006.49
638.147	1410.94
642.799	2208.06
647.449	3318.35
652.096	5886.15
656.74	11771.6
661.382	22603.9
666.021	33840.1
670.658	42834.3
675.292	29450.7
679.923	15857
684.552	8758.19
689.178	4752.83
693.802	2911.71
698.423	2103.91
703.041	1530.3
707.657	1528.26
712.27	1608.79
716.881	1572.63
721.489	1378.46
726.094	1013.45
730.697	765.611
735.297	801.712
739.894	874.358
744.489	819.101
749.081	396.673
753.671	213.077
758.258	132.319
762.842	148.569
767.424	76.2234
772.003	29.1169
776.58	106.013
781.154	44.2852
785.725	36.8848
790.294	24.2163
794.86	18.9639
799.424	33.5442
803.985	18.1321
808.543	49.8357
813.099	59.5955
817.652	60.2053
822.202	1.54858
826.75	63.3169
831.295	68.4348
835.838	23.0254
840.378	94.793
844.915	73.0354
849.45	60.2007
853.982	28.3186
858.512	114.695
863.039	89.052
867.563	153.403
872.085	364.747
876.604	774.091
881.12	1151.44
885.634	1004.8
890.145	737.19
894.654	560.626
899.16	494.111
903.663	521.276
908.164	556.524
912.662	718.379
917.158	782.998
921.651	763.091
926.141	750.992
930.628	841.438
935.113	1278.53
939.596	1831.18
944.076	1728.09
948.553	1486.97
953.027	1836.99
957.499	2647.79
961.969	4434.45
966.435	8255.15
970.899	16349.9
975.361	25093.6
979.82	22153
984.276	17679.5
988.73	18863.6
993.181	21216.3
997.629	25083.3
1002.08	25824.6
1006.52	17862.1
1010.96	10091
1015.4	5662.03
1019.83	3727.31
1024.26	2879.3
1028.69	2479.98
1033.12	2425.11
1037.55	2678
1041.97	2889.11
1046.39	2573.14
1050.81	2006.8
1055.22	1266.71
1059.63	810.737
1064.04	553.443
1068.45	486.336
1072.85	323.451
1077.25	222.735
1081.65	264.233
1086.05	216.861
1090.44	115.402
1094.83	173.041
1099.22	142.26
1103.6	166.852
1107.99	151.226
1112.37	95.5356
1116.74	125.028
1121.12	109.56
1125.49	137.221
1129.86	61.8574
1134.23	60.4619
1138.59	3.81543
1142.95	26.5166
1147.31	131.349
1151.67	4.91309
1156.02	85.0034
1160.38	128.481
1164.72	68.1489
1169.07	14.8291
1173.41	30.249
1177.75	5.03857
1182.09	6.51318
1186.43	76.9165
1190.76	1.67041
1195.09	17.1836
1199.42	89.5435
1203.74	100.031
1208.07	125.456
1212.39	55.0835
1216.7	28.8408
1221.02	36.979
1225.33	43.2368
1229.64	6.28906
1233.95	9.71533
1238.25	34.9292
1242.55	65.5019
1246.85	70.8081
1251.15	89.9165
1255.44	36.8242
1259.73	11.1636
1264.02	33.0791
1268.31	84.2583
1272.59	105.823
1276.87	75.4609
1281.15	163.153
1285.42	203.932
1289.69	86.8418
1293.96	122.003
1298.23	122.489
1302.5	90.7519
1306.76	67.5791
1311.02	95.52
1315.27	148.572
1319.53	141.719
1323.78	155.624
1328.03	126.361
1332.28	128.806
1336.52	123.19
1340.76	186.351
1345	210.267
1349.23	100.19
1353.47	91.0659
1357.7	163.246
1361.93	46.646
1366.15	223.591
1370.37	132.291
1374.59	233.642
1378.81	188.136
1383.03	108.897
1387.24	107.818
1391.45	20.873
1395.65	111.385
1399.86	119.4
1404.06	91.646
1408.26	131.458
1412.46	30.7559
1416.65	3.61475
1420.84	127.676
1425.03	79.4697
1429.22	135.55
1433.4	82.8955
1437.58	150.253
1441.76	158.113
1445.93	149.562
1450.11	62.4048
1454.28	112.768
1458.44	154.29
1462.61	126.679
1466.77	168.05
1470.93	143.992
1475.09	114.499
1479.24	137.031
1483.39	173.077
1487.54	100.497
1491.69	133.023
1495.84	24.7529
1499.98	145.701
1504.12	56.1709
1508.25	126.529
1512.38	122.132
1516.52	4.23731
1520.64	31.4341
1524.77	15.1562
1528.89	73.1997
1533.01	154.287
1537.13	54.1977
1541.25	120.69
1545.36	81.8706
1549.47	83.2656
1553.58	117.656
1557.68	113.982
1561.78	19.3916
1565.88	72.4639
1569.98	57.3535
1574.07	91.8023
