Measurement: Raman, 514 nm, ccw, Raman Data Processed
Mineral: Rhodonite
Rruff sample: R040041
Ideal chemistry: CaMn^2+^_3_Mn^2+^Si_5_O_15_
Locality: Franklin, Sussex County, New Jersey, USA
Source: University of Arizona Mineral Museum
Description: Pink prismatic crystals
Measured chemistry: (Mn_0.63_Ca_0.21_Zn_0.12_Mg_0.02_Fe_0.02_)_Î£=1_Si_1.00_O_3_
Pin_id: L00154
Orientation: Laser parallel to (1 1 0). Fiducial mark perpendicular to laser is parallel to c [0 0 1]
Raman shift (cm-1)	intensity
84.377	0
89.307	238.939
94.234	5038.94
99.159	11198.3
104.081	14726
109.002	17853.7
113.919	20704.7
118.835	13872.4
123.748	13320.7
128.659	13551.9
133.567	8777.08
138.473	5576.94
143.377	5043.08
148.278	3736.54
153.177	3633.22
158.073	3428.18
162.968	1902.55
167.859	2641.58
172.749	5112.23
177.636	5366.51
182.52	2433.84
187.403	28.458
192.283	437.79
197.16	679.601
202.035	822.787
206.908	419.051
211.778	2553.65
216.646	2975.22
221.512	1616.94
226.375	1154.45
231.236	1893.19
236.094	4270.17
240.95	8289.23
245.804	12316.3
250.655	14763.3
255.504	16704
260.35	20377.3
265.194	18814.7
270.036	11608.7
274.875	6994.33
279.712	5722.39
284.546	4986.75
289.378	3408.36
294.208	2300.68
299.035	2586.84
303.859	3387.82
308.682	4228.95
313.502	6773.98
318.319	10979.4
323.134	15061.9
327.947	15393.9
332.757	16093
337.565	17247.8
342.37	14991.8
347.173	11950.9
351.973	9083.84
356.771	8266.24
361.567	10420
366.36	12979.3
371.151	12573.9
375.939	8701.9
380.725	5881.46
385.509	5252.26
390.29	4283.86
395.068	2281.24
399.844	855.08
404.618	1142.04
409.389	2707.64
414.158	5964.19
418.924	9232.63
423.688	8150.86
428.45	3795.84
433.209	1148.55
437.965	434.481
442.719	210.301
447.471	214.958
452.22	201.356
456.967	155.164
461.711	1.58106
466.453	305.381
471.192	394.901
475.929	273.037
480.664	269.781
485.396	250.705
490.125	1217.86
494.852	2320.42
499.577	2543.93
504.299	4163.38
509.018	7157.77
513.736	9718.07
518.45	7377.16
523.162	3643.06
527.872	1398.58
532.579	358.546
537.284	119.144
541.986	243.803
546.686	489.43
551.384	1127.55
556.078	1979.21
560.771	1758.57
565.461	1341.46
570.148	787.994
574.833	618.08
579.515	328.88
584.195	225.12
588.873	34.2793
593.548	26.3955
598.22	249.744
602.89	166.551
607.558	390.374
612.223	603.816
616.885	801.281
621.545	1260.04
626.202	1703.22
630.857	2571.78
635.51	3749.78
640.16	5583.87
644.807	8357.84
649.452	13623.9
654.095	26609.5
658.735	56654
663.372	113000
668.007	156572
672.64	126327
677.269	69367
681.897	39085.9
686.522	20577.2
691.144	10996.8
695.764	6633.32
700.381	5276.16
704.996	5733.3
709.608	8560.47
714.218	11705.5
718.825	9543.67
723.43	5022.71
728.032	3024.71
732.632	2487.03
737.229	2394.9
741.824	2452.06
746.416	1535.11
751.006	913.664
755.593	453.392
760.177	131.186
764.759	232.443
769.339	142.436
773.916	73.2022
778.49	76.4072
783.062	80.0459
787.631	36.5957
792.198	45.4424
796.762	24.8369
801.324	0.55957
805.883	33.6348
810.44	3.33106
814.994	25.6211
819.546	22.5068
824.095	198.433
828.641	39.6406
833.185	16.5518
837.726	112.24
842.265	56.6924
846.801	194.185
851.335	37.4463
855.866	235.929
860.395	816.225
864.921	2306.77
869.445	4770.97
873.966	7466.18
878.484	7293.77
883	6046.01
887.513	5642.24
892.024	4757.45
896.532	2991.85
901.038	2206.92
905.541	2860.62
910.042	4749.58
914.54	6132.39
919.035	4907.91
923.528	3622.04
928.018	3763.49
932.506	5679.19
936.991	8015.44
941.474	6203.96
945.954	3849.2
950.431	3875.77
954.906	5060.12
959.378	9029.74
963.848	18956.2
968.315	41495.9
972.78	64139.4
977.242	55245.7
981.701	42282.7
986.158	49613.7
990.612	69663.2
995.064	70032.9
999.513	68065.5
1003.96	66404.2
1008.4	41901.9
1012.85	23806.5
1017.28	17645
1021.72	16465.5
1026.15	17220.8
1030.59	17628
1035.01	17361.2
1039.44	19538.3
1043.86	26795.4
1048.28	29611.1
1052.7	18977.5
1057.12	9279.97
1061.53	4627.91
1065.94	2726.24
1070.35	1897.68
1074.75	1539.9
1079.16	1402.26
1083.56	1127.55
1087.95	974.453
1092.35	708.739
1096.74	474.03
1101.13	454.634
1105.52	416.884
1109.9	323.983
1114.28	523.632
1118.66	388.964
1123.04	339.615
1127.41	388.03
1131.79	396.603
1136.15	345.18
1140.52	218.366
1144.88	211.765
1149.25	198.267
1153.6	260.076
1157.96	120.609
1162.31	378.795
1166.66	190.197
1171.01	20.585
1175.36	45.6152
1179.7	12.6182
1184.04	48.669
1188.38	41.4072
1192.71	38.54
1197.05	32.25
1201.38	78.8818
1205.7	106.537
1210.03	142.17
1214.35	28.584
1218.67	40.169
1222.99	6.54004
1227.3	63.5176
1231.61	26.335
1235.92	86.7666
1240.23	110.966
1244.53	149.289
1248.83	27.9238
1253.13	69.6631
1257.42	181.301
1261.72	53.9141
1266.01	160.243
1270.3	121.23
1274.58	409.898
1278.87	313.546
1283.14	374.449
1287.42	397.297
1291.7	416.659
1295.97	366.508
1300.24	446.098
1304.51	630.348
1308.77	468.04
1313.03	569.819
1317.29	639.046
1321.55	466.775
1325.8	377.757
1330.05	402.614
1334.3	810.137
1338.55	504.943
1342.79	450.462
1347.03	348.328
1351.27	442.745
1355.51	524.66
1359.74	474.688
1363.97	387.144
1368.2	388.56
1372.42	380.254
1376.64	354.789
1380.86	171.263
1385.08	282.023
1389.29	363.315
1393.51	225.472
1397.71	136.986
1401.92	18.8975
1406.12	215.882
1410.33	207.067
1414.53	342.58
1418.72	160.519
1422.91	281.141
1427.1	304.81
1431.29	76.9082
1435.48	123.592
1439.66	341.967
1443.84	254.176
1448.02	176.906
1452.19	242.631
1456.37	237.281
1460.53	302.293
1464.7	386.81
1468.87	377.17
1473.03	626.754
1477.18	234.406
1481.34	431.094
1485.49	103.797
1489.65	208.365
1493.79	179.762
1497.94	81.2793
1502.08	121.289
1506.22	68.9961
1510.36	17.8047
1514.5	217.449
1518.63	254.42
1522.76	341.188
1526.88	122.189
1531.01	153.455
1535.13	217.045
1539.25	298.16
1543.37	235.562
1547.48	177.639
1551.59	248.312
1555.7	353.385
1559.81	201.435
1563.91	62.7383
1568.01	15.8105
1572.11	219.887
1576.2	173.676
