Measurement: Raman, 514 nm, ccw, Raman Data Processed
Mineral: Rhodonite
Rruff sample: R060549
Ideal chemistry: CaMn^2+^_3_Mn^2+^Si_5_O_15_
Locality: unknown
Source: Gemological Institute of America
Description: Pink cleavage fragment
Measured chemistry: (Mn_0.76_Ca_0.12_Fe_0.07_Mg_0.06_)Si_0.99_O_3_
Pin_id: L01642
Orientation: Laser parallel to (1 1 0). Fiducial mark perpendicular to laser is parallel to c [0 0 1]
Raman shift (cm-1)	intensity
153.377	0
158.283	146.736
163.187	676.054
168.088	833.515
172.987	597.304
177.884	743.009
182.778	537.402
187.67	158.869
192.559	60.6523
197.445	18.0723
202.33	107.319
207.211	257.646
212.091	511.739
216.967	636.413
221.842	328.567
226.713	488.008
231.583	656.801
236.449	1086.32
241.314	1433.29
246.176	1846.69
251.035	2300.57
255.892	2907.28
260.746	3878.44
265.598	4520.07
270.448	3444.13
275.295	2232.15
280.139	1649.21
284.981	1059.55
289.82	737.136
294.657	658.957
299.492	706.543
304.324	739.479
309.153	800.464
313.98	894.847
318.805	1454.29
323.627	2503.69
328.446	3195.68
333.263	3422.26
338.078	3473.46
342.89	2560.75
347.699	2025.28
352.506	1492.37
357.311	1246.89
362.113	1003.68
366.912	1136.7
371.709	1219.93
376.504	742.344
381.295	548.923
386.085	532.7
390.872	496.425
395.656	276.883
400.438	216.444
405.218	407.751
409.994	581.029
414.769	779.382
419.541	1244.8
424.31	1036.25
429.077	341.733
433.841	213.524
438.603	76.7666
443.362	55.7217
448.119	51.5986
452.873	0.661133
457.625	38.543
462.374	150.341
467.121	351.091
471.865	578.337
476.607	248.592
481.346	128.858
486.082	91.0938
490.816	14.0015
495.548	232.886
500.277	279.759
505.003	832.592
509.727	1452.37
514.449	1140.17
519.168	594.013
523.884	192.786
528.598	4.47266
533.309	60.0938
538.018	40.2568
542.724	112.203
547.428	132.648
552.129	203.219
556.828	462.804
561.524	381.448
566.217	321.094
570.909	573.691
575.597	565.213
580.283	240.641
584.966	135.905
589.647	105.234
594.326	18.7134
599.001	137.605
603.675	27.9961
608.345	124.752
613.014	207.318
617.679	178.909
622.342	400.327
627.003	587.814
631.661	682.578
636.316	1027.96
640.969	1631.26
645.62	2475.55
650.267	3962.33
654.913	7944.13
659.555	16008.7
664.196	25239.6
668.833	35106.5
673.468	29547.9
678.101	16731.8
682.731	9740.16
687.358	5236.24
691.983	3041.86
696.605	2145.34
701.225	1547.71
705.842	1615.18
710.457	1671.4
715.069	1858.42
719.679	1681.6
724.286	1252.71
728.89	816.764
733.492	652.709
738.091	611.032
742.688	509.086
747.282	428.962
751.874	234.608
756.463	168.002
761.05	116.142
765.634	159.15
770.215	0.033203
774.794	30.4922
779.37	105.812
783.944	49.583
788.515	121.21
793.084	138.439
797.65	27.2598
802.213	21.8457
806.774	65.1846
811.332	1.41797
815.888	57.6533
820.441	73.6465
824.992	144.769
829.54	20.9248
834.085	71.5244
838.628	43.4541
843.169	22.957
847.706	23.8262
852.242	44.0947
856.774	47.8223
861.304	65.4356
865.832	307.017
870.357	380.628
874.879	785.268
879.399	1224.92
883.916	1235.55
888.431	760.142
892.943	486.487
897.452	459.776
901.959	532.151
906.463	345.39
910.965	624.597
915.464	766.03
919.961	577.601
924.455	619.051
928.946	775.123
933.435	874.083
937.922	1615.69
942.405	1695.84
946.886	1352.35
951.365	1289.62
955.841	1821.12
960.314	2854.52
964.785	5384.05
969.253	11291.6
973.719	19303.4
978.182	19253.9
982.642	13982.4
987.1	13111.7
991.556	14248.3
996.008	17594
1000.46	20065
1004.91	16251.2
1009.35	10255.6
1013.79	5907.48
1018.23	3885.38
1022.67	2962.46
1027.11	2624.72
1031.54	2551.46
1035.97	2587.31
1040.39	2794.74
1044.82	2972.32
1049.24	2677.71
1053.66	2069.54
1058.08	1063.83
1062.49	617.731
1066.9	628.963
1071.31	444.267
1075.71	465.759
1080.12	206.403
1084.52	231.797
1088.92	264.384
1093.31	163.755
1097.71	82.0996
1102.1	160.272
1106.48	163.02
1110.87	109.016
1115.25	129.355
1119.63	142.799
1124.01	114.815
1128.39	130.084
1132.76	56.8506
1137.13	132.119
1141.5	179.287
1145.86	77.1816
1150.22	136.509
1154.58	67.3789
1158.94	99.7451
1163.29	83.1377
1167.64	214.411
1171.99	103.311
1176.34	42.9815
1180.68	62.7949
1185.03	11.0459
1189.36	30.373
1193.7	138.892
1198.03	138.786
1202.36	28.4873
1206.69	73.5557
1211.02	93.2285
1215.34	106.406
1219.66	197.316
1223.98	61.082
1228.3	184.356
1232.61	24.1953
1236.92	27.0439
1241.22	154.888
1245.53	134.488
1249.83	110.758
1254.13	82.8242
1258.43	68.3516
1262.72	105.51
1267.02	88.2598
1271.3	165.85
1275.59	58.3818
1279.88	231.673
1284.16	101.599
1288.43	64.1377
1292.71	193.288
1296.98	78.1787
1301.26	39.666
1305.52	91.8496
1309.79	136.593
1314.05	222.946
1318.31	268.493
1322.57	186.334
1326.83	134.487
1331.08	233.849
1335.33	154.5
1339.58	250.374
1343.82	213.661
1348.07	214.589
1352.31	155.05
1356.54	291.133
1360.78	88.3769
1365.01	268.101
1369.24	299.408
1373.46	250.679
1377.69	186.584
1381.91	212.586
1386.13	197.275
1390.35	243.25
1394.56	47.9355
1398.77	196.076
1402.98	255.916
1407.18	198.974
1411.39	287.754
1415.59	73.7939
1419.79	105.686
1423.98	51.7803
1428.17	149.631
1432.36	8.30371
1436.55	101.686
1440.74	239.279
1444.92	187.037
1449.1	254.838
1453.28	237.926
1457.45	290.616
1461.62	302.727
1465.79	82.5273
1469.96	31.2744
1474.12	119.635
1478.28	167.269
1482.44	204.532
1486.6	200.457
1490.75	371.462
1494.9	181.042
1499.05	195.114
1503.19	244.355
1507.34	41.1387
1511.48	245.199
1515.62	335.893
1519.75	92.3877
1523.88	38.9815
1528.02	39.3828
1532.14	116.466
1536.27	241.153
1540.39	172.961
1544.51	197.084
1548.62	273.915
1552.74	107.805
1556.85	99.5215
1560.96	58.9775
1565.07	100.403
1569.17	67.0205
1573.27	138.325
1577.37	0
