Measurement: Raman, 514 nm, ccw, Raman Data Processed
Mineral: Rhodonite
Rruff sample: R060549
Ideal chemistry: CaMn^2+^_3_Mn^2+^Si_5_O_15_
Locality: unknown
Source: Gemological Institute of America
Description: Pink cleavage fragment
Measured chemistry: (Mn_0.76_Ca_0.12_Fe_0.07_Mg_0.06_)Si_0.99_O_3_
Pin_id: L01657
Orientation: Laser parallel to -b* (0 -1 0). Fiducial mark perpendicular to laser is parallel to -c [0 0 -1]
Raman shift (cm-1)	intensity
85.663	0
90.604	2661.77
95.541	4796.1
100.477	4927.3
105.41	235.131
110.34	146.672
115.268	1046.99
120.194	420.79
125.117	858.333
130.037	1679.44
134.955	4323.45
139.871	6879.95
144.784	3748.9
149.695	1224.34
154.603	1160.35
159.509	2122.04
164.413	2729.9
169.313	1530.28
174.212	440.854
179.108	34.3953
184.001	101.567
188.892	221.54
193.781	79.376
198.667	209.1
203.55	82.9065
208.431	111.34
213.31	547.72
218.186	701.051
223.06	587.269
227.931	735.847
232.8	989.692
237.666	1709.08
242.53	2365.72
247.391	3044.06
252.25	3558.18
257.106	3040.2
261.96	2636.06
266.811	2430.01
271.66	2422.13
276.506	2653
281.35	2653.61
286.191	2399.59
291.03	3005.06
295.866	4637.96
300.7	6900.1
305.531	7783.48
310.36	6842.61
315.187	5090.84
320.011	3928.55
324.832	3840.84
329.651	4116.68
334.467	4727.12
339.281	5316.64
344.092	5532.27
348.901	5755.81
353.708	5024.74
358.511	3796.07
363.313	3128.11
368.112	2561.35
372.908	1985.22
377.702	1634.08
382.493	1567.88
387.282	2064.67
392.068	1862.98
396.852	967.82
401.633	392.85
406.412	283.82
411.188	118.558
415.962	114.328
420.733	23.6167
425.502	38.3784
430.268	118.213
435.032	51.1228
439.793	21.5979
444.552	7.52417
449.308	122.36
454.061	330.887
458.813	420.047
463.561	511.133
468.307	454.321
473.051	670.846
477.792	715.616
482.53	468.684
487.266	680.877
492	1323.34
496.73	2093.63
501.459	1583.14
506.185	1327.73
510.908	1499.36
515.629	1266.15
520.347	675.931
525.063	248.615
529.776	91.2698
534.487	90.1309
539.195	77.9172
543.9	41.9775
548.604	67.8481
553.304	133.582
558.002	307.731
562.698	263.662
567.39	487.693
572.081	644.322
576.769	663.325
581.454	297.815
586.137	34.6777
590.817	58.6523
595.495	54.3921
600.17	43.5166
604.843	128.419
609.513	205.327
614.18	365.229
618.845	440.119
623.508	701.602
628.168	953.509
632.825	1187.5
637.48	1787.1
642.132	2608.43
646.782	4127.16
651.429	6984.8
656.074	13900.4
660.716	27120.8
665.355	41336.9
669.992	54096.9
674.627	40829.9
679.259	23289.4
683.888	13691.8
688.515	7096.93
693.139	4281.4
697.761	2866.3
702.38	2306.38
706.996	2369.96
711.61	2819.28
716.222	3123.03
720.831	3179.62
725.437	2276.48
730.041	1311.39
734.642	765.71
739.241	636.398
743.837	365.921
748.431	258.587
753.022	107.384
757.61	151.985
762.196	4.62036
766.779	3.50659
771.36	23.6663
775.938	2.86328
780.514	20.9299
785.087	37.1519
789.657	40.929
794.225	39.6902
798.791	4.98364
803.353	18.9351
807.914	3.24609
812.471	25.8406
817.027	5.53735
821.579	3.38843
826.129	22.4973
830.676	33.0198
835.221	33.7461
839.764	6.27393
844.303	28.1304
848.84	21.8401
853.375	12.2856
857.907	132.499
862.436	11.3706
866.963	97.6992
871.488	97.7488
876.009	194.817
880.528	281.866
885.045	283.901
889.559	342.931
894.07	481.965
898.579	571.823
903.085	938.898
907.589	1514.56
912.09	2228.48
916.589	2417.58
921.085	1828.73
925.578	1506.95
930.069	1615.14
934.557	2377.9
939.043	3625.47
943.526	3250.91
948.006	2372.34
952.484	2413.8
956.959	3214.95
961.432	5089.05
965.902	9844.01
970.37	19345.4
974.835	30572.9
979.297	28190
983.757	22386.8
988.214	24022.6
992.669	28389.7
997.121	35191.5
1001.57	37616.9
1006.02	26685.4
1010.46	15424.3
1014.9	8369.39
1019.34	4581.75
1023.78	3098.36
1028.21	2494.23
1032.64	2261.37
1037.07	1980.82
1041.5	2067.98
1045.92	2962.05
1050.34	4026.24
1054.76	3480.24
1059.18	2260.98
1063.59	1586.16
1068	1154.15
1072.41	988.812
1076.82	705.896
1081.22	550.862
1085.62	368.142
1090.02	275.835
1094.41	255.237
1098.81	179.226
1103.19	251.833
1107.58	225.769
1111.97	270
1116.35	227.088
1120.73	164.202
1125.11	95.8149
1129.48	96.9556
1133.85	205.84
1138.22	139.879
1142.59	113.058
1146.95	85.0684
1151.31	126.137
1155.67	78.2271
1160.03	66.5933
1164.38	67.1372
1168.73	4.47656
1173.08	0.700195
1177.43	16.1406
1181.77	19.854
1186.11	60.5244
1190.45	44.4922
1194.78	26.9971
1199.12	16.1235
1203.45	52.0312
1207.77	23.5718
1212.1	30.4072
1216.42	54.0781
1220.74	55.4746
1225.06	52.5825
1229.37	10.2695
1233.68	102.79
1237.99	46.8325
1242.3	8.44775
1246.61	85.0273
1250.91	32.0571
1255.21	2.20654
1259.5	70.1675
1263.8	135.301
1268.09	54.7417
1272.38	150.478
1276.66	181.857
1280.95	112.971
1285.23	171.953
1289.51	112.327
1293.78	219.637
1298.05	152.502
1302.32	210.835
1306.59	131.617
1310.86	158.607
1315.12	172.476
1319.38	167.402
1323.64	178.128
1327.89	128.001
1332.14	149.645
1336.39	85.3066
1340.64	160.569
1344.88	236.557
1349.12	105.076
1353.36	158.922
1357.6	54.646
1361.83	33.1138
1366.07	100.355
1370.29	183.504
1374.52	176.666
1378.74	115.768
1382.96	82.1587
1387.18	84.4448
1391.4	1.27002
1395.61	71.3325
1399.82	42.2412
1404.03	45.9312
1408.23	60.2295
1412.44	13.0156
1416.64	57.9312
1420.83	103.618
1425.03	73.0581
1429.22	86.5347
1433.41	227.838
1437.6	84.0767
1441.78	77.6294
1445.96	213.37
1450.14	170.015
1454.32	146.093
1458.49	178.008
1462.66	181.22
1466.83	160.434
1471	38.4321
1475.16	120.103
1479.32	136.533
1483.48	73.3506
1487.64	126.376
1491.79	125.84
1495.94	61.4644
1500.09	78.1157
1504.23	26.8271
1508.37	2.66846
1512.51	165.65
1516.65	87.7104
1520.79	90.9258
1524.92	85.2158
1529.05	62.6611
1533.17	141.213
1537.3	121.961
1541.42	63.0264
1545.54	58.4844
1549.65	128.877
1553.77	60.8394
1557.88	133.337
1561.99	36.0698
1566.09	32.2476
1570.2	115.374
1574.3	138.199
