Measurement: Raman, 514 nm, ccw, Raman Data Processed
Mineral: Rhodonite
Rruff sample: R060549
Ideal chemistry: CaMn^2+^_3_Mn^2+^Si_5_O_15_
Locality: unknown
Source: Gemological Institute of America
Description: Pink cleavage fragment
Measured chemistry: (Mn_0.76_Ca_0.12_Fe_0.07_Mg_0.06_)Si_0.99_O_3_
Pin_id: L01642
Orientation: Laser parallel to (1 1 0). Fiducial mark perpendicular to laser is parallel to c [0 0 1]
Raman shift (cm-1)	intensity
152.15	0
157.057	310.09
161.961	1155.46
166.863	1573.52
171.763	1296.57
176.66	546.2
181.555	221.245
186.447	14.3042
191.337	26.4443
196.224	242.034
201.109	235.958
205.991	318.968
210.871	610.501
215.748	577.123
220.623	309.557
225.496	196.405
230.366	280.18
235.233	263.795
240.098	526.433
244.96	1051.09
249.82	1693.87
254.678	1952.52
259.533	1907.1
264.385	1991.59
269.236	1616.97
274.083	1176.69
278.928	776.495
283.771	545.158
288.611	294.536
293.448	166.7
298.283	323.188
303.116	260.625
307.946	198.457
312.774	411.265
317.599	1249.05
322.422	2703.8
327.242	4126.92
332.059	4890.05
336.874	5031.71
341.687	3878.98
346.497	3481.26
351.305	3172.88
356.11	2045.11
360.912	1016.89
365.712	809.16
370.51	655.873
375.305	295.002
380.098	266.531
384.888	769.445
389.675	1135.67
394.46	910.398
399.243	831.422
404.023	1349.5
408.8	2757.78
413.575	4573.26
418.348	7338.89
423.118	7752.65
427.885	4119.52
432.65	1719.47
437.413	795.484
442.173	522.574
446.93	770.618
451.685	998.445
456.437	1032.26
461.187	787.021
465.934	382.338
470.679	219.37
475.421	16.8872
480.161	125.927
484.898	53.9321
489.633	123.243
494.365	500.242
499.095	758.187
503.822	1168.15
508.547	2313.02
513.269	2351.9
517.988	989.857
522.705	249.834
527.42	84.8438
532.132	13.6074
536.841	15.3008
541.548	169.208
546.252	456.668
550.954	784.013
555.653	1635.09
560.35	1802.87
565.044	850.354
569.736	540.573
574.425	416.468
579.112	282.021
583.796	52.2207
588.477	39.9819
593.156	22.1016
597.833	23.8208
602.507	50.9575
607.178	153.513
611.847	281.622
616.513	364.589
621.177	496.103
625.838	734.954
630.497	868.604
635.153	1390.51
639.806	1987.38
644.457	3050.55
649.106	5032.39
653.752	10064.3
658.395	21001.8
663.036	33810.5
667.674	44009.7
672.31	41041.7
676.943	23621.3
681.574	13723.5
686.202	7493.28
690.827	4166.19
695.45	2587.18
700.071	1824.11
704.688	1576.85
709.304	1353.01
713.916	1310.39
718.527	1213.73
723.134	941.547
727.739	762.469
732.342	677.604
736.942	578.845
741.539	580.196
746.134	378.436
750.726	248.373
755.316	137.638
759.903	37.7046
764.488	11.9209
769.07	73.9536
773.649	66.5884
778.226	82.7534
782.801	26.3999
787.372	24.3413
791.942	2.80713
796.508	42.9346
801.072	22.792
805.634	1.29932
810.193	48.8555
814.749	81.0137
819.303	57.8091
823.854	30.9951
828.403	14.8032
832.949	1.45996
837.493	144.987
842.034	45.3687
846.572	101.575
851.108	39.7031
855.641	242.779
860.172	240.826
864.7	569.933
869.226	940.283
873.749	1961.96
878.269	3211.82
882.787	3501.8
887.302	2375.84
891.815	1701.89
896.325	1428.39
900.833	1367.09
905.338	1411.51
909.84	1553.92
914.34	1868.51
918.837	1452.13
923.332	1316.82
927.824	1521.78
932.313	2191.06
936.8	4191.22
941.285	5303.93
945.766	3543.01
950.246	2313.72
954.722	2405.47
959.196	3587.93
963.668	6406.2
968.136	13224.3
972.603	24374.4
977.066	28812.5
981.528	21372.1
985.986	18427.6
990.442	17795.5
994.895	18048.9
999.346	19186.6
1003.79	17709.7
1008.24	14026.7
1012.68	9473.57
1017.12	5832.84
1021.56	4460.92
1026	4199.48
1030.43	3905.74
1034.86	4152.39
1039.29	5314.82
1043.71	5375.19
1048.13	4224.11
1052.55	2734.48
1056.97	1619.03
1061.38	928.959
1065.8	653.037
1070.21	334.37
1074.61	320.806
1079.02	275.685
1083.42	190.048
1087.82	163.347
1092.21	109.383
1096.61	144.987
1101	149.607
1105.39	157.001
1109.78	88.3735
1114.16	51.248
1118.54	212.445
1122.92	93.2627
1127.29	85.146
1131.67	60.8799
1136.04	9.00098
1140.4	68.5483
1144.77	0.182129
1149.13	4.62842
1153.49	48.8389
1157.85	53.3789
1162.2	43.186
1166.56	111.997
1170.91	30.7417
1175.25	7.75879
1179.6	28.7197
1183.94	29.1152
1188.28	59.1748
1192.62	42.6035
1196.95	40.981
1201.28	62.1924
1205.61	13.9229
1209.94	114.844
1214.26	5.01074
1218.58	23.0532
1222.9	40.3574
1227.22	58.2842
1231.53	27.7505
1235.84	35.8603
1240.15	106.648
1244.45	117.198
1248.76	31.374
1253.06	37.228
1257.36	56.8091
1261.65	84.8633
1265.94	86.4766
1270.23	208.416
1274.52	127.228
1278.8	100.137
1283.09	163.137
1287.37	82.75
1291.64	80.8892
1295.92	142.954
1300.19	140.943
1304.46	128.961
1308.72	175.963
1312.99	200.282
1317.25	210.577
1321.51	267.671
1325.76	277.028
1330.02	285.871
1334.27	274.627
1338.52	81.1699
1342.76	194.866
1347.01	165.402
1351.24	145.035
1355.48	188.417
1359.72	255.069
1363.95	146.489
1368.18	85.2197
1372.41	129.06
1376.63	215.524
1380.85	58.1982
1385.07	203.916
1389.29	118.32
1393.51	111.111
1397.72	169.442
1401.93	124.637
1406.13	118.038
1410.34	60.9092
1414.54	38.2754
1418.74	217.976
1422.93	166.954
1427.12	144.533
1431.32	141.029
1435.5	177.284
1439.69	94.4595
1443.87	69.8184
1448.05	141.713
1452.23	30.957
1456.41	264.585
1460.58	147.174
1464.75	196.623
1468.91	79.1704
1473.08	117.99
1477.24	126.576
1481.4	188.842
1485.56	132.298
1489.71	85.9448
1493.86	91.8726
1498.01	72.8516
1502.16	175.536
1506.3	132.492
1510.44	90.3315
1514.58	192.186
1518.72	142.483
1522.85	88.5723
1526.98	122.653
1531.11	135.323
1535.24	161.362
1539.36	97.0557
1543.48	121.54
1547.6	150.542
1551.71	156.125
1555.82	164.167
1559.93	65.2676
1564.04	62.7524
1568.14	160.822
1572.25	84.3018
