Measurement: Raman, 514 nm, ccw, Raman Data Processed
Mineral: Rhodonite
Rruff sample: R060549
Ideal chemistry: CaMn^2+^_3_Mn^2+^Si_5_O_15_
Locality: unknown
Source: Gemological Institute of America
Description: Pink cleavage fragment
Measured chemistry: (Mn_0.76_Ca_0.12_Fe_0.07_Mg_0.06_)Si_0.99_O_3_
Pin_id: L01131
Orientation: Laser parallel to (1 0 1). Fiducial mark perpendicular to laser is parallel to b [0 1 0]
Raman shift (cm-1)	intensity
84.51	0
89.467	792.559
94.421	1564.09
99.373	1158.03
104.322	17.1133
109.268	1022.66
114.212	3172.77
119.152	3582
124.09	2339.34
129.026	1076.62
133.958	650.824
138.888	711.727
143.815	814.245
148.739	548.621
153.661	583.725
158.58	1436.76
163.496	1852.85
168.409	1873.87
173.32	1149.32
178.228	715.508
183.133	580.749
188.035	174.613
192.935	115.737
197.832	121.245
202.727	155.665
207.618	133.215
212.507	10.2344
217.393	54.8691
222.277	66.6221
227.157	91.8838
232.035	10.082
236.911	357.55
241.783	647.567
246.653	1031.39
251.52	1364.73
256.385	1905.86
261.246	2597.53
266.105	3114.11
270.962	2318.42
275.815	1653.79
280.666	1165.58
285.514	784.84
290.36	572.943
295.203	621.576
300.043	723.724
304.88	1016.18
309.715	957.868
314.547	1058.39
319.376	1445.72
324.203	2294.91
329.027	2478.86
333.848	2301.84
338.667	2242.88
343.482	1620.74
348.296	1399.15
353.106	1050.71
357.914	811.379
362.719	693.981
367.521	588.372
372.321	546.664
377.118	331.386
381.912	394.21
386.704	901.964
391.493	978.464
396.279	789.354
401.063	432.883
405.844	436.682
410.622	607.987
415.398	882.839
420.171	1069.27
424.941	895.318
429.709	821.998
434.473	849.314
439.236	932.086
443.995	696.202
448.752	503.406
453.506	708.105
458.258	647.054
463.007	603.5
467.753	365.799
472.497	482.292
477.238	276.313
481.976	133.301
486.712	121.272
491.445	64.7852
496.175	221.097
500.902	45.2881
505.627	165.928
510.35	102.741
515.069	216.899
519.786	13.3906
524.501	20.1982
529.213	114.317
533.922	53.3096
538.628	90.3887
543.332	309.478
548.033	433.541
552.731	247.65
557.427	668.783
562.121	656.909
566.811	388.12
571.499	610.968
576.184	566.933
580.867	205.834
585.547	130.655
590.224	107.367
594.899	130.945
599.571	60.417
604.241	49.2861
608.908	92.6816
613.572	144.363
618.233	198.289
622.892	341.035
627.549	443.751
632.202	430.065
636.853	812.56
641.502	1136.51
646.148	1715.16
650.791	2717.62
655.432	4738.41
660.069	9625.01
664.705	15957.3
669.338	23508.6
673.968	20040.7
678.595	11890.2
683.22	7251.53
687.842	3842.01
692.462	2167.08
697.079	1610.25
701.694	1139.99
706.305	987.602
710.915	1134.76
715.521	1163.22
720.125	1093.91
724.727	808.171
729.325	719.878
733.922	578.014
738.515	906.082
743.106	827.169
747.695	463.965
752.28	276.833
756.864	124.698
761.444	233.581
766.022	130.895
770.598	135.312
775.17	83.5469
779.741	119.553
784.308	140.033
788.873	28.8799
793.436	152.83
797.996	178.145
802.553	9.02734
807.108	13.3857
811.66	11.9248
816.209	69.2978
820.756	84.0293
825.301	117.466
829.842	145.523
834.382	83.2207
838.918	16.6738
843.452	28.9902
847.984	74.1377
852.513	70.1133
857.039	107.986
861.563	143.863
866.084	15.6797
870.603	33.4434
875.119	319.148
879.632	374.874
884.143	276.676
888.651	115.592
893.157	157.511
897.66	368.403
902.161	443.91
906.659	534.785
911.154	893.301
915.647	913.215
920.138	865.092
924.626	737.352
929.111	651.327
933.594	1003.39
938.074	1801.14
942.551	1759.19
947.026	1024.02
951.499	1017.81
955.969	1005.21
960.436	1540.33
964.901	2996.58
969.363	6059.93
973.823	10310.2
978.28	11027.9
982.735	9290.97
987.187	9847.51
991.637	11309.9
996.084	14092.2
1000.53	16959.7
1004.97	14338.3
1009.41	8847.08
1013.85	5239.16
1018.28	3348.82
1022.71	2624.01
1027.14	1964.17
1031.57	1685.43
1035.99	1135.9
1040.41	888.645
1044.83	1088.59
1049.25	1022.03
1053.66	764.777
1058.08	658.132
1062.48	574.139
1066.89	491.97
1071.3	245.967
1075.7	506.938
1080.1	67.2373
1084.49	408.014
1088.89	200.335
1093.28	98.5098
1097.67	52.2334
1102.05	186.684
1106.44	89.6709
1110.82	321.359
1115.2	132.309
1119.57	174.719
1123.95	94.626
1128.32	1.70312
1132.69	186.898
1137.05	123.929
1141.42	263.4
1145.78	41.206
1150.14	42.6377
1154.49	103.702
1158.85	204.384
1163.2	96.1445
1167.55	148.549
1171.89	385.279
1176.24	123.494
1180.58	24.4121
1184.92	89.5371
1189.25	74.8223
1193.59	22.5215
1197.92	71.832
1202.25	82.1094
1206.57	139.277
1210.9	85.6269
1215.22	15.3535
1219.54	106.266
1223.85	139.67
1228.17	151.943
1232.48	129.707
1236.79	224.258
1241.09	85.5742
1245.4	36.6504
1249.7	256.469
1254	163.93
1258.29	274.168
1262.59	64.4102
1266.88	116.336
1271.17	78.9492
1275.45	131.199
1279.74	38.873
1284.02	167.926
1288.3	195.471
1292.58	111.191
1296.85	27.543
1301.12	151.264
1305.39	63.0117
1309.66	63.7793
1313.92	185.873
1318.18	290.033
1322.44	203.375
1326.7	53.418
1330.95	156.953
1335.2	139.244
1339.45	55.4668
1343.7	53.4531
1347.95	36.4961
1352.19	128.154
1356.43	211.381
1360.66	100.863
1364.9	92.7461
1369.13	255.688
1373.36	245.223
1377.59	300.785
1381.81	177.205
1386.04	74.8438
1390.26	237.123
1394.47	104.352
1398.69	171.805
1402.9	30.9668
1407.11	195.484
1411.32	8.02734
1415.53	118.356
1419.73	368.717
1423.93	16.248
1428.13	169.219
1432.32	97.2441
1436.52	121.789
1440.71	101.008
1444.89	252.15
1449.08	90.5078
1453.26	359.291
1457.44	334.033
1461.62	342.856
1465.8	272.926
1469.97	264.076
1474.14	232.545
1478.31	278.111
1482.48	322.758
1486.64	213.744
1490.81	119.231
1494.96	48.7285
1499.12	29.9551
1503.28	189.81
1507.43	2.80273
1511.58	174.191
1515.72	157.629
1519.87	57.8906
1524.01	111.309
1528.15	38.7227
1532.29	69.5938
1536.42	206.135
1540.55	281.656
1544.68	376.002
1548.81	203.531
1552.94	185.654
1557.06	290.418
1561.18	198.449
1565.3	55.5801
1569.41	11.2168
1573.53	149.824
1577.64	0
