Measurement: Raman, 514 nm, depolarized, Raman Data Processed
Mineral: Rhodonite
Rruff sample: R060549
Ideal chemistry: CaMn^2+^_3_Mn^2+^Si_5_O_15_
Locality: unknown
Source: Gemological Institute of America
Description: Pink cleavage fragment
Measured chemistry: (Mn_0.76_Ca_0.12_Fe_0.07_Mg_0.06_)Si_0.99_O_3_
Pin_id: L01657
Orientation: Laser parallel to -b* (0 -1 0). Fiducial mark perpendicular to laser is parallel to -c [0 0 -1]
Raman shift (cm-1)	intensity
81.956	0
86.899	888.224
91.838	2578.94
96.775	3449.72
101.71	1684.2
106.643	70.5439
111.572	945.078
116.5	1907.78
121.425	1449.79
126.347	840.305
131.267	1154.4
136.185	2735.16
141.1	3579.6
146.012	1751.43
150.922	721.497
155.83	1010.4
160.735	1832.64
165.638	1827.69
170.538	1100.49
175.436	477.39
180.331	600.589
185.224	292.507
190.115	67.8369
195.002	249.334
199.888	204.171
204.771	165.727
209.651	215.855
214.529	396.416
219.405	504.066
224.278	156.45
229.148	393.329
234.016	568.59
238.882	1057.39
243.745	1595.99
248.606	2270.19
253.464	2714.28
258.319	3540.91
263.173	4635.95
268.023	4703.09
272.871	3451.09
277.717	2905.59
282.56	2175.76
287.401	1650.53
292.239	1690.36
297.075	2451.75
301.908	3368.28
306.739	3836.13
311.567	3420.25
316.393	3267.03
321.216	3937.37
326.037	4906.06
330.855	4888.67
335.671	5084.22
340.484	4475.65
345.295	3603.13
350.103	2999.29
354.909	2281.92
359.712	1787.24
364.513	1342.17
369.311	1200.89
374.107	944.806
378.9	755.528
383.691	975.077
388.479	1318.32
393.264	1206.58
398.048	725.093
402.828	287.69
407.606	86.7285
412.382	9.18945
417.155	158.03
421.926	33.5586
426.694	110.917
431.459	228.591
436.222	329.884
440.983	433.006
445.741	206.644
450.496	106.803
455.249	225.61
460	270.457
464.748	446.08
469.493	413.066
474.236	549.898
478.977	433.678
483.714	152.997
488.45	347.709
493.183	503.702
497.913	827.437
502.641	419.422
507.366	541.395
512.088	709.289
516.809	420.13
521.526	273.954
526.241	143.762
530.954	4.38281
535.664	24.5596
540.371	218.606
545.076	513.676
549.779	290.96
554.479	347.575
559.176	692.686
563.871	413.74
568.563	422.36
573.253	693.682
577.94	591.98
582.625	74.8125
587.307	86.6797
591.987	132.736
596.664	41.5703
601.338	150.682
606.01	15.583
610.68	208.015
615.347	233.522
620.011	255.113
624.673	507.738
629.332	717.598
633.989	1120.06
638.643	1502.57
643.295	2234.41
647.944	3611.9
652.59	6394.49
657.234	13110.6
661.876	24058
666.515	36758
671.151	43956.7
675.785	27430.9
680.416	16017.7
685.045	8851.06
689.671	4656.73
694.295	3099.17
698.916	2071.55
703.534	1900.46
708.15	1988.19
712.764	2177.16
717.374	2296.19
721.983	2123.89
726.588	1433.05
731.191	998.907
735.792	919.879
740.39	846.527
744.986	671.64
749.579	441.904
754.169	171.853
758.757	224.485
763.342	131.793
767.925	4.76367
772.505	94.3301
777.082	81.5625
781.657	55.1992
786.23	79.6006
790.8	7.05469
795.367	75.0996
799.932	36.5566
804.494	46.5381
809.053	113.96
813.61	22.3848
818.165	87.8477
822.717	48.1875
827.266	73.8887
831.813	121.753
836.357	147.02
840.899	25.123
845.438	141.356
849.974	74.5303
854.508	102.455
859.04	190.068
863.568	60.3828
868.095	61.6113
872.618	103.67
877.139	169.828
881.658	331.934
886.174	323.927
890.687	190.797
895.198	528.355
899.706	422.388
904.212	655.549
908.715	922.902
913.215	1307.92
917.713	1222.8
922.208	919.224
926.701	1010.41
931.191	1212.77
935.679	1662.73
940.164	2359.5
944.646	2070.78
949.126	1706.54
953.603	1774.31
958.078	2581.63
962.55	4677.96
967.019	8669.7
971.486	17407.7
975.951	24375.2
980.413	19949.3
984.872	18368
989.328	21028.6
993.782	25022.3
998.234	31554.4
1002.68	31144.3
1007.13	19929.1
1011.57	11070.3
1016.01	6024.83
1020.45	3641.39
1024.89	2853.65
1029.32	2201.4
1033.75	1944.55
1038.18	1549.61
1042.61	1414.72
1047.03	1988.21
1051.45	2218.66
1055.87	1587.62
1060.28	1091.9
1064.69	840.537
1069.11	644.375
1073.51	502.806
1077.92	362.551
1082.32	196.183
1086.72	380.396
1091.12	157.671
1095.51	3.31152
1099.9	132.676
1104.29	159.417
1108.68	197.845
1113.06	70.6934
1117.44	182.435
1121.82	135.751
1126.2	43.4434
1130.57	72.0215
1134.94	62.4629
1139.31	37.7324
1143.68	34.7705
1148.04	28.4863
1152.4	19.2266
1156.76	82.2861
1161.12	134.978
1165.47	197.495
1169.82	121.201
1174.17	144.26
1178.51	48.0039
1182.86	128.665
1187.19	57.2119
1191.53	133.028
1195.87	159.685
1200.2	65.2422
1204.53	207.011
1208.86	193.625
1213.18	28.8789
1217.5	101.419
1221.82	137.517
1226.14	11.6621
1230.45	199.075
1234.76	132.551
1239.07	11.4443
1243.38	215.852
1247.68	31.6152
1251.98	11.29
1256.28	129.669
1260.58	193.265
1264.87	166.953
1269.16	215.542
1273.45	189.935
1277.73	221.29
1282.02	165.837
1286.3	314.274
1290.57	147.945
1294.85	12.2383
1299.12	137.725
1303.39	72.7168
1307.66	141.902
1311.92	171.865
1316.18	122.17
1320.44	269.204
1324.7	194.611
1328.95	240.019
1333.2	186.177
1337.45	195.49
1341.7	147.589
1345.94	303.595
1350.18	174.553
1354.42	261.549
1358.66	282.684
1362.89	251.69
1367.12	314.476
1371.35	183.412
1375.58	218.528
1379.8	474.08
1384.02	149.96
1388.24	133.662
1392.45	48.3369
1396.66	259.842
1400.87	61.2432
1405.08	3.63086
1409.29	136.207
1413.49	212.75
1417.69	270.148
1421.88	267.024
1426.08	226.231
1430.27	84.7842
1434.46	172.834
1438.64	242.199
1442.83	189.151
1447.01	121.136
1451.19	263.999
1455.36	243.474
1459.54	403.283
1463.71	261.467
1467.87	248.033
1472.04	202.731
1476.2	187.11
1480.36	228.376
1484.52	255.105
1488.67	117.49
1492.83	45.208
1496.98	113.934
1501.12	59.375
1505.27	169.199
1509.41	52.5215
1513.55	318.963
1517.68	250.787
1521.82	89.8984
1525.95	256.231
1530.08	180.398
1534.2	248.371
1538.33	54.043
1542.45	103.732
1546.57	39.1172
1550.68	133.078
1554.8	181.35
1558.91	14.1191
1563.01	234.441
1567.12	192.291
1571.22	213.361
1575.32	67.8242
