Measurement: Raman, 514 nm, depolarized, Raman Data Processed
Mineral: Rhodochrosite
Rruff sample: R050116
Ideal chemistry: Mn^2+^CO_3_
Locality: Wudong mine, Liubao, Guangxi Autonomous Region, China
Source: He Xin Jian
Description: Pink crystal associated with colorless quartz
Measured chemistry: (Mn_0.81_Fe_0.17_Mg_0.01_Ca_0.01_)CO_3_
Pin_id: L00524
Orientation: Laser parallel to a* (1 0 0). Fiducial mark perpendicular to laser is parallel to c [0 0 1]
Raman shift (cm-1)	intensity
47.49	0
51.717	37.434
55.942	75.512
60.165	83.91
64.386	65.588
68.604	62.828
72.82	52.138
77.034	83.29
81.246	52.565
85.455	26.926
89.663	9.371
93.868	15.837
98.07	8.451
102.271	5.685
106.469	17.989
110.665	28.589
114.859	44.077
119.05	23.515
123.24	17.893
127.427	14
131.612	29.001
135.794	40.383
139.975	46.66
144.153	30.838
148.329	38.447
152.503	79.787
156.674	75.034
160.843	112.099
165.011	171.118
169.175	240.13
173.338	432.115
177.499	910.087
181.657	1509.04
185.813	1206.98
189.967	479.899
194.119	205.807
198.268	61.7
202.415	27.632
206.561	2.613
210.703	8.619
214.844	12.519
218.983	3.951
223.119	9.982
227.253	5.11
231.385	12.533
235.515	11.231
239.643	22.156
243.768	33.162
247.891	64.394
252.012	80.402
256.131	93.065
260.248	138.568
264.363	232.57
268.475	395.518
272.585	659.857
276.693	1117.13
280.799	2143.15
284.903	3639.02
289.005	4220.6
293.104	2848.08
297.201	1437.95
301.296	782.664
305.389	455.358
309.48	299.885
313.569	219.636
317.655	174.334
321.74	127.017
325.822	97.687
329.902	94.346
333.98	77.993
338.056	47.628
342.129	53.254
346.201	42.874
350.27	36.483
354.337	53.082
358.402	21.668
362.465	7.242
366.526	16.757
370.585	38.983
374.642	8.535
378.696	20.649
382.748	13.933
386.799	19.85
390.847	2.1
394.893	5.052
398.936	19.93
402.978	1.015
407.018	11.063
411.055	9.236
415.091	6.409
419.124	3.571
423.155	0.704
427.184	4.46
431.211	18.725
435.236	6.933
439.259	12.216
443.28	5.532
447.298	22.663
451.315	8.871
455.329	0.271
459.341	14.912
463.352	23.035
467.36	20.227
471.366	12.283
475.37	23.2
479.372	32.405
483.371	43.338
487.369	41.549
491.365	36.531
495.358	52.441
499.35	43.622
503.339	63.157
507.326	79.193
511.311	44.284
515.295	54.172
519.276	41.06
523.255	39.989
527.232	39.985
531.207	53.817
535.179	51.555
539.15	45.232
543.119	37.183
547.086	38.999
551.05	30.723
555.013	30.224
558.973	40.841
562.932	34.433
566.888	25.656
570.842	38.382
574.795	9.066
578.745	21.728
582.693	11.377
586.639	11.834
590.583	5.521
594.525	10.11
598.465	13.176
602.403	16.803
606.339	6.515
610.273	6.127
614.205	1.386
618.135	7.17
622.063	10.824
625.989	7.681
629.912	28.888
633.834	9.802
637.754	9.392
641.671	7.626
645.587	19.858
649.501	8.459
653.412	14.985
657.322	24.53
661.23	9.42
665.135	6.703
669.039	17.1
672.94	30.727
676.84	7.286
680.738	0.192
684.633	23.136
688.527	31.543
692.418	22.398
696.308	30.334
700.195	45.738
704.081	59.971
707.964	140.186
711.846	290.383
715.726	925.564
719.603	1749.42
723.479	880.566
727.352	401.017
731.224	210.458
735.094	140.666
738.961	91.451
742.827	58.287
746.691	35.036
750.552	43.402
754.412	30.294
758.27	6.123
762.125	26.045
765.979	19.885
769.831	14.96
773.681	9.134
777.529	8.95
781.375	0.683
785.219	8.523
789.06	8.259
792.901	9.035
796.739	19.705
800.575	6.536
804.409	2.223
808.241	6.799
812.071	0.605
815.899	15.603
819.726	18.089
823.55	0.448
827.372	6.088
831.193	2.777
835.011	12.002
838.828	1.453
842.642	2.892
846.455	6.689
850.266	10.69
854.075	18.054
857.881	29.401
861.686	6.737
865.489	25.06
869.29	5.372
873.089	14.666
876.886	1.061
880.682	0.394
884.475	1.433
888.266	9.656
892.056	8.868
895.843	20.079
899.629	12.268
903.413	12.438
907.194	4.6
910.974	0.664
914.752	13.819
918.528	10.457
922.302	2.565
926.074	16.195
929.844	5.311
933.613	1.018
937.379	25.665
941.144	19.476
944.906	19.597
948.667	6.72
952.426	2.491
956.183	20.453
959.938	6.962
963.691	14.584
967.442	19.511
971.191	30.825
974.939	1.212
978.684	9.047
982.428	24.918
986.169	23.016
989.909	20.594
993.647	42.331
997.383	69.469
1001.12	78.634
1004.85	86.758
1008.58	93.053
1012.31	166.364
1016.03	206.697
1019.76	204.045
1023.48	239.724
1027.2	271.97
1030.92	269.106
1034.64	307.245
1038.36	340.59
1042.07	348.06
1045.78	424.394
1049.49	495.165
1053.2	617.379
1056.9	768.986
1060.61	1065.6
1064.31	1383.25
1068.01	1599.93
1071.71	2329.62
1075.41	4504.05
1079.1	14123.8
1082.79	44012.7
1086.48	33611.4
1090.17	9720.27
1093.86	3148.09
1097.55	1412.96
1101.23	778.723
1104.91	518.638
1108.59	379.396
1112.27	304.372
1115.95	244.384
1119.62	200.5
1123.3	154.092
1126.97	138.195
1130.63	110.048
1134.3	88.183
1137.97	91.339
1141.63	84.517
1145.29	102.721
1148.95	80.355
1152.61	59.606
1156.27	43.876
1159.92	33.9
1163.57	35.343
1167.22	61.663
1170.87	36.006
1174.52	31.367
1178.16	44.174
1181.81	43.357
1185.45	29.438
1189.09	31.835
1192.73	14.837
1196.36	28.7
1200	25.625
1203.63	27.281
1207.26	31.887
1210.89	31.402
1214.52	13.927
1218.14	15.461
1221.77	4.007
1225.39	2.469
1229.01	16.549
1232.62	8.612
1236.24	32.193
1239.86	12.787
1243.47	2.394
1247.08	21.014
1250.69	6.639
1254.3	22.273
1257.9	28.919
1261.5	27.572
1265.11	10.77
1268.71	23.879
1272.3	17.531
1275.9	14.193
1279.49	14.844
1283.09	14.473
1286.68	11.056
1290.27	6.41
1293.86	9.108
1297.44	18.625
1301.03	9.134
1304.61	1.38
1308.19	8.092
1311.77	2.557
1315.34	10.015
1318.92	1.905
1322.49	5.104
1326.06	0.696
1329.63	0.688
1333.2	29.114
1336.77	6.54
1340.33	15.208
1343.89	6.914
1347.46	1.361
1351.02	11.641
1354.57	13.583
1358.13	18.166
1361.68	10.428
1365.23	2.305
1368.79	5.059
1372.33	11.269
1375.88	21.761
1379.43	53.461
1382.97	59.161
1386.51	53.858
1390.05	72.451
1393.59	70.484
1397.13	114.147
1400.66	183.804
1404.19	288.946
1407.72	540.587
1411.25	835.032
1414.78	792.636
1418.31	568.619
1421.83	403.006
1425.36	278.105
1428.88	220.846
1432.39	182.891
1435.91	167.993
1439.43	160.069
1442.94	147.271
1446.45	135.985
1449.96	96.006
1453.47	70.708
1456.98	38.306
1460.48	21.771
1463.99	34.138
1467.49	22.372
1470.99	2.78
1474.49	14.593
1477.99	22.397
1481.48	33.302
1484.97	39.24
1488.46	37.265
1491.95	26.494
1495.44	4.495
1498.93	13.992
1502.41	27.668
1505.9	1.105
1509.38	43.044
1512.86	0
