Measurement: Raman, 514 nm, depolarized, Raman Data Processed
Mineral: Rhodonite
Rruff sample: R040041
Ideal chemistry: CaMn^2+^_3_Mn^2+^Si_5_O_15_
Locality: Franklin, Sussex County, New Jersey, USA
Source: University of Arizona Mineral Museum
Description: Pink prismatic crystals
Measured chemistry: (Mn_0.63_Ca_0.21_Zn_0.12_Mg_0.02_Fe_0.02_)_Î£=1_Si_1.00_O_3_
Pin_id: L00464
Orientation: Laser parallel to (1 0 1). Fiducial mark perpendicular to laser is parallel to b [0 1 0]
Raman shift (cm-1)	intensity
105.336	0
109.513	3050.8
113.688	3885.5
117.861	917.702
122.032	1772.67
126.201	3188.44
130.367	1790.61
134.532	1173.46
138.695	1734.75
142.856	1371.3
147.014	221.604
151.171	111.106
155.325	971.623
159.478	897.141
163.629	803.206
167.777	1036.24
171.924	1212.54
176.068	939.98
180.211	622.863
184.351	13.002
188.49	200.288
192.626	265.345
196.761	8.912
200.893	416.697
205.024	358.501
209.152	122.479
213.279	702.634
217.403	586.219
221.526	260.053
225.646	19.943
229.765	13.932
233.881	192.1
237.996	1022.95
242.108	1821.2
246.219	2440.8
250.328	2160.67
254.434	1720.46
258.539	2010.66
262.641	2481.26
266.742	1932.33
270.84	1514.27
274.937	1438.2
279.032	1242.62
283.125	930.825
287.215	553.544
291.304	565.873
295.391	948.373
299.476	1626.67
303.558	2105.15
307.639	2118.27
311.718	1986.88
315.795	1880.09
319.87	2139.2
323.943	2614.55
328.014	2691.36
332.083	3026.56
336.15	3081.41
340.215	3166.51
344.279	3601.81
348.34	4040.44
352.399	3286.11
356.457	3201.94
360.512	3817.53
364.565	4086.35
368.617	3703.64
372.666	2665.71
376.714	1689.4
380.76	1040.88
384.803	859.584
388.845	890.958
392.885	711.904
396.923	404.438
400.959	360.699
404.993	577.026
409.025	1233.41
413.055	2109.83
417.084	3796.3
421.11	5203.8
425.134	3485.94
429.157	1537.21
433.177	790.054
437.196	702.195
441.213	613.218
445.227	238.963
449.24	219.153
453.251	276.298
457.26	462.58
461.267	198.205
465.272	102.8
469.276	57.132
473.277	11.136
477.276	164.896
481.274	138.521
485.27	7.906
489.263	285.602
493.255	779.062
497.245	892.549
501.233	466.008
505.219	199.374
509.203	282.695
513.186	596.001
517.166	719.176
521.145	592.353
525.121	216.108
529.096	1.104
533.069	83.411
537.04	18.422
541.009	5.923
544.976	149.939
548.941	273.779
552.905	117.618
556.866	501.382
560.826	384.948
564.784	238.304
568.74	361.443
572.694	454.361
576.646	257.054
580.596	30.502
584.544	18.431
588.491	3.27
592.435	5.519
596.378	25.033
600.319	75.231
604.258	64.395
608.195	113.812
612.131	204.399
616.064	259.323
619.995	279.13
623.925	314.96
627.853	419.399
631.779	696.204
635.703	855.622
639.625	1156.6
643.546	1537.67
647.464	2212.81
651.381	3089.91
655.296	5364.81
659.209	9771.04
663.12	20353.5
667.029	34563.2
670.937	32599.1
674.842	20040.5
678.746	12646.7
682.648	8679.83
686.548	5037.28
690.447	2917.16
694.343	1897.83
698.238	1289.2
702.13	1049.97
706.021	1362.02
709.91	2133.29
713.798	2904.61
717.683	2435.63
721.567	1596.34
725.448	976.762
729.328	856.889
733.206	656.725
737.083	521.008
740.957	695.335
744.83	690.877
748.701	482.677
752.57	354.175
756.437	114.403
760.302	179.146
764.166	52.652
768.027	88.707
771.887	34.8
775.745	9.129
779.602	12.604
783.456	173.618
787.309	139.645
791.16	115.421
795.009	19.115
798.856	73.998
802.702	19.283
806.545	55.092
810.387	299.015
814.227	262.646
818.065	176.018
821.902	39.126
825.737	8.021
829.569	64.592
833.401	3.066
837.23	21.025
841.057	120.687
844.883	17.653
848.707	74.051
852.529	105.848
856.35	57.526
860.168	219.102
863.985	300.588
867.8	851.991
871.613	1673.35
875.425	1874.73
879.234	1436.1
883.042	997.416
886.848	738.685
890.653	779.953
894.455	711.312
898.256	612.897
902.055	574.777
905.852	806.979
909.648	1549.08
913.442	2261.65
917.233	1983.35
921.024	1294.23
924.812	1160.11
928.599	1119.3
932.384	1813.36
936.167	3435.41
939.948	2995.44
943.728	1565.53
947.506	1201.8
951.282	745.208
955.056	1112.85
958.829	1577.89
962.6	2742.25
966.369	4757.2
970.136	8963.18
973.902	11591.4
977.666	9512.94
981.428	8170.34
985.188	10651.4
988.947	15767.2
992.704	18836.9
996.459	16209.6
1000.21	19883.3
1003.96	22385
1007.71	15329.2
1011.46	9383.36
1015.21	6688.05
1018.95	5543.22
1022.7	4804.9
1026.44	4316.13
1030.18	3821.8
1033.91	3587.43
1037.65	3153.66
1041.39	3530.08
1045.12	4265.9
1048.85	5143.16
1052.58	4645.59
1056.31	2876.6
1060.03	1822.94
1063.76	1071.13
1067.48	987.145
1071.2	913.527
1074.92	429.996
1078.63	516.303
1082.35	582.947
1086.06	480.342
1089.78	437.523
1093.49	554.482
1097.19	241.291
1100.9	78.801
1104.61	43.312
1108.31	234.094
1112.01	372.59
1115.71	370.387
1119.41	519.285
1123.11	490.689
1126.8	18.666
1130.5	46.834
1134.19	14.91
1137.88	212.674
1141.57	251.283
1145.25	191.816
1148.94	50.238
1152.62	180.059
1156.3	127.832
1159.98	166.605
1163.66	233.213
1167.34	37.666
1171.01	309.977
1174.68	147.184
1178.36	183.889
1182.02	61.064
1185.69	2.613
1189.36	96.887
1193.02	67.541
1196.69	381.129
1200.35	254.096
1204.01	296.326
1207.66	178.051
1211.32	89.178
1214.98	31.277
1218.63	44.012
1222.28	143.918
1225.93	243.973
1229.58	474.146
1233.22	654.463
1236.87	353.639
1240.51	271.105
1244.15	131.539
1247.79	101.891
1251.43	339.674
1255.07	369.93
1258.7	480.334
1262.33	760.596
1265.96	596.355
1269.59	449.121
1273.22	276.389
1276.85	362.275
1280.47	387.049
1284.1	52.113
1287.72	262.418
1291.34	375.68
1294.95	290.396
1298.57	380.182
1302.19	373.123
1305.8	192.908
1309.41	135.631
1313.02	129.125
1316.63	336.953
1320.23	464.17
1323.84	630.135
1327.44	778.176
1331.05	613.537
1334.64	380.303
1338.24	271.645
1341.84	230.943
1345.43	224.951
1349.03	81.059
1352.62	199.582
1356.21	414.734
1359.8	905.24
