Measurement: Raman, 514 nm, depolarized, Raman Data Processed
Mineral: Rhodizite
Rruff sample: R050099
Ideal chemistry: KAl_4_Be_5_B_11_O_28_
Locality: Mont Ibity, Antsirabe, Madagascar
Source: Rock Currier
Description: Pale green single crystals
Measured chemistry: ([box]_0.49_K_0.32_Rb_0.17_Na_0.02_)(Al_3.96_Si_0.04_)_Σ=4_Be_4.00_(B_11.45_Be_0.55_)_Σ=12_O_28_
Pin_id: L00516
Orientation: Laser parallel to a* (1 0 0). Fiducial mark perpendicular to laser is parallel to b [0 1 0]
Raman shift (cm-1)	intensity
106.604	0
110.777	118.685
114.949	477.471
119.119	658.412
123.286	288.805
127.452	227.243
131.615	366.339
135.777	337.615
139.937	445.678
144.094	308.828
148.25	495.262
152.403	541.717
156.555	330.354
160.705	475.197
164.853	310.679
168.998	246.754
173.142	339.798
177.284	301.016
181.424	451.461
185.562	180.317
189.698	222.744
193.831	211.288
197.963	203.698
202.093	206.017
206.221	194.301
210.347	275.998
214.472	140.728
218.594	0.925
222.714	244.798
226.832	223.272
230.948	22.561
235.063	72.738
239.175	251.043
243.286	84.096
247.394	96.461
251.501	152.061
255.605	165.47
259.708	102.842
263.808	97.255
267.907	31.96
272.004	88.54
276.099	3.222
280.192	36.728
284.283	258.461
288.372	563.081
292.459	678.039
296.544	1667.24
300.627	1554.63
304.709	709.067
308.788	318.724
312.865	124.424
316.941	195.119
321.015	105.682
325.086	95.021
329.156	95.053
333.224	27.46
337.29	37.602
341.354	2.611
345.416	225.906
349.476	331.281
353.534	261.891
357.591	138.002
361.645	333.41
365.698	299.506
369.748	250.963
373.797	210.375
377.844	166.27
381.889	247.824
385.932	391.096
389.973	319.326
394.012	274.469
398.049	554.346
402.084	928.029
406.118	955.65
410.15	1049
414.179	1562.23
418.207	2518.76
422.233	4536.77
426.257	9173.02
430.279	16487.1
434.299	13900.8
438.318	6114.97
442.334	3034.16
446.349	2081.76
450.361	2016.33
454.372	2427.75
458.381	3640.88
462.388	7151.98
466.394	15418
470.397	22573.3
474.398	17372
478.398	9636.3
482.396	5834.74
486.391	3156.8
490.385	1509.75
494.377	764.332
498.368	679.68
502.356	711.713
506.342	463.748
510.327	261.107
514.31	484.168
518.291	709.898
522.27	595.316
526.247	351.107
530.222	448.863
534.196	442.766
538.167	700.332
542.137	958.242
546.105	1306.96
550.071	934.836
554.035	675.871
557.998	526.586
561.958	117.963
565.917	156.646
569.874	270.533
573.829	227.072
577.782	175.945
581.733	153.096
585.683	37.449
589.63	407.867
593.576	316.689
597.52	118.723
601.462	142.736
605.402	174.439
609.341	317.783
613.277	175.592
617.212	54.879
621.145	2.273
625.076	298.146
629.006	459.609
632.933	347.479
636.859	324.027
640.783	512.344
644.705	1201.52
648.625	1946.53
652.543	2353.39
656.46	1385.06
660.375	671.809
664.288	794.248
668.199	690.807
672.108	431.592
676.016	293.84
679.921	420.25
683.825	736.555
687.727	612.34
691.628	297.67
695.526	110.77
699.423	360.422
703.318	568.379
707.211	704.141
711.102	429.619
714.992	489.734
718.879	242.5
722.765	444.031
726.649	437.824
730.532	314.768
734.412	11.834
738.291	9.344
742.168	348.301
746.043	627.564
749.916	271.738
753.788	36.912
757.658	67.725
761.526	180.893
765.392	457.307
769.257	295.121
773.119	302.881
776.98	6.736
780.839	575.045
784.697	1021.8
788.552	1549.67
792.406	1668.66
796.258	1631.6
800.108	2231.95
803.957	2192.42
807.804	2088.6
811.649	1505.17
815.492	1294.8
819.333	924.623
823.173	1147.87
827.011	1257.22
830.847	1139.81
834.681	800.32
838.514	396.732
842.345	571.943
846.174	603.164
850.001	1044.18
853.827	1069.81
857.651	911.045
861.473	536.066
865.293	549.771
869.112	821.52
872.928	1120.23
876.744	864.74
880.557	438.311
884.369	394.646
888.178	692.705
891.987	788.875
895.793	920.783
899.598	565.92
903.401	313.996
907.202	67.477
911.001	296.078
914.799	429.588
918.595	686.264
922.389	374.338
926.182	8.344
929.972	82.08
933.761	351.807
937.549	640.713
941.334	633.586
945.118	651.154
948.9	173.578
952.681	91.922
956.459	114.191
960.236	411.383
964.012	701.016
967.785	771.631
971.557	273.191
975.327	131.703
979.095	220.191
982.862	343.654
986.627	532.965
990.39	503.973
994.152	348.641
997.912	114.674
1001.67	258.324
1005.43	143.75
1009.18	713.828
1012.93	992.762
1016.68	740.611
1020.43	305.27
1024.18	178.264
1027.93	155.031
1031.67	703.777
1035.42	1255.1
1039.16	1233.44
1042.9	744.809
1046.63	610.215
1050.37	142.637
1054.11	542.102
1057.84	826.043
1061.57	1352.64
1065.3	1562.53
1069.03	1103.73
1072.75	786.055
1076.47	584.891
1080.2	609.387
1083.92	1246.94
1087.64	1543.59
1091.36	2063.57
1095.07	1288.13
1098.79	575.176
1102.5	547.496
1106.21	337.117
1109.92	741.164
1113.62	1243.66
1117.33	1192.19
1121.04	1005.66
1124.74	693.789
1128.44	346.402
1132.14	381.473
1135.83	445.289
1139.53	764.199
1143.22	1818.38
1146.92	1233.44
1150.61	987.57
1154.3	502.516
1157.98	563.867
1161.67	324.426
1165.35	875.656
1169.04	1074.04
1172.72	1439.46
1176.4	1405.02
1180.07	1385.73
1183.75	489.602
1187.42	225.648
1191.1	913.188
1194.77	1652.25
1198.44	2091.77
1202.1	2549.82
1205.77	2644.45
1209.43	2913.39
1213.1	2686.48
1216.76	2600.63
1220.42	3051.09
1224.07	3375.14
1227.73	4062.17
1231.38	4194.52
1235.04	4686.57
1238.69	3506.62
1242.34	2752.41
1245.99	1812.43
1249.63	1815.74
1253.28	1764.48
1256.92	2247.79
1260.56	1794.84
1264.2	1998.08
1267.84	1730.66
1271.48	1064.37
1275.11	187.629
1278.74	285.035
1282.38	384.414
1286.01	533
1289.63	1331.5
1293.26	1266.06
1296.89	1420.96
1300.51	1133.58
1304.13	343.512
1307.75	2.699
