Measurement: Raman, 514 nm, ccw, Raman Data Processed
Mineral: Rhodonite
Rruff sample: R060549
Ideal chemistry: CaMn^2+^_3_Mn^2+^Si_5_O_15_
Locality: unknown
Source: Gemological Institute of America
Description: Pink cleavage fragment
Measured chemistry: (Mn_0.76_Ca_0.12_Fe_0.07_Mg_0.06_)Si_0.99_O_3_
Pin_id: L00779
Orientation: Laser parallel to (0 1 1). Fiducial mark perpendicular to laser is parallel to a [1 0 0]
Raman shift (cm-1)	intensity
80.912	0
85.863	209.806
90.812	1236.26
95.759	3053.44
100.703	3447.9
105.644	2188.54
110.583	6712.34
115.52	9918.52
120.453	7503.22
125.385	5252.53
130.313	3286.84
135.239	2162.19
140.163	1375.19
145.084	375.049
150.002	39.9629
154.918	429.66
159.832	1212.05
164.742	1909.26
169.651	1988
174.556	750.395
179.459	326.397
184.36	45.1401
189.258	195.532
194.153	118.795
199.046	10.0156
203.936	186.678
208.824	119.194
213.709	211.481
218.592	109.831
223.472	109.671
228.349	118.453
233.224	34.1377
238.096	339.209
242.966	613.582
247.833	1259.86
252.698	1760.23
257.56	1919.87
262.419	2245.17
267.276	2211.98
272.13	1433.17
276.982	918.651
281.831	649.017
286.677	348.904
291.521	29.7544
296.363	80.7124
301.202	158.688
306.038	21.7012
310.872	58.7969
315.703	182.915
320.531	1136.94
325.357	2569.8
330.181	3626.84
335.001	4497.75
339.82	3984.23
344.635	3174.21
349.448	3388.21
354.259	2734.71
359.067	1422.64
363.872	714.93
368.675	574.533
373.475	372.459
378.272	175.125
383.067	513.471
387.86	993.26
392.649	936.546
397.437	546.555
402.221	597.565
407.003	1388.85
411.783	2505.37
416.56	4237.09
421.334	6079.99
426.106	4307.04
430.875	1987.24
435.641	795.558
440.405	578.282
445.167	513.765
449.925	883.34
454.681	1062.9
459.435	933.003
464.186	510.466
468.934	266.271
473.68	43.5312
478.423	115.484
483.164	148.365
487.902	145.679
492.637	121.856
497.37	466.222
502.1	550.547
506.828	1384.84
511.553	2092
516.276	1373.98
520.995	490.82
525.713	125.43
530.427	19.25
535.139	7.71875
539.849	242.141
544.556	550.661
549.26	760.907
553.962	1528.86
558.661	2435.52
563.357	1640.88
568.051	819.857
572.742	531.378
577.431	435.43
582.117	258.003
586.801	134.056
591.481	86.4253
596.16	96.9609
600.835	194.743
605.508	210.898
610.179	340.472
614.847	484.562
619.512	608.606
624.175	654.175
628.835	933.545
633.492	1278.51
638.147	1793.59
642.799	2626
647.449	4225.1
652.096	7527.14
656.74	15622
661.382	30098.1
666.021	41904.7
670.658	50020.7
675.292	35575.4
679.923	19750.2
684.552	11142.6
689.178	5937.72
693.802	3593.8
698.423	2439.59
703.041	1748.04
707.657	1537.54
712.27	1520.57
716.881	1411.92
721.489	1166.8
726.094	959.618
730.697	680.163
735.297	700.051
739.894	787.956
744.489	530.881
749.081	404.225
753.671	204.216
758.258	139.121
762.842	123.323
767.424	14.0625
772.003	67.0181
776.58	21.458
781.154	15.2505
785.725	1.31592
790.294	10.9033
794.86	27.9951
799.424	15.6016
803.985	7.74561
808.543	39.4551
813.099	11.8906
817.652	25.6924
822.202	48.8262
826.75	15.6133
831.295	82.2456
835.838	23.6001
840.378	7.23438
844.915	87.9331
849.45	75.0293
853.982	71.0747
858.512	118.089
863.039	312.125
867.563	529.268
872.085	1036.62
876.604	2238.1
881.12	3085.67
885.634	2501.32
890.145	1939.05
894.654	1566.87
899.16	1470.68
903.663	1505.49
908.164	1767.98
912.662	2046.08
917.158	1940.11
921.651	1653.87
926.141	1539.75
930.628	1939.86
935.113	3524.3
939.596	5646.17
944.076	4838.55
948.553	2865.97
953.027	2586.14
957.499	3187.86
961.969	5284.91
966.435	9878.47
970.899	19938.5
975.361	31445.7
979.82	27883.2
984.276	21070.9
988.73	20800.3
993.181	20534
997.629	20961
1002.08	20817
1006.52	16240.9
1010.96	11331.1
1015.4	7003.81
1019.83	4872.82
1024.26	4037.18
1028.69	3681.92
1033.12	3614.69
1037.55	4225.19
1041.97	5030.05
1046.39	4486.63
1050.81	2983.43
1055.22	1920.1
1059.63	1042.01
1064.04	691.297
1068.45	588.529
1072.85	362.462
1077.25	232.909
1081.65	258.823
1086.05	114.394
1090.44	96.3262
1094.83	36.064
1099.22	167.596
1103.6	79.8281
1107.99	122.947
1112.37	112.552
1116.74	76.0649
1121.12	120.993
1125.49	98.2026
1129.86	141.419
1134.23	124.425
1138.59	115.743
1142.95	95.9473
1147.31	92.7729
1151.67	88.416
1156.02	96.5869
1160.38	2.33838
1164.72	64.6167
1169.07	28.1499
1173.41	80.3696
1177.75	12.1216
1182.09	96.0259
1186.43	1.64697
1190.76	35.1514
1195.09	20.6821
1199.42	18.5425
1203.74	20.7158
1208.07	52.1797
1212.39	50.8188
1216.7	99.9175
1221.02	53.7124
1225.33	21.0088
1229.64	69.6909
1233.95	7.95752
1238.25	99.8804
1242.55	92.5269
1246.85	33.627
1251.15	87.3462
1255.44	52.7266
1259.73	27.2329
1264.02	123.847
1268.31	71.0249
1272.59	122.154
1276.87	77.6987
1281.15	146.797
1285.42	136.602
1289.69	221.814
1293.96	129.982
1298.23	171.585
1302.5	86.8975
1306.76	122.894
1311.02	195.499
1315.27	177.106
1319.53	121.983
1323.78	217.292
1328.03	68.7607
1332.28	141.733
1336.52	115.152
1340.76	151.272
1345	131.411
1349.23	233.01
1353.47	107.134
1357.7	110.211
1361.93	167.158
1366.15	129.663
1370.37	134.302
1374.59	111.468
1378.81	87.1123
1383.03	149.667
1387.24	123.632
1391.45	116.132
1395.65	94.2568
1399.86	47.9111
1404.06	40.2739
1408.26	193.187
1412.46	41.2124
1416.65	136.404
1420.84	79.2549
1425.03	2.42773
1429.22	173.386
1433.4	5.47949
1437.58	43.9204
1441.76	111.499
1445.93	116.286
1450.11	146.175
1454.28	99.2398
1458.44	157.237
1462.61	40.3447
1466.77	73.6758
1470.93	157.378
1475.09	220.981
1479.24	51.8506
1483.39	164.74
1487.54	81.0742
1491.69	51.0977
1495.84	125.152
1499.98	97.9297
1504.12	107.18
1508.25	156.42
1512.38	11.8227
1516.52	125.1
1520.64	33.874
1524.77	150.774
1528.89	244.981
1533.01	64.5713
1537.13	125.542
1541.25	136.064
1545.36	96.9648
1549.47	153.764
1553.58	90.7192
1557.68	54.5757
1561.78	187.182
1565.88	140.059
1569.98	184.037
1574.07	109.161
