Measurement: Raman, 514 nm, depolarized, Raman Data Processed
Mineral: Rhodochrosite
Rruff sample: R040133
Ideal chemistry: Mn^2+^CO_3_
Locality: Imuris, Sonora, Mexico
Source: University of Arizona Mineral Museum
Description: Pink cleavage fragment
Measured chemistry: (Mn_0.92_Mg_0.02_Ca_0.01_)C_1.02_O_3_
Pin_id: L00122
Orientation: Laser parallel to c* (0 0 1). Fiducial mark perpendicular to laser is parallel to a [1 0 0]
Raman shift (cm-1)	intensity
50.765	0
54.966	114.598
59.164	55.309
63.36	159.874
67.554	109.523
71.747	126.883
75.937	220.887
80.125	222.787
84.311	199.161
88.496	160.13
92.678	172.058
96.858	87.146
101.036	94.813
105.212	80.106
109.387	91.794
113.559	96.058
117.729	91.56
121.897	5.67
126.063	11.916
130.228	38.981
134.39	12.815
138.55	31.724
142.709	25.623
146.865	10.131
151.019	20.896
155.171	17.168
159.322	35.394
163.47	42.55
167.617	70.162
171.761	138.15
175.904	308.167
180.044	957.375
184.183	2999.01
188.319	1800.95
192.454	409.295
196.586	174.418
200.717	71.143
204.846	17.349
208.972	0.382
213.097	29.269
217.22	18.227
221.341	17.52
225.46	36.991
229.577	21.763
233.692	52.896
237.805	64.281
241.916	90.874
246.025	99.697
250.132	129.032
254.237	97.643
258.34	129.751
262.442	162.524
266.541	183.743
270.639	188.408
274.734	255.93
278.828	404.3
282.919	776.125
287.009	1516.33
291.097	2001.64
295.183	1203.82
299.266	564.271
303.348	360.974
307.428	253.774
311.507	218.517
315.583	181.738
319.657	151.405
323.729	148.271
327.8	172.324
331.868	123.095
335.935	116.89
339.999	133.132
344.062	129.78
348.123	131.332
352.182	124.845
356.239	125.141
360.294	130.564
364.347	120.365
368.398	120.688
372.448	125.14
376.495	116.849
380.54	91.009
384.584	93.576
388.626	93.622
392.666	84.51
396.704	83.526
400.74	71.66
404.774	71
408.806	66.218
412.836	67.378
416.865	66.435
420.891	70.581
424.916	63.732
428.939	44.003
432.959	60.687
436.978	55.136
440.996	50.531
445.011	54.183
449.024	52.412
453.036	47.107
457.045	48.404
461.053	32.191
465.059	38.473
469.063	46.045
473.065	41.852
477.065	34.359
481.063	51.321
485.06	52.687
489.054	38.694
493.047	59.193
497.038	25.978
501.027	51.779
505.014	43.521
508.999	29.169
512.982	24.937
516.964	38.749
520.944	37.408
524.921	42.468
528.897	36.199
532.871	5.934
536.844	38.666
540.814	20.537
544.783	11.494
548.749	29.315
552.714	32.271
556.677	25.231
560.638	32.219
564.597	20.2
568.555	25.181
572.511	40.202
576.464	0.686
580.416	7.398
584.366	18.544
588.315	0.64
592.261	3.989
596.206	24.304
600.148	13.62
604.089	8.852
608.028	8.851
611.965	16.126
615.901	13.554
619.834	10.796
623.766	9.221
627.696	3.332
631.624	14.285
635.551	2.275
639.475	12.238
643.398	9.827
647.318	4.689
651.237	3.74
655.155	0.756
659.07	15.783
662.984	13.107
666.895	9.258
670.805	1.035
674.713	2.518
678.62	8.979
682.524	16.603
686.427	4.305
690.328	23.16
694.227	20.366
698.124	32.018
702.02	50.348
705.913	60.612
709.805	126.224
713.695	377.767
717.584	2284.56
721.47	2247.59
725.355	402.648
729.238	143.232
733.119	54.138
736.998	28.676
740.876	21.281
744.752	5.821
748.626	12.363
752.498	24.548
756.368	13.13
760.237	10.217
764.104	2.618
767.969	25.615
771.832	8.852
775.693	7.937
779.553	4.367
783.411	4.545
787.267	13.331
791.122	8.317
794.974	12.681
798.825	9.334
802.674	14.489
806.522	4.487
810.367	7.763
814.211	1.022
818.053	0.969
821.893	1.849
825.732	8.938
829.568	3.052
833.403	3.198
837.236	4.821
841.068	5.924
844.898	2.02
848.726	8.075
852.552	10.074
856.376	2.101
860.199	4.098
864.02	27.075
867.839	0.957
871.656	3.006
875.472	1.217
879.286	6.832
883.098	11.727
886.909	4.605
890.717	4.469
894.524	2.323
898.33	0.146
902.133	9.98
905.935	5.813
909.735	17.636
913.533	9.456
917.33	9.888
921.124	4.639
924.918	10.839
928.709	6.911
932.499	21.621
936.286	16.262
940.073	26.033
943.857	16.552
947.64	11.267
951.421	0.959
955.2	25.755
958.978	5.084
962.753	10.161
966.527	11.791
970.3	6.708
974.071	21.962
977.84	15.618
981.607	21.339
985.372	31.224
989.136	19.016
992.898	19.709
996.659	68.035
1000.42	57.378
1004.17	89.114
1007.93	102.023
1011.68	126.174
1015.43	131.076
1019.18	182.752
1022.93	207.328
1026.68	203.056
1030.42	217.603
1034.17	194.5
1037.91	203.016
1041.65	234.003
1045.39	278.926
1049.12	378.831
1052.86	422.936
1056.59	510.01
1060.33	556.95
1064.06	846.048
1067.78	1020.17
1071.51	1159.98
1075.23	1817.46
1078.96	3421.64
1082.68	10706.9
1086.4	54946.1
1090.12	17905.3
1093.83	4135.62
1097.55	1601.89
1101.26	879.202
1104.97	589.53
1108.68	395.307
1112.39	296.619
1116.1	225.42
1119.8	187.832
1123.5	238.133
1127.2	189.585
1130.9	111.389
1134.6	120.238
1138.3	116.741
1141.99	84.276
1145.69	71.159
1149.38	46.971
1153.07	41.557
1156.76	39.244
1160.44	32.021
1164.13	34.263
1167.81	27.649
1171.49	37.631
1175.17	36.261
1178.85	42.056
1182.52	39.373
1186.2	20.324
1189.87	21.088
1193.54	7.897
1197.21	7.039
1200.88	23.612
1204.55	21.475
1208.21	25.24
1211.88	13.132
1215.54	14.568
1219.2	30.434
1222.86	23.605
1226.51	1.561
1230.17	9.143
1233.82	23.873
1237.47	17.875
1241.12	19.683
1244.77	12.435
1248.42	22.322
1252.06	1.11
1255.71	6.879
1259.35	11.627
1262.99	7.364
1266.63	2.909
1270.26	15.819
1273.9	10.533
1277.53	5.772
1281.16	21.909
1284.8	12.573
1288.42	4.771
1292.05	3.144
1295.68	4.465
1299.3	9.052
1302.92	16.618
1306.55	11.161
1310.16	9.332
1313.78	8.329
1317.4	13.575
1321.01	19.986
1324.62	0.569
1328.24	15.822
1331.85	17.167
1335.45	1.576
1339.06	22.878
1342.66	13.061
1346.27	7.337
1349.87	18.973
1353.47	7.222
1357.07	1.429
1360.66	3.499
1364.26	31.775
1367.85	23.837
1371.44	18.883
1375.04	11.082
1378.62	25.719
1382.21	25.416
1385.8	29.091
1389.38	8.161
1392.96	11.678
1396.54	26.628
1400.12	27.374
1403.7	35.907
1407.28	39.658
1410.85	111.101
1414.42	231.218
1417.99	353.737
1421.56	159.628
1425.13	104.877
1428.7	94.501
1432.26	92.15
1435.83	72.567
1439.39	64.059
1442.95	82.881
1446.51	105.052
1450.06	91.579
1453.62	52.034
1457.17	59.084
1460.73	39.478
1464.28	32.812
1467.83	37.051
1471.37	47.268
1474.92	19.425
1478.46	19.547
1482.01	5.673
1485.55	10.856
1489.09	4.844
1492.63	7.669
1496.16	32.803
1499.7	30.813
1503.23	24.854
1506.76	32.846
1510.29	25.781
1513.82	20.077
1517.35	10.201
