Measurement: Raman, 514 nm, ccw, Raman Data Processed
Mineral: Rhodonite
Rruff sample: R060549
Ideal chemistry: CaMn^2+^_3_Mn^2+^Si_5_O_15_
Locality: unknown
Source: Gemological Institute of America
Description: Pink cleavage fragment
Measured chemistry: (Mn_0.76_Ca_0.12_Fe_0.07_Mg_0.06_)Si_0.99_O_3_
Pin_id: L01657
Orientation: Laser parallel to -b* (0 -1 0). Fiducial mark perpendicular to laser is parallel to -c [0 0 -1]
Raman shift (cm-1)	intensity
81.956	0
86.899	1071.53
91.838	2722.94
96.775	4305.65
101.71	2659.7
106.643	83.9365
111.572	807.497
116.5	1311.36
121.425	899.925
126.347	905.135
131.267	1713.92
136.185	3799.96
141.1	4636.8
146.012	1890.85
150.922	648.261
155.83	975.48
160.735	1795.46
165.638	1798.78
170.538	788.919
175.436	112.176
180.331	11.1773
185.224	127.136
190.115	33.4155
195.002	177.03
199.888	281.113
204.771	143.562
209.651	61.4429
214.529	341.608
219.405	362.161
224.278	300.556
229.148	385.463
234.016	815.588
238.882	1228.47
243.745	1743.67
248.606	2173.58
253.464	2448.44
258.319	2374.86
263.173	2448.19
268.023	2303.34
272.871	2061.78
277.717	2158.92
282.56	1831.77
287.401	1704.69
292.239	2117.07
297.075	3470.46
301.908	5022.82
306.739	5237.01
311.567	4495.31
316.393	3204.32
321.216	2838.31
326.037	3122.61
330.855	3496.74
335.671	3705.04
340.484	3817.49
345.295	3748.5
350.103	3781.57
354.909	2990.56
359.712	2269.87
364.513	1813.04
369.311	1510.03
374.107	1208.62
378.9	1036.32
383.691	1115.49
388.479	1488.61
393.264	1110.42
398.048	434.618
402.828	170.755
407.606	182.892
412.382	24.8396
417.155	14.9968
421.926	39.616
426.694	41.1721
431.459	14.5015
436.222	214.646
440.983	174.62
445.741	78.0269
450.496	115.381
455.249	219.443
460	537.742
464.748	576.127
469.493	532.169
474.236	799.357
478.977	714.502
483.714	353.049
488.45	455.756
493.183	961.767
497.913	1271.54
502.641	963.358
507.366	849.138
512.088	945.951
516.809	738.727
521.526	324.532
526.241	92.2422
530.954	45.0803
535.664	10.2651
540.371	116.335
545.076	113.938
549.779	112.456
554.479	203.809
559.176	307.547
563.871	334.728
568.563	326.233
573.253	572.985
577.94	360.183
582.625	145.065
587.307	85.9021
591.987	85.6599
596.664	77.2602
601.338	40.1777
606.01	71.74
610.68	87.5632
615.347	198.319
620.011	370.009
624.673	468.888
629.332	809.022
633.989	1042.16
638.643	1547.12
643.295	2220.42
647.944	3582.72
652.59	6335.76
657.234	13060
661.876	24084.9
666.515	35531.9
671.151	42490.8
675.785	27355.3
680.416	15835.9
685.045	8821.04
689.671	4645.65
694.295	3001.5
698.916	2039.01
703.534	1726.77
708.15	1928.58
712.764	2158.59
717.374	2394
721.983	2228.44
726.588	1515.38
731.191	846.476
735.792	639.124
740.39	521.942
744.986	409.114
749.579	234.26
754.169	99.186
758.757	75.8936
763.342	38.3784
767.925	78.6318
772.505	17.4058
777.082	140.215
781.657	51.5698
786.23	15.4673
790.8	4.17725
795.367	62.7476
799.932	3.2041
804.494	42.648
809.053	26.1113
813.61	20.7969
818.165	48.3882
822.717	42.771
827.266	17.8262
831.813	17.5859
836.357	17.1387
840.899	64.5581
845.438	66.6968
849.974	39.1865
854.508	27.0064
859.04	152.041
863.568	93.9717
868.095	111.913
872.618	169.656
877.139	224.024
881.658	294.113
886.174	335.181
890.687	240.226
895.198	369.162
899.706	613.764
904.212	794.339
908.715	1232.13
913.215	1739.49
917.713	1881.8
922.208	1415.34
926.701	1250.47
931.191	1427.78
935.679	2014.26
940.164	2841.5
944.646	2336.88
949.126	1711.21
953.603	2005.77
958.078	2759.8
962.55	4792.32
967.019	9356.62
971.486	18026.5
975.951	25592.4
980.413	20934.5
984.872	18066.4
989.328	20627.4
993.782	24757.2
998.234	29959.2
1002.68	29420.4
1007.13	18910.8
1011.57	10598.5
1016.01	5834.39
1020.45	3526.59
1024.89	2352.92
1029.32	2045.47
1033.75	1762.33
1038.18	1559.35
1042.61	1773.64
1047.03	2439.07
1051.45	2977.08
1055.87	2184.29
1060.28	1514.08
1064.69	1009.42
1069.11	798.18
1073.51	516.536
1077.92	487.606
1082.32	338.266
1086.72	254.114
1091.12	250.818
1095.51	219.238
1099.9	135.906
1104.29	116.792
1108.68	197.734
1113.06	89.1245
1117.44	102.32
1121.82	91.5332
1126.2	154.208
1130.57	113.105
1134.94	41.2847
1139.31	79.8652
1143.68	28.707
1148.04	58.8227
1152.4	47.227
1156.76	139.166
1161.12	4.90381
1165.47	48.144
1169.82	126.029
1174.17	29.3545
1178.51	7.15381
1182.86	67.9898
1187.19	34.4731
1191.53	32.2036
1195.87	26.272
1200.2	29.6768
1204.53	2.44434
1208.86	50.4624
1213.18	37.0723
1217.5	35.8359
1221.82	4.51807
1226.14	79.0312
1230.45	65.0591
1234.76	56.977
1239.07	51.418
1243.38	91.584
1247.68	49.4717
1251.98	36.0185
1256.28	144.134
1260.58	79.2349
1264.87	139.938
1269.16	126.224
1273.45	61.561
1277.73	118.26
1282.02	18.875
1286.3	170.078
1290.57	200.568
1294.85	183.114
1299.12	89.6372
1303.39	166.295
1307.66	74.0698
1311.92	249.699
1316.18	168.698
1320.44	177.25
1324.7	283.916
1328.95	242.914
1333.2	110.571
1337.45	130.811
1341.7	197.268
1345.94	169.777
1350.18	106.724
1354.42	100.27
1358.66	168.978
1362.89	141.731
1367.12	149.293
1371.35	101.413
1375.58	112.051
1379.8	180.672
1384.02	193.338
1388.24	48.2749
1392.45	108.823
1396.66	74.71
1400.87	97.8555
1405.08	100.468
1409.29	46.4634
1413.49	30.959
1417.69	117.711
1421.88	62.292
1426.08	112.557
1430.27	124.14
1434.46	161.574
1438.64	98.397
1442.83	140.996
1447.01	92.8032
1451.19	56.0161
1455.36	187.869
1459.54	94.0669
1463.71	135.705
1467.87	107.281
1472.04	211.648
1476.2	171.307
1480.36	202.035
1484.52	159.871
1488.67	147.25
1492.83	7.25977
1496.98	85.7739
1501.12	129.856
1505.27	59.0317
1509.41	102.949
1513.55	75.2227
1517.68	83.8799
1521.82	56.7163
1525.95	19.0742
1530.08	8.98877
1534.2	4.4292
1538.33	118.542
1542.45	22.9678
1546.57	100.466
1550.68	89.9888
1554.8	39.7778
1558.91	89.5781
1563.01	59.792
1567.12	49.3345
1571.22	2.89356
1575.32	92.1836
