Measurement: Raman, 514 nm, ccw, Raman Data Processed
Mineral: Rhodonite
Rruff sample: R060549
Ideal chemistry: CaMn^2+^_3_Mn^2+^Si_5_O_15_
Locality: unknown
Source: Gemological Institute of America
Description: Pink cleavage fragment
Measured chemistry: (Mn_0.76_Ca_0.12_Fe_0.07_Mg_0.06_)Si_0.99_O_3_
Pin_id: L01657
Orientation: Laser parallel to -b* (0 -1 0). Fiducial mark perpendicular to laser is parallel to -c [0 0 -1]
Raman shift (cm-1)	intensity
85.663	0
90.604	1397.45
95.541	1987.63
100.477	1012.06
105.41	136.024
110.34	672.286
115.268	2513.42
120.194	2504.22
125.117	1107.02
130.037	481.662
134.955	922.248
139.871	1512.6
144.784	1097.27
149.695	584.402
154.603	732.677
159.509	1451.23
164.413	1781.56
169.313	1322.39
174.212	809.236
179.108	922.018
184.001	692.944
188.892	252.193
193.781	31.7373
198.667	174.054
203.55	137.434
208.431	176.093
213.31	555.805
218.186	522.7
223.06	271.233
227.931	179.916
232.8	259.206
237.666	611.641
242.53	1093.16
247.391	1558.06
252.25	2476.62
257.106	3964.46
261.96	6109.57
266.811	6960.16
271.66	5086.65
276.506	3702.37
281.35	2503.78
286.191	1557.63
291.03	1081.52
295.866	970.067
300.7	1307.58
305.531	1554.84
310.36	1754.93
315.187	2454.75
320.011	3902.62
324.832	5664.52
329.651	5854.8
334.467	5509.88
339.281	4612.89
344.092	2903.52
348.901	1843.3
353.708	1180.55
358.511	850.794
363.313	595.933
368.112	497.52
372.908	474.426
377.702	429.832
382.493	413.657
387.282	882.827
392.068	1294.5
396.852	815.849
401.633	407.7
406.412	88.8294
411.188	73.2102
415.962	77.9062
420.733	27.9465
425.502	83.3479
430.268	342.213
435.032	822.723
439.793	904.044
444.552	493.284
449.308	293.489
454.061	447.894
458.813	452.86
463.561	503.642
468.307	428.213
473.051	526.547
477.792	302.855
482.53	66.5322
487.266	35.3247
492	68.1257
496.73	9.55884
501.459	17.9878
506.185	131.385
510.908	214.826
515.629	170.619
520.347	87.7317
525.063	30.6218
529.776	65.0652
534.487	14.051
539.195	299.059
543.9	693.815
548.604	603.792
553.304	655.4
558.002	1035.86
562.698	712.409
567.39	435.695
572.081	761.282
576.769	506.535
581.454	313.816
586.137	134.098
590.817	58.3464
595.495	41.4492
600.17	54.5117
604.843	71.3706
609.513	152.188
614.18	234.965
618.845	299.701
623.508	488.403
628.168	746.622
632.825	841.36
637.48	1234.92
642.132	1819.13
646.782	2802.04
651.429	4691.52
656.074	9493.25
660.716	18753
665.355	30097.4
669.992	41466.2
674.627	29514.2
679.259	16178.1
683.888	9250.27
688.515	4741.18
693.139	2839.01
697.761	2044.07
702.38	1551.99
706.996	1580.63
711.61	1731.96
716.222	1735.34
720.831	1545.46
725.437	1230.24
730.041	862.635
734.642	1017.28
739.241	1154.52
743.837	1031.39
748.431	484.096
753.022	299.694
757.61	85.0994
762.196	54.3101
766.779	100.345
771.36	65.3179
775.938	20.2441
780.514	36.04
785.087	40.3481
789.657	37.6252
794.225	43.9502
798.791	38.3088
803.353	19.6445
807.914	2.78687
812.471	5.16064
817.027	4.8186
821.579	24.7419
826.129	73.9377
830.676	45.3103
835.221	53.4153
839.764	9.76562
844.303	45.3047
848.84	22.9097
853.375	16.9854
857.907	74.9048
862.436	100.682
866.963	53.3892
871.488	193.047
876.009	178.762
880.528	228.438
885.045	327.144
889.559	259.815
894.07	259.459
898.579	355.358
903.085	424.62
907.589	572.192
912.09	782.69
916.589	858.349
921.085	850.943
925.578	789.702
930.069	821.234
934.557	1089.07
939.043	1645.5
943.526	1556.46
948.006	1405.72
952.484	1581.55
956.959	2142.95
961.432	3389.77
965.902	6499.16
970.37	13114.4
974.835	20621.9
979.297	19374.5
983.757	17075.5
988.214	19440.5
992.669	23287
997.121	29664.2
1001.57	32895.8
1006.02	23019.6
1010.46	12809.5
1014.9	6855.96
1019.34	4360.27
1023.78	3210.82
1028.21	2703.53
1032.64	1974.46
1037.07	1691.58
1041.5	1368.21
1045.92	1435.63
1050.34	1475.67
1054.76	1073.35
1059.18	881.373
1063.59	658.562
1068	498.588
1072.41	404.765
1076.82	306.302
1081.22	302.606
1085.62	335.126
1090.02	279.813
1094.41	182.626
1098.81	195.795
1103.19	180.467
1107.58	241.826
1111.97	161.598
1116.35	185.604
1120.73	86.3936
1125.11	230.045
1129.48	140.1
1133.85	117.67
1138.22	142.934
1142.59	67.5644
1146.95	148.049
1151.31	84.5684
1155.67	166.302
1160.03	51.7446
1164.38	153.149
1168.73	29.521
1173.08	71.5234
1177.43	27.71
1181.77	5.89062
1186.11	23.2236
1190.45	5.57275
1194.78	5.41894
1199.12	8.8833
1203.45	59.4526
1207.77	50.3394
1212.1	31.2593
1216.42	6.53516
1220.74	27.5571
1225.06	9.13574
1229.37	112.542
1233.68	20.5723
1237.99	21.6387
1242.3	59.4253
1246.61	120.994
1250.91	73.3667
1255.21	24.52
1259.5	140.462
1263.8	73.2271
1268.09	74.7896
1272.38	233.198
1276.66	138.239
1280.95	91.271
1285.23	29.5991
1289.51	76.8633
1293.78	73.0405
1298.05	155.054
1302.32	106.822
1306.59	73.9502
1310.86	121.535
1315.12	222.048
1319.38	155.766
1323.64	129.286
1327.89	84.7285
1332.14	45.6572
1336.39	148.07
1340.64	190.013
1344.88	107.992
1349.12	100.495
1353.36	135.166
1357.6	84.52
1361.83	23.2764
1366.07	106.83
1370.29	135.225
1374.52	82.1187
1378.74	150.055
1382.96	147.848
1387.18	68.7783
1391.4	68.4863
1395.61	141.677
1399.82	97.6387
1404.03	135.755
1408.23	0.447266
1412.44	123.881
1416.64	125.924
1420.83	116.653
1425.03	103.455
1429.22	45.5664
1433.41	23.3438
1437.6	99.1279
1441.78	165.499
1445.96	132.587
1450.14	267.123
1454.32	172.811
1458.49	290.435
1462.66	276.51
1466.83	277.84
1471	189.106
1475.16	170.362
1479.32	162.077
1483.48	114.663
1487.64	118.24
1491.79	68.7495
1495.94	165.761
1500.09	47.7036
1504.23	132.199
1508.37	154.121
1512.51	109.335
1516.65	105.699
1520.79	174.318
1524.92	18.1514
1529.05	78.3057
1533.17	146.692
1537.3	156.594
1541.42	61.6074
1545.54	141.094
1549.65	5.90088
1553.77	143.169
1557.88	193.735
1561.99	12.9053
1566.09	77.8384
1570.2	106.002
1574.3	75.4536
