Measurement: Raman, 514 nm, depolarized, Raman Data Processed
Mineral: Rhodochrosite
Rruff sample: R050019
Ideal chemistry: Mn^2+^CO_3_
Locality: Home Sweet Home mine, Colorado, USA
Source: Eugene Schlepp
Description: Pink single crystal rhombs on quartz
Measured chemistry: Mn_1.00_CO_3_
Pin_id: L00297
Orientation: Laser parallel to a* (1 0 0). Fiducial mark perpendicular to laser is parallel to c [0 0 1]
Raman shift (cm-1)	intensity
112.063	0
116.256	46.457
120.447	72.983
124.636	21.641
128.822	6.547
133.006	35.913
137.188	70.252
141.368	58.321
145.545	43.046
149.72	64.223
153.893	29.615
158.064	22.26
162.233	116.024
166.399	47.927
170.563	119.178
174.725	293.231
178.885	1028.84
183.043	2004
187.198	970.27
191.351	313.674
195.502	139.295
199.651	57.964
203.797	35.631
207.942	30.325
212.084	8.048
216.224	41.804
220.362	28.597
224.497	33.432
228.631	15.301
232.762	6.206
236.891	51.147
241.018	33.118
245.143	10.171
249.265	60.838
253.386	42.921
257.504	58.081
261.62	83.27
265.734	116.388
269.845	176.681
273.955	314.899
278.062	641.428
282.167	1819.72
286.27	3955.36
290.371	4216.14
294.47	2090.02
298.567	955.153
302.661	492.185
306.753	282.269
310.843	171.397
314.931	123.564
319.017	154.771
323.101	105.044
327.182	85.308
331.261	92.74
335.339	43.031
339.414	64.358
343.487	64.685
347.557	96.027
351.626	38.572
355.693	24.949
359.757	55.346
363.819	82.759
367.879	20.171
371.937	4.393
375.993	7.055
380.047	78.586
384.099	54.055
388.148	18.895
392.196	30.382
396.241	62.876
400.284	18.378
404.325	35.154
408.364	21.455
412.401	73.964
416.435	40.478
420.468	7.015
424.498	8.517
428.527	16.036
432.553	8.41
436.577	20.961
440.599	29.85
444.619	4.306
448.637	34.77
452.653	33.258
456.667	1.718
460.678	29.759
464.688	71.234
468.695	47.701
472.701	13.656
476.704	57.136
480.705	80.696
484.704	54.192
488.701	0.305
492.696	37.199
496.689	32.702
500.68	51.902
504.668	40.608
508.655	0.131
512.639	16.647
516.622	35.161
520.602	66.505
524.581	34.013
528.557	35.636
532.531	52.07
536.503	47.665
540.473	8.175
544.441	24.293
548.407	52.192
552.371	74.668
556.333	9.086
560.293	26.543
564.251	5.922
568.206	71.367
572.16	78.804
576.112	40.234
580.061	42.056
584.009	33.996
587.954	60.772
591.897	67.719
595.839	2.861
599.778	21.482
603.716	70.854
607.651	111.216
611.584	44.568
615.515	25.774
619.444	77.144
623.372	114.598
627.297	57.534
631.22	35.82
635.141	12.802
639.06	50.445
642.977	112.409
646.892	103.051
650.805	56.207
654.716	21.57
658.625	25.53
662.532	75.831
666.437	30.997
670.34	31.029
674.241	6.589
678.139	49.526
682.036	53.516
685.931	102.499
689.824	8.837
693.715	34.564
697.604	63.695
701.491	82.306
705.376	105.115
709.259	102.902
713.139	359.667
717.018	2290.41
720.895	1264.08
724.77	291.776
728.643	101.555
732.514	28.523
736.383	62.171
740.25	83.803
744.115	80.363
747.978	49.881
751.839	38.075
755.698	16.229
759.555	88.472
763.41	96.332
767.263	17.794
771.114	12.983
774.964	8.487
778.811	70.569
782.656	68.976
786.499	40.873
790.341	14.147
794.18	21.523
798.017	51.742
801.853	100.984
805.686	84.239
809.518	16.891
813.347	29.933
817.175	37.98
821.001	20.065
824.824	76.13
828.646	60.341
832.466	5.363
836.284	5.213
840.1	34.317
843.914	55.806
847.726	72.744
851.536	69.607
855.344	32.427
859.15	43.234
862.954	67.058
866.756	42.956
870.557	52.653
874.355	102.445
878.152	0.242
881.946	3.972
885.739	113.801
889.53	98.568
893.318	71.332
897.105	43.137
900.89	42.901
904.673	35.056
908.454	23.842
912.234	58.621
916.011	46.354
919.786	5.94
923.56	1.248
927.331	13.633
931.101	72.117
934.868	92.23
938.634	82.982
942.398	73.595
946.16	18.583
949.92	18.389
953.678	95.592
957.435	82.421
961.189	109.169
964.941	13.795
968.692	34.681
972.441	36.292
976.187	60.172
979.932	46.72
983.675	79.465
987.416	37.361
991.155	6.68
994.893	17.863
998.628	70.01
1002.36	135.68
1006.09	205.14
1009.82	175.197
1013.55	179.276
1017.28	181.388
1021	188.55
1024.72	200.953
1028.44	258.061
1032.16	287.983
1035.88	270.253
1039.59	219.735
1043.31	244.171
1047.02	332.555
1050.73	464.862
1054.43	579.442
1058.14	712.538
1061.84	1000.46
1065.54	993.7
1069.24	1125.26
1072.94	1873.88
1076.64	3662.03
1080.33	14632.8
1084.03	62576.5
1087.71	15060.3
1091.4	3251.14
1095.09	1248.15
1098.78	743.105
1102.46	503.345
1106.14	418.486
1109.82	362.2
1113.5	285.331
1117.17	183.391
1120.85	204.527
1124.52	176.555
1128.19	143.627
1131.86	200.606
1135.52	173.822
1139.19	143.614
1142.85	147.867
1146.51	46.113
1150.17	17.278
1153.83	26.456
1157.48	91.542
1161.14	128.907
1164.79	140.353
1168.44	63.965
1172.09	35.328
1175.73	65.902
1179.38	34.824
1183.02	44.333
1186.66	61.067
1190.3	65.367
1193.94	63.503
1197.58	27.929
1201.21	2.058
1204.84	13.707
1208.47	53.927
1212.1	15.833
1215.72	114.328
1219.35	131.859
1222.97	146.403
1226.59	141.016
1230.21	73.094
1233.83	117.429
1237.45	13.738
1241.06	53.831
1244.67	42.239
1248.28	152.376
1251.89	170.839
1255.5	133.932
1259.1	122.831
1262.7	50.687
1266.31	50.499
1269.9	37.25
1273.5	63.915
1277.1	93.5
1280.69	119.006
1284.29	101.399
1287.88	169.692
1291.46	104.852
1295.05	57.793
1298.64	51.617
1302.22	4.316
1305.8	79.877
1309.38	140.348
1312.96	142.863
1316.54	114.014
1320.11	131.15
1323.68	80.177
1327.25	17.083
1330.82	10.268
1334.39	21.321
1337.96	4.231
1341.52	66.798
1345.08	134.936
1348.64	92.181
1352.2	144.38
1355.76	111.376
1359.31	105.353
1362.87	46.434
1366.42	3.434
1369.97	30.837
1373.52	41.113
1377.06	113.692
1380.61	215.227
1384.15	186.229
1387.69	217.515
1391.23	179.441
1394.77	221.556
1398.3	151.665
1401.84	142.151
1405.37	403.433
1408.9	1397.21
1412.43	1333.33
1415.96	582.544
1419.48	378.353
1423.01	264.244
1426.53	298.42
1430.05	252.698
1433.57	214.387
1437.08	133.429
1440.6	122.473
1444.11	125.339
1447.62	96.058
1451.13	108.971
1454.64	147.804
1458.15	133.142
1461.65	256.322
1465.16	183.137
1468.66	231.766
1472.16	154.38
1475.65	103.76
1479.15	43.723
1482.64	30.994
1486.14	25.888
1489.63	38.462
1493.12	82.367
1496.61	104.846
1500.09	170.707
1503.58	158.974
1507.06	265.09
1510.54	103.972
