Measurement: Raman, 514 nm, ccw, Raman Data Processed
Mineral: Rhodonite
Rruff sample: R060549
Ideal chemistry: CaMn^2+^_3_Mn^2+^Si_5_O_15_
Locality: unknown
Source: Gemological Institute of America
Description: Pink cleavage fragment
Measured chemistry: (Mn_0.76_Ca_0.12_Fe_0.07_Mg_0.06_)Si_0.99_O_3_
Pin_id: L01873
Orientation: Laser parallel to c* (0 0 1). Fiducial mark perpendicular to laser is parallel to a [1 0 0]
Raman shift (cm-1)	intensity
82.03	0
86.989	274.564
91.944	1144.97
96.897	747.937
101.848	90.6987
106.795	589.298
111.74	2531.02
116.682	3355.09
121.622	2636.66
126.558	2256
131.492	2505.43
136.423	3211.64
141.352	2599.17
146.277	920.142
151.2	90.1807
156.121	123.382
161.038	455.181
165.953	669.101
170.865	529.997
175.774	140.818
180.681	1.81934
185.585	1.77686
190.486	59.9817
195.384	52.2864
200.28	63.0898
205.173	134.365
210.063	354.04
214.95	553.957
219.835	425.467
224.717	122.267
229.597	23.8943
234.473	43.353
239.347	306.164
244.218	752.847
249.087	1149.74
253.953	1180.14
258.816	978.207
263.676	982.615
268.534	836.302
273.389	470.227
278.241	387.365
283.091	217.61
287.938	117.558
292.782	40.4131
297.623	135.442
302.462	55.759
307.298	8.875
312.131	274.904
316.962	873.286
321.79	1768.93
326.615	3068.8
331.438	3740.77
336.258	4209.77
341.075	3547.02
345.889	2753.93
350.701	2341.35
355.51	1716.75
360.317	1394.22
365.12	1249.77
369.921	956.387
374.72	555.065
379.515	371.843
384.309	411.741
389.099	708.591
393.886	940.103
398.671	873.832
403.454	1222.91
408.233	2110.99
413.01	3334.07
417.785	5483.13
422.556	6470.17
427.325	4133.18
432.091	2292.16
436.855	1831.79
441.616	1286.58
446.374	681.897
451.13	576.874
455.883	457.05
460.633	412.375
465.38	303.471
470.125	270.184
474.868	300.788
479.607	190.191
484.344	45.4072
489.078	32.5698
493.81	388.382
498.539	580.107
503.265	867.766
507.989	1788.37
512.71	2040.92
517.428	1022.4
522.144	408.837
526.857	76.1904
531.567	16.5249
536.275	25.4385
540.98	208.218
545.683	302.924
550.383	340.487
555.08	484.938
559.774	660.24
564.466	464.361
569.155	535.27
573.842	688.955
578.526	454.431
583.207	83.9085
587.886	4.51611
592.562	40.3279
597.235	16.0398
601.906	1.43848
606.574	40.5903
611.24	57.114
615.903	154.339
620.563	265.577
625.221	360.258
629.876	555.215
634.528	760.81
639.178	1141.42
643.825	1780.24
648.47	2769.63
653.112	4992.49
657.751	10727.2
662.388	18448.6
667.022	25422.5
671.653	26928.7
676.282	16619.2
680.908	9604.91
685.532	5275.03
690.153	2921.72
694.771	1926.04
699.387	1340.85
704	1024.08
708.61	912.479
713.218	887.927
717.824	797.033
722.426	665.557
727.026	504.999
731.624	393.953
736.219	387.83
740.811	432.595
745.401	313.599
749.988	179.583
754.572	112.634
759.154	78.0125
763.734	52.1599
768.31	53.2073
772.884	61.9148
777.456	73.3284
782.025	36.3694
786.591	5.9436
791.155	14.6465
795.716	30.2683
800.275	0.133789
804.831	54.8752
809.384	7.03174
813.935	12.5425
818.483	8.81128
823.029	8.26977
827.572	29.5947
832.112	3.20972
836.65	23.9829
841.186	9.03198
845.718	27.9963
850.249	47.9043
854.776	42.7812
859.301	97.6404
863.824	294.522
868.344	655.633
872.861	1287.07
877.376	2207.72
881.888	2423.57
886.397	1624.56
890.904	1018.59
895.409	700.303
899.911	567.328
904.41	512.454
908.907	468.234
913.401	551.004
917.893	530.316
922.382	582.831
926.869	712.607
931.353	1122.55
935.834	2124.6
940.313	2883.34
944.789	2183.25
949.263	1432.3
953.734	1444.47
958.203	2228.68
962.669	3724.43
967.133	7700.26
971.594	14641.3
976.052	19382.8
980.508	15626.1
984.961	13955.3
989.412	14886.8
993.861	17018.6
998.306	21151.7
1002.75	21826.2
1007.19	17204.2
1011.63	11385.3
1016.06	6863.68
1020.5	4521.33
1024.93	3675.3
1029.36	3257.59
1033.78	3245.69
1038.2	3651.99
1042.62	3991.59
1047.04	3802.61
1051.46	2955.87
1055.87	1902.24
1060.28	1137.23
1064.69	839.407
1069.09	649.75
1073.5	480.875
1077.9	376.021
1082.29	274.106
1086.69	174.826
1091.08	166.262
1095.47	157.677
1099.86	96.4656
1104.24	53.7817
1108.63	104.683
1113.01	179.711
1117.38	169.985
1121.76	73.5019
1126.13	151.147
1130.5	105.499
1134.87	45.8147
1139.23	63.6011
1143.6	0.925049
1147.96	57.8281
1152.32	30.6113
1156.67	43.8726
1161.02	30.8911
1165.37	42.2148
1169.72	16.1628
1174.07	42.5142
1178.41	28.791
1182.75	0.213867
1187.08	3.46948
1191.42	52.5356
1195.75	66.6594
1200.08	0.120361
1204.41	63.0134
1208.73	49.956
1213.06	42.3044
1217.38	49.1292
1221.69	20.6216
1226.01	24.1643
1230.32	73.6409
1234.63	22.8171
1238.94	52.7068
1243.24	26.6633
1247.55	22.8294
1251.85	98.0498
1256.14	67.0332
1260.44	38.7563
1264.73	22.0857
1269.02	100.303
1273.31	55.2332
1277.6	131.009
1281.88	41.5991
1286.16	166.857
1290.44	74.7236
1294.71	98.7288
1298.98	98.3042
1303.26	144.238
1307.52	102.463
1311.79	186.198
1316.05	150.728
1320.31	123.685
1324.57	125.224
1328.83	137.578
1333.08	188.558
1337.33	194.628
1341.58	127.046
1345.82	137.177
1350.07	173
1354.31	90.5894
1358.55	187.808
1362.78	105.157
1367.02	114.407
1371.25	147.039
1375.48	89.3264
1379.7	108.276
1383.92	195.932
1388.15	94.3381
1392.37	69.0005
1396.58	86.822
1400.8	53.0798
1405.01	86.8528
1409.22	116.471
1413.42	71.9058
1417.63	36.991
1421.83	96.0305
1426.03	54.9246
1430.22	55.2935
1434.42	91.01
1438.61	79.0461
1442.8	82.7632
1446.99	132.417
1451.17	107.648
1455.35	100.643
1459.53	156.625
1463.71	53.5496
1467.89	77.7007
1472.06	16.9702
1476.23	58.4053
1480.4	113.756
1484.56	85.1189
1488.72	77.5203
1492.88	50.8494
1497.04	35.2773
1501.2	7.65088
1505.35	36.2437
1509.5	65.9495
1513.65	36.6304
1517.8	56.5801
1521.94	26.4905
1526.08	28.4912
1530.22	59.3643
1534.36	57.3738
1538.49	27.1689
1542.62	4.17456
1546.75	130.893
1550.88	53.7334
1555	221.111
1559.12	17.1355
1563.24	82.53
1567.36	8.91309
1571.47	46.1001
1575.58	0.115967
