Measurement: Raman, 514 nm, ccw, Raman Data Processed
Mineral: Rhodonite
Rruff sample: R040041
Ideal chemistry: CaMn^2+^_3_Mn^2+^Si_5_O_15_
Locality: Franklin, Sussex County, New Jersey, USA
Source: University of Arizona Mineral Museum
Description: Pink prismatic crystals
Measured chemistry: (Mn_0.63_Ca_0.21_Zn_0.12_Mg_0.02_Fe_0.02_)_Î£=1_Si_1.00_O_3_
Pin_id: L00154
Orientation: Laser parallel to (1 1 0). Fiducial mark perpendicular to laser is parallel to c [0 0 1]
Raman shift (cm-1)	intensity
90.539	0
95.465	1597.97
100.39	5134.74
105.312	6942.27
110.231	10886.5
115.148	12603.7
120.063	7023.92
124.976	7683.65
129.886	9414.75
134.794	7062.33
139.699	3604.29
144.602	2908.57
149.503	1221.72
154.401	489.438
159.297	454.894
164.191	1070.98
169.082	3670.05
173.971	7475.92
178.857	7309.62
183.741	3775.92
188.623	335.521
193.502	690.105
198.379	855.92
203.254	528.731
208.126	573.874
212.996	2320.91
217.863	3285.29
222.728	2669.76
227.59	2573.6
232.451	3401.68
237.308	6468.06
242.164	11466.6
247.017	15943.5
251.867	19242.8
256.716	22522.9
261.561	27865.4
266.405	25742.5
271.246	14728
276.084	7909.32
280.92	5656.13
285.754	4419.83
290.586	3041.64
295.415	2567.04
300.241	3095.77
305.065	3186.52
309.887	3499.66
314.706	5757.33
319.523	10146.1
324.337	13646.9
329.149	12611.1
333.959	10440.5
338.766	9692.06
343.571	9836.86
348.373	9467.56
353.173	8022.78
357.971	8505.77
362.766	12060.6
367.558	16238.5
372.348	16777.3
377.136	11162.2
381.921	6710
386.704	4879.02
391.485	3743.76
396.262	1822.92
401.038	722.025
405.811	769.356
410.582	1258.78
415.35	2124.64
420.116	2955.31
424.879	2515.7
429.64	978.285
434.398	140.139
439.154	98.4902
443.908	110.992
448.659	73.2852
453.407	80.0908
458.153	39.2832
462.897	177.502
467.638	96.1611
472.377	180.871
477.113	33.2393
481.847	94.4453
486.578	63.3516
491.307	294.654
496.034	929.486
500.757	1186.51
505.479	2655.81
510.198	5151.24
514.914	7480.8
519.629	6316.57
524.34	3653.39
529.049	1855.97
533.756	926.89
538.46	489.438
543.162	98.1416
547.861	40.5156
552.558	57.71
557.252	123.311
561.943	218.184
566.633	259.792
571.32	584.786
576.004	446.631
580.686	238.257
585.365	216.394
590.042	109.155
594.716	31.1611
599.388	38.917
604.057	243.501
608.724	303.205
613.388	700.424
618.05	1040.22
622.71	1551.27
627.366	2065.02
632.021	2818.8
636.673	4376.6
641.322	6069.45
645.969	9190.5
650.613	15055.5
655.255	28614
659.894	62274.8
664.531	123245
669.165	168450
673.797	128105
678.427	69009.8
683.053	39645.3
687.678	20619.2
692.299	10717.7
696.918	6677.33
701.535	5324.09
706.149	6274.72
710.761	9862.91
715.37	13359.5
719.977	9937.46
724.581	5211.29
729.183	3142.33
733.782	2618.95
738.378	2326.51
742.972	1850.23
747.564	1268.83
752.153	758.514
756.739	497.276
761.323	311.337
765.904	317.946
770.483	139.774
775.059	139.57
779.633	7.26269
784.204	83.5137
788.773	0.743164
793.339	21.3594
797.903	81.249
802.464	30.6904
807.023	87.1143
811.579	91.7168
816.132	84.4072
820.683	30.4258
825.231	122.022
829.777	20.8457
834.321	115.731
838.861	177.036
843.4	108.749
847.935	110.825
852.468	9.65527
856.999	68.5156
861.527	213.43
866.052	1282.3
870.575	2788.62
875.096	4642.36
879.613	4125.36
884.129	2953.28
888.641	2391.12
893.151	1925.93
897.659	1224.73
902.164	1203.82
906.666	1573.06
911.166	2184.19
915.664	3161.97
920.158	2999.64
924.651	2348.01
929.14	2208.5
933.627	3107.94
938.112	3979.65
942.594	3511.4
947.073	2965.64
951.55	3630.34
956.024	5308.26
960.496	9172.49
964.965	19815.3
969.431	43412.1
973.895	64495.6
978.357	53293.1
982.816	40230.5
987.272	47302.8
991.726	64399.8
996.177	67271.7
1000.62	72170.3
1005.07	70752.8
1009.51	41755.1
1013.96	22689.1
1018.39	15857.9
1022.83	13854.4
1027.26	13594.7
1031.69	12592.6
1036.12	11605.3
1040.55	12778.8
1044.97	17876
1049.39	20304.1
1053.81	14060.2
1058.22	6959.6
1062.63	3900.77
1067.04	2405.84
1071.45	1581.26
1075.86	1277.35
1080.26	1248.89
1084.66	976.879
1089.05	902.898
1093.45	682.106
1097.84	415.523
1102.23	475.579
1106.61	504.364
1111	622.176
1115.38	569.727
1119.76	588.89
1124.13	413.894
1128.51	288.34
1132.88	408.337
1137.25	441.397
1141.61	337.919
1145.97	267.716
1150.34	371.053
1154.69	362.804
1159.05	415.647
1163.4	250.94
1167.75	112.679
1172.1	46.3086
1176.44	16.9668
1180.79	39.999
1185.12	95.665
1189.46	162.007
1193.8	114.534
1198.13	19.5322
1202.46	45.3164
1206.78	54.6572
1211.11	152.148
1215.43	10.1045
1219.75	65.0693
1224.06	82.5225
1228.38	75.5312
1232.69	151.171
1237	107.894
1241.3	19.6934
1245.61	133.64
1249.91	248.588
1254.2	127.288
1258.5	71.0332
1262.79	180.93
1267.08	127.158
1271.37	180.094
1275.65	275.692
1279.93	273.959
1284.21	268.038
1288.49	372.306
1292.77	461.812
1297.04	470.891
1301.31	288.129
1305.57	484.737
1309.84	211.713
1314.1	357.897
1318.36	364.812
1322.61	340.419
1326.87	492.826
1331.12	424.437
1335.36	423.079
1339.61	574.599
1343.85	395.491
1348.09	363.509
1352.33	474.838
1356.56	288.254
1360.8	231.96
1365.03	323.834
1369.25	272.301
1373.48	323.796
1377.7	344.161
1381.92	282.308
1386.13	274.691
1390.35	182.137
1394.56	211.799
1398.77	85.7725
1402.97	291.38
1407.17	237.135
1411.38	317.85
1415.57	205.767
1419.77	220.75
1423.96	284.556
1428.15	146.275
1432.34	139.289
1436.52	169.978
1440.71	91.7314
1444.88	139.182
1449.06	233.423
1453.24	45.459
1457.41	267.12
1461.58	248.433
1465.74	379.043
1469.91	80.833
1474.07	367.881
1478.22	259.999
1482.38	189.288
1486.53	315.431
1490.68	7.79688
1494.83	97.1611
1498.98	88.1006
1503.12	70.2432
1507.26	71.1299
1511.39	64.3936
1515.53	33.5918
1519.66	175.128
1523.79	129.876
1527.92	173.277
1532.04	160.818
1536.16	193.464
1540.28	137.697
1544.4	30.6025
1548.51	34.4795
1552.62	55.5459
1556.73	202.712
1560.83	210.092
1564.93	252.924
1569.04	76.5303
1573.13	227.939
1577.23	6.61133
