Measurement: Raman, 514 nm, ccw, Raman Data Processed
Mineral: Rhodonite
Rruff sample: R060549
Ideal chemistry: CaMn^2+^_3_Mn^2+^Si_5_O_15_
Locality: unknown
Source: Gemological Institute of America
Description: Pink cleavage fragment
Measured chemistry: (Mn_0.76_Ca_0.12_Fe_0.07_Mg_0.06_)Si_0.99_O_3_
Pin_id: L01131
Orientation: Laser parallel to (1 0 1). Fiducial mark perpendicular to laser is parallel to b [0 1 0]
Raman shift (cm-1)	intensity
82.03	0
86.989	1295.16
91.944	3169.77
96.897	3676.49
101.848	1704.47
106.795	199.365
111.74	424.232
116.682	868.298
121.622	777.824
126.558	1084.12
131.492	2546.72
136.423	5557.85
141.352	5774.36
146.277	2415.4
151.2	1012.42
156.121	1164.44
161.038	1870.67
165.953	1847.14
170.865	1117.14
175.774	384.797
180.681	191.29
185.585	385.557
190.486	363.631
195.384	26.9707
200.28	185.375
205.173	216.486
210.063	9.69043
214.95	206.121
219.835	441.432
224.717	295.175
229.597	314.639
234.473	589.561
239.347	1090.55
244.218	1696.81
249.087	2141.66
253.953	2338.38
258.816	2018.37
263.676	1984.96
268.534	1954.03
273.389	1597.96
278.241	1756.38
283.091	1440.27
287.938	1497.69
292.782	1923.05
297.623	3069.64
302.462	4314.68
307.298	4552.4
312.131	3826.13
316.962	2888.91
321.79	2796.9
326.615	3376.35
331.438	3823.46
336.258	4705.6
341.075	4683.73
345.889	4238.35
350.701	3739.7
355.51	3061.15
360.317	2380.62
365.12	2035.19
369.921	1621.99
374.72	1136.2
379.515	909.302
384.309	777.007
389.099	1144.78
393.886	893.205
398.671	275.319
403.454	68.3433
408.233	33.811
413.01	66.8291
417.785	0.308594
422.556	106.773
427.325	25.8154
432.091	281.968
436.855	533.941
441.616	718.827
446.374	468.884
451.13	507.824
455.883	717.923
460.633	1046.98
465.38	769.722
470.125	738.157
474.868	961.875
479.607	916.441
484.344	507.192
489.078	638.771
493.81	1350.77
498.539	1728.02
503.265	1135.87
507.989	1227.93
512.71	1396.19
517.428	930.638
522.144	510.166
526.857	179.66
531.567	6.09668
536.275	136.543
540.98	35.1885
545.683	153.209
550.383	119.048
555.08	65.8486
559.774	102.936
564.466	265.338
569.155	591.442
573.842	953.052
578.526	474.354
583.207	214.607
587.886	46.7549
592.562	39.2978
597.235	38.8525
601.906	96.1006
606.574	10.127
611.24	84.4326
615.903	221.84
620.563	383.297
625.221	493.2
629.876	702.878
634.528	947
639.178	1473.96
643.825	2168.89
648.47	3299.14
653.112	6031.81
657.751	12259.4
662.388	21746.2
667.022	33370.9
671.653	37989.3
676.282	24189.9
680.908	14152.3
685.532	7844.28
690.153	4241.14
694.771	2771.35
699.387	1939.99
704	1663.75
708.61	1770.19
713.218	2192.54
717.824	2279.17
722.426	2164.92
727.026	1306.9
731.624	878.318
736.219	679.922
740.811	568.694
745.401	478.093
749.988	169.782
754.572	146.882
759.154	185.621
763.734	98.041
768.31	141.533
772.884	1.31641
777.456	24.1826
782.025	68.1025
786.591	69.3721
791.155	34.8828
795.716	57.2012
800.275	73.1543
804.831	18.084
809.384	99.5039
813.935	101.337
818.483	71.0772
823.029	36.4424
827.572	54.5312
832.112	65.1377
836.65	112.447
841.186	2.72363
845.718	39.8301
850.249	160.061
854.776	98.0381
859.301	107.788
863.824	139.387
868.344	116.925
872.861	205.56
877.376	214.273
881.888	427.984
886.397	392.636
890.904	484.124
895.409	486.514
899.911	398.592
904.41	555.756
908.907	986.506
913.401	1395.82
917.893	1366.15
922.382	1085.39
926.869	1085.96
931.353	1277.87
935.834	1888.38
940.313	2562.47
944.789	2012.07
949.263	1541.75
953.734	1823.7
958.203	2543.16
962.669	4485.57
967.133	8673.01
971.594	16974.7
976.052	23049.1
980.508	19066.2
984.961	17716.9
989.412	20571.6
993.861	25954
998.306	34035.6
1002.75	34035.5
1007.19	22768.7
1011.63	13342.4
1016.06	7248.03
1020.5	4233.8
1024.93	3010.78
1029.36	2360.98
1033.78	1962.06
1038.2	1899.85
1042.62	2036.19
1047.04	3062.74
1051.46	3904.57
1055.87	2785.8
1060.28	1946.8
1064.69	1259.77
1069.09	846.352
1073.5	698.993
1077.9	452.805
1082.29	433.92
1086.69	289.69
1091.08	418.743
1095.47	293.296
1099.86	132.065
1104.24	151.811
1108.63	133.861
1113.01	195.081
1117.38	147.336
1121.76	169.602
1126.13	31.6992
1130.5	104.324
1134.87	161.003
1139.23	96.1387
1143.6	60.1748
1147.96	19.9229
1152.32	146.959
1156.67	165.081
1161.02	75.0957
1165.37	115.633
1169.72	65.3008
1174.07	131.543
1178.41	44.8457
1182.75	40.1416
1187.08	77.4707
1191.42	6.39551
1195.75	46.4453
1200.08	17.25
1204.41	20.6133
1208.73	50.2812
1213.06	10.9307
1217.38	50.0547
1221.69	13.418
1226.01	11.7461
1230.32	205.576
1234.63	47.5566
1238.94	71.4473
1243.24	145.743
1247.55	102.403
1251.85	169.304
1256.14	38.5947
1260.44	141.492
1264.73	111.585
1269.02	241.023
1273.31	165.747
1277.6	156.602
1281.88	202.053
1286.16	257.144
1290.44	174.358
1294.71	112.404
1298.98	157.591
1303.26	104.485
1307.52	77.9482
1311.79	328.022
1316.05	322.579
1320.31	174.742
1324.57	204.468
1328.83	235.429
1333.08	268.845
1337.33	4.99805
1341.58	205.591
1345.82	106.376
1350.07	183.685
1354.31	174.436
1358.55	163.015
1362.78	54.085
1367.02	147.712
1371.25	26.2275
1375.48	285.777
1379.7	288.097
1383.92	248.32
1388.15	4.35156
1392.37	4.71094
1396.58	0.000977
1400.8	78.2227
1405.01	77.5254
1409.22	213.391
1413.42	135.121
1417.63	36.5293
1421.83	206.913
1426.03	70.3691
1430.22	53.332
1434.42	141.066
1438.61	250.048
1442.8	339.212
1446.99	281.694
1451.17	493.522
1455.35	534.122
1459.53	164.221
1463.71	239.259
1467.89	304.957
1472.06	128.665
1476.23	275.21
1480.4	145.977
1484.56	10.4121
1488.72	390.726
1492.88	57.127
1497.04	148.004
1501.2	11.7354
1505.35	84.3682
1509.5	181.806
1513.65	29.6855
1517.8	42.9453
1521.94	245.831
1526.08	186.778
1530.22	220.808
1534.36	117.069
1538.49	265.257
1542.62	192.69
1546.75	117.341
1550.88	73.0762
1555	221.532
1559.12	155.638
1563.24	120.032
1567.36	8.12305
1571.47	191.081
1575.58	152.199
