Measurement: Raman, 514 nm, depolarized, Raman Data Processed
Mineral: Rhodonite
Rruff sample: R040041
Ideal chemistry: CaMn^2+^_3_Mn^2+^Si_5_O_15_
Locality: Franklin, Sussex County, New Jersey, USA
Source: University of Arizona Mineral Museum
Description: Pink prismatic crystals
Measured chemistry: (Mn_0.63_Ca_0.21_Zn_0.12_Mg_0.02_Fe_0.02_)_Î£=1_Si_1.00_O_3_
Pin_id: L00454
Orientation: Laser parallel to -b* (0 -1 0). Fiducial mark perpendicular to laser is parallel to c [0 0 1]
Raman shift (cm-1)	intensity
102.55	0
106.729	1693.24
110.905	5803.28
115.079	3636.14
119.251	1280.88
123.422	1553.58
127.59	2674.76
131.756	3045.44
135.92	1738.05
140.082	1322.26
144.242	482.852
148.4	150.958
152.556	319.029
156.71	586.366
160.862	473.266
165.012	393.922
169.16	673.674
173.306	1110.36
177.449	1345.99
181.591	583.386
185.731	293.509
189.869	585.833
194.005	409.927
198.139	164.39
202.271	247.971
206.4	75.611
210.528	781.716
214.654	938.016
218.778	474.691
222.9	39.603
227.019	69.254
231.137	3.878
235.253	301.781
239.367	1039.58
243.479	2150.78
247.589	2782.1
251.697	2255.79
255.803	2048.66
259.906	2779.9
264.008	2850.52
268.108	1830.77
272.206	1294.54
276.302	1376.38
280.396	1312.36
284.488	977.302
288.578	484.925
292.666	155.037
296.753	13.04
300.837	46.393
304.919	171.521
308.999	582.826
313.077	1347.32
317.154	2704.05
321.228	4385.63
325.3	4970.67
329.371	5123.7
333.439	5685.12
337.506	6013.6
341.57	5422.27
345.633	5085.12
349.693	4125.13
353.752	2948.29
357.809	2711.58
361.863	2781.3
365.916	2144.74
369.967	1455.71
374.016	857.794
378.063	551.131
382.108	357.3
386.151	581.17
390.192	960.06
394.231	723.63
398.269	410.39
402.304	557.334
406.337	1302.37
410.369	2350.48
414.398	4178.68
418.426	7053.02
422.452	7039.17
426.475	3948.56
430.497	2059.67
434.517	1643.58
438.535	1541.73
442.551	972.336
446.565	510.369
450.577	376.257
454.588	496.556
458.596	432.817
462.602	43.579
466.607	114.932
470.61	70.31
474.61	335.583
478.609	373.001
482.606	186.364
486.601	1.572
490.594	193.097
494.585	408.401
498.575	350.812
502.562	264.164
506.548	643.561
510.531	1630.91
514.513	2059.26
518.493	1520.6
522.47	850.979
526.446	441.968
530.421	144.469
534.393	50.946
538.363	20.708
542.331	205.477
546.298	421.56
550.263	404.737
554.225	757.042
558.186	908.397
562.145	596.62
566.103	347.705
570.058	339.649
574.011	209.446
577.963	74.091
581.912	60.835
585.86	70.61
589.806	142.363
593.75	87.788
597.692	22.221
601.632	31.967
605.571	72.49
609.507	89.387
613.442	167.616
617.375	299.898
621.306	411.164
625.235	547.051
629.162	738.157
633.087	958.802
637.011	1405.52
640.932	1845.13
644.852	2575.51
648.77	3527.48
652.686	5773.69
656.6	10361
660.513	19814.9
664.423	37830.7
668.332	49787.2
672.239	36626.1
676.144	21222.5
680.047	13869.6
683.948	8368.93
687.848	4530.41
691.746	2852.05
695.641	2021.07
699.535	1429.51
703.427	1178.51
707.318	1088.25
711.206	1463.74
715.093	1675.97
718.978	1311.94
722.861	775.652
726.742	604.109
730.621	621.314
734.499	712.868
738.374	783.894
742.248	636.693
746.12	392.713
749.99	236.645
753.859	192.933
757.725	190.292
761.59	88.076
765.453	74.373
769.314	17.166
773.174	10.044
777.031	21.58
780.887	29.563
784.741	84.541
788.593	50.931
792.443	16.199
796.291	26.255
800.138	51.014
803.983	26.421
807.826	13.386
811.667	53.432
815.507	2.202
819.344	106.544
823.18	15.311
827.014	11.454
830.847	36.834
834.677	111.439
838.506	11.374
842.333	60.531
846.158	35.323
849.981	2.023
853.803	45.638
857.623	204.175
861.441	418.129
865.257	966.042
869.071	1719.39
872.884	2589.68
876.695	2796.97
880.504	2261.27
884.311	1847.55
888.117	1862.86
891.92	1532.29
895.722	903.96
899.523	712.932
903.321	699.181
907.118	919.633
910.913	1299.12
914.706	1516.42
918.497	1405.34
922.287	1247.34
926.075	1379.26
929.861	2069.77
933.645	3434
937.428	4518.56
941.208	2845.54
944.987	1802.79
948.765	1664.2
952.54	1804.03
956.314	2254.45
960.086	3161.52
963.856	5252.32
967.625	10479.3
971.392	18211.3
975.157	18150.7
978.92	14409.2
982.682	14768.5
986.441	19933.8
990.199	29867.4
993.956	28660.2
997.71	27074.8
1001.46	31948
1005.21	26143.1
1008.96	15318.3
1012.71	10133.6
1016.46	7889.32
1020.2	7055.1
1023.94	6831.02
1027.68	6642.28
1031.42	6271.03
1035.16	5601.28
1038.9	5722.67
1042.63	7259.48
1046.36	9343.22
1050.09	7463.33
1053.82	4293.33
1057.55	2366.15
1061.27	1440.05
1065	1000.08
1068.72	891.544
1072.44	777.916
1076.16	721.757
1079.87	644.175
1083.59	504.796
1087.3	384.491
1091.01	266.273
1094.72	266.426
1098.43	316.118
1102.14	329.036
1105.84	372.94
1109.55	279.153
1113.25	182.396
1116.94	120.159
1120.64	182.789
1124.34	260.908
1128.03	308.076
1131.73	252.857
1135.42	176.417
1139.11	111.21
1142.8	25.634
1146.48	12.819
1150.16	86.967
1153.85	140.196
1157.53	236.415
1161.21	236.748
1164.88	99.129
1168.56	54.337
1172.23	97.837
1175.91	50.059
1179.58	14.026
1183.25	81.955
1186.91	60.479
1190.58	104.506
1194.24	38.594
1197.91	53.401
1201.57	59.03
1205.23	83.773
1208.88	8.665
1212.54	107.649
1216.19	111.62
1219.85	142.778
1223.5	154.343
1227.14	58.125
1230.79	60.04
1234.44	7.989
1238.08	65.792
1241.72	61.027
1245.37	200.615
1249	195.185
1252.64	134.9
1256.28	81.325
1259.91	59.48
1263.54	98.004
1267.17	18.292
1270.8	95.346
1274.43	147.077
1278.06	162.402
1281.68	185.753
1285.3	179.903
1288.92	63.119
1292.54	86.385
1296.16	11.876
1299.78	24.763
1303.39	96.203
1307	125.104
1310.61	336.783
1314.22	259.072
1317.83	257.784
1321.44	148.02
1325.04	6.517
1328.64	56.745
1332.24	129.89
1335.85	108.137
1339.44	136.978
1343.04	288.665
1346.63	343.391
1350.23	339.232
1353.82	250.113
1357.41	198.416
1360.99	31.892
1364.58	99.455
1368.17	99.952
1371.75	79.433
1375.33	210.066
1378.91	154.867
1382.49	338.731
1386.07	366.822
1389.64	285.432
1393.21	194.617
1396.79	134.497
1400.36	106.108
1403.92	1.879
1407.49	142.712
1411.06	204.85
1414.62	354.436
1418.18	331.7
1421.74	332.724
1425.3	405.599
1428.86	111.546
1432.42	171.664
1435.97	8.586
1439.52	25.529
1443.07	64.017
1446.62	151.331
1450.17	197.764
1453.72	281.851
1457.26	308.74
1460.81	410.324
1464.35	421.428
1467.89	317.221
1471.42	265.168
1474.96	301.581
1478.49	144.274
1482.03	89.498
1485.56	83.197
1489.09	225.702
1492.62	293.012
1496.15	432.32
1499.67	460.557
1503.2	454.136
1506.72	475.818
1510.24	458.826
1513.76	305.182
1517.28	187.582
1520.79	0.122
