Measurement: Raman, 514 nm, depolarized, Raman Data Processed
Mineral: Rhodonite
Rruff sample: R060549
Ideal chemistry: CaMn^2+^_3_Mn^2+^Si_5_O_15_
Locality: unknown
Source: Gemological Institute of America
Description: Pink cleavage fragment
Measured chemistry: (Mn_0.76_Ca_0.12_Fe_0.07_Mg_0.06_)Si_0.99_O_3_
Pin_id: L01131
Orientation: Laser parallel to (1 0 1). Fiducial mark perpendicular to laser is parallel to b [0 1 0]
Raman shift (cm-1)	intensity
82.03	0
86.989	743.894
91.944	2068.8
96.897	2268.63
101.848	748.025
106.795	115.418
111.74	1290.02
116.682	2264.41
121.622	1535.71
126.558	1027.15
131.492	1291.67
136.423	2452.31
141.352	2782.89
146.277	1249.71
151.2	634.95
156.121	1060.43
161.038	1687.61
165.953	1711.2
170.865	1162.31
175.774	630.694
180.681	427.321
185.585	273.699
190.486	73.1465
195.384	137.84
200.28	201.231
205.173	137.939
210.063	264.969
214.95	19.2949
219.835	193.42
224.717	6.44336
229.597	25.5684
234.473	314.84
239.347	757.56
244.218	1094.68
249.087	1603.8
253.953	1798.11
258.816	2000.62
263.676	2659.83
268.534	2382.5
273.389	1767.53
278.241	1450.27
283.091	1155.89
287.938	699.738
292.782	939.41
297.623	1636.67
302.462	2099.46
307.298	2303.17
312.131	2021.21
316.962	1873.41
321.79	2209.71
326.615	2856.94
331.438	2985.86
336.258	3221.91
341.075	3078.55
345.889	2514.18
350.701	2385.3
355.51	1529.82
360.317	1229.86
365.12	892.581
369.921	829.57
374.72	632.908
379.515	312.131
384.309	607.576
389.099	853.775
393.886	649.562
398.671	132.871
403.454	23.0225
408.233	200.129
413.01	198.103
417.785	321.647
422.556	510.956
427.325	236.049
432.091	367.96
436.855	537.764
441.616	474.543
446.374	365.821
451.13	168.355
455.883	241.441
460.633	647.321
465.38	355.278
470.125	272.762
474.868	345.284
479.607	213.768
484.344	53.5176
489.078	267.874
493.81	431.116
498.539	526.535
503.265	455.95
507.989	361.546
512.71	447.288
517.428	419.256
522.144	91.2598
526.857	159.835
531.567	35.7764
536.275	20.8877
540.98	31.9316
545.683	237.429
550.383	120.08
555.08	244.049
559.774	394.238
564.466	371.406
569.155	549.512
573.842	832.601
578.526	255.675
583.207	376.714
587.886	124.567
592.562	137.989
597.235	95.4356
601.906	149.392
606.574	189.908
611.24	184.169
615.903	314.261
620.563	150.206
625.221	571.938
629.876	522.992
634.528	690.82
639.178	1176.48
643.825	1771.58
648.47	2593.83
653.112	4661.62
657.751	9573.76
662.388	17139
667.022	26637.5
671.653	30239.4
676.282	19009
680.908	11565.9
685.532	6292.94
690.153	3609.59
694.771	2319
699.387	1577.8
704	1379.8
708.61	1542.68
713.218	1791.54
717.824	1624.64
722.426	1496.28
727.026	1127.42
731.624	688.253
736.219	890.366
740.811	792.816
745.401	625.673
749.988	339.556
754.572	318.988
759.154	224.013
763.734	175.743
768.31	44.1221
772.884	22.1094
777.456	52.4824
782.025	120.302
786.591	154.471
791.155	85.8779
795.716	43.1406
800.275	77.8184
804.831	91.9443
809.384	66.7314
813.935	158.112
818.483	4.70117
823.029	30.0059
827.572	46.1103
832.112	1.66699
836.65	181.537
841.186	115.091
845.718	55.6592
850.249	76.1758
854.776	53.6572
859.301	58.8086
863.824	274.622
868.344	346.736
872.861	87.3516
877.376	342.838
881.888	462.277
886.397	356.705
890.904	129.041
895.409	385.309
899.911	434.272
904.41	445.029
908.907	763.186
913.401	1007.28
917.893	1009.65
922.382	955.482
926.869	738.404
931.353	993.627
935.834	1641.76
940.313	2191.19
944.789	1622.58
949.263	1135.57
953.734	1224.43
958.203	1952.3
962.669	3250.44
967.133	6240.65
971.594	12005.3
976.052	16388.8
980.508	13893.5
984.961	12903.3
989.412	15008.9
993.861	18334.7
998.306	23404.3
1002.75	23507.2
1007.19	17079.1
1011.63	10184
1016.06	5228.35
1020.5	3256.1
1024.93	2499.64
1029.36	1929.49
1033.78	1414.2
1038.2	1171.09
1042.62	1257.03
1047.04	1730.63
1051.46	1874.9
1055.87	1546.92
1060.28	1071.79
1064.69	774.99
1069.09	399.853
1073.5	448.158
1077.9	565.662
1082.29	382.068
1086.69	385.295
1091.08	352.772
1095.47	166.33
1099.86	133.457
1104.24	181.84
1108.63	187.998
1113.01	133.826
1117.38	210.223
1121.76	15.2402
1126.13	95.5606
1130.5	81.1309
1134.87	66.2012
1139.23	103.525
1143.6	90.9824
1147.96	90.293
1152.32	254.131
1156.67	166.18
1161.02	93.5352
1165.37	1.83789
1169.72	92.959
1174.07	58.293
1178.41	97.4902
1182.75	89.4375
1187.08	205.848
1191.42	49.7461
1195.75	92.0449
1200.08	54.8145
1204.41	180.59
1208.73	32.3574
1213.06	95.1445
1217.38	289.506
1221.69	42.209
1226.01	87.4356
1230.32	190.352
1234.63	96.2617
1238.94	202.5
1243.24	7.48633
1247.55	19.002
1251.85	104.088
1256.14	112.225
1260.44	73.6602
1264.73	238.728
1269.02	244.529
1273.31	140.291
1277.6	274.082
1281.88	203.848
1286.16	41.7051
1290.44	246.051
1294.71	3.36523
1298.98	119.857
1303.26	251.023
1307.52	94.9922
1311.79	229.424
1316.05	248.588
1320.31	229.162
1324.57	226.92
1328.83	165.156
1333.08	237.156
1337.33	227.81
1341.58	70.0781
1345.82	280.56
1350.07	143.594
1354.31	206.34
1358.55	60.5039
1362.78	268.043
1367.02	205.94
1371.25	293.312
1375.48	220.357
1379.7	223.498
1383.92	175.898
1388.15	313.541
1392.37	75.3633
1396.58	59.8496
1400.8	38.1738
1405.01	117.949
1409.22	16.9609
1413.42	238.787
1417.63	123.981
1421.83	117.551
1426.03	133.856
1430.22	225.363
1434.42	97.3828
1438.61	118.943
1442.8	208.432
1446.99	415.746
1451.17	84.2188
1455.35	331.324
1459.53	200.803
1463.71	71.2031
1467.89	271.106
1472.06	153.078
1476.23	329.318
1480.4	40.7168
1484.56	243.387
1488.72	113.492
1492.88	149.754
1497.04	338.031
1501.2	7.92969
1505.35	225.231
1509.5	175.01
1513.65	57.1816
1517.8	131.441
1521.94	60.6816
1526.08	106.522
1530.22	144.621
1534.36	331.435
1538.49	147.908
1542.62	215.293
1546.75	232.766
1550.88	116.022
1555	257.26
1559.12	342.234
1563.24	246.924
1567.36	293.106
1571.47	173.865
1575.58	86.0391
