Measurement: Raman, 514 nm, ccw, Raman Data Processed
Mineral: Rhodonite
Rruff sample: R060549
Ideal chemistry: CaMn^2+^_3_Mn^2+^Si_5_O_15_
Locality: unknown
Source: Gemological Institute of America
Description: Pink cleavage fragment
Measured chemistry: (Mn_0.76_Ca_0.12_Fe_0.07_Mg_0.06_)Si_0.99_O_3_
Pin_id: L01131
Orientation: Laser parallel to (1 0 1). Fiducial mark perpendicular to laser is parallel to b [0 1 0]
Raman shift (cm-1)	intensity
84.51	0
89.467	1395.66
94.421	2363.12
99.373	1027.6
104.322	107.366
109.268	1347.4
114.212	4309.21
119.152	4702.45
124.09	2660.16
129.026	773.64
133.958	344.039
138.888	342.671
143.815	346.759
148.739	350.897
153.661	1003.24
158.58	2365.76
163.496	2925.58
168.409	2930.63
173.32	1976.42
178.228	1453.19
183.133	1021.53
188.035	456.856
192.935	66.3311
197.832	90.5625
202.727	153.227
207.618	284.084
212.507	66.6289
217.393	187.004
222.277	122.227
227.157	30.6689
232.035	128.25
236.911	484.014
241.783	895.361
246.653	1579.97
251.52	2370.5
256.385	3313.79
261.246	4843.31
266.105	5692.06
270.962	4181.95
275.815	2821.82
280.666	2064.19
285.514	1416.95
290.36	754.437
295.203	740.347
300.043	697.785
304.88	853.538
309.715	1089.11
314.547	1897.21
319.376	2838.84
324.203	4331.99
329.027	4729.59
333.848	4281.1
338.667	3802.04
343.482	2730.99
348.296	1976.12
353.106	1498.72
357.914	1043.65
362.719	982.822
367.521	860.33
372.321	795.26
377.118	630.68
381.912	792.631
386.704	1248.82
391.493	1460.49
396.279	932.829
401.063	642.711
405.844	721.439
410.622	1010.33
415.398	1350.45
420.171	1793.87
424.941	1556.64
429.709	1268.78
434.473	1833.91
439.236	1936.4
443.995	1261.6
448.752	914.031
453.506	786.797
458.258	1058.2
463.007	846.865
467.753	606.495
472.497	306.242
477.238	288.987
481.976	68.249
486.712	69.791
491.445	68.0215
496.175	61.874
500.902	115.888
505.627	98.1289
510.35	189.386
515.069	70.1777
519.786	44.3897
524.501	107.132
529.213	65.4922
533.922	76.2891
538.628	303.853
543.332	947.366
548.033	839.616
552.731	718.017
557.427	1164.48
562.121	913.082
566.811	751.669
571.499	1023.43
576.184	1067.15
580.867	366.834
585.547	226.597
590.224	184.343
594.899	99.0088
599.571	11.5684
604.241	157.001
608.908	167.259
613.572	188.432
618.233	216.529
622.892	457.29
627.549	576.906
632.202	864.798
636.853	995.051
641.502	1485.27
646.148	2402.62
650.791	3754.36
655.432	7119.02
660.069	14198.5
664.705	24386.6
669.338	36543.6
673.968	30565.5
678.595	17794.7
683.22	10537.3
687.842	5484.54
692.462	3158.68
697.079	2183.64
701.694	1591.2
706.305	1488.5
710.915	1637.34
715.521	1662.97
720.125	1385.11
724.727	1111.92
729.325	957.118
733.922	1193.64
738.515	1470.62
743.106	1422.65
747.695	816.761
752.28	475.31
756.864	172.782
761.444	323.031
766.022	109.094
770.598	62.0557
775.17	78.7178
779.741	35.125
784.308	41.7432
788.873	93.8887
793.436	127.748
797.996	81.0586
802.553	40.2998
807.108	17.4287
811.66	34.8779
816.209	26.5205
820.756	87.5127
825.301	56.3223
829.842	9.18457
834.382	175.748
838.918	18.7783
843.452	132.311
847.984	32.8955
852.513	78.3359
857.039	43.6309
861.563	148.627
866.084	126.515
870.603	262.329
875.119	305.106
879.632	342.887
884.143	242.676
888.651	297.42
893.157	241.124
897.66	274.353
902.161	326.534
906.659	680.629
911.154	821.001
915.647	1020.15
920.138	751.929
924.626	631.799
929.111	840.066
933.594	1340.46
938.074	2237.15
942.551	2448.94
947.026	1595.74
951.499	1155.82
955.969	1464.86
960.436	2541.66
964.901	4279.45
969.363	8651.78
973.823	14745.8
978.28	16026.2
982.735	14106.4
987.187	15283
991.637	17518.9
996.084	22036.1
1000.53	27705.1
1004.97	23351.5
1009.41	14516.7
1013.85	8210.63
1018.28	5384.27
1022.71	4169.14
1027.14	3478.18
1031.57	2531.39
1035.99	1813.96
1040.41	1416.68
1044.83	1282.84
1049.25	1348.7
1053.66	1079.34
1058.08	880.377
1062.48	597.15
1066.89	347.034
1071.3	419.717
1075.7	365.818
1080.1	274.367
1084.49	352.933
1088.89	227.167
1093.28	296.727
1097.67	134.698
1102.05	158.195
1106.44	255.522
1110.82	181.804
1115.2	187.462
1119.57	6.29492
1123.95	165.98
1128.32	162.741
1132.69	197.272
1137.05	214.58
1141.42	4.83203
1145.78	101.981
1150.14	142.106
1154.49	75.1738
1158.85	182.18
1163.2	116.211
1167.55	2.14258
1171.89	111.844
1176.24	165.506
1180.58	10.459
1184.92	92.6348
1189.25	7.79492
1193.59	91.8086
1197.92	48.584
1202.25	83.3379
1206.57	48.8438
1210.9	48.5586
1215.22	165.82
1219.54	17.7773
1223.85	130.572
1228.17	186.012
1232.48	141.033
1236.79	98.5723
1241.09	77.4043
1245.4	131.463
1249.7	284.713
1254	79.6016
1258.29	83.9492
1262.59	272.076
1266.88	23.8867
1271.17	217.723
1275.45	217.297
1279.74	191.525
1284.02	241.328
1288.3	217.379
1292.58	128.156
1296.85	200.398
1301.12	254.627
1305.39	245.426
1309.66	186.019
1313.92	229.225
1318.18	363.26
1322.44	131.922
1326.7	197.596
1330.95	315.688
1335.2	93.1445
1339.45	251.168
1343.7	138.029
1347.95	206.211
1352.19	188.695
1356.43	179.006
1360.66	195.99
1364.9	378.137
1369.13	300.309
1373.36	105.467
1377.59	153.438
1381.81	97.1523
1386.04	185.016
1390.26	302.211
1394.47	38.3906
1398.69	136.609
1402.9	176.83
1407.11	11.0469
1411.32	196.34
1415.53	304.65
1419.73	137.664
1423.93	35.834
1428.13	332.852
1432.32	106.391
1436.52	165.147
1440.71	222.135
1444.89	229.643
1449.08	232.453
1453.26	351.211
1457.44	489.853
1461.62	379.66
1465.8	406.543
1469.97	111.769
1474.14	311.897
1478.31	193.863
1482.48	299.853
1486.64	241.853
1490.81	338.867
1494.96	225.834
1499.12	57.1523
1503.28	142.07
1507.43	301.762
1511.58	289.559
1515.72	195.381
1519.87	124.402
1524.01	106.912
1528.15	234.887
1532.29	50.3281
1536.42	218.635
1540.55	268.213
1544.68	139.397
1548.81	125.582
1552.94	291.502
1557.06	307.857
1561.18	14.3438
1565.3	281.656
1569.41	221.408
1573.53	56.4707
1577.64	0
