Measurement: Raman, 514 nm, depolarized, Raman Data Processed
Mineral: Rhodochrosite
Rruff sample: R050019
Ideal chemistry: Mn^2+^CO_3_
Locality: Home Sweet Home mine, Colorado, USA
Source: Eugene Schlepp
Description: Pink single crystal rhombs on quartz
Measured chemistry: Mn_1.00_CO_3_
Pin_id: L00392
Orientation: Laser parallel to -c* (0 0 -1). Fiducial mark perpendicular to laser is parallel to -a [-1 0 0]
Raman shift (cm-1)	intensity
100.871	0
105.07	2.881
109.267	412.973
113.461	151.194
117.653	46.277
121.843	59.47
126.031	82.737
130.217	60.399
134.4	31.35
138.581	89.393
142.76	110.023
146.937	30.089
151.112	63.414
155.284	118.969
159.454	103.73
163.622	105.405
167.787	168.066
171.951	340.987
176.112	815.344
180.271	2379.85
184.428	3067.31
188.583	1055.88
192.735	311.505
196.885	162.193
201.033	123.968
205.179	62.843
209.323	43.792
213.464	64.808
217.603	65.923
221.741	23.671
225.875	9.306
230.008	48.592
234.139	22.916
238.267	22.765
242.393	6.907
246.517	40.201
250.639	55.558
254.759	21.111
258.876	5.269
262.991	30.519
267.104	36.352
271.215	9.364
275.324	59.553
279.431	208.911
283.535	419.02
287.638	719.282
291.738	642.854
295.836	292.329
299.932	86.944
304.025	64.554
308.117	106.214
312.206	73.031
316.293	24.77
320.378	21.543
324.461	42.346
328.542	43.463
332.621	35.503
336.697	8.786
340.772	58.616
344.844	57.461
348.914	28.295
352.982	17.565
357.048	61.432
361.111	41.317
365.173	4.602
369.232	46.295
373.29	72.851
377.345	51.135
381.398	5.063
385.449	8.354
389.497	81.286
393.544	25.085
397.589	23.481
401.631	0.673
405.672	43.52
409.71	71.419
413.746	10.09
417.78	4.797
421.812	85.968
425.842	58.001
429.869	38.804
433.895	1.278
437.918	54.616
441.94	54.514
445.959	60.409
449.976	0.31
453.991	48.216
458.004	61.114
462.015	19.001
466.024	39.896
470.031	2.796
474.035	85.694
478.038	86.589
482.038	51.48
486.037	10.374
490.033	20.257
494.027	77.861
498.019	53.734
502.009	17.466
505.997	46.81
509.983	65.573
513.967	47.401
517.949	24.864
521.929	2.046
525.906	114.911
529.882	68.732
533.855	28.171
537.827	30.993
541.796	76.683
545.764	10.064
549.729	3.966
553.692	20.82
557.653	33.597
561.612	64.216
565.569	87.95
569.524	5.329
573.477	34.682
577.428	37.374
581.377	62.995
585.324	62.085
589.269	6.721
593.212	31.101
597.152	73.403
601.091	95.689
605.028	65.302
608.962	7.712
612.895	40.303
616.825	27.906
620.754	79.199
624.68	43.273
628.605	46.146
632.527	44.719
636.447	88.253
640.366	93.258
644.282	48.24
648.196	8.547
652.109	49.851
656.019	108.857
659.927	65.06
663.834	61.608
667.738	59.14
671.64	40.945
675.54	118.668
679.439	35.92
683.335	30.884
687.229	1.567
691.121	74.979
695.012	88.472
698.9	67.847
702.786	34.217
706.67	78.043
710.552	237.345
714.433	1098.64
718.311	3840.84
722.187	918.814
726.061	229.455
729.934	154.2
733.804	105.4
737.672	59.296
741.539	70.458
745.403	15.605
749.265	65.742
753.126	120.867
756.984	49.688
760.84	31.142
764.695	30.209
768.547	70.288
772.398	56.038
776.246	25.047
780.093	72.261
783.937	9.194
787.78	18.104
791.621	55.998
795.459	106.451
799.296	84.287
803.131	1.36
806.964	17.173
810.795	51.937
814.623	105.664
818.45	74.62
822.275	77.341
826.098	17.983
829.92	6.802
833.739	39.758
837.556	71.939
841.371	71.794
845.184	5.079
848.996	19.563
852.805	54.03
856.613	133.908
860.418	97.347
864.222	69.775
868.023	27.185
871.823	16.592
875.621	44.997
879.417	72.392
883.211	96.776
887.003	130.138
890.793	67.507
894.581	11.877
898.367	77.256
902.152	110.648
905.934	79.021
909.714	27.246
913.493	43.573
917.27	14.891
921.044	39.205
924.817	125.485
928.588	110.99
932.357	71.759
936.124	55.562
939.889	42.84
943.652	44.104
947.414	141.883
951.173	160.673
954.931	33.774
958.686	39.041
962.44	33.298
966.192	25.812
969.942	65.108
973.69	59.125
977.436	94.237
981.18	9.568
984.922	31.345
988.663	47.278
992.401	31.296
996.138	123.174
999.873	212.323
1003.61	182.499
1007.34	103.658
1011.07	161.865
1014.79	183.111
1018.52	253.872
1022.24	383.517
1025.96	291.843
1029.68	268.132
1033.4	151.922
1037.12	221.296
1040.83	296.407
1044.54	395.88
1048.25	474.413
1051.96	507.305
1055.67	540.826
1059.37	687.776
1063.08	1084.07
1066.78	1110.79
1070.48	1477.46
1074.17	2330.56
1077.87	5134.23
1081.56	29510.8
1085.26	51204.7
1088.94	8108.5
1092.63	2275.57
1096.32	1111.22
1100	705.33
1103.69	555.236
1107.37	353.4
1111.05	159.438
1114.72	136.455
1118.4	213.468
1122.07	264.409
1125.74	238.396
1129.41	206.247
1133.08	114.596
1136.75	106.767
1140.41	86.369
1144.07	104.678
1147.73	118.1
1151.39	191.405
1155.05	152.478
1158.7	145.799
1162.36	62.807
1166.01	11.904
1169.66	6.208
1173.3	91.284
1176.95	162.355
1180.59	153.025
1184.24	106.294
1187.88	68.242
1191.52	34.589
1195.15	25.739
1198.79	29.058
1202.42	85.273
1206.05	120.274
1209.68	139.351
1213.31	136.643
1216.93	63.339
1220.56	45.466
1224.18	19.825
1227.8	46.685
1231.42	110.254
1235.04	85.836
1238.65	94.312
1242.26	134.575
1245.88	139.088
1249.48	58.598
1253.09	31.821
1256.7	74.226
1260.3	32.89
1263.9	87.924
1267.51	130.757
1271.11	130.524
1274.7	189.892
1278.3	104.784
1281.89	53.356
1285.48	12.89
1289.07	15.552
1292.66	39.973
1296.25	54.104
1299.83	110.125
1303.41	147.905
1306.99	153.481
1310.57	79.573
1314.15	73.89
1317.73	51.293
1321.3	24.584
1324.87	34.605
1328.44	12.195
1332.01	69.272
1335.58	107.836
1339.14	151.683
1342.71	122.984
1346.27	140.146
1349.83	23.035
1353.39	48.12
1356.94	31.688
1360.5	4.606
1364.05	82.226
1367.6	93.74
1371.15	101.215
1374.7	177.348
1378.24	159.726
1381.79	81.349
1385.33	44.684
1388.87	13.071
1392.41	40.47
1395.95	48.856
1399.48	82.585
1403.02	97.042
1406.55	243.45
1410.08	255.213
1413.61	298.3
1417.13	181.559
1420.66	172.325
1424.18	129.675
1427.7	33.465
1431.22	55.263
1434.74	183.291
1438.26	160.176
1441.77	222.255
1445.28	303.2
1448.79	283.928
1452.3	200.198
1455.81	181.945
1459.32	200.556
1462.82	99.662
1466.32	104.159
1469.82	18.554
1473.32	31.526
1476.82	59.702
1480.32	72.897
1483.81	144.516
1487.3	198.457
1490.79	118.51
1494.28	96.06
1497.77	123.779
1501.25	69.973
1504.74	53.102
1508.22	30.073
1511.7	0.405
