Measurement: Raman, 514 nm, depolarized, Raman Data Processed
Mineral: Riebeckite
Rruff sample: R050082
Ideal chemistry: [box]Na_2_(Fe^2+^_3_Fe^3+^_2_)Si_8_O_22_(OH)_2_
Locality: Mt. Malosa, Zomba, Chilwa, Alkaline Area, Malawi
Source: Rock Currier
Description: Black elongated prisms
Measured chemistry: ([box]_0.63_Na_0.19_K_0.18_)(Na_1.58_Ca_0.42_)_Σ=2_Fe^2+^_3.00_(Fe^3+^_1.30_Fe^2+^_0.45_Mn_0.15_Mg_0.05_Ti_0.05_)_Σ=2_(Si_0.98_Al_0.02_)_8_O_22_(OH)_2_
Pin_id: L00434
Orientation: Laser parallel to b* (0 1 0). Fiducial mark perpendicular to laser is parallel to c [0 0 1]
Raman shift (cm-1)	intensity
153.53	0
158.46	57.3457
163.388	2577.84
168.313	3108.98
173.235	2049.29
178.155	2023.42
183.071	3220.45
187.985	6230.69
192.896	7509.94
197.803	8109.52
202.709	7955.06
207.611	6170.35
212.51	8009.47
217.407	7795.44
222.301	6844.45
227.192	7101.37
232.08	7374.06
236.965	5543.4
241.848	3615.18
246.728	1462.32
251.604	493.133
256.479	586.791
261.35	997.799
266.218	669.104
271.084	440.56
275.947	313.09
280.807	1.65234
285.664	392.277
290.518	6.06445
295.37	336.111
300.219	1080.7
305.065	1502.31
309.908	2868.27
314.749	3290.56
319.586	2908.46
324.421	2412.55
329.253	1970.55
334.083	1220.13
338.909	1027.56
343.733	1276.92
348.554	1650.82
353.372	2368.27
358.187	2084.34
363	2053.77
367.81	1983.27
372.617	2003.7
377.421	1388.67
382.223	1083.22
387.022	954.324
391.818	849.637
396.611	64.0762
401.401	167.945
406.189	273.43
410.974	428.514
415.756	150.461
420.536	876.469
425.312	1576.75
430.086	1713.64
434.858	1129.64
439.626	648.004
444.392	279.473
449.155	673.158
453.915	740.617
458.672	662.506
463.427	625.922
468.179	826.414
472.928	1065.13
477.675	912.24
482.419	1442.37
487.16	1907.38
491.898	2356.77
496.634	2774.55
501.367	3173.72
506.097	3838.29
510.825	3978.32
515.549	4352.89
520.271	5850.01
524.991	6684.72
529.707	8451.05
534.421	9696.12
539.132	9248.4
543.841	8314.78
548.547	7322.61
553.25	6556.7
557.95	6255.81
562.648	6501.07
567.343	6828.12
572.035	5402.98
576.724	3118.91
581.411	1486.86
586.095	431.775
590.777	79.457
595.456	263.424
600.132	136.359
604.805	75.543
609.476	10.3262
614.144	217.424
618.809	239.066
623.472	787.486
628.132	1324.18
632.789	1944.05
637.444	2989.14
642.096	4445.44
646.745	6865.23
651.392	11396.9
656.036	18367.2
660.677	26930.5
665.316	29738.2
669.952	21612.6
674.585	11726.2
679.216	6559.23
683.844	4319.75
688.469	3365.39
693.092	3294.5
697.712	3176.94
702.329	2880.79
706.944	3469.59
711.556	3151.78
716.166	2982.93
720.773	2655.21
725.377	3033.18
729.978	2367.97
734.577	1783.86
739.173	1520.39
743.767	1381.06
748.358	1468.68
752.946	1048.69
757.532	804.619
762.115	828.01
766.695	849.832
771.273	644.106
775.848	635.848
780.421	385.088
784.991	286.838
789.558	315.1
794.123	250.916
798.685	348.307
803.245	17.2715
807.802	163.676
812.356	5.39453
816.907	232.654
821.456	264.299
826.003	81.5059
830.547	155.846
835.088	99.3984
839.627	112.096
844.163	31.7812
848.696	230.1
853.227	508.801
857.755	898.352
862.281	1212.79
866.804	1844.3
871.324	1994.21
875.842	2275.8
880.357	2577.07
884.87	2270.77
889.38	2087.67
893.888	2112.76
898.393	2543.19
902.895	2337.01
907.395	2570.77
911.892	2690.82
916.387	2543.47
920.879	2809.26
925.368	2900.36
929.855	2845.38
934.339	2931.53
938.821	3287.85
943.301	3764.49
947.777	4367.8
952.251	4800.31
956.723	5032.28
961.192	5642.53
965.658	5493.41
970.122	5182.84
974.583	4797.88
979.042	4479.44
983.498	3952.2
987.952	3808.01
992.403	3832.22
996.852	3926.36
1001.3	3918.42
1005.74	3942.38
1010.18	4414.25
1014.62	4438.04
1019.06	4890.85
1023.49	5223.9
1027.92	6162.54
1032.35	6874.83
1036.78	7710.17
1041.2	7699.02
1045.62	7229.54
1050.04	6910.3
1054.45	6720.27
1058.87	6711.54
1063.28	6609.23
1067.68	6563.61
1072.09	6079.25
1076.49	5868.37
1080.89	5156.74
1085.29	4341.85
1089.69	3678.16
1094.08	3377.39
1098.47	3170.49
1102.86	2675.15
1107.24	2625.11
1111.63	2573.88
1116.01	2367.48
1120.38	2534.1
1124.76	2278.34
1129.13	1743.86
1133.5	1225.15
1137.87	978.443
1142.24	654.625
1146.6	303.576
1150.96	170.35
1155.32	143.596
1159.67	21.9941
1164.03	50.5605
1168.38	189.225
1172.72	76.0957
1177.07	80.582
1181.41	52.8516
1185.75	105.691
1190.09	20.7988
1194.43	155.103
1198.76	17.6738
1203.09	88.3574
1207.42	139.353
1211.75	135.625
1216.07	14.3594
1220.39	21.4648
1224.71	155.852
1229.02	163.678
1233.34	248.092
1237.65	91.8535
1241.96	6.92969
1246.26	269.711
1250.57	197.59
1254.87	301.99
1259.17	77.0332
1263.46	215.412
1267.76	155.611
1272.05	347.914
1276.34	187.713
1280.62	359.65
1284.91	203.842
1289.19	207.494
1293.47	238.223
1297.74	456.945
1302.02	469.01
1306.29	529.521
1310.56	448.627
1314.83	397.111
1319.09	533.168
1323.35	390.588
1327.61	275.397
1331.87	247.857
1336.12	397.59
1340.38	401.996
1344.63	503.402
1348.87	397.309
1353.12	444.291
1357.36	295.383
1361.6	369.746
1365.84	389.525
1370.08	198.635
1374.31	430.953
1378.54	271.09
1382.77	422.453
1386.99	281.273
1391.22	380.074
1395.44	418.32
1399.66	161.205
1403.87	341.223
1408.09	167.26
1412.3	165.244
1416.51	414.426
1420.71	177.205
1424.92	313.041
1429.12	325.463
1433.32	368.627
1437.51	223.055
1441.71	282.918
1445.9	33.0684
1450.09	274.904
1454.28	339.209
1458.46	70.3809
1462.65	282.324
1466.83	268.666
1471	62.8086
1475.18	149.717
1479.35	141.721
1483.52	358.822
1487.69	232.67
1491.86	336.656
1496.02	152.469
1500.18	320.201
1504.34	413.973
1508.5	343.916
1512.65	400.92
1516.8	156.234
1520.95	210.037
1525.1	188.613
1529.24	387.053
1533.39	234.246
1537.53	150.773
1541.66	57.7324
1545.8	411.301
1549.93	65.8008
1554.06	189.582
1558.19	274.15
1562.32	0
