Measurement: Raman, 514 nm, depolarized, Raman Data Processed
Mineral: Riebeckite
Rruff sample: R050082
Ideal chemistry: [box]Na_2_(Fe^2+^_3_Fe^3+^_2_)Si_8_O_22_(OH)_2_
Locality: Mt. Malosa, Zomba, Chilwa, Alkaline Area, Malawi
Source: Rock Currier
Description: Black elongated prisms
Measured chemistry: ([box]_0.63_Na_0.19_K_0.18_)(Na_1.58_Ca_0.42_)_Σ=2_Fe^2+^_3.00_(Fe^3+^_1.30_Fe^2+^_0.45_Mn_0.15_Mg_0.05_Ti_0.05_)_Σ=2_(Si_0.98_Al_0.02_)_8_O_22_(OH)_2_
Pin_id: L00547
Orientation: Laser parallel to -a* (-1 0 0). Fiducial mark perpendicular to laser is parallel to -b [0 -1 0]
Raman shift (cm-1)	intensity
133.778	0
138.72	1389.3
143.66	69.9727
148.596	414.168
153.53	863.672
158.46	1900
163.388	5149.2
168.313	4798.23
173.235	4674.84
178.155	6235.33
183.071	11133.3
187.985	15623.8
192.896	19672.6
197.803	13435.2
202.709	9055.94
207.611	2022.43
212.51	3080.57
217.407	2802.86
222.301	3015.76
227.192	2584.68
232.08	2558.48
236.965	4524.13
241.848	5452.04
246.728	6047.78
251.604	3471.38
256.479	2269.09
261.35	1881.98
266.218	1279.3
271.084	1480.47
275.947	1210.65
280.807	839.477
285.664	152.988
290.518	332.246
295.37	249.367
300.219	45.7656
305.065	95.8008
309.908	446
314.749	1286.86
319.586	2828.93
324.421	3936.09
329.253	4735.87
334.083	4218.8
338.909	3219.03
343.733	3158.06
348.554	4718.07
353.372	7109.15
358.187	8778.66
363	8546.44
367.81	5073.07
372.617	3691.98
377.421	2755.21
382.223	2362.72
387.022	2189.5
391.818	1460.56
396.611	845.914
401.401	536.562
406.189	179.312
410.974	241.711
415.756	393.551
420.536	944.742
425.312	574.144
430.086	1008.22
434.858	899.035
439.626	438.129
444.392	89.6641
449.155	235.301
453.915	17.5898
458.672	456.004
463.427	971.84
468.179	1123.87
472.928	1088.14
477.675	661.852
482.419	829.742
487.16	904
491.898	1069.63
496.634	1390.27
501.367	1289.91
506.097	2086.62
510.825	2336.78
515.549	2573.02
520.271	3443.3
524.991	5103.69
529.707	7579.2
534.421	10588.9
539.132	12364.5
543.841	10842.5
548.547	8057.78
553.25	6448.69
557.95	5687.67
562.648	5825.68
567.343	6348.25
572.035	7156.02
576.724	6942.24
581.411	4858.62
586.095	2478.56
590.777	1578.14
595.456	362.488
600.132	117.809
604.805	41.9141
609.476	325.914
614.144	234.816
618.809	274.625
623.472	240.34
628.132	260.977
632.789	412.547
637.444	654.043
642.096	1221.48
646.745	1905.78
651.392	3608.54
656.036	4911.7
660.677	6056
665.316	5924.38
669.952	3569.7
674.585	2138.75
679.216	996.164
683.844	790.961
688.469	147.316
693.092	136.559
697.712	18.0586
702.329	281.941
706.944	400.316
711.556	144.828
716.166	0.347656
720.773	199.449
725.377	8.88672
729.978	275.879
734.577	636.508
739.173	194.348
743.767	216.926
748.358	406.254
752.946	628.352
757.532	883.066
762.115	1122.74
766.695	1096.22
771.273	360.519
775.848	297.664
780.421	10.6602
784.991	125.461
789.558	18.168
794.123	6.37891
798.685	78.9102
803.245	12.2461
807.802	84.1328
812.356	7.49609
816.907	25.7383
821.456	38.3945
826.003	221.129
830.547	217.746
835.088	8.57812
839.627	35.5781
844.163	408.594
848.696	535.953
853.227	574.719
857.755	830.957
862.281	1403.57
866.804	1988.62
871.324	2694.2
875.842	2990.32
880.357	3564.02
884.87	3393.33
889.38	3432.27
893.888	2471.89
898.393	1589.21
902.895	824.242
907.395	596.023
911.892	538.633
916.387	728.234
920.879	656.598
925.368	722.519
929.855	876.766
934.339	743.465
938.821	955.828
943.301	738.609
947.777	1153.05
952.251	1533.14
956.723	2485.32
961.192	4732.34
965.658	6240.94
970.122	6816.16
974.583	4353.85
979.042	3255.38
983.498	2458.85
987.952	2124.08
992.403	1772.62
996.852	1425.5
1001.3	1067.17
1005.74	1259.13
1010.18	1315.52
1014.62	1074.27
1019.06	1190.41
1023.49	1863.85
1027.92	1863.5
1032.35	2372.37
1036.78	2895.48
1041.2	2624.82
1045.62	2190.74
1050.04	2081.65
1054.45	2110.96
1058.87	2160.73
1063.28	2110.79
1067.68	2656.66
1072.09	2855.58
1076.49	3219.32
1080.89	4134.64
1085.29	3972.48
1089.69	3370.95
1094.08	2899.98
1098.47	2487.85
1102.86	2497
1107.24	1963.5
1111.63	1975
1116.01	1973.99
1120.38	1513.27
1124.76	1689.38
1129.13	1537.1
1133.5	1069.06
1137.87	1121.84
1142.24	937
1146.6	177.16
1150.96	178.852
1155.32	410.902
1159.67	385.551
1164.03	422.769
1168.38	62.8477
1172.72	287.949
1177.07	193.055
1181.41	84.4844
1185.75	145.644
1190.09	72.2188
1194.43	352.641
1198.76	183.141
1203.09	156.914
1207.42	225.606
1211.75	4.49609
1216.07	111.32
1220.39	55.2891
1224.71	249.519
1229.02	11.6016
1233.34	273.812
1237.65	48.0938
1241.96	264.184
1246.26	138.219
1250.57	128.336
1254.87	214.871
1259.17	87.4648
1263.46	88.6953
1267.76	106.973
1272.05	33.2266
1276.34	280.473
1280.62	331.914
1284.91	446.711
1289.19	160.176
1293.47	462.164
1297.74	125.648
1302.02	256.031
1306.29	280.039
1310.56	226.91
1314.83	410.062
1319.09	424.434
1323.35	312.906
1327.61	210.961
1331.87	72.2852
1336.12	19.4766
1340.38	1.80859
1344.63	330.519
1348.87	182.781
1353.12	503.867
1357.36	342.371
1361.6	124.691
1365.84	137.672
1370.08	47.8242
1374.31	79.4766
1378.54	10.1172
1382.77	230.031
1386.99	304.387
1391.22	401.238
1395.44	148.578
1399.66	260.519
1403.87	379.684
1408.09	93.6758
1412.3	186.269
1416.51	48.0117
1420.71	123.336
1424.92	218.246
1429.12	196.023
1433.32	138.234
1437.51	572.535
1441.71	183.477
1445.9	342.574
1450.09	492.016
1454.28	168.512
1458.46	475.887
1462.65	468.875
1466.83	141.141
1471	327.859
1475.18	274.012
1479.35	202.356
1483.52	45.7578
1487.69	243.981
1491.86	133.477
1496.02	189.387
1500.18	85.2852
1504.34	478.055
1508.5	373.984
1512.65	183.699
1516.8	326.555
1520.95	275.551
1525.1	536.547
1529.24	95.1367
1533.39	205.715
1537.53	250.156
1541.66	446.707
1545.8	448.723
1549.93	502.633
1554.06	163.894
1558.19	420.559
1562.32	0
