Measurement: Raman, 514 nm, depolarized, Raman Data Processed
Mineral: Riebeckite
Rruff sample: R050082
Ideal chemistry: [box]Na_2_(Fe^2+^_3_Fe^3+^_2_)Si_8_O_22_(OH)_2_
Locality: Mt. Malosa, Zomba, Chilwa, Alkaline Area, Malawi
Source: Rock Currier
Description: Black elongated prisms
Measured chemistry: ([box]_0.63_Na_0.19_K_0.18_)(Na_1.58_Ca_0.42_)_Σ=2_Fe^2+^_3.00_(Fe^3+^_1.30_Fe^2+^_0.45_Mn_0.15_Mg_0.05_Ti_0.05_)_Σ=2_(Si_0.98_Al_0.02_)_8_O_22_(OH)_2_
Pin_id: L00416
Orientation: Laser parallel to (-1 0 -1). Fiducial mark perpendicular to laser is parallel to b [0 1 0]
Raman shift (cm-1)	intensity
154.762	0
159.692	464.512
164.62	3522.82
169.544	3347.61
174.465	2753.37
179.384	3567.02
184.3	5539.25
189.213	10289.7
194.123	13720.3
199.03	13410.5
203.934	9378.66
208.836	3892.23
213.735	4793.59
218.631	3324.25
223.524	3230.84
228.414	3472.61
233.302	3324.38
238.186	2514.54
243.068	1045.63
247.947	240.461
252.823	315.043
257.697	309.602
262.567	186.019
267.435	385.828
272.3	239.797
277.162	119.137
282.021	516.906
286.878	405.16
291.732	340.641
296.583	329.84
301.431	20.2695
306.276	367.922
311.119	613.879
315.958	743.305
320.795	1339.18
325.629	1647.86
330.461	1600.7
335.289	1957.13
340.115	2746.69
344.938	3792.18
349.759	4702.48
354.576	5482.66
359.391	5057.59
364.203	5011.96
369.012	4883.17
373.818	4683.01
378.622	4083.82
383.423	3500.03
388.221	2448.76
393.016	1634.44
397.809	1096.2
402.598	574.062
407.386	222.426
412.17	505.305
416.951	1105.2
421.73	1840.69
426.506	2514.89
431.279	2283.76
436.05	1506.43
440.818	751.34
445.583	458.43
450.345	296.707
455.105	103.481
459.861	308.785
464.615	328.32
469.367	303.527
474.115	376.215
478.861	545.543
483.604	1428.45
488.345	1901.28
493.082	2466.11
497.817	3045.99
502.55	3604.97
507.279	4021.09
512.006	4323.45
516.73	4872.54
521.451	5107.5
526.17	6551.4
530.886	7452.19
535.599	8032.5
540.31	8201.78
545.017	7594.25
549.723	7224.96
554.425	7151.35
559.125	6887.35
563.822	6546.08
568.516	6337.94
573.207	4611.5
577.896	2808.57
582.583	1339.2
587.266	314.25
591.947	9.08594
596.625	278.238
601.3	480.266
605.973	338.34
610.643	17.5039
615.311	462.144
619.975	506.824
624.637	943.199
629.297	1787.07
633.953	2610.46
638.607	3401.58
643.259	4555.76
647.907	6950.69
652.553	11094.2
657.197	16942.2
661.837	24311.8
666.475	25964.8
671.111	19645.6
675.743	11663.6
680.373	7541.62
685.001	4804.45
689.625	4366.24
694.247	4129.38
698.867	3848.88
703.483	3879.62
708.097	3846.16
712.709	4071.8
717.318	3967.61
721.924	3592.55
726.527	3235.63
731.128	3075.49
735.726	3000.76
740.322	2751.85
744.915	1977.78
749.505	1834.75
754.093	1524.38
758.678	1238.43
763.26	941.238
767.84	820.527
772.417	657.668
776.992	734.031
781.564	365.25
786.133	354.144
790.7	334
795.264	11.9141
799.825	71.2148
804.384	100.086
808.94	171.574
813.494	219.473
818.045	166.777
822.593	158.07
827.139	267.336
831.682	79.3672
836.223	222.152
840.761	500.055
845.296	209.086
849.829	543.09
854.359	889.246
858.887	1399.6
863.412	2254.2
867.934	3121.22
872.454	3839.69
876.971	4097.56
881.486	4182.95
885.998	4125.05
890.507	4002.88
895.014	3697.66
899.518	3586.05
904.02	3233.3
908.519	3230.32
913.016	3502.2
917.51	3023.33
922.001	3212.41
926.49	3083.66
930.976	2937.95
935.46	3430.48
939.941	3606.62
944.42	3873.67
948.896	4629.29
953.369	4885.27
957.84	6040.7
962.309	6333.33
966.774	6652.47
971.238	6207.56
975.698	6331.26
980.156	5808.8
984.612	5863.88
989.065	5404.44
993.516	5247.64
997.964	5768.42
1002.41	6040.93
1006.85	6328.97
1011.29	6544.56
1015.73	6678.59
1020.16	7067.02
1024.6	7737.91
1029.03	8042.82
1033.46	9088.71
1037.88	9659.29
1042.3	9952.52
1046.72	9485.73
1051.14	8911.78
1055.56	8737.96
1059.97	8065.21
1064.38	7789.35
1068.79	7418.04
1073.19	7345.3
1077.59	6629.25
1081.99	6027.28
1086.39	5670.36
1090.79	4988.41
1095.18	4548.49
1099.57	4023.77
1103.95	3873.54
1108.34	3674.05
1112.72	3554.05
1117.1	3125.11
1121.48	3365.25
1125.85	2806.57
1130.23	1797.77
1134.6	1172.71
1138.96	1010.25
1143.33	562.519
1147.69	459.25
1152.05	139.121
1156.41	66.9922
1160.76	139.449
1165.11	296.301
1169.46	0.070313
1173.81	94.6055
1178.16	160.617
1182.5	84.7031
1186.84	84.207
1191.18	201.922
1195.51	218
1199.84	56.5039
1204.17	94.1562
1208.5	385.879
1212.83	210.945
1217.15	143.152
1221.47	127.848
1225.79	165.379
1230.1	44.5781
1234.41	231.406
1238.73	38.0938
1243.03	272.109
1247.34	384.758
1251.64	44.4023
1255.94	338.441
1260.24	46.5703
1264.54	353.394
1268.83	214.703
1273.12	272.082
1277.41	815.488
1281.69	172.574
1285.98	246.918
1290.26	197.211
1294.54	418.305
1298.81	208.781
1303.09	476.387
1307.36	454.711
1311.63	406.59
1315.89	231.844
1320.16	413.066
1324.42	524.492
1328.68	95.3828
1332.93	391.176
1337.19	218.043
1341.44	145.898
1345.69	457.797
1349.94	313.992
1354.18	342.285
1358.42	94.9219
1362.66	323.082
1366.9	353.391
1371.13	360.039
1375.37	274.926
1379.6	367.398
1383.82	188.129
1388.05	387.289
1392.27	102.008
1396.49	18.0117
1400.71	368.316
1404.92	431.769
1409.14	375.996
1413.35	351.219
1417.56	210.641
1421.76	396.004
1425.97	418.09
1430.17	293.441
1434.37	297.523
1438.56	222.656
1442.76	141.106
1446.95	180.445
1451.14	63.7852
1455.33	98.4609
1459.51	291.633
1463.69	313.609
1467.87	378
1472.05	177.848
1476.22	364.055
1480.4	304.758
1484.57	380.398
1488.73	36.0977
1492.9	359.91
1497.06	327.328
1501.22	62.7773
1505.38	397.457
1509.54	111.57
1513.69	377.141
1517.84	59.3867
1521.99	214.941
1526.14	108.164
1530.28	271.481
1534.42	102.234
1538.56	8.27344
1542.7	378.391
1546.83	322.055
1550.97	408.113
1555.1	319.738
1559.22	289.824
1563.35	0
