Measurement: Raman, 514 nm, depolarized, Raman Data Processed
Mineral: Riebeckite
Rruff sample: R050082
Ideal chemistry: [box]Na_2_(Fe^2+^_3_Fe^3+^_2_)Si_8_O_22_(OH)_2_
Locality: Mt. Malosa, Zomba, Chilwa, Alkaline Area, Malawi
Source: Rock Currier
Description: Black elongated prisms
Measured chemistry: ([box]_0.63_Na_0.19_K_0.18_)(Na_1.58_Ca_0.42_)_Σ=2_Fe^2+^_3.00_(Fe^3+^_1.30_Fe^2+^_0.45_Mn_0.15_Mg_0.05_Ti_0.05_)_Σ=2_(Si_0.98_Al_0.02_)_8_O_22_(OH)_2_
Pin_id: L00462
Orientation: Laser parallel to c* (0 0 1). Fiducial mark perpendicular to laser is parallel to a [1 0 0]
Raman shift (cm-1)	intensity
158.46	0
163.388	1032.59
168.313	1154.17
173.235	366.742
178.155	549.957
183.071	2142.2
187.985	4954.52
192.896	7157.57
197.803	7886.85
202.709	9860.03
207.611	7912.27
212.51	9468.96
217.407	9228.92
222.301	7875.86
227.192	7879.28
232.08	7711.73
236.965	6236.35
241.848	3311.66
246.728	1282.77
251.604	474.137
256.479	412.461
261.35	45.3438
266.218	827.461
271.084	475.766
275.947	462.391
280.807	192.266
285.664	135.055
290.518	245.797
295.37	279.5
300.219	683.609
305.065	415.391
309.908	860.727
314.749	1065.23
319.586	1465.62
324.421	1330.46
329.253	1409.9
334.083	1328.57
338.909	2157.87
343.733	2806.12
348.554	3108.71
353.372	3612.87
358.187	3489.79
363	3406.74
367.81	2795.91
372.617	2198.74
377.421	1718.99
382.223	1114.56
387.022	762.826
391.818	343.67
396.611	57.5156
401.401	70.7305
406.189	247.039
410.974	78.3203
415.756	851.662
420.536	1765.33
425.312	2381.39
430.086	2352.82
434.858	1732.23
439.626	1055.23
444.392	628.256
449.155	468.272
453.915	617.457
458.672	817.186
463.427	981.414
468.179	1145.89
472.928	1046.43
477.675	1222.06
482.419	1603.23
487.16	2276.33
491.898	2649.9
496.634	3173.26
501.367	4010.38
506.097	4239.3
510.825	4883.06
515.549	5167.78
520.271	5921.34
524.991	7355.43
529.707	8690.02
534.421	9008.82
539.132	8936.31
543.841	8035.61
548.547	7269.08
553.25	6517.42
557.95	7030.01
562.648	7229.34
567.343	6913.15
572.035	5344.29
576.724	3296.3
581.411	1547.23
586.095	317.654
590.777	23.5176
595.456	212.088
600.132	146.619
604.805	78.5684
609.476	156.637
614.144	279.062
618.809	1153.62
623.472	1776.02
628.132	2377.17
632.789	3542.14
637.444	5132.57
642.096	7271.68
646.745	10767
651.392	17172.8
656.036	25837.8
660.677	32744.4
665.316	32846.9
669.952	25276.7
674.585	15062.1
679.216	8484.9
683.844	5362.83
688.469	3751.06
693.092	2922.25
697.712	2633.32
702.329	2367.96
706.944	2290.63
711.556	2140.19
716.166	2247.7
720.773	1723.14
725.377	1601.29
729.978	1909.01
734.577	1368.81
739.173	1210.05
743.767	904.981
748.358	617.324
752.946	690.441
757.532	1149.34
762.115	408.481
766.695	510.873
771.273	332.566
775.848	283.094
780.421	452.914
784.991	217.562
789.558	185.545
794.123	310.898
798.685	292.713
803.245	50.752
807.802	57.793
812.356	71.418
816.907	225.391
821.456	234.445
826.003	419.957
830.547	273.598
835.088	91.8633
839.627	24.0391
844.163	96.957
848.696	173.383
853.227	138.637
857.755	662.769
862.281	962.824
866.804	1335.03
871.324	1332.74
875.842	1810.2
880.357	2064.53
884.87	2137.27
889.38	2653.29
893.888	2837.95
898.393	3557.95
902.895	3726.3
907.395	3913.15
911.892	4270.26
916.387	4458.82
920.879	4721.11
925.368	4963.06
929.855	4834.07
934.339	5330.86
938.821	5631.65
943.301	6788.01
947.777	7762.65
952.251	9640.58
956.723	10874.4
961.192	12508.1
965.658	12478.4
970.122	12434.5
974.583	11808.9
979.042	10417.8
983.498	8997.19
987.952	8089.02
992.403	7585.16
996.852	7279.62
1001.3	7039.38
1005.74	7225.3
1010.18	7312.45
1014.62	7958.9
1019.06	8540.48
1023.49	9517.21
1027.92	10454.1
1032.35	11527.9
1036.78	12567.4
1041.2	12495.3
1045.62	12194.2
1050.04	11412.3
1054.45	10736.7
1058.87	10060.9
1063.28	9748.82
1067.68	9123.01
1072.09	8502.74
1076.49	7804.27
1080.89	6621.15
1085.29	5842.56
1089.69	5149.73
1094.08	4431.14
1098.47	4247.72
1102.86	3939.66
1107.24	3737.78
1111.63	3580.66
1116.01	3295.36
1120.38	3147.83
1124.76	2738.18
1129.13	2007.69
1133.5	1735.34
1137.87	1256.57
1142.24	759.492
1146.6	498.414
1150.96	172.266
1155.32	4.25781
1159.67	118.438
1164.03	255.418
1168.38	197.188
1172.72	112.277
1177.07	90.25
1181.41	57.8281
1185.75	38.1523
1190.09	15.3828
1194.43	68.6055
1198.76	218.387
1203.09	58.5312
1207.42	136
1211.75	232.051
1216.07	65.0859
1220.39	88.8125
1224.71	260.922
1229.02	120.477
1233.34	327.367
1237.65	150.633
1241.96	23.7852
1246.26	58.8906
1250.57	97.7422
1254.87	114.238
1259.17	330.34
1263.46	442.699
1267.76	381.172
1272.05	430.461
1276.34	680.066
1280.62	490.844
1284.91	381.418
1289.19	603.414
1293.47	269.492
1297.74	214.219
1302.02	452.625
1306.29	229.137
1310.56	761.215
1314.83	312.391
1319.09	408.203
1323.35	887.023
1327.61	926.863
1331.87	1059.84
1336.12	540.25
1340.38	1025.2
1344.63	453.731
1348.87	543.711
1353.12	488.926
1357.36	360.066
1361.6	187.25
1365.84	448.203
1370.08	340.887
1374.31	332.398
1378.54	310.547
1382.77	373.277
1386.99	234.004
1391.22	190.856
1395.44	268.019
1399.66	180.168
1403.87	206.644
1408.09	220.902
1412.3	84.5469
1416.51	194.984
1420.71	190.629
1424.92	167.641
1429.12	451.324
1433.32	322.574
1437.51	477.082
1441.71	123.238
1445.9	419.227
1450.09	339.367
1454.28	174.613
1458.46	8.84375
1462.65	212.633
1466.83	104.707
1471	193.723
1475.18	294.637
1479.35	254.082
1483.52	109.988
1487.69	439.289
1491.86	91.332
1496.02	233.633
1500.18	748.981
1504.34	383.562
1508.5	373.844
1512.65	187.418
1516.8	276.269
1520.95	333.922
1525.1	394.039
1529.24	307.668
1533.39	258.008
1537.53	415.703
1541.66	324.457
1545.8	55.3438
1549.93	368.391
1554.06	494.418
1558.19	580.121
1562.32	0
