Measurement: Raman, 514 nm, ccw, Raman Data Processed
Mineral: Rutile
Rruff sample: R040049
Ideal chemistry: Ti^4+^O_2_
Locality: Graves Mountain, Lincoln County, Georgia, USA
Source: University of Arizona Mineral Museum
Description: Reddish-black fragments
Measured chemistry: (Ti_1.00_Fe_0.01_)O_2_
Pin_id: L01614
Orientation: Laser parallel to -a* (-1 0 0). Fiducial mark perpendicular to laser is parallel to c [0 0 1]
Raman shift (cm-1)	intensity
90.208	0
95.166	1772.47
100.121	3532.7
105.074	4576.86
110.024	5713.07
114.971	7189.97
119.915	8318.01
124.856	7158.02
129.795	6893.74
134.73	8140.88
139.663	8538.74
144.593	10019.5
149.521	6606.72
154.445	3977.04
159.367	2111.22
164.286	323.609
169.202	560.051
174.115	745.574
179.025	825.953
183.933	104.168
188.838	794.258
193.74	2356.24
198.639	4080.74
203.535	5911.46
208.429	7312
213.32	8767.39
218.208	11068.9
223.093	12634.9
227.976	13596.3
232.855	14642.5
237.732	15175.9
242.607	15062.1
247.478	14963.1
252.346	13226.3
257.212	11849.8
262.075	10595.5
266.936	8732.59
271.793	7743.21
276.648	6840.52
281.5	5010.89
286.349	3855.49
291.195	2273.27
296.039	1212.29
300.88	532.262
305.718	75.9648
310.553	52.1719
315.386	45.8789
320.215	222.559
325.043	293.336
329.867	369.266
334.688	527.973
339.507	642.019
344.323	955
349.137	1417.09
353.947	2111.85
358.755	2688.72
363.56	3461.68
368.362	4082.39
373.162	5167.4
377.959	5829.94
382.753	6847.83
387.544	8236.14
392.333	9383.57
397.119	10780.8
401.902	13478.8
406.682	17179.5
411.46	21852.1
416.235	27685.9
421.007	35021.9
425.777	43746.3
430.543	53470.5
435.307	63406.6
440.069	73825.6
444.827	80099.4
449.583	80957.8
454.336	73805.3
459.087	61304.8
463.835	45771.7
468.58	31808.3
473.322	21388.8
478.062	13632.2
482.798	8045.83
487.533	4623.94
492.264	2367.59
496.993	831.828
501.719	608.328
506.442	461.957
511.163	980.254
515.881	665.641
520.596	333.359
525.309	12.6484
530.019	35.3086
534.726	36.2188
539.431	851.875
544.132	1705.16
548.831	2733.3
553.528	3878.12
558.222	5577.84
562.913	7935.59
567.601	10857.4
572.287	14364.2
576.97	18612
581.65	23615.9
586.328	29639.8
591.003	37077.8
595.675	45179.3
600.345	55126
605.012	65202.9
609.676	72721.1
614.338	73960.5
618.997	69605.9
623.653	59128.2
628.307	46977.6
632.958	36619.5
637.606	28458
642.252	21583.7
646.895	16714.5
651.535	12907.6
656.173	10154.8
660.808	8070.51
665.44	6900.65
670.07	6118.14
674.697	6051.51
679.321	5655.59
683.943	5650.83
688.562	5259.74
693.179	5430.02
697.793	5020.86
702.404	5123.44
707.012	4606
711.618	4340.01
716.222	3998.65
720.822	3851.25
725.42	3418.19
730.016	2934.72
734.608	3088.47
739.198	2674.69
743.786	3007.6
748.371	3285.04
752.953	3811.95
757.533	4251.11
762.11	5054.41
766.684	5858.45
771.256	6891.08
775.825	8000.96
780.391	9038.47
784.955	10377.9
789.517	11885.3
794.075	12738.3
798.631	14092
803.185	13831.8
807.736	13354.9
812.284	12741.2
816.829	11647.2
821.372	10151.1
825.913	8779.14
830.451	7102.94
834.986	5466.63
839.518	4263.03
844.048	3376.95
848.576	2454.14
853.101	1728.62
857.623	870.242
862.143	528.742
866.66	60.7266
871.174	37.1523
875.686	221.703
880.195	492.039
884.702	267.129
889.206	438.816
893.707	272.191
898.206	265.873
902.703	56.6973
907.196	210.217
911.688	10.8184
916.176	213.603
920.662	79.4336
925.146	535.377
929.627	502.047
934.105	619.727
938.581	714.752
943.054	1066.79
947.525	795.164
951.993	1024.34
956.458	1165.44
960.921	1223.27
965.381	1241.33
969.839	1272.78
974.294	1350.13
978.747	1831.38
983.197	1338.42
987.645	1538.91
992.09	1567.43
996.532	1592.79
1000.97	1983.49
1005.41	1753.76
1009.84	1859.16
1014.28	1638.28
1018.71	1697.83
1023.13	1319.13
1027.56	1292.73
1031.98	1245.42
1036.4	1369.34
1040.82	1301.81
1045.23	1309.34
1049.64	1062.95
1054.05	1238.28
1058.46	974.998
1062.86	1017.76
1067.27	1124.17
1071.66	984.631
1076.06	885.49
1080.46	1080.43
1084.85	833.115
1089.24	737.213
1093.62	671.768
1098.01	647.26
1102.39	726.877
1106.77	372.773
1111.14	498.768
1115.52	427.652
1119.89	748.465
1124.26	571.002
1128.63	361.69
1132.99	215.963
1137.35	241.941
1141.71	278.727
1146.07	444.572
1150.42	274.4
1154.77	225.312
1159.12	48.6016
1163.47	225.805
1167.81	264.84
1172.15	320.168
1176.49	36.0449
1180.83	319.174
1185.16	109.586
1189.49	176.344
1193.82	170.299
1198.15	36.416
1202.47	40.8008
1206.8	31.916
1211.12	74.4551
1215.43	69.9981
1219.75	279.894
1224.06	242.606
1228.37	54.2715
1232.67	48.5098
1236.98	66.1836
1241.28	162.982
1245.58	235.141
1249.88	107.664
1254.17	127.391
1258.46	107.822
1262.75	86.6777
1267.04	121.566
1271.32	278.168
1275.6	65.7734
1279.88	272.606
1284.16	538.738
1288.43	343.107
1292.71	396.562
1296.98	371.785
1301.24	536.379
1305.51	410.148
1309.77	488.356
1314.03	313.914
1318.29	446.397
1322.54	173.281
1326.79	444.668
1331.04	185.211
1335.29	167.883
1339.54	203.723
1343.78	447.496
1348.02	188.518
1352.26	116.705
1356.49	216.754
1360.72	53.2441
1364.96	72.7266
1369.18	324.412
1373.41	199.486
1377.63	185.613
1381.85	45.8906
1386.07	163.912
1390.29	264.635
1394.5	163.777
1398.71	54.543
1402.92	71.2598
1407.12	71.2773
1411.33	325.637
1415.53	200.734
1419.73	159.99
1423.92	182.504
1428.12	208.613
1432.31	23.4336
1436.5	9.46875
1440.69	168.709
1444.87	245.631
1449.05	289.453
1453.23	415
1457.41	181.66
1461.58	242.027
1465.76	485.889
1469.93	298.375
1474.09	254.559
1478.26	551.535
1482.42	569.668
1486.58	210.143
1490.74	335.986
1494.89	330.488
1499.05	154.188
1503.2	254.447
1507.35	334.922
1511.49	19.1738
1515.63	403.932
1519.78	301.213
1523.91	254.471
1528.05	308.506
1532.18	297.717
1536.32	322.26
1540.44	199.832
1544.57	167.545
1548.7	5.84375
1552.82	194.123
1556.94	226.217
1561.05	288.953
1565.17	4.69922
1569.28	295.815
1573.39	92.9512
1577.5	178.258
