Measurement: Raman, 514 nm, depolarized, Raman Data Processed
Mineral: Rutile
Rruff sample: R050417
Ideal chemistry: Ti^4+^O_2_
Locality: Champion mine, Mono County, California, USA
Source: Marcus Origlieri
Description: Reddish black equant crystals
Measured chemistry: TiO_2_
Pin_id: L01119
Orientation: Laser parallel to a* (1 0 0). Fiducial mark perpendicular to laser is parallel to c [0 0 1]
Raman shift (cm-1)	intensity
109.268	0
114.212	199.829
119.152	546.648
124.09	680.898
129.026	551.411
133.958	630.856
138.888	1118.26
143.815	1851.92
148.739	1135.19
153.661	504.018
158.58	228.551
163.496	38
168.409	171.747
173.32	31.6016
178.228	302.912
183.133	586.816
188.035	744.861
192.935	1306.79
197.832	1709.6
202.727	2190.26
207.618	2441.38
212.507	2984.67
217.393	3425.03
222.277	3748.14
227.157	3945.61
232.035	4214.39
236.911	4458.68
241.783	4353.73
246.653	4146.21
251.52	3752.7
256.385	3274.01
261.246	3070.72
266.105	2686.52
270.962	2222.25
275.815	1930.17
280.666	1746.15
285.514	1171.15
290.36	818.707
295.203	708.674
300.043	304.764
304.88	47.9707
309.715	194.022
314.547	19.6074
319.376	91.8164
324.203	82.9824
329.027	219.539
333.848	125.666
338.667	274.713
343.482	246.654
348.296	285.791
353.106	287.512
357.914	558.549
362.719	615.168
367.521	422.693
372.321	671.953
377.118	423.215
381.912	316.361
386.704	419.34
391.493	753.139
396.279	818.756
401.063	1165.19
405.844	1434.29
410.622	1824.25
415.398	2573.48
420.171	3200.69
424.941	4141.73
429.709	5302.65
434.473	6412.59
439.236	7391.56
443.995	7979.35
448.752	8012.43
453.506	7427.9
458.258	5955.95
463.007	4424.74
467.753	2934.95
472.497	1793.31
477.238	934.785
481.976	493.379
486.712	180.106
491.445	191.336
496.175	189.637
500.902	151.812
505.627	165.654
510.35	36.1816
515.069	10.9902
519.786	105.242
524.501	259.66
529.213	381.277
533.922	467.102
538.628	501.139
543.332	966.391
548.033	1002.86
552.731	1397.56
557.427	1825.48
562.121	2494.64
566.811	3445.02
571.499	4286.64
576.184	5536.47
580.867	6800.53
585.547	8332.85
590.224	10367.5
594.899	12460.7
599.571	15355.3
604.241	17995.5
608.908	19864.3
613.572	20602.7
618.233	18936.7
622.892	15985.2
627.549	12883
632.202	9912.82
636.853	7476.73
641.502	5658.24
646.148	4259.97
650.791	3368.39
655.432	2680.56
660.069	2116.53
664.705	1867.98
669.338	1617.52
673.968	1533.11
678.595	1512.7
683.22	1356.28
687.842	1511.79
692.462	1388.16
697.079	1453.38
701.694	1333.42
706.305	1050.24
710.915	1159.81
715.521	852.08
720.125	765.406
724.727	600.262
729.325	445.252
733.922	325.106
738.515	172.49
743.106	294.539
747.695	137.596
752.28	97.5117
756.864	143.6
761.444	291.951
766.022	325.572
770.598	381.035
775.17	365.17
779.741	668.627
784.308	766.906
788.873	800.824
793.436	1085.4
797.996	1229.52
802.553	1271.72
807.108	1241.14
811.66	1315.18
816.209	971.227
820.756	1149.79
825.301	887.871
829.842	422.277
834.382	579.611
838.918	372.957
843.452	231.291
847.984	204.965
852.513	137.785
857.039	89.2676
861.563	22.8633
866.084	112.256
870.603	33.3027
875.119	96.2344
879.632	136.006
884.143	45.4219
888.651	72.1856
893.157	15.3613
897.66	20.2832
902.161	99.3789
906.659	86.5098
911.154	71.1055
915.647	130.961
920.138	242.338
924.626	45.125
929.111	162.361
933.594	5.6543
938.074	233.465
942.551	175.412
947.026	224.877
951.499	429.977
955.969	218.977
960.436	451.711
964.901	373.098
969.363	465.523
973.823	313.379
978.28	384.963
982.735	388.693
987.187	446.256
991.637	398.734
996.084	427.322
1000.53	388.359
1004.97	439.871
1009.41	391.496
1013.85	466.273
1018.28	545.75
1022.71	236.527
1027.14	307.594
1031.57	318.848
1035.99	380.19
1040.41	320.065
1044.83	347.504
1049.25	197.004
1053.66	347.102
1058.08	186.992
1062.48	254.822
1066.89	183.125
1071.3	257.816
1075.7	321.174
1080.1	44.2168
1084.49	152.943
1088.89	290.977
1093.28	234.908
1097.67	305.9
1102.05	255.609
1106.44	152.234
1110.82	111.709
1115.2	141.455
1119.57	198.168
1123.95	255.658
1128.32	339.965
1132.69	131.533
1137.05	191.34
1141.42	236.525
1145.78	65.2422
1150.14	159.963
1154.49	10.3965
1158.85	48.1289
1163.2	10.4375
1167.55	8.69336
1171.89	339.252
1176.24	177.891
1180.58	191.002
1184.92	278.398
1189.25	263.16
1193.59	93.2519
1197.92	124.785
1202.25	296.117
1206.57	102.295
1210.9	159.969
1215.22	182.125
1219.54	488.404
1223.85	216.875
1228.17	122.397
1232.48	250.6
1236.79	101.357
1241.09	119.055
1245.4	246.566
1249.7	455.074
1254	149.701
1258.29	400.85
1262.59	236.935
1266.88	496.299
1271.17	295.744
1275.45	182.154
1279.74	294.32
1284.02	253.732
1288.3	169.291
1292.58	266.902
1296.85	64.5898
1301.12	43.3535
1305.39	241.203
1309.66	180.201
1313.92	205.207
1318.18	150.102
1322.44	101.072
1326.7	167.072
1330.95	42.9316
1335.2	255.014
1339.45	49.498
1343.7	22.918
1347.95	176.053
1352.19	125.432
1356.43	246.82
1360.66	305.156
1364.9	386.465
1369.13	442.789
1373.36	85.1309
1377.59	210.488
1381.81	24.5605
1386.04	591.766
1390.26	214.022
1394.47	249.201
1398.69	202.352
1402.9	384.469
1407.11	39.6992
1411.32	181.648
1415.53	117.928
1419.73	191.022
1423.93	252.342
1428.13	513.643
1432.32	234.963
1436.52	144.69
1440.71	24.0352
1444.89	225.56
1449.08	279.244
1453.26	339.199
1457.44	17.75
1461.62	217.365
1465.8	220.881
1469.97	29.3867
1474.14	235.346
1478.31	142.035
1482.48	124.256
1486.64	353.31
1490.81	288.562
1494.96	401.777
1499.12	262.012
1503.28	227.191
1507.43	113.293
1511.58	70.8203
1515.72	84.7578
1519.87	240.594
1524.01	357.559
1528.15	143.398
1532.29	216.273
1536.42	367.705
1540.55	197.26
1544.68	319.336
1548.81	204.135
1552.94	257.965
1557.06	244.34
1561.18	3.17383
1565.3	202.098
1569.41	149.807
1573.53	54.377
1577.64	0.251953
