Measurement: Raman, 514 nm, ccw, Raman Data Processed
Mineral: Rutile
Rruff sample: R040049
Ideal chemistry: Ti^4+^O_2_
Locality: Graves Mountain, Lincoln County, Georgia, USA
Source: University of Arizona Mineral Museum
Description: Reddish-black fragments
Measured chemistry: (Ti_1.00_Fe_0.01_)O_2_
Pin_id: L01614
Orientation: Laser parallel to -a* (-1 0 0). Fiducial mark perpendicular to laser is parallel to c [0 0 1]
Raman shift (cm-1)	intensity
93.927	0
98.883	142.512
103.836	2116.53
108.787	4600
113.734	6969.53
118.679	8906.91
123.621	8313.77
128.56	8806.65
133.497	9975.24
138.43	11428.6
143.361	17927.2
148.289	13678
153.214	5556.77
158.137	2704.13
163.056	561.762
167.973	462.164
172.887	647.363
177.798	253.438
182.706	902.059
187.612	2814.88
192.515	4525.14
197.414	6418.66
202.312	7847.09
207.206	9678.06
212.097	11576.5
216.986	13760.6
221.872	16269.3
226.755	18332.3
231.636	21293
236.513	22894.4
241.388	23667.2
246.26	23324.1
251.13	21439
255.996	17647.5
260.86	15085.7
265.721	12229.3
270.579	10488.6
275.434	8891.5
280.287	7442.44
285.137	5872.15
289.984	4674.61
294.828	2821.64
299.67	1782.78
304.508	1662.68
309.345	1506.31
314.178	2043.16
319.008	2073.34
323.836	2224.62
328.661	1761.3
333.483	1556.91
338.303	1375.58
343.12	970.957
347.934	1418.99
352.745	2057.81
357.553	2677.44
362.359	3111.82
367.162	3066.78
371.962	2965.33
376.76	2060.71
381.555	1756.66
386.347	1160.41
391.136	864.344
395.922	602.922
400.706	297.91
405.487	411.516
410.266	435.93
415.041	1265.96
419.814	1983.81
424.584	3047.64
429.352	4450.67
434.117	6190.96
438.879	7432.56
443.638	8340.51
448.395	8942.87
453.148	8179.69
457.9	6727.24
462.648	5109.75
467.394	2706.33
472.137	1560.82
476.877	199.328
481.615	792.199
486.349	902.32
491.082	1449.89
495.811	1494.36
500.538	1732.44
505.262	741.973
509.983	336.801
514.702	952.106
519.418	1837.5
524.131	3749.97
528.842	4712.66
533.549	6634.26
538.255	8460.71
542.957	11158.8
547.657	14569.9
552.354	19155.5
557.048	24708.3
561.74	32031
566.429	40829.5
571.116	51482.9
575.799	64645.4
580.48	79178.1
585.159	97117.1
589.834	118298
594.507	144287
599.178	173202
603.845	204334
608.51	230104
613.173	242638
617.832	235709
622.489	212585
627.144	179957
631.795	146188
636.444	118054
641.09	94570.9
645.734	76451
650.375	62882.7
655.014	53329
659.649	45252.8
664.282	39821.3
668.913	34557.9
673.54	31509.6
678.165	28911.1
682.788	25969.7
687.408	24028.6
692.025	21851.5
696.639	19928.6
701.251	18079.3
705.86	15862.4
710.467	14061.7
715.071	12295.1
719.672	10371.4
724.271	9029.33
728.867	7438.71
733.46	6444.33
738.051	5769.17
742.639	5401.27
747.225	5249.38
751.808	5611.01
756.388	5572.06
760.966	6466.06
765.541	7306.98
770.113	8443.92
774.683	10016.9
779.25	11459.6
783.815	13130.1
788.377	15154.1
792.936	16664.5
797.493	18032.5
802.047	18892
806.598	18647.7
811.147	17788.9
815.693	16605.4
820.237	14894.9
824.778	13073.7
829.316	11020.8
833.852	9442.16
838.386	6980.8
842.916	5663.55
847.444	3972.32
851.97	2566.85
856.493	1880.98
861.013	1048.91
865.531	281.332
870.046	22.1758
874.558	181.922
879.068	712.086
883.575	854.848
888.08	890.82
892.582	709.039
897.082	657.113
901.579	561.684
906.073	506.871
910.565	262.506
915.054	100.43
919.541	10.5371
924.025	27.6562
928.507	253.037
932.986	502.838
937.462	546.607
941.936	800.133
946.407	846.928
950.876	1261.48
955.342	1210.35
959.806	1475.79
964.267	1610.39
968.725	1738.64
973.181	1772.07
977.634	2051.72
982.085	2014.73
986.533	2343.07
990.979	2406.38
995.422	2529.09
999.863	2363.26
1004.3	2622.41
1008.74	2811.67
1013.17	2805.28
1017.6	3251.13
1022.03	2385.38
1026.45	2157.75
1030.88	2157.98
1035.3	2011.55
1039.71	1801.68
1044.13	1577.52
1048.54	1653.08
1052.95	1728.19
1057.36	1510.78
1061.76	1646.61
1066.17	1346.19
1070.57	1508.59
1074.96	1287.44
1079.36	1241.45
1083.75	1401.75
1088.14	1463.88
1092.53	1002.5
1096.91	1240.98
1101.29	994.414
1105.67	1057.42
1110.05	888.512
1114.43	907.016
1118.8	628.102
1123.17	622.15
1127.54	733.83
1131.9	563.969
1136.26	457.225
1140.62	408.643
1144.98	482.93
1149.33	533.248
1153.68	295.693
1158.04	526.504
1162.38	312.254
1166.73	183.381
1171.07	436.705
1175.41	172.848
1179.74	190.723
1184.08	387.594
1188.41	154.014
1192.74	262.842
1197.07	248.926
1201.39	358.447
1205.72	259.572
1210.04	284.361
1214.35	64.6426
1218.67	142.633
1222.98	324.935
1227.29	384.137
1231.6	487.787
1235.9	316.154
1240.2	326.289
1244.5	308.127
1248.8	355.668
1253.1	228.184
1257.39	375.049
1261.68	120.029
1265.96	152.953
1270.25	314.428
1274.53	3.57617
1278.81	140.195
1283.09	105.609
1287.37	185.615
1291.64	58.0781
1295.91	199.674
1300.18	47.6816
1304.44	12.7227
1308.7	149.238
1312.96	39.5234
1317.22	89.3398
1321.48	154.719
1325.73	122.062
1329.98	173.935
1334.23	30.6914
1338.48	23.6367
1342.72	76.5234
1346.96	58.5156
1351.2	152.828
1355.43	126.041
1359.67	112.125
1363.9	32.3066
1368.13	162.926
1372.35	220.303
1376.58	299.699
1380.8	26.5742
1385.02	321.447
1389.23	116.939
1393.45	193.129
1397.66	196.736
1401.87	1.29883
1406.07	2.45703
1410.28	118.701
1414.48	21.3457
1418.68	60.082
1422.88	267.01
1427.07	284.127
1431.26	346.93
1435.45	118.898
1439.64	313.256
1443.83	53.832
1448.01	124.955
1452.19	122.59
1456.37	66.8008
1460.54	196.215
1464.71	198.467
1468.88	115.496
1473.05	50.498
1477.22	41.1113
1481.38	132.391
1485.54	141.754
1489.7	90.9668
1493.86	112.326
1498.01	173.711
1502.16	153.016
1506.31	381.316
1510.45	152.988
1514.6	346.373
1518.74	265.568
1522.88	299.236
1527.02	268.424
1531.15	246.842
1535.28	42.0293
1539.41	359.248
1543.54	316.547
1547.66	162.006
1551.79	357.815
1555.91	393.387
1560.03	443.674
1564.14	167.19
1568.25	456.742
1572.36	260.695
1576.47	148.277
