Measurement: Raman, 514 nm, ccw, Raman Data Processed
Mineral: Rutile
Rruff sample: R050417
Ideal chemistry: Ti^4+^O_2_
Locality: Champion mine, Mono County, California, USA
Source: Marcus Origlieri
Description: Reddish black equant crystals
Measured chemistry: TiO_2_
Pin_id: L01119
Orientation: Laser parallel to a* (1 0 0). Fiducial mark perpendicular to laser is parallel to c [0 0 1]
Raman shift (cm-1)	intensity
95.659	0
100.61	49.4756
105.559	240.807
110.504	493.342
115.447	930.511
120.387	1199.83
125.324	979.594
130.259	915.274
135.191	970.668
140.12	1126.2
145.046	1122.96
149.97	537.049
154.891	196.92
159.809	23.9775
164.724	93.7085
169.637	25.8984
174.547	8.63721
179.454	188.095
184.359	400.581
189.261	682.2
194.16	1094.3
199.056	1420.89
203.95	1707.3
208.841	1955.67
213.729	2332.64
218.614	2649.74
223.497	2945
228.377	3078.74
233.254	3187.26
238.129	3149.42
243.001	3088.46
247.87	2931.5
252.737	2727.44
257.6	2401.3
262.461	2325.73
267.32	2016.33
272.175	1832.9
277.028	1583.58
281.879	1094.07
286.726	1039.69
291.571	513.198
296.413	369.583
301.252	247.902
306.089	7.17139
310.923	108.37
315.755	9.00879
320.583	58.9043
325.409	150.535
330.232	173.767
335.053	242.803
339.871	217.651
344.686	320.322
349.498	288.83
354.308	468.406
359.115	581.98
363.92	620.687
368.721	653.098
373.52	684.807
378.317	781.904
383.111	793.644
387.902	971.252
392.69	1171.59
397.475	1598.61
402.258	1981.34
407.039	2566.83
411.816	3178.11
416.591	3988.25
421.364	5274.26
426.133	6574.24
430.9	8122.24
435.664	9780.28
440.426	11101.4
445.185	12061.5
449.941	11535.7
454.695	10237.4
459.445	8166.75
464.194	5623.36
468.939	3803.63
473.682	2413
478.423	1443.45
483.16	797.992
487.895	364.624
492.627	53.3506
497.357	25.9336
502.084	44.4785
506.808	99.1914
511.53	155.099
516.249	21.2207
520.965	214.032
525.679	87.1631
530.39	109.933
535.098	204.253
539.804	130.441
544.507	139.708
549.208	166.048
553.906	464.457
558.601	786.93
563.293	990.458
567.983	1351.03
572.671	1722.64
577.355	2259.29
582.037	2703.01
586.717	3505.85
591.393	4339.81
596.067	5448.99
600.739	6392.34
605.408	7642.96
610.074	8175.43
614.737	7865.52
619.398	6841.79
624.057	5631.37
628.712	3984.59
633.365	2815.06
638.016	1951.32
642.664	1389.68
647.309	794.243
651.951	443.614
656.591	138.933
661.229	34.0093
665.863	124.243
670.495	9.89014
675.125	14.6065
679.752	147.711
684.376	254.395
688.998	228.627
693.617	375.375
698.233	300.601
702.847	361.272
707.458	446.364
712.066	338.847
716.672	261.043
721.276	204.368
725.877	300.055
730.475	182.165
735.07	137.364
739.663	148.136
744.254	143.883
748.841	92.8267
753.426	91.5049
758.009	142.253
762.589	236.712
767.166	371.522
771.741	463.481
776.313	527.04
780.883	497.698
785.45	761.69
790.014	795.77
794.576	898.156
799.135	1037.08
803.692	1022.9
808.246	936.185
812.797	930.126
817.346	850.116
821.893	706.191
826.436	485.932
830.977	549.642
835.516	343.899
840.052	204.225
844.585	120.063
849.116	97.2637
853.645	33.7207
858.17	52.2017
862.693	48.0601
867.214	18.9233
871.732	12.5562
876.247	2.21484
880.76	30.2368
885.27	22.6997
889.778	54.1685
894.283	3.15088
898.786	82.543
903.286	42.4209
907.783	40.1133
912.278	47.3223
916.77	105.16
921.26	114.274
925.747	147.485
930.232	206.121
934.714	178.757
939.193	294.483
943.67	164.017
948.145	268.176
952.617	227.125
957.086	237.463
961.553	285.082
966.017	380.978
970.479	246.669
974.938	276.307
979.394	281.562
983.848	218.22
988.3	285.713
992.749	311.537
997.195	422.467
1001.64	314.728
1006.08	363.611
1010.52	343.717
1014.96	347.523
1019.39	233.198
1023.82	283.627
1028.25	213.762
1032.67	179.831
1037.1	274.043
1041.52	153.559
1045.94	266.176
1050.35	110.913
1054.77	84.5405
1059.18	146.635
1063.59	74.3433
1067.99	96.0693
1072.4	128.69
1076.8	189.81
1081.19	157.586
1085.59	134.626
1089.98	173.886
1094.38	83.6816
1098.76	187.637
1103.15	121.372
1107.53	91.6421
1111.91	79.3374
1116.29	39.1431
1120.67	52.1133
1125.04	177.874
1129.41	134.236
1133.78	19.9814
1138.14	21.186
1142.51	95.3047
1146.87	78.3169
1151.23	136.087
1155.58	41.3145
1159.93	113.68
1164.29	114.922
1168.63	96.6167
1172.98	66.6191
1177.32	5.65137
1181.66	25.6352
1186	104.086
1190.34	77.3555
1194.67	17.4399
1199	24.479
1203.33	46.939
1207.65	62.6895
1211.98	70.1274
1216.3	107.85
1220.62	123.78
1224.93	123.673
1229.24	57.7754
1233.56	168.769
1237.86	4.93457
1242.17	56.4243
1246.47	152.431
1250.77	103.627
1255.07	138.04
1259.37	143.717
1263.66	67.1758
1267.95	73.3481
1272.24	110.589
1276.53	59.7754
1280.81	55.1138
1285.09	85.5967
1289.37	7.63232
1293.64	1.87305
1297.92	52.4404
1302.19	61.209
1306.46	161.096
1310.72	28.4668
1314.99	33.7402
1319.25	78.7769
1323.51	25.7256
1327.76	61.6343
1332.02	71.7148
1336.27	1.47803
1340.52	29.0542
1344.76	25.334
1349.01	138.533
1353.25	54.3569
1357.49	159.714
1361.72	109.882
1365.96	79.2778
1370.19	82.52
1374.42	57.0044
1378.64	118.216
1382.87	61.1699
1387.09	30.2007
1391.31	72.0371
1395.53	134.783
1399.74	77.1733
1403.95	88.5727
1408.16	34.8667
1412.37	84.0073
1416.58	2.20801
1420.78	57.5054
1424.98	22.1704
1429.18	35.231
1433.37	48.3096
1437.56	15.6773
1441.75	65.7212
1445.94	47.0908
1450.13	29.3252
1454.31	102.166
1458.49	26.6445
1462.67	72.0249
1466.84	104.825
1471.02	15.9058
1475.19	3.09228
1479.36	83.1567
1483.52	5.84375
1487.68	39.729
1491.85	39.4038
1496	161.812
1500.16	136.743
1504.31	27.7773
1508.46	158.135
1512.61	38.229
1516.76	100.677
1520.9	102.171
1525.05	37.0723
1529.18	59.8169
1533.32	60.4253
1537.45	10.125
1541.59	45.4033
1545.72	80.5371
1549.84	66.2524
1553.97	47.3833
1558.09	113.2
1562.21	104.729
1566.33	111.079
1570.44	37.9497
1574.56	71.9551
1578.67	0
