Measurement: Raman, 514 nm, ccw, Raman Data Processed
Mineral: Rutile
Rruff sample: R040049
Ideal chemistry: Ti^4+^O_2_
Locality: Graves Mountain, Lincoln County, Georgia, USA
Source: University of Arizona Mineral Museum
Description: Reddish-black fragments
Measured chemistry: (Ti_1.00_Fe_0.01_)O_2_
Pin_id: L00223
Orientation: Laser parallel to c* (0 0 1). Fiducial mark perpendicular to laser is parallel to -a [-1 0 0]
Raman shift (cm-1)	intensity
100.823	0
105.776	2037.58
110.726	3483.75
115.673	6218.36
120.617	9798.56
125.559	9894.39
130.497	7589.69
135.433	10758.8
140.366	13857.7
145.296	11469.8
150.224	5673.81
155.149	2576.61
160.071	469.586
164.99	331.812
169.906	604.969
174.82	170.617
179.731	791.68
184.639	3206.11
189.544	5113.44
194.447	6813.59
199.346	8322.28
204.243	10840.7
209.137	12401.8
214.029	14461.3
218.918	17006.6
223.803	19604.9
228.687	21242.1
233.567	23163.3
238.444	23434
243.319	23387.3
248.191	21389.6
253.061	17989.5
257.927	15526.4
262.791	13231.9
267.652	11349.7
272.51	10242.2
277.366	8662.94
282.219	7308.67
287.069	5989.99
291.916	4616.67
296.761	3892.22
301.602	3085.13
306.441	3433.95
311.278	3584.97
316.111	3773.19
320.942	3423.58
325.77	3386.22
330.596	3238.43
335.418	2655.72
340.238	2889.7
345.055	2842.51
349.87	3393.7
354.681	3770.81
359.49	4138.8
364.296	3875.33
369.1	3341.49
373.901	2687.96
378.699	2133.85
383.494	1886.12
388.287	1396.75
393.077	1096.88
397.864	345.32
402.648	156.742
407.43	255.754
412.209	22.1211
416.985	475.531
421.759	914.031
426.53	830.488
431.298	1194.61
436.063	1964.57
440.826	2110.56
445.586	2060.35
450.343	1755.32
455.098	1643
459.85	1269.2
464.599	777.125
469.345	204.414
474.089	296.602
478.83	605.848
483.569	1238.52
488.304	1250.13
493.037	1332.98
497.768	777.168
502.495	365.871
507.22	180.848
511.942	1274.89
516.662	2103.85
521.379	3684.94
526.093	4885.37
530.805	6578.35
535.513	8446.09
540.22	11249.8
544.923	13799.6
549.624	17691.2
554.322	22461.4
559.017	28860.1
563.71	37203.7
568.4	46921.9
573.087	58487.1
577.772	72931.9
582.454	89604.7
587.134	109029
591.81	133290
596.484	161176
601.156	190604
605.824	214768
610.49	228215
615.154	222615
619.815	199972
624.473	168749
629.128	138099
633.781	111079
638.431	88190.9
643.078	72357.2
647.723	59501.3
652.365	49690.8
657.005	42459.8
661.642	36935
666.276	33251.1
670.907	29966
675.536	26934.6
680.162	24829.9
684.786	22297.3
689.407	20268.4
694.025	19169.1
698.641	17393.7
703.254	15166.2
707.864	13557.3
712.472	11823.6
717.077	9939.79
721.68	8696.49
726.28	7152.65
730.877	6237.66
735.472	5702.43
740.064	4792.83
744.653	4542.69
749.24	4830.38
753.824	4925.25
758.405	5450.06
762.984	6296.22
767.56	6938.18
772.134	8425.23
776.705	9985.1
781.273	11482.9
785.839	12776.3
790.402	14523.2
794.963	16361.3
799.521	16301.1
804.076	16506.5
808.629	15643.2
813.179	14724.6
817.726	13489.2
822.271	11953
826.813	10030.4
831.353	8738.51
835.89	6950.44
840.425	5590.64
844.956	4094.34
849.486	2883.15
854.012	1739.48
858.536	1110.81
863.058	340.176
867.577	104.41
872.093	388.119
876.607	470.713
881.118	753.848
885.626	777.268
890.132	740.703
894.636	751.277
899.136	570.551
903.635	461.596
908.13	395.809
912.623	113.824
917.114	56.5
921.602	169.154
926.087	231.574
930.57	464.289
935.05	576.527
939.527	516.168
944.002	883.062
948.475	1016.43
952.944	1171.26
957.412	1113.29
961.876	1456.22
966.338	1606.92
970.798	1512.14
975.255	1661.15
979.709	1901.7
984.161	1924.97
988.611	2003.31
993.057	2179.08
997.501	2418.91
1001.94	1980.89
1006.38	2301.39
1010.82	2364.15
1015.25	2175.24
1019.68	1929.03
1024.11	1857.59
1028.54	1902.67
1032.96	1841.07
1037.38	1661.37
1041.8	1580.37
1046.22	1377.57
1050.63	1270.9
1055.04	1268.01
1059.45	1154.83
1063.86	1225.02
1068.26	1160.51
1072.66	972.254
1077.06	1068.25
1081.46	992.104
1085.85	926.713
1090.24	791.523
1094.63	876.356
1099.01	811.752
1103.4	727.396
1107.78	807.703
1112.16	706.834
1116.53	722.9
1120.9	780.107
1125.28	681.361
1129.64	474.84
1134.01	400.125
1138.37	415.547
1142.73	395.787
1147.09	553.691
1151.44	112.672
1155.8	208.481
1160.15	180.287
1164.5	207.715
1168.84	225.719
1173.18	41.3203
1177.52	11.8145
1181.86	223.016
1186.2	268.012
1190.53	351.9
1194.86	170.955
1199.19	380.019
1203.51	164.148
1207.84	265.701
1212.16	298.617
1216.47	206.9
1220.79	316.402
1225.1	232.582
1229.41	349.115
1233.72	331.016
1238.03	240.565
1242.33	204.697
1246.63	321.394
1250.93	155.926
1255.22	351.107
1259.52	301.137
1263.81	176.318
1268.09	301.711
1272.38	108.496
1276.66	101.555
1280.94	30.8164
1285.22	90.3887
1289.49	126.478
1293.77	57.9688
1298.04	104.01
1302.31	46.3203
1306.57	37.168
1310.84	106.07
1315.1	125.555
1319.35	121.33
1323.61	62.6484
1327.86	198.441
1332.11	99.2715
1336.36	71.7363
1340.61	96.9512
1344.85	75.1348
1349.09	154.789
1353.33	23.1582
1357.57	121.727
1361.8	256.922
1366.03	235.815
1370.26	145.014
1374.48	192.441
1378.71	151.848
1382.93	158.736
1387.15	141.65
1391.37	243.172
1395.58	124.719
1399.79	131.281
1404	67.7519
1408.2	54.0898
1412.41	147.1
1416.61	162.492
1420.81	180.85
1425.01	142.992
1429.2	112.994
1433.39	221.969
1437.58	15.0566
1441.77	181.643
1445.95	58.3555
1450.14	61.3867
1454.32	171.273
1458.49	28.6523
1462.67	198.121
1466.84	215.309
1471.01	12.2793
1475.18	163.334
1479.34	149.625
1483.51	120.623
1487.66	406.672
1491.82	181.092
1495.98	314.293
1500.13	427.672
1504.28	244.627
1508.43	459.971
1512.58	425.617
1516.72	186.158
1520.86	314.615
1525	272.893
1529.13	221.971
1533.27	118.371
1537.4	251.559
1541.53	180.785
1545.65	218.057
1549.78	165.316
1553.9	153.006
1558.02	192.498
1562.13	272.826
1566.25	308.955
1570.36	183.185
1574.47	1.66406
1578.58	0.158203
