Measurement: Raman, 514 nm, ccw, Raman Data Processed
Mineral: Rutile
Rruff sample: R040049
Ideal chemistry: Ti^4+^O_2_
Locality: Graves Mountain, Lincoln County, Georgia, USA
Source: University of Arizona Mineral Museum
Description: Reddish-black fragments
Measured chemistry: (Ti_1.00_Fe_0.01_)O_2_
Pin_id: L00145
Orientation: Laser parallel to [1 -1 0]. Fiducial mark perpendicular to laser is parallel to c [0 0 1]
Raman shift (cm-1)	intensity
84.006	0
88.968	60.3477
93.927	2859.25
98.883	3883.59
103.836	5484.72
108.787	8361.38
113.734	8796.85
118.679	9628.52
123.621	10364.1
128.56	10790.5
133.497	10326.8
138.43	9493.23
143.361	8099.49
148.289	5426.27
153.214	3087.96
158.137	971.051
163.056	160.133
167.973	731.449
172.887	249.203
177.798	1080.94
182.706	3462.56
187.612	5507.73
192.515	7934.36
197.414	9894.25
202.312	11346.7
207.206	13612.5
212.097	15567.2
216.986	17748.1
221.872	19923.7
226.755	22488.8
231.636	25646.6
236.513	27511.4
241.388	28303.5
246.26	27469.8
251.13	25073.2
255.996	21149.2
260.86	18192.7
265.721	15394.8
270.579	13193.3
275.434	11405.8
280.287	9404.25
285.137	7873.75
289.984	5811.87
294.828	4779.22
299.67	3420.52
304.508	3066.67
309.345	3141.77
314.178	3455.88
319.008	3441.12
323.836	3415.78
328.661	2777.74
333.483	2525.27
338.303	1752.84
343.12	1944.21
347.934	1614.59
352.745	1800.25
357.553	2092
362.359	2294.85
367.162	2038.28
371.962	1103.78
376.76	1148.53
381.555	520.203
386.347	74.0898
391.136	317.051
395.922	171.332
400.706	164.34
405.487	554.59
410.266	909.797
415.041	1911.19
419.814	3079.33
424.584	4414.35
429.352	5893.31
434.117	7576.25
438.879	9445.25
443.638	9876.38
448.395	10063.7
453.148	8921.31
457.9	7368.94
462.648	5412.88
467.394	3852.68
472.137	2310.28
476.877	1086.87
481.615	72.3867
486.349	579.269
491.082	1378.29
495.811	1685.62
500.538	1575.29
505.262	1330.32
509.983	272.289
514.702	714.164
519.418	1940.9
524.131	3439.02
528.842	4689.11
533.549	6956.97
538.255	9208.62
542.957	12242.1
547.657	15876.2
552.354	20993.8
557.048	27530.1
561.74	35534.3
566.429	45316.6
571.116	57462.1
575.799	72165.9
580.48	89827.3
585.159	110834
589.834	135299
594.507	163675
599.178	196067
603.845	228113
608.51	252489
613.173	259093
617.832	246417
622.489	217666
627.144	182185
631.795	147701
636.444	117909
641.09	94980.7
645.734	76991.7
650.375	63835.5
655.014	53575
659.649	46973.9
664.282	40290.6
668.913	36090.4
673.54	32826.2
678.165	29784.3
682.788	27284.4
687.408	25167.1
692.025	23018.9
696.639	20480
701.251	18374
705.86	16282.9
710.467	14180.2
715.071	12085.3
719.672	10402.4
724.271	8771.41
728.867	7322.23
733.46	5771.58
738.051	5091.55
742.639	4644.69
747.225	4177.47
751.808	4209.61
756.388	4456.2
760.966	5085.78
765.541	5733.93
770.113	7172.05
774.683	8469.05
779.25	10448
783.815	12003.8
788.377	13676.9
792.936	15498.6
797.493	16341.7
802.047	17213.2
806.598	16889.3
811.147	16615.6
815.693	15593.2
820.237	14434.1
824.778	13195.1
829.316	12026
833.852	10466.1
838.386	8649.4
842.916	6567.99
847.444	5065.01
851.97	3415.71
856.493	2078.43
861.013	1069.49
865.531	842.07
870.046	121.553
874.558	274.992
879.068	697.252
883.575	489.389
888.08	668.531
892.582	934.627
897.082	469.713
901.579	700.17
906.073	485.963
910.565	228.459
915.054	39.6992
919.541	188.551
924.025	54.7168
928.507	80.1582
932.986	556.9
937.462	307.805
941.936	783.959
946.407	1013.75
950.876	939.967
955.342	1233.51
959.806	1278.08
964.267	1373.94
968.725	1474.99
973.181	1825.57
977.634	1719.06
982.085	1965.53
986.533	2169.65
990.979	2266.47
995.422	2123.71
999.863	2265.91
1004.3	2401.3
1008.74	2410.57
1013.17	2368.11
1017.6	2367.06
1022.03	2300.74
1026.45	2009.4
1030.88	2223.73
1035.3	2120.65
1039.71	1961.93
1044.13	1573.37
1048.54	1663.68
1052.95	1727.95
1057.36	1388.85
1061.76	1472.46
1066.17	1455.13
1070.57	1188.31
1074.96	1149.28
1079.36	1264.66
1083.75	1131.57
1088.14	1033.94
1092.53	950.41
1096.91	849.721
1101.29	777.248
1105.67	886.326
1110.05	894.128
1114.43	875.082
1118.8	744.454
1123.17	647.658
1127.54	573.621
1131.9	499.415
1136.26	489.546
1140.62	534.308
1144.98	509.059
1149.33	371.987
1153.68	274.298
1158.04	303.107
1162.38	243.481
1166.73	328.165
1171.07	245.908
1175.41	359.712
1179.74	285.802
1184.08	328.197
1188.41	500.932
1192.74	299.47
1197.07	315.388
1201.39	409.25
1205.72	425.883
1210.04	271.438
1214.35	354.614
1218.67	134.894
1222.98	426.499
1227.29	437.504
1231.6	349.545
1235.9	336.601
1240.2	540.426
1244.5	318.562
1248.8	528.578
1253.1	326.228
1257.39	325.09
1261.68	258.963
1265.96	350.208
1270.25	207.299
1274.53	225.173
1278.81	42.5859
1283.09	108.689
1287.37	92.7451
1291.64	41.3272
1295.91	140.276
1300.18	63.1533
1304.44	81.0635
1308.7	37.7041
1312.96	13.0068
1317.22	0.266602
1321.48	22.4443
1325.73	49.915
1329.98	132.394
1334.23	12.0244
1338.48	129.797
1342.72	205.016
1346.96	143.199
1351.2	278.913
1355.43	72.3291
1359.67	185.81
1363.9	289.601
1368.13	126.923
1372.35	322.08
1376.58	331.188
1380.8	156.02
1385.02	279.514
1389.23	169.016
1393.45	75.71
1397.66	1.22656
1401.87	15.9316
1406.07	258.741
1410.28	150.001
1414.48	216.415
1418.68	96.6143
1422.88	143.294
1427.07	254.124
1431.26	171.916
1435.45	215.84
1439.64	73.2939
1443.83	8.26953
1448.01	1.81738
1452.19	7.2334
1456.37	144.832
1460.54	41.2041
1464.71	2.61035
1468.88	107.189
1473.05	37.7109
1477.22	130.185
1481.38	23.9814
1485.54	111.492
1489.7	56.2734
1493.86	164.067
1498.01	239.099
1502.16	66.958
1506.31	299.16
1510.45	263.147
1514.6	150.516
1518.74	235.904
1522.88	223.861
1527.02	285.101
1531.15	365.053
1535.28	142.789
1539.41	232.499
1543.54	316.729
1547.66	127.428
1551.79	300.474
1555.91	291.779
1560.03	96.6035
1564.14	206.185
1568.25	53.5078
1572.36	101.309
1576.47	2.5293
