Measurement: Raman, 514 nm, depolarized, Raman Data Processed
Mineral: Rutile
Rruff sample: R050031
Ideal chemistry: Ti^4+^O_2_
Locality: Chester City, Pennsylvannia, USA
Source: University of Arizona Mineral Museum
Description: Reddish brown single crystal fragment
Measured chemistry: TiO_2_
Pin_id: M00132
Orientation: Laser parallel to -a* (-1 0 0). Fiducial mark perpendicular to laser is parallel to -c [0 0 -1]
Raman shift (cm-1)	intensity
101.049	0
105.24	126.811
109.429	355.271
113.616	1249.33
117.8	1172.08
121.983	1292.03
126.163	1373.43
130.342	1417.99
134.518	2079.26
138.692	3004.11
142.864	2205.59
147.034	1224.2
151.201	608.914
155.367	179.074
159.53	23.99
163.692	146.488
167.851	102.275
172.008	236.331
176.163	599.097
180.316	1005.85
184.467	1626.41
188.616	2139.29
192.762	2964.16
196.907	3421.03
201.049	4249.86
205.189	4991.42
209.328	5823.81
213.464	6398.12
217.598	6834.18
221.73	7174.95
225.86	8059.9
229.988	8167.04
234.113	8056.18
238.237	8457.35
242.359	8290.6
246.478	7455.98
250.595	6913.49
254.711	6143.18
258.824	5665.07
262.935	4929.17
267.044	4619.3
271.151	4017.89
275.256	3420.2
279.359	2894.45
283.46	2160.2
287.559	1546.91
291.656	934.945
295.75	324.357
299.843	72.238
303.933	38.912
308.022	242.158
312.108	155.385
316.193	370.713
320.275	518.094
324.355	486.201
328.434	418.146
332.51	240.389
336.584	329.453
340.656	640.182
344.726	539.514
348.794	755.537
352.86	868.617
356.924	882.053
360.986	865.285
365.046	825.594
369.104	804.984
373.159	836.129
377.213	769.035
381.265	783.709
385.315	1010.13
389.362	1348.26
393.408	1558.1
397.451	1949.65
401.493	2282.92
405.533	3347.92
409.57	3974.66
413.606	5213.13
417.639	6313.35
421.671	7845.32
425.7	9229.05
429.728	10934.6
433.753	12422
437.777	14241.6
441.798	14843.1
445.818	14636.6
449.835	13312.1
453.851	11379.6
457.864	8879.19
461.876	6430.82
465.885	4323.9
469.893	3109.68
473.898	1647.52
477.902	1047.43
481.903	419.389
485.903	66.609
489.9	210.643
493.896	443.211
497.889	375.035
501.881	256.113
505.87	36.021
509.858	205.781
513.844	259.537
517.827	585.275
521.809	962.99
525.789	1122.68
529.766	1144.32
533.742	1447.91
537.716	1613.47
541.688	2131.08
545.657	2750.84
549.625	3142.97
553.591	4177.54
557.555	5144.72
561.517	6374.43
565.477	7686.64
569.435	9951.4
573.391	11938.7
577.345	14068.5
581.297	16900.6
585.248	20078.6
589.196	23451.7
593.142	27490.4
597.086	31931.2
601.029	37164
604.969	40348.6
608.908	41185
612.844	40533.1
616.779	35763
620.712	30594.5
624.642	25887.6
628.571	21142.3
632.498	17278.5
636.423	14026.2
640.346	11885.3
644.267	9327.87
648.186	7972.53
652.103	6935.38
656.019	5898.6
659.932	5465.44
663.843	4849.57
667.753	4623.6
671.66	4363.04
675.566	4033.64
679.47	4145.36
683.372	3978.16
687.271	4031.99
691.169	3846.82
695.065	3775.56
698.96	3414.91
702.852	3580.19
706.742	3127.22
710.631	3008.21
714.517	2499.85
718.402	2507.03
722.284	1941.4
726.165	1766.23
730.044	1580.9
733.921	1591.09
737.796	1250.7
741.669	1129.18
745.54	1015.83
749.41	864.897
753.277	880.123
757.143	910.277
761.006	837.003
764.868	983.136
768.728	887.263
772.586	970.396
776.442	1191.72
780.297	1381.7
784.149	1520.02
787.999	1807.55
791.848	1723.26
795.695	1868.24
799.54	1716.46
803.382	1974.37
807.224	1740.74
811.063	1677.94
814.9	1482.99
818.736	1338.96
822.569	1134.56
826.401	926.338
830.231	776.728
834.059	594.066
837.885	399.348
841.709	265.289
845.532	144.216
849.352	33.868
853.171	54.801
856.988	140.605
860.803	112.132
864.616	183.657
868.427	134.458
872.236	138.1
876.044	125.258
879.849	131.087
883.653	51.518
887.455	3.334
891.255	59.777
895.054	48.782
898.85	32.479
902.645	42.445
906.438	141.983
910.229	204.562
914.018	235.416
917.805	254.489
921.59	362.184
925.374	338.05
929.156	432.132
932.936	456.683
936.714	494.345
940.49	592.04
944.264	615.246
948.037	658.74
951.808	650.584
955.577	696.716
959.344	715.227
963.109	739.772
966.872	811.709
970.634	819.926
974.394	808.399
978.152	854.568
981.908	838.446
985.663	844.772
989.415	910.465
993.166	913.373
996.915	924.532
1000.66	997.321
1004.41	978.313
1008.15	888.388
1011.89	938.545
1015.63	859.372
1019.37	861.023
1023.11	814.062
1026.84	736.133
1030.57	674.755
1034.31	606.289
1038.03	555.021
1041.76	576.995
1045.49	459.346
1049.21	608.376
1052.93	490.223
1056.65	468.288
1060.37	450.827
1064.09	439.73
1067.8	353.497
1071.52	345.445
1075.23	333.396
1078.94	285.303
1082.64	299.159
1086.35	311.655
1090.05	291.165
1093.76	287.144
1097.46	300.738
1101.16	267.175
1104.85	217.214
1108.55	256.676
1112.24	241.591
1115.93	237.355
1119.62	241.811
1123.31	225.758
1127	219.029
1130.68	224.044
1134.37	178.482
1138.05	165.847
1141.72	187.649
1145.4	172.928
1149.08	177.256
1152.75	208.404
1156.42	125.417
1160.1	162.524
1163.76	162.948
1167.43	203.478
1171.1	112.18
1174.76	126.636
1178.42	139.492
1182.08	153.398
1185.74	137.381
1189.4	135.065
1193.05	167.643
1196.7	167.99
1200.36	183.486
1204.01	146.292
1207.65	136.25
1211.3	232.24
1214.94	181.788
1218.59	140.398
1222.23	219.932
1225.87	167.656
1229.5	194.834
1233.14	149.192
1236.77	201.946
1240.41	214.065
1244.04	191.607
1247.66	152.172
1251.29	162.31
1254.92	200.43
1258.54	112.788
1262.16	170.975
1265.78	140.806
1269.4	138.443
1273.02	139.646
1276.63	139.529
1280.25	90.635
1283.86	105.645
1287.47	111.788
1291.08	65.968
1294.68	16.879
1298.29	20.474
1301.89	9.025
1305.49	0.424
1309.09	25.305
1312.69	8.679
1316.29	7.223
1319.88	34.704
1323.47	48.168
1327.06	6.613
1330.65	17.852
1334.24	9.684
1337.83	63.498
1341.41	32.62
1344.99	8.264
1348.57	15.454
1352.15	3.688
1355.73	1.712
1359.31	9.967
1362.88	15.648
1366.45	18.363
1370.02	37.256
1373.59	50.426
1377.16	9.364
1380.73	1.037
1384.29	16.698
1387.85	6.417
1391.41	41.892
1394.97	62.125
1398.53	26.111
1402.09	23.673
1405.64	56.647
1409.19	77.113
1412.74	73.976
1416.29	46.859
1419.84	69.484
1423.38	66.249
1426.93	67.204
1430.47	56.12
1434.01	47.365
1437.55	38.386
1441.09	61.644
1444.62	40.86
1448.16	55.565
1451.69	35.704
1455.22	40.668
1458.75	55.022
1462.28	52.115
1465.8	31.444
1469.33	8.419
1472.85	55.417
1476.37	29.202
1479.89	68.448
1483.4	30.171
1486.92	96.062
1490.43	79.865
1493.95	17.317
1497.46	22.711
1500.97	10.908
1504.47	86.417
1507.98	73.473
1511.48	27.496
1514.99	7.774
