Measurement: Raman, 514 nm, ccw, Raman Data Processed
Mineral: Rutile
Rruff sample: R050417
Ideal chemistry: Ti^4+^O_2_
Locality: Champion mine, Mono County, California, USA
Source: Marcus Origlieri
Description: Reddish black equant crystals
Measured chemistry: TiO_2_
Pin_id: L01608
Orientation: Laser parallel to -c* (0 0 -1). Fiducial mark perpendicular to laser is parallel to a [1 0 0]
Raman shift (cm-1)	intensity
89.67	0
94.629	24.916
99.585	540.062
104.538	1290.97
109.489	2339
114.436	3159.62
119.381	4574.77
124.323	4476.85
129.263	3539.89
134.199	4186.42
139.133	4572.22
144.064	4405.71
148.992	1779.6
153.918	535.9
158.84	17.2949
163.76	221.779
168.677	184.084
173.592	262.728
178.503	759.68
183.412	1853.98
188.318	2505.5
193.221	3440.77
198.122	3989.8
203.019	4812.38
207.914	5370.43
212.806	6584.46
217.696	7289.59
222.582	7958.03
227.466	8762.48
232.347	9170.89
237.225	9489.52
242.101	9202.71
246.974	8233.19
251.844	7247.56
256.711	5861.08
261.575	5066.32
266.437	4446.73
271.296	3793.51
276.152	3143.35
281.006	2706.84
285.857	2109.36
290.705	1438.77
295.55	1367.01
300.392	1016.02
305.232	1042.62
310.069	991.158
314.903	1419.13
319.735	1326.42
324.563	1162.45
329.39	986.717
334.213	782.051
339.033	959.018
343.851	1084.09
348.666	1189.99
353.479	1328.77
358.288	1528.05
363.095	1447.21
367.899	1422.44
372.701	1095.54
377.5	943.514
382.296	744.418
387.089	590.389
391.879	373.426
396.667	164.494
401.452	141.416
406.235	112.926
411.014	246.861
415.791	239.537
420.566	237.141
425.337	369.09
430.106	580.461
434.872	770.281
439.635	1004.58
444.396	1002.39
449.154	791.295
453.909	656.041
458.662	615.01
463.412	74.2266
468.159	108.164
472.903	193.305
477.645	326.572
482.384	306.641
487.121	550.133
491.854	344.053
496.585	354.248
501.314	89.0176
506.039	218.682
510.762	544.729
515.482	984.227
520.2	1450.25
524.915	1975.86
529.627	2433.14
534.336	3262.14
539.043	4245.63
543.747	5714.41
548.449	7124.53
553.148	9287.85
557.844	11661.9
562.537	15157.9
567.228	19079.9
571.916	24136.1
576.601	29564.7
581.284	36508.7
585.964	44789
590.641	53726.8
595.316	65192.3
599.988	76938.8
604.657	86964.6
609.324	92121.1
613.988	90250.7
618.65	81326.6
623.308	68976.5
627.964	56230.8
632.618	45015.4
637.269	36042.3
641.917	28825.5
646.562	24052.6
651.205	19947.3
655.845	17335.3
660.483	14826.6
665.117	13413
669.75	12054.6
674.379	10993.6
679.006	10189.7
683.63	9104.2
688.252	8562.17
692.871	7848.38
697.487	6950.91
702.101	6073.52
706.712	5470.02
711.321	4683.35
715.926	3925.44
720.529	3367.22
725.13	2596.64
729.728	2057.23
734.323	1761.96
738.916	1415.08
743.506	1357.3
748.093	1224.07
752.678	1342.39
757.26	1602.62
761.84	1639.71
766.417	1860.55
770.991	2290.46
775.562	2665.13
780.131	3288.61
784.698	3800.35
789.262	4324.92
793.823	4594.16
798.381	4895.32
802.937	5158.17
807.491	4932.08
812.042	4585.6
816.59	4199.54
821.135	3729.35
825.678	3362.5
830.218	2767.96
834.756	2355.18
839.291	1796.52
843.824	1279.85
848.354	1700.86
852.881	642.759
857.406	206.363
861.928	125.953
866.447	92.8486
870.964	156.079
875.479	99.0947
879.99	274.981
884.5	287.126
889.006	268.882
893.51	181.181
898.012	181.161
902.51	189.967
907.007	115.029
911.5	55.0586
915.991	170.149
920.48	38.0098
924.966	116.412
929.449	184.245
933.93	222.921
938.408	274
942.884	336.319
947.357	512.585
951.827	394.153
956.295	533.758
960.76	580.691
965.223	481.938
969.683	637.519
974.141	669.038
978.596	736.114
983.049	732.483
987.498	726.921
991.946	802.649
996.391	817.827
1000.83	910.8
1005.27	812.325
1009.71	880.415
1014.14	692.405
1018.58	707.8
1023.01	634.481
1027.43	591.044
1031.86	487.253
1036.28	556.939
1040.7	531.023
1045.12	358.66
1049.53	474.914
1053.94	470.577
1058.35	443.207
1062.76	444.059
1067.16	432.468
1071.56	290.242
1075.96	316.357
1080.36	384.454
1084.75	442.373
1089.14	345.402
1093.53	289.347
1097.92	187.899
1102.3	246.947
1106.68	249.93
1111.06	209.028
1115.44	133.914
1119.81	128.861
1124.18	222.111
1128.55	173.811
1132.92	133.472
1137.28	185.838
1141.64	117.947
1146	74.5361
1150.36	153.662
1154.71	146.824
1159.06	28.2427
1163.41	62.6011
1167.76	19.0835
1172.1	67.0684
1176.44	79.6519
1180.78	67.6831
1185.11	163.608
1189.45	99.8374
1193.78	90.855
1198.11	193.194
1202.43	51.2144
1206.76	166.089
1211.08	79.8125
1215.39	159.562
1219.71	144.277
1224.02	154.565
1228.34	137.269
1232.64	150.579
1236.95	127.629
1241.25	67.1768
1245.55	120.958
1249.85	87.5088
1254.15	178.11
1258.44	3.93897
1262.73	48.7461
1267.02	215.254
1271.31	145.585
1275.59	81.0869
1279.87	28.2578
1284.15	99.6523
1288.43	87.5864
1292.7	44.456
1296.97	44.4004
1301.24	36.2559
1305.51	0.899902
1309.77	106.186
1314.03	29.5723
1318.29	100.453
1322.55	77.2983
1326.8	84.6045
1331.05	7.34619
1335.3	85.1357
1339.55	50.0625
1343.79	131.99
1348.03	101.65
1352.27	145.849
1356.51	152.285
1360.74	135.391
1364.97	93.1982
1369.2	147.106
1373.43	105.758
1377.65	59.2734
1381.87	207.931
1386.09	89.9341
1390.31	40.6787
1394.53	99.7773
1398.74	86.0601
1402.95	124.971
1407.15	93.4697
1411.36	63.25
1415.56	186.762
1419.76	111.825
1423.96	22.1201
1428.15	177.42
1432.35	66.3242
1436.54	60.8804
1440.72	101.191
1444.91	113.878
1449.09	41.9741
1453.27	67.1113
1457.45	55.4932
1461.62	43.2051
1465.8	46.352
1469.97	149.042
1474.13	97.9404
1478.3	54.6299
1482.46	225.201
1486.62	99.2817
1490.78	140.712
1494.94	167.853
1499.09	168.506
1503.24	104.161
1507.39	100.977
1511.54	157.727
1515.68	76.2769
1519.82	154.054
1523.96	200.225
1528.1	81.249
1532.23	94.1006
1536.37	95.3125
1540.49	80.231
1544.62	48.936
1548.75	201.917
1552.87	283.637
1556.99	116.534
1561.11	99.5195
1565.22	48.0786
1569.33	60.3506
1573.44	0.866211
