Measurement: Raman, 514 nm, depolarized, Raman Data Processed
Mineral: Rutile
Rruff sample: R040049
Ideal chemistry: Ti^4+^O_2_
Locality: Graves Mountain, Lincoln County, Georgia, USA
Source: University of Arizona Mineral Museum
Description: Reddish-black fragments
Measured chemistry: (Ti_1.00_Fe_0.01_)O_2_
Pin_id: L00223
Orientation: Laser parallel to c* (0 0 1). Fiducial mark perpendicular to laser is parallel to -a [-1 0 0]
Raman shift (cm-1)	intensity
93.389	0
98.346	87.1602
103.3	1869.96
108.251	3853.29
113.2	6219.64
118.145	9432.73
123.088	11801.6
128.028	10119.2
132.965	10344.7
137.9	11535.9
142.832	12061.6
147.761	8414.45
152.687	3870.18
157.61	1671.17
162.531	203.172
167.448	715.277
172.363	372.519
177.276	294.012
182.185	2677.28
187.092	5011.26
191.996	6943.59
196.897	8978.53
201.795	10629.1
206.691	12785.8
211.584	14657.6
216.474	16953.7
221.361	19552.3
226.245	22251.5
231.127	24552.2
236.006	26817.8
240.882	27080.6
245.756	26299
250.626	24045.4
255.494	20225.7
260.36	17416.7
265.222	15322.1
270.082	13296.1
274.939	11618
279.793	10054.9
284.644	8423.99
289.493	6435.27
294.339	5343.4
299.182	4522.11
304.022	3829.25
308.86	4177.33
313.695	4473.15
318.527	4467.43
323.357	4268.73
328.183	3990.47
333.007	3521.8
337.829	3377.22
342.647	3169.31
347.463	3429.83
352.276	3681.59
357.086	3661.09
361.894	3830.2
366.699	3541.06
371.501	2628.93
376.3	2100.02
381.097	1941.23
385.891	1481.75
390.682	945.953
395.47	835.199
400.256	457.844
405.039	89.7031
409.82	72.8984
414.597	365.836
419.372	668.828
424.144	1414.62
428.914	1588.1
433.681	2639.39
438.445	2835.59
443.206	3153.83
447.965	3442.21
452.721	2598.96
457.474	2275.55
462.225	1622.77
466.972	1216.12
471.718	409.461
476.46	353.324
481.2	920.133
485.937	1161.29
490.671	1122.67
495.403	1234.91
500.132	1134.69
504.858	620.203
509.582	383.609
514.303	1486.19
519.021	2618.08
523.736	3977.53
528.449	5574.75
533.159	7218.28
537.867	9536.29
542.572	12174.3
547.274	16009.7
551.973	20816
556.67	26855.9
561.364	34190.6
566.055	43719.3
570.744	54746.9
575.43	68562.8
580.114	84914.1
584.794	104764
589.472	128258
594.148	155051
598.82	186407
603.49	217106
608.158	241873
612.823	248591
617.485	237038
622.144	209162
626.801	174979
631.455	142297
636.106	113433
640.755	91561.9
645.401	74091
650.045	61712.1
654.685	51656.4
659.323	44453.3
663.959	38981.4
668.592	35093.7
673.222	31130
677.85	28200.1
682.475	26397.5
687.097	23793.7
691.717	21901.8
696.334	19718.2
700.948	17835.3
705.56	15989
710.169	13853
714.775	12035.3
719.379	10169.6
723.98	8330.63
728.579	7296.33
733.175	6128.84
737.768	5409.45
742.359	5153.37
746.947	4584.55
751.532	4819.64
756.115	5288
760.695	5708.08
765.273	6724.17
769.847	8125.52
774.42	9122.06
778.989	10673.1
783.557	12694.3
788.121	14284
792.683	15993.3
797.242	17031.6
801.799	17756.6
806.353	17519.7
810.904	17085.9
815.453	15681.3
819.999	14336
824.543	13119.4
829.084	11328.3
833.622	9658.58
838.158	7930.86
842.691	6197.26
847.221	4461.28
851.749	3266.83
856.275	2035.81
860.798	1254.55
865.318	506.434
869.835	118.064
874.35	406.65
878.863	709.883
883.373	652.086
887.88	767.279
892.384	833.896
896.886	650.475
901.386	720.566
905.883	709.934
910.377	163.594
914.869	259.734
919.358	87.4219
923.844	210.324
928.328	269.498
932.81	427.559
937.289	688.721
941.765	770.383
946.239	982.969
950.71	894.42
955.178	1136.2
959.644	1479.43
964.108	1448.36
968.569	1600.2
973.027	1878.81
977.482	1831.94
981.936	2031.61
986.386	2103.39
990.834	2188.31
995.28	2346.78
999.723	2330.4
1004.16	2517.09
1008.6	2435.99
1013.04	2373.3
1017.47	2473.89
1021.9	2309.57
1026.33	2132.71
1030.75	1951.64
1035.17	1996.42
1039.59	1787.45
1044.01	1735.7
1048.43	1464.24
1052.84	1405.56
1057.25	1334.07
1061.65	1319.44
1066.06	1232.72
1070.46	1333.29
1074.86	1193.81
1079.26	1103.79
1083.65	1080.86
1088.05	951.09
1092.43	869.451
1096.82	818.982
1101.21	657.531
1105.59	805.262
1109.97	827.818
1114.34	861.918
1118.72	592.697
1123.09	821.211
1127.46	609.959
1131.83	643.543
1136.19	611.977
1140.55	403.438
1144.91	372.162
1149.27	559.098
1153.62	587.981
1157.97	495.693
1162.32	279.709
1166.67	387.232
1171.01	236.234
1175.36	256.328
1179.69	218.926
1184.03	375.478
1188.36	430.725
1192.7	228.58
1197.03	380.986
1201.35	308.107
1205.67	262.734
1210	304.297
1214.32	443.795
1218.63	346.135
1222.95	187.385
1227.26	230.1
1231.57	183.449
1235.87	247.889
1240.18	423.699
1244.48	447.846
1248.78	298.289
1253.07	272.023
1257.37	257.926
1261.66	217.555
1265.95	78.6523
1270.24	181.223
1274.52	60.2734
1278.8	46.5098
1283.08	115.303
1287.36	114.059
1291.63	15.873
1295.9	6.85547
1300.17	8.37695
1304.44	12.7832
1308.7	108.164
1312.96	19.8711
1317.22	43.9512
1321.48	73.4062
1325.74	10.6582
1329.99	56.5176
1334.24	64.0019
1338.48	32.9629
1342.73	73.2422
1346.97	45.7363
1351.21	23.2734
1355.45	110.982
1359.68	153.219
1363.91	83.3027
1368.14	300.381
1372.37	181.006
1376.6	231.035
1380.82	63.9785
1385.04	126.125
1389.26	145.926
1393.47	146.949
1397.68	133.223
1401.89	136.481
1406.1	126.955
1410.31	245.008
1414.51	95.9492
1418.71	301.793
1422.91	175.252
1427.1	104.746
1431.3	232.482
1435.49	36.373
1439.68	13.5977
1443.86	226.268
1448.05	84.6289
1452.23	180.557
1456.4	108.949
1460.58	194.664
1464.75	106.592
1468.92	170.447
1473.09	234.982
1477.26	238.859
1481.42	108.418
1485.59	368.346
1489.74	301.393
1493.9	224.481
1498.06	246.664
1502.21	266.383
1506.36	188.734
1510.5	256.498
1514.65	163.293
1518.79	209.684
1522.93	148.082
1527.07	87.0234
1531.2	296.221
1535.33	97.0996
1539.46	203.935
1543.59	210.596
1547.72	363.65
1551.84	323.283
1555.96	86.041
1560.08	255.793
1564.19	295.418
1568.31	341.144
1572.42	4.87695
1576.53	333.334
1580.63	0
