Measurement: Raman, 514 nm, depolarized, Raman Data Processed
Mineral: Rutile
Rruff sample: R050031
Ideal chemistry: Ti^4+^O_2_
Locality: Chester City, Pennsylvannia, USA
Source: University of Arizona Mineral Museum
Description: Reddish brown single crystal fragment
Measured chemistry: TiO_2_
Pin_id: M00200
Orientation: Laser parallel to c* (0 0 1). Fiducial mark perpendicular to laser is parallel to a [1 0 0]
Raman shift (cm-1)	intensity
95.458	0
99.652	103.784
103.843	315.542
108.033	812.277
112.22	1334.85
116.406	1668.56
120.589	1532.15
124.77	1627.29
128.949	1564.51
133.126	1517.19
137.301	2068.91
141.473	2093.52
145.644	1030.4
149.812	479.102
153.979	239.329
158.143	39.957
162.305	53.777
166.465	35.327
170.623	51.572
174.778	374.035
178.932	775.052
183.083	1116.29
187.233	1637.83
191.38	1699.69
195.525	2261.84
199.669	2514.14
203.81	2820.8
207.949	3139.42
212.085	3513.21
216.22	3948.12
220.353	4194.35
224.483	4536.19
228.612	4927.92
232.738	5234.97
236.863	5272.23
240.985	5321.34
245.105	5191.59
249.223	4654.16
253.339	3952.39
257.453	3539.09
261.565	3055.93
265.675	2462.26
269.783	2419.92
273.888	2128.01
277.992	1666.34
282.093	1554.59
286.193	1092.86
290.29	891.29
294.386	629.315
298.479	536.137
302.57	433.388
306.659	471.146
310.746	459.385
314.831	598.635
318.914	672.373
322.995	651.894
327.074	727.726
331.151	575.062
335.226	479.314
339.299	559.415
343.37	440.114
347.438	451.854
351.505	553.876
355.57	546.213
359.632	458.866
363.693	461.847
367.751	415.159
371.808	388.81
375.862	204.797
379.914	178.113
383.965	116.735
388.013	66.632
392.06	90.179
396.104	149.773
400.146	92.274
404.186	50.723
408.225	3.916
412.261	221.544
416.295	305.106
420.327	541.035
424.357	747.401
428.386	924.227
432.412	1171.51
436.436	1430.78
440.458	1677.49
444.478	1616.21
448.496	1625.43
452.513	1485.16
456.527	1135.42
460.539	776.229
464.549	535.305
468.557	372.551
472.563	137.069
476.567	22.849
480.57	101.297
484.57	217.45
488.568	278.58
492.564	156.504
496.558	225.454
500.551	147.199
504.541	7.318
508.529	180.388
512.515	378.084
516.5	614.413
520.482	997.382
524.462	984.995
528.441	1283.26
532.417	1542.17
536.391	2071.75
540.364	2371.99
544.334	2951.47
548.303	3889.24
552.269	4533.92
556.234	5613.58
560.197	6838.16
564.157	8405.44
568.116	10188.4
572.073	12425.2
576.027	14713.1
579.98	17422
583.931	20637.4
587.88	24213.3
591.827	27885.5
595.772	33048.7
599.715	37633
603.656	42018.1
607.595	45124.2
611.532	45971.2
615.468	43638.9
619.401	40057.4
623.332	34296.8
627.262	29266.9
631.189	24817.7
635.115	20937.9
639.039	17432.3
642.96	15224.2
646.88	12887.1
650.798	11403.9
654.714	10230.2
658.628	9121.25
662.54	8704.16
666.45	7741.55
670.358	6959.63
674.264	6828.4
678.169	6297.83
682.071	5917.93
685.972	5548.67
689.87	5310.05
693.767	4812.04
697.662	4484.64
701.555	4177.85
705.446	3731.8
709.335	3428.77
713.222	2989.1
717.107	2701.04
720.99	2475.04
724.872	2111.91
728.751	1877.47
732.629	1575.16
736.504	1385.42
740.378	1255
744.25	1134.16
748.12	988.413
751.988	935.042
755.854	968.461
759.719	830.367
763.581	809.829
767.442	864.586
771.3	884.046
775.157	852.719
779.012	967.757
782.865	995.428
786.716	1025.34
790.565	1059.12
794.413	1097.8
798.258	1150.16
802.102	1167.55
805.943	1134.4
809.783	1177.68
813.621	1184.38
817.457	1076.14
821.292	1115.51
825.124	1079.55
828.954	920.918
832.783	873.333
836.61	667.518
840.435	647.897
844.258	433.096
848.079	320.102
851.898	266.628
855.715	112.738
859.531	58.286
863.345	9.873
867.157	90.672
870.967	102.967
874.775	90.671
878.581	115.54
882.386	81.375
886.188	111.233
889.989	147.555
893.788	103.035
897.585	59.279
901.38	15.31
905.174	102.026
908.965	53.241
912.755	44.536
916.543	34.3
920.329	44
924.113	66.327
927.895	95.898
931.676	89.386
935.454	126.243
939.231	150.51
943.006	152.085
946.78	138.875
950.551	177.234
954.32	184.139
958.088	203.271
961.854	263.638
965.618	126.494
969.38	201.177
973.141	214.106
976.9	337.487
980.656	296.96
984.411	295.945
988.165	315.415
991.916	298.343
995.665	303.96
999.413	322.121
1003.16	365.441
1006.9	325.917
1010.65	370.952
1014.39	398.457
1018.12	353.674
1021.86	391.597
1025.6	380.743
1029.33	306.448
1033.06	299.851
1036.79	312.542
1040.52	292.113
1044.25	298.05
1047.97	265.115
1051.69	271.299
1055.41	219.823
1059.13	250.185
1062.85	211.635
1066.57	190.078
1070.28	161.391
1073.99	131.83
1077.7	173.551
1081.41	145.606
1085.12	127.229
1088.82	105.805
1092.52	92.718
1096.22	139.172
1099.92	118.23
1103.62	108.605
1107.32	136.335
1111.01	86.652
1114.7	116.219
1118.39	106.755
1122.08	79.295
1125.77	68.039
1129.45	30.17
1133.14	114.749
1136.82	105.841
1140.5	99.238
1144.18	28.813
1147.85	42.378
1151.53	54.935
1155.2	99.655
1158.87	118.236
1162.54	115.665
1166.21	38.554
1169.88	78.979
1173.54	95.679
1177.2	77.232
1180.86	129.281
1184.52	103.708
1188.18	103.587
1191.83	106.469
1195.49	90.237
1199.14	106.123
1202.79	90.884
1206.44	151.268
1210.08	142.94
1213.73	88.434
1217.37	118.658
1221.01	96.919
1224.65	129.685
1228.29	118.326
1231.93	161.522
1235.56	122.403
1239.19	125.718
1242.83	159.014
1246.46	123.671
1250.08	139.282
1253.71	176.721
1257.33	96.036
1260.96	124.513
1264.58	106.219
1268.19	116.464
1271.81	49.417
1275.43	83.145
1279.04	138.039
1282.65	30.847
1286.27	20.856
1289.87	55.372
1293.48	11.891
1297.09	58.561
1300.69	3.808
1304.29	3.63
1307.89	6.508
1311.49	20.405
1315.09	17.432
1318.68	37.113
1322.28	4.699
1325.87	4.951
1329.46	17.418
1333.05	33.871
1336.63	54.072
1340.22	8.109
1343.8	39.006
1347.38	0.222
1350.96	33.688
1354.54	41.357
1358.12	11.709
1361.69	32.198
1365.26	80.359
1368.83	6.409
1372.4	20.804
1375.97	9.045
1379.54	31.973
1383.1	77.598
1386.66	61.323
1390.23	43.769
1393.79	80.941
1397.34	1.213
1400.9	39.062
1404.45	55.121
1408.01	66.292
1411.56	44.18
1415.11	109.358
1418.66	73.811
1422.2	57.807
1425.75	23.756
1429.29	38.046
1432.83	43.661
1436.37	32.396
1439.91	38.567
1443.44	24.061
1446.98	31.966
1450.51	4.414
1454.04	66.944
1457.57	83.239
1461.1	88.035
1464.63	81.701
1468.15	57.571
1471.67	75.24
1475.19	73.52
1478.71	36.968
1482.23	43.088
1485.75	16.014
1489.26	37.601
1492.78	49.031
1496.29	71.25
1499.8	57.381
1503.31	82.41
1506.81	86.111
1510.32	80.257
1513.82	111.386
