Measurement: Raman, 514 nm, ccw, Raman Data Processed
Mineral: Rutile
Rruff sample: R040049
Ideal chemistry: Ti^4+^O_2_
Locality: Graves Mountain, Lincoln County, Georgia, USA
Source: University of Arizona Mineral Museum
Description: Reddish-black fragments
Measured chemistry: (Ti_1.00_Fe_0.01_)O_2_
Pin_id: L00145
Orientation: Laser parallel to [1 -1 0]. Fiducial mark perpendicular to laser is parallel to c [0 0 1]
Raman shift (cm-1)	intensity
87.727	0
92.687	2132.76
97.644	3373.19
102.598	3848.19
107.549	5179.85
112.498	5999.97
117.443	6814.81
122.386	6234.28
127.326	5754.18
132.263	6920.19
137.197	6670.09
142.129	6035.32
147.057	4746.63
151.983	2975.57
156.906	1715.96
161.827	412.023
166.744	267.086
171.659	771.082
176.57	504.785
181.479	187.977
186.386	1932.02
191.289	2807.07
196.19	4523.47
201.088	6091.76
205.983	7611.31
210.875	8833.25
215.764	10398.6
220.651	12034
225.535	13232.3
230.416	14297
235.294	14715.5
240.17	15195.3
245.043	14728.6
249.912	14024.6
254.78	12656.2
259.644	11227
264.506	9545.63
269.365	8088.07
274.221	6851.15
279.074	5653.6
283.925	4334.19
288.772	3420
293.617	1949.05
298.46	1140.22
303.299	433.441
308.136	469.809
312.97	514.035
317.801	552.106
322.629	95.7227
327.455	366.644
332.278	507.242
337.098	623.453
341.916	1007.3
346.73	897.812
351.542	1657.15
356.351	1794.56
361.158	2443.65
365.961	2745.72
370.762	3285.77
375.561	3924.93
380.356	4772.5
385.149	5685.82
389.939	6857.76
394.726	8489.55
399.511	10811
404.292	13572.3
409.071	17394.7
413.848	22367.3
418.621	28341.2
423.392	35587.5
428.16	44441.6
432.926	53400.5
437.688	62255.6
442.448	69395.9
447.206	71649.5
451.96	67557.4
456.712	57279.7
461.461	44094.4
466.207	31610.4
470.951	21035.5
475.692	13753.8
480.43	8278.58
485.166	4712
489.899	2302.11
494.629	400.961
499.356	243.406
504.081	862.731
508.803	457.168
513.522	401.512
518.239	656.516
522.953	322.793
527.664	104.055
532.373	481.656
537.079	840.336
541.782	1238.1
546.482	2407.97
551.18	3781.96
555.875	5099.12
560.568	7525.45
565.257	10856
569.944	13983.7
574.629	18516.3
579.31	23414.6
583.989	29176.5
588.666	36467.1
593.339	45376.5
598.01	55301.3
602.679	65352.5
607.344	73685.3
612.007	76885
616.668	72896.6
621.325	63893.6
625.98	51699.8
630.633	40832.6
635.282	31636.9
639.929	24298.1
644.573	18740.5
649.215	14736.7
653.854	11512.8
658.491	9469.4
663.124	8186.16
667.755	7314.8
672.384	6621.79
677.009	6411.04
681.633	6441.79
686.253	6307.88
690.871	6080.35
695.486	5558.01
700.098	5276.15
704.708	4922.26
709.316	4753.54
713.92	3871.23
718.522	3399.47
723.122	2921.83
727.718	2637.16
732.312	2360.55
736.904	2153.83
741.493	2065.07
746.079	2235.81
750.662	2325.36
755.243	2789.38
759.822	3211.41
764.397	3858.07
768.97	4667.28
773.541	5965.59
778.108	6866.12
782.674	7493.12
787.236	8853.67
791.796	9849.62
796.354	10553.6
800.908	10862
805.461	10866.6
810.01	10393
814.557	9387.3
819.101	8495.95
823.643	7298.88
828.182	6498.16
832.719	5493.41
837.252	4557.05
841.784	3121.71
846.312	2360.97
850.839	1650.34
855.362	1103.48
859.883	502.852
864.401	292.106
868.917	70.4844
873.43	34.5391
877.941	152.857
882.449	320.56
886.954	424.44
891.457	400.938
895.957	310.213
900.455	186.838
904.95	156.373
909.442	0.457031
913.932	72.3652
918.42	344.789
922.904	360.412
927.387	470.045
931.866	537.854
936.343	682.061
940.818	492.935
945.29	682.057
949.759	926.344
954.226	962.428
958.69	852.174
963.152	1128.66
967.611	1227.85
972.067	1347.93
976.521	1106.86
980.973	1106.95
985.421	1405.85
989.868	1376.83
994.311	1480.62
998.753	1585.04
1003.19	1643.68
1007.63	1559.69
1012.06	1251.49
1016.49	1167.04
1020.92	1359.35
1025.35	1117.51
1029.77	1058.31
1034.19	962.823
1038.61	985.143
1043.03	968.464
1047.44	925.297
1051.85	973.901
1056.26	779.336
1060.66	1058.41
1065.07	728.277
1069.47	683.992
1073.86	784.712
1078.26	631.274
1082.65	549.889
1087.04	565.167
1091.43	508.837
1095.82	448.557
1100.2	494.342
1104.58	410.766
1108.96	450.601
1113.33	416.519
1117.7	326.729
1122.08	226.208
1126.44	340.531
1130.81	336.301
1135.17	182.484
1139.53	297.274
1143.89	215.523
1148.24	248.219
1152.6	4.41602
1156.95	81.0225
1161.3	51.1514
1165.64	145.672
1169.98	32.2627
1174.32	190.233
1178.66	90.5088
1183	173.218
1187.33	90.6582
1191.66	103.238
1195.99	195.956
1200.31	105.773
1204.63	128.509
1208.96	94.2188
1213.27	216.961
1217.59	27.6328
1221.9	174.565
1226.21	106.481
1230.52	180.032
1234.83	75.7207
1239.13	214.898
1243.43	308.498
1247.73	120.794
1252.02	227.098
1256.32	204.586
1260.61	26.418
1264.89	245.443
1269.18	75.332
1273.46	130.348
1277.74	172.038
1282.02	254.849
1286.3	152.428
1290.57	43.0166
1294.84	3.18164
1299.11	85.8945
1303.38	13.2979
1307.64	16.709
1311.9	157.181
1316.16	17.0488
1320.41	133.81
1324.67	150.594
1328.92	32.3037
1333.17	30.4678
1337.41	45.9014
1341.66	34.5938
1345.9	34.1309
1350.14	158.677
1354.38	216.694
1358.61	36.6484
1362.84	51.6533
1367.07	220.073
1371.3	118.791
1375.52	176.384
1379.74	70.207
1383.96	189.361
1388.18	237.635
1392.39	196.39
1396.61	212.42
1400.82	172.564
1405.02	76.5635
1409.23	114.528
1413.43	130.372
1417.63	257.606
1421.83	75.6221
1426.02	107.788
1430.21	120.424
1434.41	6.01953
1438.59	154.425
1442.78	225.526
1446.96	125.12
1451.14	198.315
1455.32	222.904
1459.5	86.6152
1463.67	66.2871
1467.84	36.7197
1472.01	42.6816
1476.18	86.2344
1480.34	298.025
1484.5	136.347
1488.66	212.46
1492.82	215.98
1496.97	170.612
1501.12	216.433
1505.27	265.226
1509.42	279.289
1513.56	136.654
1517.71	50.5752
1521.85	226.61
1525.98	50.3525
1530.12	381.468
1534.25	246.737
1538.38	111.083
1542.51	134.587
1546.63	419.816
1550.76	438.476
1554.88	512.953
1559	187.046
1563.11	463.769
1567.22	88.2227
1571.34	203.83
1575.44	228.185
1579.55	0
