Measurement: Raman, 514 nm, ccw, Raman Data Processed
Mineral: Rutile
Rruff sample: R040049
Ideal chemistry: Ti^4+^O_2_
Locality: Graves Mountain, Lincoln County, Georgia, USA
Source: University of Arizona Mineral Museum
Description: Reddish-black fragments
Measured chemistry: (Ti_1.00_Fe_0.01_)O_2_
Pin_id: L01614
Orientation: Laser parallel to -a* (-1 0 0). Fiducial mark perpendicular to laser is parallel to c [0 0 1]
Raman shift (cm-1)	intensity
84.006	0
88.968	351.918
93.927	3795.22
98.883	5059.69
103.836	5696.35
108.787	8865.38
113.734	9710.15
118.679	12429.8
123.621	13445.5
128.56	12732.1
133.497	13912.7
138.43	14474.8
143.361	13797.4
148.289	11371.3
153.214	8913.32
158.137	6129.41
163.056	2974.59
167.973	998.25
172.887	183.438
177.798	109.398
182.706	136.117
187.612	1409.77
192.515	3074.36
197.414	5568.84
202.312	8906.47
207.206	11786.9
212.097	15001.5
216.986	18575.3
221.872	21210.8
226.755	23576.7
231.636	25087.1
236.513	25772.4
241.388	25280.2
246.26	25002.5
251.13	24656.1
255.996	23107.3
260.86	22134.2
265.721	20400.9
270.579	18010.2
275.434	16263.4
280.287	13426
285.137	10601.4
289.984	7535.52
294.828	4561.73
299.67	1743.35
304.508	524.625
309.345	65.0703
314.178	177.57
319.008	210.195
323.836	637.922
328.661	496.82
333.483	228.078
338.303	185.594
343.12	176.344
347.934	65.5859
352.745	19.0156
357.553	88.7812
362.359	30.9844
367.162	533.93
371.962	688.25
376.76	255.727
381.555	595.555
386.347	254.039
391.136	1387.78
395.922	1828.12
400.706	4014.45
405.487	6421.31
410.266	8519.3
415.041	11274
419.814	14453.3
424.584	16245.6
429.352	18558.8
434.117	21694.9
438.879	23492.7
443.638	24816.8
448.395	25115.8
453.148	23989.7
457.9	21414.2
462.648	18273.6
467.394	15006.3
472.137	11713.6
476.877	9594.14
481.615	8547.1
486.349	7303.24
491.082	7069.49
495.811	8331.39
500.538	9028.54
505.262	11027
509.983	13021.1
514.702	14327.8
519.418	15608.6
524.131	16268.5
528.842	17135.2
533.549	16961.5
538.255	16220.4
542.957	15973.8
547.657	15811.9
552.354	15687.5
557.048	15753.6
561.74	16138.5
566.429	16316.7
571.116	17194.7
575.799	17471.8
580.48	18583.9
585.159	19085.3
589.834	20082.9
594.507	21325.3
599.178	22633.8
603.845	22253.9
608.51	21389.7
613.173	17522.1
617.832	12212
622.489	7389.86
627.144	2909.59
631.795	357.488
636.444	767.606
641.09	1330.94
645.734	1092.38
650.375	268.191
655.014	557.844
659.649	2344.97
664.282	3794.75
668.913	5956.4
673.54	8233.65
678.165	10544.9
682.788	12739.5
687.408	15197.7
692.025	16552.6
696.639	17960
701.251	19016.9
705.86	19768
710.467	20495.6
715.071	20905.9
719.672	21021
724.271	21332.6
728.867	21338.1
733.46	21017.1
738.051	21157.4
742.639	20867.6
747.225	21146.8
751.808	21377.6
756.388	22361.9
760.966	23135.5
765.541	24396.4
770.113	25846
774.683	26936.8
779.25	28138.1
783.815	29725.9
788.377	31254
792.936	33014.9
797.493	33534.7
802.047	33605.2
806.598	32302.1
811.147	30437.6
815.693	27280.1
820.237	24089
824.778	20793.5
829.316	17177.8
833.852	14513.5
838.386	11348
842.916	9213.93
847.444	7079.72
851.97	5630.15
856.493	4415.85
861.013	3270.38
865.531	2462.78
870.046	1749.2
874.558	1367.96
879.068	917.926
883.575	276.082
888.08	263.223
892.582	166.875
897.082	59.9258
901.579	68.4922
906.073	335.519
910.565	239.254
915.054	58.0859
919.541	32.7539
924.025	209.766
928.507	125.09
932.986	288.269
937.462	19.9023
941.936	76.8711
946.407	64.6074
950.876	273.633
955.342	51.8438
959.806	156.727
964.267	305.295
968.725	130.701
973.181	235.654
977.634	341.316
982.085	245.336
986.533	198.32
990.979	476.244
995.422	209.777
999.863	342.816
1004.3	455.828
1008.74	226.637
1013.17	451.625
1017.6	425.014
1022.03	144.742
1026.45	190.611
1030.88	387.422
1035.3	405.918
1039.71	346.562
1044.13	324.58
1048.54	402.684
1052.95	294.793
1057.36	300.678
1061.76	199.902
1066.17	129.795
1070.57	155.039
1074.96	335.197
1079.36	152.533
1083.75	119.205
1088.14	142.424
1092.53	106.695
1096.91	68.3926
1101.29	25.709
1105.67	113.242
1110.05	29.0586
1114.43	74.2676
1118.8	5.02539
1123.17	33.4277
1127.54	16.5312
1131.9	27.791
1136.26	50.0156
1140.62	18.0391
1144.98	186.516
1149.33	198.647
1153.68	252.398
1158.04	14.1035
1162.38	211.705
1166.73	156.945
1171.07	28.332
1175.41	144.242
1179.74	175.678
1184.08	224.385
1188.41	315.588
1192.74	43.1074
1197.07	183.504
1201.39	298.066
1205.72	76.9707
1210.04	303.184
1214.35	307.508
1218.67	81.8457
1222.98	168.994
1227.29	212.613
1231.6	140.818
1235.9	216.94
1240.2	297.971
1244.5	466.684
1248.8	187.844
1253.1	519.717
1257.39	274.312
1261.68	317.754
1265.96	288.785
1270.25	236.086
1274.53	281.99
1278.81	396.922
1283.09	300.676
1287.37	332.527
1291.64	262.807
1295.91	214.244
1300.18	10.373
1304.44	167.004
1308.7	294.139
1312.96	347.256
1317.22	68.7207
1321.48	88.4941
1325.73	55.5703
1329.98	56.3086
1334.23	283.291
1338.48	201.674
1342.72	70.4746
1346.96	213.746
1351.2	167.635
1355.43	273.211
1359.67	348.654
1363.9	67.2383
1368.13	259.691
1372.35	198.412
1376.58	164.768
1380.8	188.91
1385.02	185.574
1389.23	100.4
1393.45	146.703
1397.66	276.01
1401.87	151.746
1406.07	228.875
1410.28	231.062
1414.48	99.8203
1418.68	327.572
1422.88	409.815
1427.07	503.324
1431.26	245.906
1435.45	573.525
1439.64	388.666
1443.83	271.363
1448.01	106.611
1452.19	278.168
1456.37	334.088
1460.54	384.66
1464.71	98.5117
1468.88	401.441
1473.05	190.603
1477.22	262.307
1481.38	179.232
1485.54	127.193
1489.7	102.119
1493.86	114.486
1498.01	17.8438
1502.16	137.867
1506.31	275.627
1510.45	293.045
1514.6	83.6191
1518.74	79.4414
1522.88	21.5938
1527.02	341.449
1531.15	398.883
1535.28	124.971
1539.41	230.619
1543.54	343.488
1547.66	115.832
1551.79	345.975
1555.91	346.488
1560.03	115.51
1564.14	208.197
1568.25	419.344
1572.36	37.9375
