Measurement: Raman, 514 nm, ccw, Raman Data Processed
Mineral: Rutile
Rruff sample: R050417
Ideal chemistry: Ti^4+^O_2_
Locality: Champion mine, Mono County, California, USA
Source: Marcus Origlieri
Description: Reddish black equant crystals
Measured chemistry: TiO_2_
Pin_id: L01608
Orientation: Laser parallel to -c* (0 0 -1). Fiducial mark perpendicular to laser is parallel to a [1 0 0]
Raman shift (cm-1)	intensity
89.67	0
94.629	298.57
99.585	549.297
104.538	1493.59
109.489	2238.95
114.436	3518.15
119.381	4398.26
124.323	3411.33
129.263	3274.32
134.199	3787.49
139.133	4194.12
144.064	4847.58
148.992	1845.14
153.918	576.541
158.84	47.3457
163.76	152.32
168.677	236.178
173.592	59.2461
178.503	719.354
183.412	1460.09
188.318	1989.3
193.221	2740.66
198.122	3568.2
203.019	4237.53
207.914	4848.94
212.806	5733.68
217.696	6417.51
222.582	7270.03
227.466	7938.7
232.347	8387.06
237.225	8682.48
242.101	8409.44
246.974	7787.93
251.844	6765.31
256.711	5550.85
261.575	4546.56
266.437	3975.32
271.296	3417.33
276.152	2800.36
281.006	2210.24
285.857	1892.72
290.705	1187.78
295.55	1085.35
300.392	947.371
305.232	727.361
310.069	793.258
314.903	990.201
319.735	1004.86
324.563	899.305
329.39	831.604
334.213	710.33
339.033	879.643
343.851	1080.51
348.666	1186.64
353.479	1299.86
358.288	1305.52
363.095	1294.92
367.899	1230.25
372.701	989.281
377.5	833.268
382.296	534.455
387.089	384.728
391.879	115.611
396.667	140.852
401.452	10.3828
406.235	4.01953
411.014	6.62891
415.791	300.301
420.566	302.832
425.337	773.498
430.106	690.361
434.872	1069.45
439.635	1134.79
444.396	1257.43
449.154	1329.43
453.909	985.582
458.662	657.453
463.412	401.957
468.159	158.086
472.903	28.2402
477.645	256.078
482.384	476.816
487.121	297.992
491.854	305.238
496.585	375.383
501.314	115.219
506.039	251.924
510.762	192.25
515.482	848.83
520.2	1086.74
524.915	1620.05
529.627	2173.82
534.336	3072.05
539.043	3724.11
543.747	5080.35
548.449	6509.92
553.148	8424.63
557.844	10659.5
562.537	13650.6
567.228	17376.8
571.916	21729.1
576.601	27122.6
581.284	33275.4
585.964	40643.2
590.641	49417.5
595.316	59905.1
599.988	70940.7
604.657	81006.4
609.324	86573.5
613.988	85192.5
618.65	77103.5
623.308	65614.5
627.964	53563.4
632.618	42929.5
637.269	34326.2
641.917	27342.1
646.562	22566.6
651.205	18915.7
655.845	16367
660.483	14093.7
665.117	12453.5
669.75	11304.5
674.379	10314.6
679.006	9527.02
683.63	8969.74
688.252	7971.77
692.871	7244.12
697.487	6322.67
702.101	6037.04
706.712	4978.13
711.321	4438.9
715.926	3543.28
720.529	3166.24
725.13	2516.69
729.728	2043.04
734.323	1686.38
738.916	1423.02
743.506	1405.77
748.093	1221.88
752.678	1339.96
757.26	1359.48
761.84	1598.15
766.417	1752.67
770.991	2060.52
775.562	2550.05
780.131	2920.72
784.698	3560.26
789.262	4008.59
793.823	4534.17
798.381	4768.62
802.937	4857.81
807.491	4795.68
812.042	4432.79
816.59	4145.31
821.135	3542.91
825.678	3149.61
830.218	2760.34
834.756	2271.81
839.291	1710.43
843.824	1287.5
848.354	946.658
852.881	431.129
857.406	401.784
861.928	17.3965
866.447	9.13574
870.964	114.311
875.479	104.839
879.99	233.429
884.5	250.855
889.006	203.158
893.51	171.109
898.012	202.592
902.51	102.097
907.007	96.1616
911.5	174.784
915.991	80.2461
920.48	141.239
924.966	113.83
929.449	177.667
933.93	365.38
938.408	420.509
942.884	310.676
947.357	338.024
951.827	468.05
956.295	504.673
960.76	601.312
965.223	675.233
969.683	582.705
974.141	701.824
978.596	733.296
983.049	740.602
987.498	780.799
991.946	775.847
996.391	820.498
1000.83	843.814
1005.27	721.297
1009.71	790.003
1014.14	777.63
1018.58	701.967
1023.01	629.213
1027.43	558.845
1031.86	542.706
1036.28	593.018
1040.7	488.805
1045.12	380.056
1049.53	547.354
1053.94	430.415
1058.35	448.425
1062.76	376.84
1067.16	313.817
1071.56	293.658
1075.96	333.04
1080.36	392.644
1084.75	271.2
1089.14	289.496
1093.53	299.476
1097.92	193.316
1102.3	340.772
1106.68	229.71
1111.06	191.322
1115.44	195.992
1119.81	202.431
1124.18	260.414
1128.55	125.548
1132.92	122.602
1137.28	126.04
1141.64	48.123
1146	147.061
1150.36	123.563
1154.71	56.0864
1159.06	110.835
1163.41	89.2734
1167.76	21.1504
1172.1	35.1543
1176.44	94.8394
1180.78	60.813
1185.11	76.7349
1189.45	134.384
1193.78	15.1035
1198.11	300.857
1202.43	140.919
1206.76	61.0869
1211.08	129.287
1215.39	109.274
1219.71	167.706
1224.02	133.03
1228.34	105.993
1232.64	56.9912
1236.95	183.614
1241.25	135.691
1245.55	57.7681
1249.85	145.586
1254.15	156.923
1258.44	52.3408
1262.73	82.2852
1267.02	176.024
1271.31	161.364
1275.59	134.826
1279.87	82.9971
1284.15	12.3491
1288.43	1.49414
1292.7	27.519
1296.97	1.08154
1301.24	43.7031
1305.51	24.5947
1309.77	11.8848
1314.03	77.0727
1318.29	69.3057
1322.55	48.3716
1326.8	47.9844
1331.05	4.09473
1335.3	56.71
1339.55	16.9976
1343.79	2.15234
1348.03	81.96
1352.27	23.3169
1356.51	87.9663
1360.74	67.2602
1364.97	125.84
1369.2	97.0303
1373.43	124.054
1377.65	88.1079
1381.87	50.0459
1386.09	5.20312
1390.31	22.3989
1394.53	54.0415
1398.74	13.7754
1402.95	59.6777
1407.15	152.939
1411.36	20.5581
1415.56	95.9126
1419.76	0.206543
1423.96	31.3335
1428.15	106.796
1432.35	90.7549
1436.54	77.2227
1440.72	35.2241
1444.91	34.416
1449.09	8.16748
1453.27	56.8447
1457.45	123.064
1461.62	2.5332
1465.8	75.0708
1469.97	66.6533
1474.13	48.9741
1478.3	120.737
1482.46	69.4404
1486.62	24.1304
1490.78	73.9136
1494.94	11.0977
1499.09	28.3076
1503.24	46.3042
1507.39	88.0986
1511.54	151.326
1515.68	134.989
1519.82	69.9893
1523.96	79.2153
1528.1	90.0361
1532.23	165.546
1536.37	139.043
1540.49	56.7554
1544.62	16.1743
1548.75	118.706
1552.87	238.004
1556.99	33.7353
1561.11	69.4228
1565.22	113.14
1569.33	124.938
1573.44	12.2827
