Measurement: Raman, 514 nm, ccw, Raman Data Processed
Mineral: Rutile
Rruff sample: R040049
Ideal chemistry: Ti^4+^O_2_
Locality: Graves Mountain, Lincoln County, Georgia, USA
Source: University of Arizona Mineral Museum
Description: Reddish-black fragments
Measured chemistry: (Ti_1.00_Fe_0.01_)O_2_
Pin_id: L00223
Orientation: Laser parallel to c* (0 0 1). Fiducial mark perpendicular to laser is parallel to -a [-1 0 0]
Raman shift (cm-1)	intensity
92.149	0
97.107	622.152
102.062	1459.73
107.014	4380.14
111.963	6266.33
116.909	7984.18
121.853	7940.39
126.793	8344.64
131.731	9419.12
136.667	9297.91
141.599	8785.97
146.529	6121.06
151.455	2975.15
156.38	1409.79
161.301	106.691
166.219	554.383
171.135	349.254
176.048	648.25
180.958	2721.61
185.865	4927.19
190.77	7110.56
195.672	9053.2
200.571	11235.3
205.467	13157.5
210.361	14924.8
215.251	16904.9
220.139	19347.8
225.024	22048.7
229.907	24557
234.787	26840.5
239.663	28169.9
244.538	27724.8
249.409	25552.5
254.278	22134.9
259.143	19238.6
264.007	16664.7
268.867	14694.5
273.725	12989.6
278.579	11607.6
283.432	9871.43
288.281	7889.01
293.127	6692.97
297.971	5166.04
302.812	4814.07
307.651	4586.35
312.486	4928.09
317.319	5111.87
322.149	4892.07
326.977	4464.44
331.802	3875.81
336.623	3366.28
341.443	2924.48
346.259	2825
351.073	3239.16
355.884	3415.97
360.692	3034.34
365.498	2796.78
370.3	2300.54
375.101	1641.39
379.898	1213.28
384.692	1038.33
389.484	673.5
394.274	607.75
399.06	212.121
403.844	35.1602
408.625	86.543
413.403	383.418
418.179	406.973
422.952	1392.31
427.722	1780.14
432.489	2394.82
437.254	2873.48
442.016	3121.8
446.775	3023.86
451.532	2982.61
456.286	2482.77
461.037	2116.44
465.786	1268.02
470.532	620.402
475.275	112.043
480.015	416.508
484.753	856.172
489.488	1166.78
494.22	1467.76
498.95	1444.66
503.677	932.719
508.401	227.391
513.123	1246.17
517.842	2593.3
522.558	3444.93
527.271	5074.31
531.982	6965.9
536.69	8747.91
541.396	11870.9
546.098	14817.4
550.799	19302.6
555.496	25060
560.191	32453
564.883	41441.2
569.572	52551.8
574.259	66077.8
578.943	82092.4
583.624	100852
588.303	123118
592.979	149497
597.652	180342
602.323	210478
606.991	236277
611.657	245746
616.319	237184
620.979	211152
625.637	177290
630.291	144838
634.944	115424
639.593	93187.1
644.24	75415.5
648.884	61903.1
653.525	52232.8
658.164	44623.5
662.8	39311.1
667.434	34605.9
672.065	30858.6
676.693	27981.1
681.319	25548.5
685.942	23555.4
690.562	21837.6
695.18	19669.8
699.795	17610.8
704.407	15535.8
709.017	13713.4
713.624	11646.4
718.228	9995.43
722.83	8365.66
727.429	6970.42
732.026	5771.65
736.62	5105.62
741.211	4459.65
745.8	4158.52
750.386	3989.61
754.969	4638.54
759.55	5130.31
764.128	5653.16
768.704	6981.4
773.277	8738.54
777.847	9921.43
782.415	11436.1
786.98	13795.6
791.543	14994.4
796.102	16358.4
800.66	17206.8
805.214	17058.9
809.766	16501.1
814.316	15523.7
818.863	14708.1
823.407	13476
827.949	12053.4
832.488	10594.6
837.024	8953.31
841.558	6903.09
846.089	5115.19
850.618	3687.93
855.144	2664.18
859.667	1555.08
864.188	721.477
868.706	221.602
873.222	207.82
877.735	489.734
882.245	603.832
886.753	735.523
891.258	763.066
895.761	697.682
900.261	596.625
904.759	555.352
909.254	482.744
913.746	219.301
918.236	85.9902
922.723	73.3047
927.208	115.955
931.69	578.783
936.169	610.939
940.646	548.994
945.12	711.486
949.592	901.055
954.061	1113.12
958.528	1270.96
962.992	1422.8
967.454	1372.88
971.912	1584.96
976.369	1600.12
980.823	1882.57
985.274	1891.13
989.722	1946.73
994.169	2221.36
998.612	2435.42
1003.05	2477.81
1007.49	2400.08
1011.93	2404.86
1016.36	2478.63
1020.79	2298.66
1025.22	2179.65
1029.64	2141.44
1034.07	1948.53
1038.49	1887.88
1042.91	1650.29
1047.32	1588.25
1051.73	1587.68
1056.15	1445.94
1060.55	1465.41
1064.96	1193.56
1069.36	1440.99
1073.76	1088.64
1078.16	1141.14
1082.56	1061.5
1086.95	1073.55
1091.34	975.838
1095.72	1031.17
1100.11	813.506
1104.49	745.285
1108.87	874.414
1113.25	742.936
1117.62	676.035
1122	807.664
1126.37	857.894
1130.73	656.51
1135.1	533.555
1139.46	384.897
1143.82	390.647
1148.18	527.215
1152.53	524.205
1156.89	556.83
1161.23	376.098
1165.58	513.363
1169.93	312.139
1174.27	366.506
1178.61	366.891
1182.95	329.879
1187.28	419.801
1191.61	419.228
1195.94	356.057
1200.27	302.81
1204.59	230.619
1208.92	198.666
1213.24	285.217
1217.55	365.053
1221.87	278.455
1226.18	442.898
1230.49	341.299
1234.8	211.041
1239.1	207.941
1243.4	151.977
1247.7	160.266
1252	121.383
1256.3	238.699
1260.59	261.553
1264.88	288.111
1269.16	126.102
1273.45	264.231
1277.73	76.6348
1282.01	34.8145
1286.29	51.0234
1290.56	76.9766
1294.84	237.957
1299.11	74.0098
1303.37	105.363
1307.64	53.2305
1311.9	75.2695
1316.16	21.8711
1320.42	65.5117
1324.67	26.0332
1328.92	59.541
1333.17	45.3047
1337.42	78.8301
1341.67	100.522
1345.91	24.7012
1350.15	192.941
1354.39	264.139
1358.62	69.6621
1362.86	53.5742
1367.09	109.387
1371.32	65.582
1375.54	92.916
1379.76	24.1816
1383.98	149.09
1388.2	35.8125
1392.42	227.488
1396.63	135.4
1400.84	247.394
1405.05	220.844
1409.26	135.537
1413.46	53.8086
1417.66	20.4727
1421.86	253.391
1426.06	124.764
1430.25	154.918
1434.44	147.685
1438.63	273.897
1442.82	55.9688
1447	130.092
1451.18	195.221
1455.36	5.66211
1459.54	164.221
1463.71	155.455
1467.88	23.7891
1472.05	80.9004
1476.22	43.6504
1480.38	0.667969
1484.55	89.8106
1488.7	42.4199
1492.86	23.4023
1497.02	122.727
1501.17	204.002
1505.32	110.606
1509.47	105.941
1513.61	100.678
1517.75	109.191
1521.89	338.81
1526.03	333.152
1530.17	311.102
1534.3	221.348
1538.43	82.6777
1542.56	229.791
1546.68	262.555
1550.81	290.113
1554.93	60.7363
1559.05	267.287
1563.16	100.232
1567.28	146.449
1571.39	143.867
1575.5	3.79883
1579.6	30.7383
