Measurement: Raman, 514 nm, ccw, Raman Data Processed
Mineral: Rutile
Rruff sample: R050417
Ideal chemistry: Ti^4+^O_2_
Locality: Champion mine, Mono County, California, USA
Source: Marcus Origlieri
Description: Reddish black equant crystals
Measured chemistry: TiO_2_
Pin_id: L01119
Orientation: Laser parallel to a* (1 0 0). Fiducial mark perpendicular to laser is parallel to c [0 0 1]
Raman shift (cm-1)	intensity
88.228	0
93.183	314.96
98.135	359.984
103.085	408.624
108.032	844.411
112.976	956.305
117.917	1536.99
122.856	1544.65
127.792	1099.72
132.725	1264.47
137.656	1096.19
142.583	994.42
147.508	710.727
152.431	392.366
157.35	134.204
162.267	177.728
167.181	214.566
172.092	34.4116
177.001	156.192
181.907	200.661
186.81	734.515
191.711	1117.7
196.608	1789.37
201.503	2210.2
206.395	2711.28
211.285	3303.51
216.172	3703.77
221.056	4141.05
225.937	4298.39
230.816	4478.95
235.692	4562.39
240.565	4576.97
245.436	4496.53
250.304	4400.49
255.169	4149.36
260.031	3768.48
264.891	3596.95
269.748	3162.1
274.602	2873.81
279.454	2472.32
284.303	1948.78
289.149	1341.66
293.992	861.904
298.833	397.449
303.671	132.26
308.507	18.4951
313.339	85.4121
318.169	155.944
322.996	119.103
327.821	116.807
332.643	213.657
337.462	199.641
342.279	243.743
347.092	253.934
351.904	222.296
356.712	234.359
361.518	320.603
366.321	199.369
371.121	39.3457
375.919	121.383
380.714	138.992
385.506	166.898
390.296	365.919
395.083	447.007
399.867	814.137
404.649	957.293
409.428	1401.46
414.204	1772.05
418.978	2248.79
423.749	2853.96
428.517	3126.14
433.282	3732.28
438.045	4090.36
442.806	4413.35
447.563	4492.19
452.318	4028.93
457.07	3658.09
461.82	2726.11
466.567	2142.46
471.311	1507.52
476.053	1313.21
480.792	982.518
485.528	740.388
490.262	829.789
494.992	922.849
499.721	1055.93
504.446	1472.84
509.169	1834.09
513.89	2053.44
518.607	2224.72
523.322	2335.48
528.035	2376.71
532.745	2341.36
537.452	2372.78
542.156	2227.94
546.858	2241.77
551.557	2269.23
556.254	2285.28
560.947	2234.86
565.639	2330.94
570.327	2517.45
575.013	2755.84
579.697	2783.62
584.377	2985.18
589.055	3157.98
593.731	3450.99
598.403	3696.19
603.074	3865.53
607.741	3735.96
612.406	3212.49
617.068	2333.01
621.728	1402.6
626.385	634.202
631.039	130.916
635.691	66.8032
640.34	188.082
644.987	253.906
649.63	203.805
654.272	100.323
658.91	20.877
663.546	178.192
668.18	399.902
672.81	638.611
677.439	967.821
682.064	1256.5
686.687	1524.63
691.307	1773.18
695.925	1977.11
700.54	2095.42
705.153	2264.08
709.763	2279.07
714.37	2378.35
718.974	2387.95
723.577	2330.8
728.176	2214.95
732.773	2138.82
737.367	2093.62
741.959	2045.11
746.548	1948.88
751.134	2059.56
755.718	1923.36
760.299	1931.59
764.878	1949.92
769.454	2000.59
774.028	2060.63
778.598	2090.88
783.167	2058.68
787.732	2054.6
792.295	2065.64
796.856	2213.07
801.414	2046.09
805.969	2037.52
810.522	1861.39
815.072	1733.49
819.62	1515.58
824.165	1466.75
828.707	1118.32
833.247	1084.37
837.784	847.338
842.319	637.314
846.851	496.635
851.381	507.586
855.908	261.909
860.432	309.437
864.954	192.536
869.473	206.014
873.99	119.187
878.504	70.77
883.015	79.8496
887.524	60.0398
892.031	54.3911
896.535	4.05444
901.036	85.6956
905.535	45.5447
910.031	2.38867
914.524	9.802
919.015	30.6462
923.504	10.7056
927.99	73.8054
932.473	23.2161
936.954	63.2795
941.432	82.0549
945.908	73.2629
950.381	44.6367
954.852	109.09
959.32	116.594
963.785	68.6812
968.248	122.334
972.708	35.1897
977.166	129.994
981.622	123.636
986.074	180.916
990.525	103.374
994.972	108.823
999.417	149.668
1003.86	144.716
1008.3	205.165
1012.74	102.662
1017.17	132.284
1021.61	102.999
1026.04	107.626
1030.46	160.605
1034.89	111.985
1039.31	87.3254
1043.73	79.6709
1048.15	90.0256
1052.56	76.3106
1056.97	91.4153
1061.38	127.318
1065.79	78.3049
1070.19	22.7791
1074.6	37.665
1079	7.65479
1083.39	3.19287
1087.79	88.8789
1092.18	64.4119
1096.57	41.6902
1100.96	28.1318
1105.34	65.3369
1109.72	32.1213
1114.1	0.282227
1118.48	10.0569
1122.85	88.2339
1127.22	27.656
1131.6	38.5335
1135.96	2.05249
1140.33	1.18408
1144.69	22.8171
1149.05	42.8501
1153.4	12.6213
1157.76	8.41699
1162.11	35.1553
1166.46	28.8543
1170.81	10.0706
1175.15	71.4724
1179.49	6.69434
1183.83	56.1633
1188.17	1.92114
1192.5	82.0654
1196.84	43.7419
1201.16	12.3052
1205.49	0.490967
1209.82	62.7585
1214.14	45.4001
1218.46	39.5254
1222.77	72.9822
1227.09	38.2788
1231.4	83.9783
1235.71	40.106
1240.02	45.7212
1244.32	43.835
1248.62	31.3159
1252.92	66.2969
1257.22	113.186
1261.51	99.011
1265.81	79.1694
1270.1	78.5054
1274.38	39.9409
1278.67	164.907
1282.95	39.4287
1287.23	28.4805
1291.51	7.35938
1295.78	7.89746
1300.05	16.4778
1304.32	76.3206
1308.59	7.33008
1312.86	55.0964
1317.12	42.6223
1321.38	91.29
1325.63	15.2356
1329.89	5.06665
1334.14	6.14258
1338.39	3.13769
1342.64	1.24805
1346.88	70.4792
1351.13	39.7839
1355.37	33.7112
1359.61	49.6423
1363.84	71.2336
1368.07	100.917
1372.3	86.1287
1376.53	52.3149
1380.76	34.6387
1384.98	43.9641
1389.2	36.1853
1393.42	71.7063
1397.64	52.6702
1401.85	29.4973
1406.06	55.2058
1410.27	66.6875
1414.47	23.0835
1418.68	73.2651
1422.88	41.5825
1427.08	47.7356
1431.27	34.4919
1435.47	106.41
1439.66	35.8259
1443.85	67.6377
1448.03	66.4224
1452.22	101.612
1456.4	37.8518
1460.58	60.2937
1464.76	1.93018
1468.93	80.1389
1473.1	48.5681
1477.27	3.09595
1481.44	21.7776
1485.6	45.9209
1489.77	62.779
1493.92	67.6677
1498.08	80.1406
1502.24	51.7029
1506.39	17.6597
1510.54	59.0266
1514.69	98.1301
1518.83	54.7485
1522.97	144.166
1527.12	58.7612
1531.25	39.2324
1535.39	32.2239
1539.52	68.2083
1543.65	108.7
1547.78	102.04
1551.91	91.9487
1556.03	42.7268
1560.15	49.373
1564.27	90.7083
1568.39	10.4644
1572.5	140.888
1576.61	0.592041
