Measurement: Raman, 514 nm, depolarized, Raman Data Processed
Mineral: Rutile
Rruff sample: R040049
Ideal chemistry: Ti^4+^O_2_
Locality: Graves Mountain, Lincoln County, Georgia, USA
Source: University of Arizona Mineral Museum
Description: Reddish-black fragments
Measured chemistry: (Ti_1.00_Fe_0.01_)O_2_
Pin_id: L01614
Orientation: Laser parallel to -a* (-1 0 0). Fiducial mark perpendicular to laser is parallel to c [0 0 1]
Raman shift (cm-1)	intensity
85.247	0
90.208	1196.02
95.166	4702.45
100.121	6781.07
105.074	8079.1
110.024	9521.48
114.971	10607.2
119.915	10554.2
124.856	11715.5
129.795	11371.7
134.73	11325
139.663	12378.6
144.593	14084.2
149.521	9367.78
154.445	5768.21
159.367	3286.55
164.286	1631.65
169.202	317.07
174.115	30.9062
179.025	474.746
183.933	1037.7
188.838	2273.02
193.74	3971.44
198.639	5918.16
203.535	8077.82
208.429	10134.3
213.32	12704.1
218.208	14780
223.093	17121.1
227.976	18910
232.855	20053.3
237.732	21263.6
242.607	21130.4
247.478	20231.6
252.346	18326.3
257.212	16423.3
262.075	14647.3
266.936	12558.5
271.793	10984.7
276.648	9410.89
281.5	7112.31
286.349	5282.75
291.195	3049.3
296.039	1288.16
300.88	118.723
305.718	166.574
310.553	296.668
315.386	173.793
320.215	12.1758
325.043	230.481
329.867	94.957
334.688	204.129
339.507	299.543
344.323	102.883
349.137	364.586
353.947	1022.81
358.755	1329.25
363.56	1940.25
368.362	1993.73
373.162	2435.86
377.959	2357.5
382.753	2848.35
387.544	3551.2
392.333	4413.07
397.119	5681.54
401.902	7316.34
406.682	9953.26
411.46	12483.2
416.235	16681.9
421.007	21306.4
425.777	27216.6
430.543	32636.5
435.307	38995
440.069	44739.6
444.827	48112.9
449.583	48710.7
454.336	43556.1
459.087	35358.2
463.835	25972.5
468.58	17626
473.322	11620.8
478.062	6552.19
482.798	3423.93
487.533	792.363
492.264	381.453
496.993	1137.12
501.719	1198.97
506.442	712.371
511.163	730.031
515.881	204.731
520.596	1206.41
525.309	1488.36
530.019	2310.18
534.726	2436.64
539.431	3279.5
544.132	4487.03
548.831	5673.51
553.528	7795.96
558.222	10013.4
562.913	13605.9
567.601	17369.4
572.287	22629.9
576.97	28150.5
581.65	36060.1
586.328	44505.8
591.003	54414.9
595.675	66609.5
600.345	80445.2
605.012	93862.9
609.676	102547
614.338	102562
618.997	94011.8
623.653	79746
628.307	63864.3
632.958	50752.8
637.606	37725.7
642.252	28966
646.895	22064
651.535	17782.8
656.173	13863.8
660.808	11509.4
665.44	10054.2
670.07	9380.68
674.697	8737.59
679.321	8620.75
683.943	8607.92
688.562	8638.89
693.179	8754.44
697.793	8128.35
702.404	7689.44
707.012	7474.5
711.618	7042.31
716.222	6521.62
720.822	5749.2
725.42	5506.86
730.016	5046.91
734.608	4416.97
739.198	4763.11
743.786	4634.29
748.371	4992.77
752.953	5884.65
757.533	6178.34
762.11	7402.5
766.684	8345.95
771.256	9708.7
775.825	11443.9
780.391	12605.6
784.955	14756.2
789.517	16628.3
794.075	18071.2
798.631	19246.9
803.185	19164.9
807.736	18576.8
812.284	17372.2
816.829	15953.5
821.372	13738.5
825.913	11387.1
830.451	9617.28
834.986	7418.22
839.518	5931
844.048	4494.98
848.576	2986.33
853.101	1843.77
857.623	1226.46
862.143	661.492
866.66	17.3477
871.174	132.264
875.686	432.5
880.195	689.836
884.702	548.891
889.206	667.654
893.707	351.598
898.206	421.988
902.703	183.586
907.196	60.1367
911.688	298.443
916.176	271.684
920.662	486.877
925.146	242.676
929.627	569.281
934.105	745.086
938.581	685.254
943.054	1074.67
947.525	909.205
951.993	1204.11
956.458	1339.56
960.921	1441.91
965.381	1629.68
969.839	1607.65
974.294	1790.39
978.747	1837.54
983.197	2026.94
987.645	2042.5
992.09	2089.53
996.532	2118.85
1000.97	2334.5
1005.41	2194.76
1009.84	2351.09
1014.28	2040.94
1018.71	1930.09
1023.13	1546.1
1027.56	1528.73
1031.98	1492.84
1036.4	1277.49
1040.82	1252.67
1045.23	1336.99
1049.64	1248.6
1054.05	1180.11
1058.46	1046.71
1062.86	1087.41
1067.27	994.914
1071.66	1059.43
1076.06	874.943
1080.46	966.285
1084.85	721.4
1089.24	925.885
1093.62	585.553
1098.01	619.711
1102.39	549.047
1106.77	415.084
1111.14	534.959
1115.52	460.795
1119.89	495.227
1124.26	327.627
1128.63	208.824
1132.99	425.656
1137.35	274.418
1141.71	251.898
1146.07	231.783
1150.42	95.9453
1154.77	408.322
1159.12	307.703
1163.47	58.0078
1167.81	239.373
1172.15	24.9805
1176.49	167.1
1180.83	224.785
1185.16	129.607
1189.49	86.2773
1193.82	90.1426
1198.15	169.973
1202.47	42.9668
1206.8	147.611
1211.12	73.957
1215.43	145.6
1219.75	203.762
1224.06	199.711
1228.37	123.803
1232.67	113.914
1236.98	67.8887
1241.28	161.076
1245.58	127.74
1249.88	325.043
1254.17	399.959
1258.46	103.371
1262.75	111.461
1267.04	233.363
1271.32	381.746
1275.6	122.334
1279.88	117.469
1284.16	119.672
1288.43	73.6602
1292.71	84.168
1296.98	27.3633
1301.24	21.0508
1305.51	89.5527
1309.77	221.662
1314.03	44.8203
1318.29	11.6191
1322.54	8.47461
1326.79	120.906
1331.04	76.1074
1335.29	3.24023
1339.54	78.4316
1343.78	98.2519
1348.02	103.35
1352.26	62.0117
1356.49	76.6191
1360.72	56.2246
1364.96	56.0156
1369.18	59.0156
1373.41	193.203
1377.63	36.3965
1381.85	112.621
1386.07	9.59375
1390.29	68.5781
1394.5	35.1211
1398.71	106.783
1402.92	81.6152
1407.12	182.533
1411.33	34.7227
1415.53	24.0742
1419.73	299.082
1423.92	333.736
1428.12	419.01
1432.31	139.385
1436.5	402.006
1440.69	72.707
1444.87	176.113
1449.05	179.404
1453.23	117.244
1457.41	278.031
1461.58	282.853
1465.76	182.012
1469.93	103.203
1474.09	15.082
1478.26	130.125
1482.42	198.373
1486.58	45.6895
1490.74	279.65
1494.89	250.879
1499.05	19.9766
1503.2	243.965
1507.35	237.769
1511.49	193.609
1515.63	262.443
1519.78	248.469
1523.91	265.076
1528.05	21.7227
1532.18	83.2207
1536.32	346.488
1540.44	369.42
1544.57	464.043
1548.7	187.353
1552.82	450.809
1556.94	115.695
1561.05	216.662
1565.17	230.9
1569.28	173.531
1573.39	344.781
1577.5	17.9512
