Measurement: Raman, 514 nm, ccw, Raman Data Processed
Mineral: Rutile
Rruff sample: R050417
Ideal chemistry: Ti^4+^O_2_
Locality: Champion mine, Mono County, California, USA
Source: Marcus Origlieri
Description: Reddish black equant crystals
Measured chemistry: TiO_2_
Pin_id: L01119
Orientation: Laser parallel to a* (1 0 0). Fiducial mark perpendicular to laser is parallel to c [0 0 1]
Raman shift (cm-1)	intensity
93.183	0
98.135	108.019
103.085	296.139
108.032	724.94
112.976	781.445
117.917	1229.73
122.856	1445.22
127.792	1002.52
132.725	1294.51
137.656	1636.87
142.583	3083.44
147.508	3023.99
152.431	976.845
157.35	422.519
162.267	13.3828
167.181	146.144
172.092	36.2764
177.001	2.91992
181.907	382.067
186.81	720.519
191.711	1040.03
196.608	1526.88
201.503	1703.74
206.395	1879.64
211.285	2248.24
216.172	2707.9
221.056	2847.58
225.937	3281.46
230.816	3493.17
235.692	3694.5
240.565	3888.56
245.436	3732.09
250.304	3335.04
255.169	2816.49
260.031	2391.98
264.891	2012.91
269.748	1741.63
274.602	1448.41
279.454	1162.56
284.303	806.769
289.149	582.787
293.992	363.587
298.833	269.125
303.671	62.3779
308.507	100.46
313.339	94.0293
318.169	210.592
322.996	194.988
327.821	304.415
332.643	154.42
337.462	24.1592
342.279	77.6641
347.092	87.5518
351.904	285.628
356.712	397.933
361.518	474.906
366.321	365.437
371.121	413.343
375.919	162.818
380.714	358.595
385.506	197.677
390.296	95.1231
395.083	286.908
399.867	274.028
404.649	347.495
409.428	336.328
414.204	584.551
418.978	703.18
423.749	1058.25
428.517	1494.83
433.282	1754.91
438.045	2147.5
442.806	2362.61
447.563	2546.24
452.318	2296.4
457.07	2063.51
461.82	1308.72
466.567	913.706
471.311	413.29
476.053	136.46
480.792	9.20508
485.528	116.799
490.262	191.144
494.992	197.484
499.721	159.694
504.446	201.952
509.169	85.6611
513.89	87.8428
518.607	330.076
523.322	406.055
528.035	800.794
532.745	892.312
537.452	1222.02
542.156	1604.73
546.858	2093.67
551.557	2659.44
556.254	3496.05
560.947	4724.53
565.639	5822.87
570.327	7544.09
575.013	9577.19
579.697	11708.2
584.377	14256.1
589.055	17306.9
593.731	21216.8
598.403	25538.6
603.074	30661.7
607.741	34880.2
612.406	36768
617.068	35679.1
621.728	31503.5
626.385	26230.8
631.039	21183.2
635.691	16768.1
640.34	13456.1
644.987	11084.9
649.63	8760.23
654.272	7442.06
658.91	6527.06
663.546	5626.19
668.18	4885.43
672.81	4482.78
677.439	4149.78
682.064	3635.68
686.687	3378.23
691.307	2908.79
695.925	2744.32
700.54	2534.8
705.153	2131.21
709.763	1873.52
714.37	1769.56
718.974	1404.74
723.577	1051.76
728.176	804.09
732.773	585.254
737.367	517.817
741.959	323.756
746.548	346.24
751.134	335.549
755.718	186.874
760.299	197.399
764.878	366.486
769.454	392.349
774.028	485.963
778.598	564.813
783.167	717.445
787.732	766.91
792.295	934.168
796.856	1119.13
801.414	1022.79
805.969	1014.44
810.522	1081.58
815.072	986.134
819.62	944.181
824.165	893.343
828.707	724.181
833.247	558.267
837.784	446.659
842.319	283.574
846.851	155.278
851.381	5.51953
855.908	145.537
860.432	8.25537
864.954	35.0835
869.473	27.251
873.99	94.4468
878.504	51.8477
883.015	35.5737
887.524	57.3394
892.031	76.103
896.535	44.083
901.036	148.879
905.535	8.34717
910.031	0.423828
914.524	70.3213
919.015	81.4356
923.504	140.102
927.99	74.1108
932.473	144.173
936.954	107.495
941.432	203.668
945.908	243.059
950.381	147.674
954.852	151.013
959.32	207.963
963.785	228.737
968.248	302.271
972.708	239.885
977.166	304.812
981.622	278.421
986.074	388.865
990.525	321.047
994.972	378.397
999.417	370.277
1003.86	360.297
1008.3	425.006
1012.74	330.87
1017.17	302.846
1021.61	373.777
1026.04	335.748
1030.46	144.322
1034.89	174.868
1039.31	244.044
1043.73	136.54
1048.15	233.574
1052.56	281.819
1056.97	209.155
1061.38	225.251
1065.79	257.192
1070.19	170.681
1074.6	149.608
1079	256.761
1083.39	305.657
1087.79	475.288
1092.18	260.129
1096.57	133.805
1100.96	177.681
1105.34	87.3525
1109.72	77.5376
1114.1	48.3013
1118.48	101.036
1122.85	135.253
1127.22	62.603
1131.6	173.508
1135.96	36.9844
1140.33	94.25
1144.69	162.567
1149.05	103.162
1153.4	111.201
1157.76	55.147
1162.11	77.417
1166.46	26.7871
1170.81	87.9492
1175.15	97.5225
1179.49	63.7715
1183.83	55.874
1188.17	132.443
1192.5	29.8457
1196.84	103.873
1201.16	190.466
1205.49	119.086
1209.82	35.4819
1214.14	138.013
1218.46	96.4624
1222.77	79.9429
1227.09	26.0693
1231.4	74.6733
1235.71	157.31
1240.02	94.6958
1244.32	85.0571
1248.62	22.686
1252.92	107.249
1257.22	13.581
1261.51	67.4585
1265.81	75.6108
1270.1	79.9541
1274.38	50.0176
1278.67	92.2607
1282.95	44.751
1287.23	6.01709
1291.51	70.0508
1295.78	6.7417
1300.05	162.84
1304.32	57.332
1308.59	60.7681
1312.86	132.244
1317.12	102.137
1321.38	237.321
1325.63	126.315
1329.89	122.011
1334.14	29.5488
1338.39	113.736
1342.64	76.499
1346.88	84.8174
1351.13	87.0312
1355.37	174.963
1359.61	110.315
1363.84	149.381
1368.07	183.429
1372.3	95.9014
1376.53	97.6152
1380.76	147.424
1384.98	210.79
1389.2	41.998
1393.42	66.8164
1397.64	127.884
1401.85	30.3008
1406.06	142.036
1410.27	43.8301
1414.47	6.7666
1418.68	76.9414
1422.88	17.5508
1427.08	2.75293
1431.27	122.542
1435.47	291.712
1439.66	127.611
1443.85	161.245
1448.03	96.1426
1452.22	93.2939
1456.4	114.947
1460.58	99.3184
1464.76	223.852
1468.93	141.404
1473.1	63.7978
1477.27	4.23047
1481.44	154.697
1485.6	200.945
1489.77	25.8525
1493.92	45.4209
1498.08	110.117
1502.24	73.2549
1506.39	19.4541
1510.54	21.3203
1514.69	95.3096
1518.83	150.696
1522.97	142.228
1527.12	261.962
1531.25	226.042
1535.39	169.234
1539.52	152.725
1543.65	178.062
1547.78	90.834
1551.91	130.495
1556.03	243.75
1560.15	135.963
1564.27	228.362
1568.39	176.599
1572.5	173.371
1576.61	181.341
