Measurement: Raman, 514 nm, depolarized, Raman Data Processed
Mineral: Rutile
Rruff sample: R050417
Ideal chemistry: Ti^4+^O_2_
Locality: Champion mine, Mono County, California, USA
Source: Marcus Origlieri
Description: Reddish black equant crystals
Measured chemistry: TiO_2_
Pin_id: L01608
Orientation: Laser parallel to -c* (0 0 -1). Fiducial mark perpendicular to laser is parallel to a [1 0 0]
Raman shift (cm-1)	intensity
89.67	0
94.629	143.334
99.585	629.561
104.538	1212.95
109.489	2161.62
114.436	3224.33
119.381	4332.43
124.323	4042.52
129.263	3435.45
134.199	3188.5
139.133	3467.71
144.064	3104.22
148.992	1412.95
153.918	372.492
158.84	30.6133
163.76	248.129
168.677	61.4902
173.592	261.981
178.503	970.981
183.412	1546.21
188.318	2418.12
193.221	3169.37
198.122	4040.99
203.019	4690.66
207.914	5326.06
212.806	6195.56
217.696	7051.51
222.582	7759.15
227.466	8558.85
232.347	9301.03
237.225	9411.53
242.101	9307.22
246.974	8471.79
251.844	7493.46
256.711	6241.65
261.575	5427.33
266.437	4683.03
271.296	4068.44
276.152	3604.65
281.006	2876.54
285.857	2347.87
290.705	1745.74
295.55	1405.31
300.392	1257.49
305.232	1053.66
310.069	1168.45
314.903	1271.12
319.735	1378.19
324.563	1166.55
329.39	976.121
334.213	1083.75
339.033	824.769
343.851	1014.76
348.666	1192.78
353.479	1390.97
358.288	1307.59
363.095	1189.38
367.899	988.74
372.701	860.914
377.5	659.887
382.296	442.717
387.089	402.576
391.879	231.363
396.667	137.719
401.452	5.64258
406.235	80.3984
411.014	2.125
415.791	204.846
420.566	396.455
425.337	666.412
430.106	881.322
434.872	1158.14
439.635	961.117
444.396	1115.52
449.154	1248.44
453.909	866.592
458.662	757.447
463.412	510.147
468.159	362.516
472.903	129.621
477.645	265.873
482.384	293.139
487.121	561.178
491.854	439.807
496.585	412.596
501.314	316.711
506.039	146.885
510.762	223.603
515.482	782.547
520.2	1332.33
524.915	1691.5
529.627	2556.28
534.336	2990.86
539.043	4020.42
543.747	5220.71
548.449	6799.07
553.148	8832.27
557.844	11134.5
562.537	14433.6
567.228	18319.3
571.916	22805.4
576.601	28458.9
581.284	34911.8
585.964	42607.2
590.641	51912.1
595.316	62557.6
599.988	74448.1
604.657	84823
609.324	90693.6
613.988	88964.2
618.65	80893.5
623.308	68329.4
627.964	56484.2
632.618	44842.8
637.269	36077
641.917	28895.4
646.562	23524.7
651.205	19937.6
655.845	16921.2
660.483	14692.4
665.117	13159.1
669.75	11709.3
674.379	10587.9
679.006	9805.07
683.63	8984.86
688.252	8285.69
692.871	7570.39
697.487	6846.53
702.101	6117.8
706.712	5327.02
711.321	4583.12
715.926	3836.09
720.529	3206.83
725.13	2458.27
729.728	1929.49
734.323	1664.74
738.916	1358.07
743.506	1162.39
748.093	1095.66
752.678	1139.97
757.26	1150.05
761.84	1408.52
766.417	1755.69
770.991	1929.28
775.562	2462.19
780.131	2942.63
784.698	3442.57
789.262	4145.36
793.823	4359.27
798.381	4865.8
802.937	4939.8
807.491	4597.85
812.042	4576.85
816.59	4137.51
821.135	3886.03
825.678	3339.66
830.218	2896.78
834.756	2452.73
839.291	1954.56
843.824	1559.99
848.354	963.454
852.881	684.47
857.406	453.734
861.928	134.457
866.447	80.8164
870.964	210.914
875.479	309.825
879.99	266.416
884.5	243.477
889.006	308.268
893.51	262.273
898.012	32.6523
902.51	159.791
907.007	18.0859
911.5	78.0015
915.991	29.5137
920.48	150.02
924.966	25.2866
929.449	83.8706
933.93	182.88
938.408	180.191
942.884	263.99
947.357	318.891
951.827	445.797
956.295	441.17
960.76	503.616
965.223	544.78
969.683	587.594
974.141	671.695
978.596	663.668
983.049	612.427
987.498	698.296
991.946	758.849
996.391	711.582
1000.83	829.803
1005.27	790.413
1009.71	835.135
1014.14	667.335
1018.58	557.013
1023.01	603.901
1027.43	541.6
1031.86	638.013
1036.28	538.659
1040.7	471.883
1045.12	496.703
1049.53	538.5
1053.94	518.46
1058.35	445.992
1062.76	370.493
1067.16	473.828
1071.56	313.486
1075.96	328.761
1080.36	359.759
1084.75	300.499
1089.14	312.568
1093.53	232.094
1097.92	233.27
1102.3	259.728
1106.68	263.593
1111.06	220.379
1115.44	275.527
1119.81	136.321
1124.18	173.431
1128.55	193.18
1132.92	141.236
1137.28	115.127
1141.64	282.514
1146	359.514
1150.36	135.424
1154.71	52.5312
1159.06	85.7002
1163.41	85.7183
1167.76	61.1304
1172.1	50.5205
1176.44	51.9624
1180.78	50.064
1185.11	111.464
1189.45	92.4248
1193.78	67.2978
1198.11	111.737
1202.43	139.933
1206.76	89.8071
1211.08	227.135
1215.39	123.092
1219.71	237.417
1224.02	94.9409
1228.34	108.386
1232.64	108.358
1236.95	85.1294
1241.25	119.049
1245.55	177.927
1249.85	141.996
1254.15	152.859
1258.44	122.253
1262.73	108.345
1267.02	133.523
1271.31	69.3438
1275.59	43.7266
1279.87	65.4482
1284.15	69.7993
1288.43	13.1113
1292.7	100.759
1296.97	112.52
1301.24	33.4346
1305.51	102.686
1309.77	33.2163
1314.03	82.6504
1318.29	17.8481
1322.55	34.8872
1326.8	12.228
1331.05	32.9702
1335.3	34.4893
1339.55	3.81152
1343.79	26.1426
1348.03	0.427246
1352.27	40.2988
1356.51	42.8809
1360.74	10.6411
1364.97	109.443
1369.2	24.3423
1373.43	15.4736
1377.65	87.7617
1381.87	84.5601
1386.09	107.619
1390.31	88.5283
1394.53	91.332
1398.74	56.5049
1402.95	16.7544
1407.15	74.4048
1411.36	32.79
1415.56	73.9185
1419.76	12.2915
1423.96	92.2617
1428.15	88.0537
1432.35	57.5879
1436.54	24.7466
1440.72	78.9575
1444.91	96.436
1449.09	15.5791
1453.27	20.5957
1457.45	111.352
1461.62	57.3735
1465.8	124.119
1469.97	110.895
1474.13	71.9746
1478.3	36.7568
1482.46	125.157
1486.62	144.5
1490.78	74.1958
1494.94	107.186
1499.09	121.658
1503.24	120.732
1507.39	63.9663
1511.54	68.7647
1515.68	31.144
1519.82	65.4136
1523.96	173.291
1528.1	64.4209
1532.23	192.002
1536.37	155.367
1540.49	138.675
1544.62	111.347
1548.75	148.7
1552.87	272.625
1556.99	184.16
1561.11	230.637
1565.22	72.8232
1569.33	59.3452
1573.44	144.558
