Measurement: Raman, 514 nm, depolarized, Raman Data Processed
Mineral: Rutile
Rruff sample: R040049
Ideal chemistry: Ti^4+^O_2_
Locality: Graves Mountain, Lincoln County, Georgia, USA
Source: University of Arizona Mineral Museum
Description: Reddish-black fragments
Measured chemistry: (Ti_1.00_Fe_0.01_)O_2_
Pin_id: L00145
Orientation: Laser parallel to [1 -1 0]. Fiducial mark perpendicular to laser is parallel to c [0 0 1]
Raman shift (cm-1)	intensity
88.968	0
93.927	1190.96
98.883	1867.83
103.836	2662.54
108.787	5008.74
113.734	5171.68
118.679	5979.13
123.621	6051.77
128.56	6415.82
133.497	7478.42
138.43	6825.31
143.361	6270.31
148.289	4475.96
153.214	2877.06
158.137	1225.7
163.056	268.106
167.973	196.969
172.887	564.172
177.798	59.3008
182.706	780.293
187.612	2405.78
192.515	3874.85
197.414	5543.69
202.312	7021.9
207.206	9021.84
212.097	10440.8
216.986	12079.6
221.872	14104.6
226.755	15542.5
231.636	17060.4
236.513	17502.3
241.388	17931.6
246.26	17210.7
251.13	16087.9
255.996	14277.4
260.86	12576.3
265.721	10925.7
270.579	9994.15
275.434	8350.49
280.287	7400.4
285.137	5837.85
289.984	4063.94
294.828	2863.46
299.67	1756.25
304.508	1052.15
309.345	482.91
314.178	471.84
319.008	518.211
323.836	612.672
328.661	335.969
333.483	45.6562
338.303	219.981
343.12	65.8398
347.934	170.496
352.745	532.297
357.553	586.547
362.359	721.414
367.162	1190.13
371.962	993.648
376.76	857.492
381.555	1018.33
386.347	1502.62
391.136	2189.56
395.922	3238.87
400.706	4367.77
405.487	5850.93
410.266	8483.45
415.041	10620.4
419.814	13859.8
424.584	17722.3
429.352	21502.6
434.117	25716
438.879	29466.4
443.638	31652
448.395	32473.7
453.148	29317.7
457.9	24412.2
462.648	18235.6
467.394	12584.1
472.137	8109.03
476.877	4515.52
481.615	2114.94
486.349	441.93
491.082	202.426
495.811	1074.86
500.538	933.746
505.262	733.207
509.983	252.383
514.702	46.2578
519.418	616.891
524.131	1186.01
528.842	1509.34
533.549	1962.26
538.255	3018.61
542.957	3406.58
547.657	4801.85
552.354	6618.82
557.048	8527.4
561.74	11364.6
566.429	14515.5
571.116	18854.1
575.799	24274.4
580.48	30205.4
585.159	37047.2
589.834	45677.6
594.507	56138.8
599.178	67581.2
603.845	78454.7
608.51	86876.1
613.173	88371.9
617.832	81962.4
622.489	70097.3
627.144	56785.3
631.795	44659.8
636.444	34198.9
641.09	25718.2
645.734	19986.5
650.375	15462.9
655.014	12656.5
659.649	10674.5
664.282	9240.52
668.913	8405.49
673.54	7770.25
678.165	7749.73
682.788	7490.68
687.408	7424.98
692.025	6971.38
696.639	6832.73
701.251	6318.88
705.86	5984.68
710.467	5200.96
715.071	4886.56
719.672	4200.35
724.271	3604.11
728.867	3542.71
733.46	2899.7
738.051	2771.82
742.639	2653.75
747.225	2498
751.808	3294.24
756.388	3205.82
760.966	3659.46
765.541	4463.56
770.113	5506.13
774.683	6847.78
779.25	7917.76
783.815	9118.4
788.377	10181
792.936	11732.8
797.493	12408.2
802.047	12387.3
806.598	12210.2
811.147	11438.9
815.693	10563.9
820.237	9709.69
824.778	8053.18
829.316	6968.1
833.852	5892.05
838.386	4650.78
842.916	3571.06
847.444	2673.71
851.97	1667.91
856.493	1093.81
861.013	632.26
865.531	140.688
870.046	87.0606
874.558	208.572
879.068	167.809
883.575	396.449
888.08	533.918
892.582	310.565
897.082	326.424
901.579	167.826
906.073	198.299
910.565	25.4414
915.054	105.037
919.541	414.228
924.025	376.875
928.507	462.807
932.986	766.75
937.462	684.076
941.936	851.602
946.407	728.057
950.876	1123.79
955.342	1110.02
959.806	1189.57
964.267	1275
968.725	1393.48
973.181	1368.29
977.634	1320.5
982.085	1267.45
986.533	1442.87
990.979	1614.71
995.422	1478.42
999.863	1548.14
1004.3	1660.85
1008.74	1481.19
1013.17	1562.34
1017.6	1438.24
1022.03	1474.48
1026.45	1158.54
1030.88	1095.16
1035.3	1151.41
1039.71	1092.76
1044.13	1092.59
1048.54	895.023
1052.95	1025.02
1057.36	836.014
1061.76	875.152
1066.17	875.354
1070.57	838.035
1074.96	909.783
1079.36	886.826
1083.75	814.502
1088.14	749.703
1092.53	590.053
1096.91	769.525
1101.29	619.811
1105.67	551.447
1110.05	488.6
1114.43	509.555
1118.8	413.992
1123.17	137.256
1127.54	472.326
1131.9	311.352
1136.26	360.422
1140.62	318.014
1144.98	189.49
1149.33	42.4492
1153.68	445.201
1158.04	62.0469
1162.38	137.685
1166.73	286.26
1171.07	71.6211
1175.41	74.5781
1179.74	139.139
1184.08	56.1055
1188.41	66.8164
1192.74	42.4883
1197.07	52.4727
1201.39	69.5742
1205.72	21.3145
1210.04	142.691
1214.35	179.629
1218.67	248.297
1222.98	118.205
1227.29	277.154
1231.6	121.609
1235.9	197.203
1240.2	224.625
1244.5	214.371
1248.8	322.469
1253.1	342.193
1257.39	309.092
1261.68	284.094
1265.96	239.494
1270.25	236.324
1274.53	346.012
1278.81	443.422
1283.09	408.779
1287.37	383.924
1291.64	335.965
1295.91	448.082
1300.18	460.35
1304.44	557.84
1308.7	610.084
1312.96	705.486
1317.22	564.002
1321.48	536.416
1325.73	665.008
1329.98	464.799
1334.23	658.269
1338.48	416.856
1342.72	268.728
1346.96	400.426
1351.2	371.242
1355.43	382.898
1359.67	238.127
1363.9	183.147
1368.13	430.982
1372.35	182.422
1376.58	182.018
1380.8	262.961
1385.02	35.4551
1389.23	91.5312
1393.45	189.062
1397.66	45.2227
1401.87	9.15234
1406.07	41.2051
1410.28	83.4062
1414.48	8.71484
1418.68	131.623
1422.88	122.045
1427.07	8.64453
1431.26	63.7168
1435.45	68.959
1439.64	86.8379
1443.83	35.041
1448.01	61.7637
1452.19	30.7871
1456.37	57.1777
1460.54	61.9414
1464.71	325.949
1468.88	17.1504
1473.05	123.818
1477.22	159.418
1481.38	73.834
1485.54	255.859
1489.7	209.641
1493.86	366.551
1498.01	305.656
1502.16	54.1992
1506.31	155.877
1510.45	233.303
1514.6	190.234
1518.74	199.4
1522.88	111.207
1527.02	387.478
1531.15	192.607
1535.28	349.266
1539.41	294.295
1543.54	240.945
1547.66	117.43
1551.79	230.4
1555.91	251.248
1560.03	282.129
1564.14	81.9297
1568.25	280.465
1572.36	147.291
1576.47	233.545
