Measurement: Raman, 514 nm, ccw, Raman Data Processed
Mineral: Rutile
Rruff sample: R050417
Ideal chemistry: Ti^4+^O_2_
Locality: Champion mine, Mono County, California, USA
Source: Marcus Origlieri
Description: Reddish black equant crystals
Measured chemistry: TiO_2_
Pin_id: L01608
Orientation: Laser parallel to -c* (0 0 -1). Fiducial mark perpendicular to laser is parallel to a [1 0 0]
Raman shift (cm-1)	intensity
89.67	0
94.629	1107.02
99.585	912.037
104.538	1547.03
109.489	2075.34
114.436	3699.64
119.381	5025.16
124.323	5806.66
129.263	3520.42
134.199	3114.93
139.133	2841.91
144.064	2257.12
148.992	1153.05
153.918	161.014
158.84	33.5586
163.76	121.068
168.677	236.08
173.592	226.367
178.503	974.521
183.412	1966.15
188.318	2863.99
193.221	3568.92
198.122	4250.43
203.019	4753.97
207.914	5416.25
212.806	6041.58
217.696	7107.6
222.582	7906.98
227.466	8867.97
232.347	9441.38
237.225	9750.61
242.101	9690.63
246.974	8758.28
251.844	7734.15
256.711	6672.29
261.575	5624.04
266.437	5021.7
271.296	4174.96
276.152	3723.19
281.006	2846.53
285.857	2431.22
290.705	1925.1
295.55	1275.01
300.392	1330.15
305.232	1276.44
310.069	1269.66
314.903	1352.86
319.735	1220.64
324.563	1202.35
329.39	1140.71
334.213	845.207
339.033	808.482
343.851	1078.63
348.666	948.111
353.479	976.939
358.288	903.568
363.095	1047.04
367.899	705.6
372.701	401.658
377.5	367.387
382.296	164.973
387.089	280.471
391.879	171.441
396.667	202.623
401.452	90.9102
406.235	1.48242
411.014	108.277
415.791	369.215
420.566	758.91
425.337	921.615
430.106	1412.38
434.872	1600.25
439.635	1856.27
444.396	1779.5
449.154	1858.4
453.909	1649.81
458.662	1029.84
463.412	858.879
468.159	601.42
472.903	220.514
477.645	37.7695
482.384	300.332
487.121	278.81
491.854	480.717
496.585	571.51
501.314	341.897
506.039	154
510.762	198.641
515.482	738.383
520.2	1263.96
524.915	1813.84
529.627	2418.4
534.336	2915.42
539.043	3976.29
543.747	5136.89
548.449	6592.18
553.148	8777.65
557.844	11044.8
562.537	14509.8
567.228	18520
571.916	23026.6
576.601	28745.6
581.284	35505.1
585.964	43406.1
590.641	52746.7
595.316	63250.9
599.988	75065.9
604.657	85068.2
609.324	90743.2
613.988	88699.2
618.65	80456.4
623.308	68265.5
627.964	55773.7
632.618	44216.6
637.269	35294.9
641.917	28571.4
646.562	23245.4
651.205	19727
655.845	16662.4
660.483	14825.4
665.117	13002.1
669.75	11650.5
674.379	10578.6
679.006	9815.9
683.63	8893.95
688.252	8355.03
692.871	7257.75
697.487	6836.83
702.101	5817.96
706.712	5120.06
711.321	4396.07
715.926	3779.97
720.529	2728.66
725.13	2315.08
729.728	1846.61
734.323	1471.81
738.916	1053.58
743.506	918.344
748.093	836.644
752.678	997.033
757.26	969.556
761.84	1251
766.417	1723.64
770.991	1828.17
775.562	2465.72
780.131	2861.5
784.698	3365.61
789.262	3785.18
793.823	4249.47
798.381	4747.96
802.937	5033.15
807.491	4857.97
812.042	4546.05
816.59	4406.67
821.135	4085.16
825.678	3674.83
830.218	3281.92
834.756	2864.41
839.291	2231.61
843.824	1613.65
848.354	1037.02
852.881	700.268
857.406	415.51
861.928	17.0391
866.447	33.1914
870.964	48.3193
875.479	257.243
879.99	303.56
884.5	287.286
889.006	273.751
893.51	112.412
898.012	101.679
902.51	186.597
907.007	54.2305
911.5	58.0088
915.991	101.906
920.48	98.5024
924.966	31.1016
929.449	232.041
933.93	230.042
938.408	288.828
942.884	266.885
947.357	375.488
951.827	383.492
956.295	447.709
960.76	442.4
965.223	471.202
969.683	614.095
974.141	655.333
978.596	626.324
983.049	438.56
987.498	690.636
991.946	736.268
996.391	770.437
1000.83	678.725
1005.27	784.226
1009.71	741.034
1014.14	611.894
1018.58	740.079
1023.01	673.003
1027.43	665.754
1031.86	655.225
1036.28	520.291
1040.7	527.752
1045.12	499.309
1049.53	440.858
1053.94	533.81
1058.35	525.542
1062.76	493.892
1067.16	395.041
1071.56	415.466
1075.96	352.341
1080.36	453.328
1084.75	371.496
1089.14	328.535
1093.53	227.652
1097.92	217.876
1102.3	269.538
1106.68	316.438
1111.06	183.987
1115.44	288.098
1119.81	224.582
1124.18	220.495
1128.55	212.723
1132.92	154.822
1137.28	179.217
1141.64	112.395
1146	141.944
1150.36	82.2583
1154.71	76.7007
1159.06	21.0625
1163.41	140.174
1167.76	150.932
1172.1	61.8467
1176.44	124.793
1180.78	164.741
1185.11	81.6963
1189.45	125.966
1193.78	184.663
1198.11	203.208
1202.43	92.1875
1206.76	237.375
1211.08	105.033
1215.39	106.302
1219.71	240.088
1224.02	270.53
1228.34	191.623
1232.64	197.727
1236.95	230.877
1241.25	185.721
1245.55	107.212
1249.85	237.749
1254.15	235.89
1258.44	209.416
1262.73	200.124
1267.02	67.4404
1271.31	53.3691
1275.59	16.4443
1279.87	25.4985
1284.15	95.7593
1288.43	132.417
1292.7	18.3867
1296.97	36.1352
1301.24	121.418
1305.51	67.3911
1309.77	23.646
1314.03	52.2886
1318.29	83.1343
1322.55	65.417
1326.8	78.3315
1331.05	15.0024
1335.3	45.4199
1339.55	39.4917
1343.79	120.783
1348.03	25.6636
1352.27	61.8306
1356.51	45.6548
1360.74	96.0815
1364.97	92.876
1369.2	133.162
1373.43	91.479
1377.65	92.7305
1381.87	54.2173
1386.09	93.3486
1390.31	21.1538
1394.53	93.2085
1398.74	120.188
1402.95	83.624
1407.15	23.5039
1411.36	26.6968
1415.56	153.694
1419.76	49.084
1423.96	18.4634
1428.15	114.447
1432.35	49.7241
1436.54	99.0293
1440.72	47.4248
1444.91	106.804
1449.09	127.1
1453.27	5.45215
1457.45	42.373
1461.62	15.6045
1465.8	48.1558
1469.97	94.584
1474.13	8.20508
1478.3	161.854
1482.46	77.3945
1486.62	165.855
1490.78	125.384
1494.94	7.60205
1499.09	105.423
1503.24	79.2417
1507.39	53.0977
1511.54	150.11
1515.68	49.169
1519.82	89.6099
1523.96	79.0727
1528.1	98.2578
1532.23	93.708
1536.37	142.725
1540.49	75.1567
1544.62	162.478
1548.75	138.095
1552.87	235.047
1556.99	124.941
1561.11	146.352
1565.22	69.3701
1569.33	113.954
1573.44	0.438965
