Measurement: Raman, 514 nm, ccw, Raman Data Processed
Mineral: Rutile
Rruff sample: R040049
Ideal chemistry: Ti^4+^O_2_
Locality: Graves Mountain, Lincoln County, Georgia, USA
Source: University of Arizona Mineral Museum
Description: Reddish-black fragments
Measured chemistry: (Ti_1.00_Fe_0.01_)O_2_
Pin_id: L00223
Orientation: Laser parallel to c* (0 0 1). Fiducial mark perpendicular to laser is parallel to -a [-1 0 0]
Raman shift (cm-1)	intensity
89.67	0
94.629	892.793
99.585	1408.88
104.538	2848.97
109.489	6030.58
114.436	7016.5
119.381	10452.7
124.323	11948.1
129.263	9330.47
134.199	11461.6
139.133	14145.7
144.064	14553.3
148.992	7932.14
153.918	3339.94
158.84	1152.96
163.76	105.352
168.677	806.93
173.592	518.606
178.503	1320.05
183.412	2812.55
188.318	4816.56
193.221	6440.65
198.122	8396.84
203.019	10532.9
207.914	12466.4
212.806	14916.7
217.696	16905.6
222.582	19710.7
227.466	22026.7
232.347	23964.6
237.225	25501.5
242.101	25412.3
246.974	23534.3
251.844	20240.7
256.711	17480.7
261.575	14703.1
266.437	12507.5
271.296	10922.3
276.152	9769.53
281.006	8129.24
285.857	6664.27
290.705	5187.04
295.55	3622.2
300.392	3175.48
305.232	3319.62
310.069	3673.82
314.903	3820.98
319.735	4085.75
324.563	3938.53
329.39	3241.57
334.213	2941.47
339.033	2801.24
343.851	3134.71
348.666	3355.05
353.479	3977.05
358.288	4282.67
363.095	4143.83
367.899	3599.51
372.701	3374.76
377.5	2635.27
382.296	2013.24
387.089	1681.69
391.879	1065.44
396.667	709.137
401.452	374.898
406.235	363.152
411.014	20.375
415.791	311.289
420.566	402.188
425.337	841.887
430.106	1368.31
434.872	1641.6
439.635	2481.85
444.396	2200.16
449.154	1944.61
453.909	1968.36
458.662	1273.43
463.412	1088.54
468.159	382.324
472.903	190.535
477.645	686.996
482.384	1026.98
487.121	1124.43
491.854	1530.02
496.585	1289.56
501.314	636.769
506.039	73.9258
510.762	909.727
515.482	1873.31
520.2	3533.05
524.915	4747.19
529.627	5903.91
534.336	7999.3
539.043	10338.2
543.747	13021.9
548.449	17464
553.148	22171.8
557.844	28334.6
562.537	36515.6
567.228	46311.4
571.916	58224.7
576.601	72634.7
581.284	90132.7
585.964	110292
590.641	134487
595.316	162945
599.988	193723
604.657	222765
609.324	241003
613.988	242395
618.65	224468
623.308	193406
627.964	159806
632.618	127778
637.269	102699
641.917	83290.6
646.562	67909.8
651.205	56338.4
655.845	48006.9
660.483	41930.1
665.117	37140.7
669.75	32736.6
674.379	29932.5
679.006	27463.5
683.63	24830.8
688.252	22586.4
692.871	21316
697.487	18761.7
702.101	17043.5
706.712	14852.5
711.321	12975.4
715.926	11382.8
720.529	9674.59
725.13	8364.62
729.728	6969.9
734.323	6045.82
738.916	5509.65
743.506	5203.78
748.093	4862.08
752.678	5020.96
757.26	5540.07
761.84	6320.36
766.417	7181.3
770.991	8500.34
775.562	9932.56
780.131	11694.4
784.698	13209.3
789.262	14856.2
793.823	15795.8
798.381	17152.1
802.937	17502.4
807.491	16703.9
812.042	16054.6
816.59	14518.8
821.135	13013.5
825.678	11444.9
830.218	9637.16
834.756	7521.33
839.291	6125.55
843.824	4473.25
848.354	3223.84
852.881	2598.43
857.406	1258.86
861.928	634.912
866.447	126.959
870.964	114.019
875.479	490.289
879.99	624.695
884.5	590.144
889.006	689.271
893.51	725.436
898.012	698.096
902.51	698.894
907.007	524.689
911.5	201.113
915.991	114.301
920.48	131.883
924.966	307.143
929.449	441.481
933.93	549.492
938.408	705.67
942.884	981.816
947.357	933.766
951.827	1161.81
956.295	1300.3
960.76	1486.05
965.223	1527.66
969.683	1630.12
974.141	1857.14
978.596	1846.53
983.049	2087.02
987.498	2099.6
991.946	2285.97
996.391	2219.12
1000.83	2477.08
1005.27	2342.85
1009.71	2470.8
1014.14	2329.92
1018.58	2417.07
1023.01	2109.32
1027.43	1922.44
1031.86	1914.76
1036.28	1693.28
1040.7	1616.62
1045.12	1429.88
1049.53	1414.16
1053.94	1214.57
1058.35	1210
1062.76	1236.82
1067.16	1035.22
1071.56	1090.42
1075.96	922.137
1080.36	952.229
1084.75	1050.35
1089.14	934.699
1093.53	965.019
1097.92	869.154
1102.3	832.85
1106.68	794.201
1111.06	749.582
1115.44	765.197
1119.81	802.473
1124.18	670.623
1128.55	607.037
1132.92	527.545
1137.28	406.959
1141.64	264.121
1146	352.506
1150.36	144.478
1154.71	344.221
1159.06	388.283
1163.41	298.602
1167.76	127.977
1172.1	127.107
1176.44	308.31
1180.78	259.84
1185.11	184.451
1189.45	309.504
1193.78	278.871
1198.11	208.453
1202.43	198.769
1206.76	96.4609
1211.08	217.699
1215.39	342.752
1219.71	381.975
1224.02	345.047
1228.34	493.807
1232.64	304.422
1236.95	345.115
1241.25	314.764
1245.55	214.525
1249.85	314.373
1254.15	201.287
1258.44	265.31
1262.73	321.232
1267.02	111.619
1271.31	210.586
1275.59	154.502
1279.87	55.9121
1284.15	33.5801
1288.43	107.588
1292.7	224.047
1296.97	39.4082
1301.24	192.065
1305.51	48.1523
1309.77	58.2109
1314.03	180.094
1318.29	5.83594
1322.55	25.1113
1326.8	83.9141
1331.05	57.6641
1335.3	15.3828
1339.55	152.471
1343.79	135.894
1348.03	77.5312
1352.27	356.371
1356.51	209.369
1360.74	99.4062
1364.97	225.242
1369.2	130.934
1373.43	128.058
1377.65	79.4111
1381.87	147.998
1386.09	159.862
1390.31	126.536
1394.53	43.2852
1398.74	111.069
1402.95	137.398
1407.15	188.801
1411.36	218.925
1415.56	79.9961
1419.76	270.006
1423.96	52.4268
1428.15	162.457
1432.35	16.4355
1436.54	29.0957
1440.72	140.818
1444.91	76.2676
1449.09	44.4785
1453.27	153.656
1457.45	78.0176
1461.62	177.025
1465.8	7.30273
1469.97	65.1426
1474.13	125.9
1478.3	66.3711
1482.46	76.0918
1486.62	58.6016
1490.78	135.346
1494.94	27.8203
1499.09	74.1328
1503.24	216.115
1507.39	49.9316
1511.54	262.996
1515.68	105.088
1519.82	268.957
1523.96	228.312
1528.1	158.385
1532.23	81.4316
1536.37	75.7129
1540.49	335.691
1544.62	136.775
1548.75	205.477
1552.87	273.943
1556.99	103.244
1561.11	246.629
1565.22	234.863
1569.33	64.3672
1573.44	158.731
1577.55	139.217
