Measurement: Raman, 514 nm, ccw, Raman Data Processed
Mineral: Rutile
Rruff sample: R040049
Ideal chemistry: Ti^4+^O_2_
Locality: Graves Mountain, Lincoln County, Georgia, USA
Source: University of Arizona Mineral Museum
Description: Reddish-black fragments
Measured chemistry: (Ti_1.00_Fe_0.01_)O_2_
Pin_id: L00145
Orientation: Laser parallel to [1 -1 0]. Fiducial mark perpendicular to laser is parallel to c [0 0 1]
Raman shift (cm-1)	intensity
90.208	0
95.166	627.394
100.121	675.84
105.074	1973.2
110.024	4291.62
114.971	5968.5
119.915	8704.15
124.856	9948.09
129.795	8224.98
134.73	10079.7
139.663	10526.1
144.593	9020.38
149.521	7450.42
154.445	5133.34
159.367	2499.62
164.286	1221.15
169.202	406.352
174.115	827.477
179.025	521.578
183.933	800.773
188.838	2525.73
193.74	4445.74
198.639	7449.29
203.535	10068.5
208.429	13285.5
213.32	16621.7
218.208	18550.1
223.093	20753.6
227.976	22529.8
232.855	22923.4
237.732	23425.3
242.607	23269.3
247.478	22820.1
252.346	22451.4
257.212	20629
262.075	19473.2
266.936	18357.3
271.793	16369.9
276.648	14100.4
281.5	11893.9
286.349	8949.07
291.195	5897.41
296.039	3536.32
300.88	1593.44
305.718	794.477
310.553	141.09
315.386	619.031
320.215	940.109
325.043	442.644
329.867	453.934
334.688	769.562
339.507	140.117
344.323	645.457
349.137	443.523
353.947	538.445
358.755	208.891
363.56	102.297
368.362	88.0625
373.162	469.699
377.959	171.43
382.753	155.285
387.544	546.133
392.333	717.621
397.119	2320.88
401.902	3779.65
406.682	5247.75
411.46	7493.13
416.235	9208.29
421.007	11247.4
425.777	13288.4
430.543	14865.2
435.307	16132.7
440.069	17166.6
444.827	17999.5
449.583	17123.1
454.336	15992.3
459.087	13920.4
463.835	11465.9
468.58	9856.25
473.322	8122.87
478.062	6711.47
482.798	6404.82
487.533	5765.73
492.264	5537.63
496.993	6982.82
501.719	8160.51
506.442	10193.4
511.163	11599.2
515.881	13169.8
520.596	14232.4
525.309	14528.9
530.019	14558.9
534.726	14658.8
539.431	13929.3
544.132	13722.1
548.831	13530
553.528	13803.8
558.222	14098.2
562.913	14380.1
567.601	14761.2
572.287	15357
576.97	16388.1
581.65	17516.3
586.328	18541.3
591.003	19721.1
595.675	21228.4
600.345	22289.4
605.012	21723.8
609.676	19524.6
614.338	15557.6
618.997	10367.8
623.653	5624.24
628.307	1971.21
632.958	176.984
637.606	1069.01
642.252	1175.6
646.895	1199.98
651.535	335.43
656.173	923.543
660.808	2027.56
665.44	4027.68
670.07	6092.88
674.697	7776.96
679.321	9371.79
683.943	11305.2
688.562	12482.9
693.179	14053
697.793	15192.2
702.404	15821.5
707.012	16079.6
711.618	16922.6
716.222	16764.3
720.822	17147.6
725.42	16935.5
730.016	16461.7
734.608	16660.4
739.198	16285.5
743.786	16273
748.371	16638.2
752.953	16788.4
757.533	17258
762.11	17804.9
766.684	18827.5
771.256	19581.3
775.825	20767.7
780.391	22079.1
784.955	23133.5
789.517	24162.1
794.075	25448
798.631	25872.6
803.185	25315.7
807.736	24434.4
812.284	22177.8
816.829	19891.2
821.372	17557.7
825.913	14802.9
830.451	12214
834.986	9938.65
839.518	7996.23
844.048	6282.39
848.576	4948.01
853.101	3618.87
857.623	2859.41
862.143	2135.72
866.66	1516.87
871.174	929.943
875.686	717.465
880.195	547.646
884.702	209.373
889.206	140.19
893.707	45.207
898.206	207.848
902.703	158.381
907.196	113.658
911.688	78.0137
916.176	68.9141
920.662	277.394
925.146	37.6621
929.627	244.408
934.105	0.759766
938.581	37.5527
943.054	71.8906
947.525	163.566
951.993	251.82
956.458	326.613
960.921	250.924
965.381	229.408
969.839	375.918
974.294	286.184
978.747	209.164
983.197	295.932
987.645	262.807
992.09	445.34
996.532	200.879
1000.97	180.158
1005.41	464.109
1009.84	197.654
1014.28	488.412
1018.71	330.67
1023.13	430.537
1027.56	397.08
1031.98	402.158
1036.4	516.006
1040.82	289.377
1045.23	176.228
1049.64	329.305
1054.05	405.992
1058.46	27.6562
1062.86	196.541
1067.27	2.52828
1071.66	172.141
1076.06	24.8242
1080.46	160.872
1084.85	309.461
1089.24	129.424
1093.62	212.902
1098.01	292.959
1102.39	138.525
1106.77	295.984
1111.14	292.127
1115.52	123.449
1119.89	215.035
1124.26	181.566
1128.63	135.541
1132.99	47.0332
1137.35	135.619
1141.71	67.793
1146.07	84.082
1150.42	29.6914
1154.77	2.1582
1159.12	15.1621
1163.47	61.4121
1167.81	86.832
1172.15	18.5918
1176.49	38.1523
1180.83	3.09766
1185.16	251.92
1189.49	293.59
1193.82	153.088
1198.15	220.744
1202.47	266.582
1206.8	182.81
1211.12	99.8809
1215.43	88.6016
1219.75	193.393
1224.06	185.137
1228.37	291.574
1232.67	374.379
1236.98	418.906
1241.28	412.926
1245.58	504.066
1249.88	372.92
1254.17	491.996
1258.46	346.248
1262.75	372.666
1267.04	533.529
1271.32	421.959
1275.6	395.725
1279.88	423.076
1284.16	367.693
1288.43	164.478
1292.71	190.84
1296.98	128.44
1301.24	92.6289
1305.51	174.67
1309.77	227.18
1314.03	361.475
1318.29	8.71094
1322.54	51.4258
1326.79	66.0195
1331.04	151.978
1335.29	3.78125
1339.54	122.82
1343.78	184.666
1348.02	108.684
1352.26	106.85
1356.49	154.727
1360.72	40.4648
1364.96	293.441
1369.18	189.178
1373.41	187.637
1377.63	183.717
1381.85	30.3145
1386.07	160.652
1390.29	95.5215
1394.5	139.307
1398.71	67.6973
1402.92	124.619
1407.12	240.109
1411.33	338.731
1415.53	202.713
1419.73	309.959
1423.92	124.18
1428.12	269.062
1432.31	108.428
1436.5	126.436
1440.69	356.144
1444.87	239.049
1449.05	120.609
1453.23	229.685
1457.41	264.059
1461.58	83.541
1465.76	83.0059
1469.93	264.742
1474.09	71.0293
1478.26	26.3086
1482.42	333.1
1486.58	119.264
1490.74	105.209
1494.89	65.5625
1499.05	28.459
1503.2	187.377
1507.35	76.1856
1511.49	336.572
1515.63	109.422
1519.78	310.32
1523.91	144.188
1528.05	211.316
1532.18	271.32
1536.32	131.717
1540.44	257.481
1544.57	255.365
1548.7	124.539
1552.82	203.209
1556.94	185.342
1561.05	162.676
1565.17	110.457
1569.28	204.834
1573.39	239.588
1577.5	2.08008
