Measurement: Raman, 514 nm, depolarized, Raman Data Processed
Mineral: Sanbornite
Rruff sample: R050001
Ideal chemistry: BaSi_2_O_5_
Locality: Empire #1 mine, Fresno County, California, USA
Source: University of Arizona Mineral Museum
Description: An aggregate of white to colorless pearly anhedral plates
Measured chemistry: Ba_1.00_Si_2.00_O_5_
Pin_id: M00207
Orientation: Laser parallel to -c* (0 0 -1). Fiducial mark perpendicular to laser is parallel to -a [-1 0 0]
Raman shift (cm-1)	intensity
68.847	0
73.054	111.897
77.26	294.092
81.463	193.56
85.664	204.77
89.863	88.432
94.059	11.256
98.254	119.547
102.446	1460.24
106.637	1245.24
110.825	426.156
115.011	984.329
119.195	2802.62
123.377	3067.55
127.556	1498.4
131.734	640.806
135.909	347.889
140.083	470.265
144.254	769.219
148.423	1736.54
152.59	1179.65
156.755	473.094
160.918	163.163
165.078	26.233
169.237	10.706
173.393	30.591
177.548	23.012
181.7	25.882
185.85	72.478
189.998	137.797
194.144	322.218
198.288	612.641
202.429	509.558
206.569	65.575
210.707	6.939
214.842	31.482
218.976	16.562
223.107	15.955
227.236	28.267
231.363	0.678
235.488	30.537
239.611	82.01
243.732	145.487
247.851	284.73
251.967	373.466
256.082	465.59
260.195	831.388
264.305	1584.75
268.414	2923.51
272.52	2013.38
276.624	1589.91
280.726	1890.24
284.827	2649.47
288.925	4646.44
293.021	6580.07
297.115	5109.71
301.207	2666.55
305.296	1523.65
309.384	1043.55
313.47	816.498
317.554	736.484
321.635	712.325
325.715	998.321
329.792	2548.52
333.868	7031.15
337.941	2388.55
342.013	1045.07
346.082	599.044
350.15	378.331
354.215	287.93
358.278	257.183
362.339	230.16
366.399	171.602
370.456	182.067
374.511	172.593
378.564	129.188
382.615	143.32
386.664	135.312
390.711	96.63
394.756	111.891
398.799	110.398
402.84	71.841
406.879	135.249
410.916	94.922
414.951	57.055
418.983	25.369
423.014	31.491
427.043	41.256
431.07	76.904
435.095	71.947
439.118	126.588
443.138	116.863
447.157	209.788
451.174	485.415
455.189	1116.87
459.202	1670.11
463.212	1124.04
467.221	575.802
471.228	809.435
475.233	3501.06
479.236	4497.68
483.237	700.896
487.235	313.022
491.232	463.197
495.227	550.578
499.22	356.075
503.211	338.522
507.2	406.399
511.187	591.028
515.172	733.344
519.155	1055.23
523.136	1833.22
527.115	3623.53
531.092	8178.99
535.067	15473.3
539.04	12667.7
543.011	5836.24
546.98	2742.21
550.947	1544.14
554.913	948.2
558.876	696.174
562.837	582.047
566.797	452.79
570.754	337.959
574.709	335.392
578.663	331.089
582.614	271.523
586.564	197.938
590.511	180.128
594.457	179.895
598.401	197.058
602.343	177.28
606.282	91.203
610.22	94.377
614.156	55.746
618.09	101.602
622.022	104.658
625.952	58.68
629.88	80.667
633.807	46.676
637.731	75.597
641.653	71.409
645.574	26.319
649.492	24.206
653.409	28.991
657.323	65.83
661.236	26.758
665.147	8.522
669.056	17.48
672.963	24.943
676.868	27.733
680.771	31.625
684.672	6.28
688.571	12.569
692.468	10.155
696.364	5.512
700.257	8.561
704.149	10.665
708.038	5.865
711.926	25.888
715.812	9.406
719.696	21.807
723.578	3.322
727.458	29.09
731.336	1.214
735.213	72.309
739.087	8.728
742.96	81.486
746.83	15.995
750.699	231.774
754.566	592.854
758.431	511.892
762.294	311.884
766.155	154.822
770.014	104.611
773.872	136.381
777.727	105.158
781.581	66.844
785.433	40.581
789.282	55.28
793.13	42.531
796.977	72.894
800.821	66.046
804.663	65.219
808.504	31.747
812.342	68.768
816.179	34.089
820.014	76.427
823.847	83.453
827.678	3.813
831.507	21.324
835.334	37.84
839.16	25.004
842.983	46.713
846.805	62.872
850.625	77.056
854.443	56.686
858.259	90.935
862.074	81.535
865.886	37.678
869.697	23.716
873.506	26.593
877.313	53.545
881.118	10.47
884.921	29.098
888.722	68.355
892.522	5.167
896.319	2.912
900.115	60.002
903.909	14.271
907.701	32.507
911.492	44.729
915.28	42.935
919.067	3.129
922.852	23.311
926.635	12.483
930.416	39.646
934.195	54.799
937.973	5.107
941.748	9.024
945.522	8.115
949.294	106.352
953.064	85.421
956.832	32.482
960.599	64.508
964.364	21.605
968.127	3.583
971.888	47.475
975.647	45.195
979.404	106.498
983.16	118.586
986.914	177.853
990.666	125.613
994.416	392.951
998.164	1147.32
1001.91	1034.73
1005.65	342.232
1009.4	156.935
1013.14	122.495
1016.88	134.201
1020.62	159.953
1024.35	164.752
1028.09	207.556
1031.82	187.364
1035.55	141.541
1039.28	213.281
1043	234.485
1046.73	360.103
1050.45	432.993
1054.17	578.085
1057.89	668.181
1061.61	971.296
1065.33	1749.49
1069.04	3744.59
1072.75	11915.8
1076.46	41348.1
1080.17	23490.3
1083.88	6085.57
1087.59	2604.61
1091.29	1560.93
1094.99	1132.28
1098.69	1221.66
1102.39	840.552
1106.09	534.83
1109.78	257.667
1113.47	229.904
1117.16	232.653
1120.85	260.676
1124.54	238.476
1128.23	182.715
1131.91	128.84
1135.59	76.504
1139.27	76.868
1142.95	64.707
1146.63	45.426
1150.3	32.098
1153.98	5.711
1157.65	101.51
1161.32	0.736
1164.99	4.311
1168.65	7.677
1172.32	22.047
1175.98	42.993
1179.64	62.547
1183.3	68.677
1186.96	102.576
1190.62	55.945
1194.27	57.706
1197.92	36.257
1201.57	86.604
1205.22	87.581
1208.87	72.212
1212.51	119.609
1216.16	88.124
1219.8	127.128
1223.44	66.583
1227.08	97.191
1230.72	52.707
1234.35	36.168
1237.98	29.419
1241.62	61.534
1245.25	95.506
1248.87	146.473
1252.5	73.399
1256.12	98.313
1259.75	48.1
1263.37	9.094
1266.99	9.881
1270.61	97.512
1274.22	108.056
1277.84	66.496
1281.45	86.688
1285.06	73.836
1288.67	17.782
1292.28	50.896
1295.88	38.296
1299.49	4.63
1303.09	13.881
1306.69	51.082
1310.29	46.117
1313.89	60.057
1317.48	16.959
1321.08	30.753
1324.67	42.581
1328.26	29.655
1331.85	12.694
1335.44	34.997
1339.02	28.419
1342.61	32.912
1346.19	74.637
1349.77	60.459
1353.35	44.755
1356.92	3.332
1360.5	2.88
1364.07	44.356
1367.64	10.629
1371.21	38.932
1374.78	24.151
1378.35	125.173
1381.91	119.855
1385.48	95.367
1389.04	83.408
1392.6	44.423
1396.16	88.849
1399.71	60.193
1403.27	20.257
1406.82	29.666
1410.38	38.933
1413.92	115.193
1417.47	103.354
1421.02	92.853
1424.57	131.912
1428.11	113.286
1431.65	46.201
1435.19	83.051
1438.73	12.4
1442.27	67.897
1445.8	58.084
1449.33	76.788
1452.87	109.71
1456.4	172.738
1459.92	180.152
1463.45	135.792
1466.98	130.27
1470.5	115.68
1474.02	115.601
1477.54	42.011
1481.06	41.407
1484.58	91.988
1488.09	95.856
1491.61	62.751
1495.12	87.968
1498.63	177.659
1502.14	110.235
1505.64	75.885
1509.15	50.755
1512.65	2.028
1516.15	20.885
1519.66	0
