Measurement: Raman, 514 nm, depolarized, Raman Data Processed
Mineral: Sanbornite
Rruff sample: R050001
Ideal chemistry: BaSi_2_O_5_
Locality: Empire #1 mine, Fresno County, California, USA
Source: University of Arizona Mineral Museum
Description: An aggregate of white to colorless pearly anhedral plates
Measured chemistry: Ba_1.00_Si_2.00_O_5_
Pin_id: M00487
Orientation: Laser parallel to -b* (0 -1 0). Fiducial mark perpendicular to laser is parallel to c [0 0 1]
Raman shift (cm-1)	intensity
49.184	0
53.401	22.439
57.617	72.671
61.83	73.482
66.041	126.416
70.25	101.638
74.456	99.587
78.661	30.177
82.863	28.848
87.064	8.701
91.262	362.446
95.458	950.466
99.652	954.263
103.843	2707.76
108.033	1422.87
112.22	828.508
116.406	1147.61
120.589	1256.12
124.77	899.018
128.949	557.26
133.126	430.83
137.301	373.767
141.473	354.981
145.644	480.527
149.812	493.468
153.979	388.528
158.143	432.805
162.305	732.179
166.465	1075.66
170.623	1076.26
174.778	700.977
178.932	433.813
183.083	434.771
187.233	607.848
191.38	772.044
195.525	651.357
199.669	420.783
203.81	298.324
207.949	273.977
212.085	316.742
216.22	555.18
220.353	872.565
224.483	933.364
228.612	791.433
232.738	628.568
236.863	697.797
240.985	1080.9
245.105	2204.98
249.223	2539.06
253.339	1445.47
257.453	874.103
261.565	828.151
265.675	1018.89
269.783	1176.76
273.888	1318.75
277.992	1732.85
282.093	2725.07
286.193	4615.39
290.29	6781.8
294.386	6707.31
298.479	4600.91
302.57	2669.59
306.659	1976.35
310.746	2870.18
314.831	4727.08
318.914	3643.05
322.995	1688.09
327.074	1172.19
331.151	1770.34
335.226	2156.56
339.299	3950.84
343.37	5126.17
347.438	2206.57
351.505	723.034
355.57	326.563
359.632	176.147
363.693	89.804
367.751	25.562
371.808	38.414
375.862	48.33
379.914	39.306
383.965	81.318
388.013	49.41
392.06	19.584
396.104	28.184
400.146	21.963
404.186	59.733
408.225	29.583
412.261	22.427
416.295	39.272
420.327	10.179
424.357	20.925
428.386	159.068
432.412	181.248
436.436	105.463
440.458	87.71
444.478	117.989
448.496	236.297
452.513	588.632
456.527	1129.99
460.539	1301.38
464.549	861.784
468.557	875.211
472.563	2872.66
476.567	6215.12
480.57	2768.6
484.57	831.087
488.568	448.59
492.564	483.103
496.558	490.626
500.551	533.158
504.541	699.138
508.529	945.12
512.515	2209.09
516.5	2113.47
520.482	3113.53
524.462	5484.6
528.441	11706.3
532.417	24136.5
536.391	29647
540.364	17855.9
544.334	8288.99
548.303	4164.77
552.269	2398.57
556.234	1605.03
560.197	1151.72
564.157	925.035
568.116	753.501
572.073	602.856
576.027	527.084
579.98	446.373
583.931	366.695
587.88	286.915
591.827	329.122
595.772	535.331
599.715	396.523
603.656	283.711
607.595	152.869
611.532	144.991
615.468	123.079
619.401	106.134
623.332	89.146
627.262	102.113
631.189	130.035
635.115	88.91
639.039	93.742
642.96	105.521
646.88	43.252
650.798	58.932
654.714	80.396
658.628	50.414
662.54	1.785
666.45	10.691
670.358	0.786
674.264	43.622
678.169	2.925
682.071	0.999
685.972	3.11
689.87	27.643
693.767	39.29
697.662	60.879
701.555	23.662
705.446	0.618
709.335	1.222
713.222	35.464
717.107	6.542
720.99	0.44
724.872	29.451
728.751	44.315
732.629	4.744
736.504	36.946
740.378	45.726
744.25	99.546
748.12	260.853
751.988	626.12
755.854	656.688
759.719	334.137
763.581	223.54
767.442	131.535
771.3	107.447
775.157	70.659
779.012	55.809
782.865	69.897
786.716	62.923
790.565	56.888
794.413	64.794
798.258	60.747
802.102	74.535
805.943	24.264
809.783	29.933
813.621	31.543
817.457	15.928
821.292	15.491
825.124	20.037
828.954	58.279
832.783	33.605
836.61	102.251
840.435	100.11
844.258	105.363
848.079	58.596
851.898	77.389
855.715	17.684
859.531	33.954
863.345	1.071
867.157	18.213
870.967	22.418
874.775	15.952
878.581	14.55
882.386	23.194
886.188	23.975
889.989	4.787
893.788	9.628
897.585	29.657
901.38	11.951
905.174	11.297
908.965	8.708
912.755	5.831
916.543	0.641
920.329	24.872
924.113	21.374
927.895	38.865
931.676	59.36
935.454	31.86
939.231	22.367
943.006	28.882
946.78	31.402
950.551	1.934
954.32	22.477
958.088	33.941
961.854	61.356
965.618	32.865
969.38	85.227
973.141	121.711
976.9	165.335
980.656	340.008
984.411	853.666
988.165	842.507
991.916	408.449
995.665	306.473
999.413	341.592
1003.16	185.756
1006.9	146.027
1010.65	125.411
1014.39	159.762
1018.12	168.754
1021.86	203.382
1025.6	220.921
1029.33	191.702
1033.06	389.529
1036.79	724.33
1040.52	515.398
1044.25	442.411
1047.97	471.8
1051.69	587.351
1055.41	724.904
1059.13	1032.21
1062.85	1695.8
1066.57	3071.08
1070.28	7623.8
1073.99	27646.6
1077.7	42722
1081.41	15217.5
1085.12	5238.05
1088.82	2530.61
1092.52	1576.22
1096.22	1024.87
1099.92	799.512
1103.62	536.248
1107.32	396
1111.01	307.912
1114.7	236.648
1118.39	293.246
1122.08	199.176
1125.77	192.111
1129.45	130.179
1133.14	166.301
1136.82	173.47
1140.5	133.62
1144.18	139.114
1147.85	111.07
1151.53	156.814
1155.2	191.11
1158.87	194.841
1162.54	361.096
1166.21	639.219
1169.88	1167.04
1173.54	1154.6
1177.2	738.182
1180.86	352.731
1184.52	224.713
1188.18	117.15
1191.83	107.947
1195.49	81.258
1199.14	102.708
1202.79	65.356
1206.44	26.703
1210.08	79.775
1213.73	12.602
1217.37	9.914
1221.01	37.229
1224.65	51.214
1228.29	1.345
1231.93	82.787
1235.56	34.131
1239.19	13.303
1242.83	14.336
1246.46	46.528
1250.08	39.523
1253.71	13.523
1257.33	60.64
1260.96	52.614
1264.58	20.635
1268.19	61.37
1271.81	41.006
1275.43	27.563
1279.04	12.103
1282.65	5.251
1286.27	18.968
1289.87	25.915
1293.48	17.876
1297.09	10.012
1300.69	15.85
1304.29	35.539
1307.89	11.335
1311.49	26.093
1315.09	3.7
1318.68	8.596
1322.28	11.794
1325.87	27.908
1329.46	25.933
1333.05	45.906
1336.63	4.286
1340.22	23.567
1343.8	11.055
1347.38	18.587
1350.96	3.952
1354.54	3.435
1358.12	57.752
1361.69	27.012
1365.26	95.227
1368.83	69.405
1372.4	55.855
1375.97	29.972
1379.54	38.168
1383.1	71.136
1386.66	74.1
1390.23	72.878
1393.79	75.822
1397.34	80.412
1400.9	66.718
1404.45	76.669
1408.01	46.948
1411.56	49.981
1415.11	85.915
1418.66	36.375
1422.2	5.452
1425.75	73.852
1429.29	59.819
1432.83	104.901
1436.37	79.441
1439.91	125.098
1443.44	79.554
1446.98	32.895
1450.51	14.357
1454.04	50.887
1457.57	76.671
1461.1	31.872
1464.63	42.336
1468.15	106.442
1471.67	24.645
1475.19	37.223
1478.71	47.685
1482.23	68.236
1485.75	67.945
1489.26	52.676
1492.78	71.681
1496.29	17.686
1499.8	28.306
1503.31	43.427
1506.81	42.304
1510.32	44.554
1513.82	23.821
1517.32	0
