Measurement: Raman, 514 nm, depolarized, Raman Data Processed
Mineral: Sanbornite
Rruff sample: R050001
Ideal chemistry: BaSi_2_O_5_
Locality: Empire #1 mine, Fresno County, California, USA
Source: University of Arizona Mineral Museum
Description: An aggregate of white to colorless pearly anhedral plates
Measured chemistry: Ba_1.00_Si_2.00_O_5_
Pin_id: M00320
Orientation: Laser parallel to -a* (-1 0 0). Fiducial mark perpendicular to laser is parallel to -b [0 -1 0]
Raman shift (cm-1)	intensity
128.949	0
133.126	96.629
137.301	132.562
141.473	232.221
145.644	321.113
149.812	292.807
153.979	148.19
158.143	16.156
162.305	96.021
166.465	97.626
170.623	10.91
174.778	5.278
178.932	110.307
183.083	315.757
187.233	871.511
191.38	1367.84
195.525	1225.07
199.669	673.597
203.81	303.892
207.949	274.526
212.085	394.446
216.22	963.691
220.353	1632.48
224.483	1660.91
228.612	1109.05
232.738	756.939
236.863	354.601
240.985	332.045
245.105	551.254
249.223	631.99
253.339	223.835
257.453	238.955
261.565	272.299
265.675	688.616
269.783	847.997
273.888	409.456
277.992	388.253
282.093	521.205
286.193	715.483
290.29	928.658
294.386	891.027
298.479	784.413
302.57	478.609
306.659	383.207
310.746	738.03
314.831	1202.99
318.914	1078.02
322.995	522.897
327.074	1028.29
331.151	1853.33
335.226	1858.31
339.299	1573.21
343.37	1408.02
347.438	702.741
351.505	327.356
355.57	121.852
359.632	18.104
363.693	30.485
367.751	69.016
371.808	38.371
375.862	72.009
379.914	95.417
383.965	298.586
388.013	191.568
392.06	65.632
396.104	26.923
400.146	10.758
404.186	91.245
408.225	66.956
412.261	64.681
416.295	55.809
420.327	66.665
424.357	7.312
428.386	117.88
432.412	127.495
436.436	156.645
440.458	95.446
444.478	113.911
448.496	286.431
452.513	451.184
456.527	490.299
460.539	579.811
464.549	484.933
468.557	446.977
472.563	515.002
476.567	923.069
480.57	491.195
484.57	148.691
488.568	246.7
492.564	264.138
496.558	301.201
500.551	298.725
504.541	475.81
508.529	532.77
512.515	508.65
516.5	946.926
520.482	1333.37
524.462	2147.11
528.441	4471.56
532.417	7326.34
536.391	7768.54
540.364	4757.19
544.334	2520.29
548.303	1494.01
552.269	1066.24
556.234	691.948
560.197	411.543
564.157	486.261
568.116	382.326
572.073	405.664
576.027	196.991
579.98	186.631
583.931	264.227
587.88	327.855
591.827	397.478
595.772	611.465
599.715	596.988
603.656	226.186
607.595	127.634
611.532	56.143
615.468	116.67
619.401	329.887
623.332	79.723
627.262	188.949
631.189	147.346
635.115	91.891
639.039	154.886
642.96	83.449
646.88	53.369
650.798	50.791
654.714	138.072
658.628	115.16
662.54	105.797
666.45	125.79
670.358	31.766
674.264	277.48
678.169	132.899
682.071	168.089
685.972	13.062
689.87	157.794
693.767	82.322
697.662	188.938
701.555	113.26
705.446	127.793
709.335	121.649
713.222	35.341
717.107	38.953
720.99	112.423
724.872	75.66
728.751	169.08
732.629	78.089
736.504	25.057
740.378	7.8
744.25	140.174
748.12	86.328
751.988	420.016
755.854	315.625
759.719	247.418
763.581	228.363
767.442	158.773
771.3	314.014
775.157	103.564
779.012	156.291
782.865	232.99
786.716	132.914
790.565	172.258
794.413	131.58
798.258	200.105
802.102	127.865
805.943	155.938
809.783	224.375
813.621	371.508
817.457	318.93
821.292	195.945
825.124	273.123
828.954	278.564
832.783	403.395
836.61	330.518
840.435	566.354
844.258	352.818
848.079	308.906
851.898	545.635
855.715	412.252
859.531	356.498
863.345	250.779
867.157	136.48
870.967	312.527
874.775	224.203
878.581	68.408
882.386	301.436
886.188	98.83
889.989	32.426
893.788	157.393
897.585	162.99
901.38	518.43
905.174	173.973
908.965	389.336
912.755	264.576
916.543	139.715
920.329	414.352
924.113	478.43
927.895	88.992
931.676	93.234
935.454	37.619
939.231	92.146
943.006	225.701
946.78	320.045
950.551	333.666
954.32	145.559
958.088	120.014
961.854	374.271
965.618	48.33
969.38	148.479
973.141	229
976.9	233.324
980.656	427.629
984.411	876.535
988.165	862.01
991.916	716.309
995.665	610.619
999.413	464.951
1003.16	397.654
1006.9	68.123
1010.65	165.824
1014.39	182.715
1018.12	127.027
1021.86	171.5
1025.6	155.879
1029.33	139.879
1033.06	224.191
1036.79	218.623
1040.52	602.432
1044.25	517.039
1047.97	681.35
1051.69	727.643
1055.41	431.029
1059.13	681.15
1062.85	962.957
1066.57	1477.64
1070.28	3616.94
1073.99	10261
1077.7	11204.9
1081.41	4169.28
1085.12	1974.29
1088.82	1059.06
1092.52	974.328
1096.22	689.748
1099.92	455.088
1103.62	410.438
1107.32	105.871
1111.01	59.439
1114.7	134.523
1118.39	368.809
1122.08	363.957
1125.77	79.162
1129.45	234.432
1133.14	199.996
1136.82	236.107
1140.5	192.6
1144.18	199.465
1147.85	26.615
1151.53	324.006
1155.2	431.629
1158.87	30.477
1162.54	308.281
1166.21	278.143
1169.88	488.508
1173.54	526.613
1177.2	556.555
1180.86	483.943
1184.52	418.854
1188.18	157.277
1191.83	256.789
1195.49	88.822
1199.14	205.031
1202.79	460.348
1206.44	266.102
