Measurement: Raman, 514 nm, depolarized, Raman Data Processed
Mineral: Scheelite
Rruff sample: R040172
Ideal chemistry: CaW^6+^O_4_
Locality: Sonora, Mexico
Source: University of Arizona Mineral Museum
Description: Colorless water worn single crystal
Measured chemistry: Ca_1.01_W_1.00_O_4_
Pin_id: L00329
Orientation: Laser parallel to a* (1 0 0). Fiducial mark perpendicular to laser is parallel to c [0 0 1]
Raman shift (cm-1)	intensity
50.765	0
54.966	40.911
59.164	47.822
63.36	23.588
67.554	6.522
71.747	15.344
75.937	164.436
80.125	1021.33
84.311	13132.7
88.496	3287.32
92.678	787.032
96.858	487.679
101.036	402.087
105.212	413.149
109.387	620.806
113.559	2128.02
117.729	3941.84
121.897	1073.07
126.063	603.787
130.228	316.96
134.39	193.563
138.55	123.359
142.709	142.252
146.865	98.308
151.019	72.539
155.171	56.006
159.322	43.721
163.47	17.696
167.617	21.936
171.761	15.441
175.904	61.213
180.044	5.753
184.183	21.538
188.319	82.08
192.454	153.865
196.586	396.887
200.717	411.139
204.846	774.622
208.972	2424.32
213.097	3557.25
217.22	1235.42
221.341	482.791
225.46	203.226
229.577	151.836
233.692	132.979
237.805	49.119
241.916	3.132
246.025	57.908
250.132	82.211
254.237	30.779
258.34	5.578
262.442	26.607
266.541	62.885
270.639	156.38
274.734	236.071
278.828	277.959
282.919	246.044
287.009	159.305
291.097	290.744
295.183	391.386
299.266	432.139
303.348	527.035
307.428	784.085
311.507	1253.26
315.583	1721.57
319.657	2552.99
323.729	4814.52
327.8	10269.2
331.868	20543.9
335.935	17968.8
339.999	8093.73
344.062	3963.73
348.123	2039.24
352.182	1236.43
356.239	946.698
360.294	719.031
364.347	518.79
368.398	389.371
372.448	345.11
376.495	299.44
380.54	303.416
384.584	346.812
388.626	567.011
392.666	1027.86
396.704	2179.33
400.74	3812.01
404.774	2137.75
408.806	968.294
412.836	428.535
416.865	170.974
420.891	145.392
424.916	160.231
428.939	127.805
432.959	36.299
436.978	44.174
440.996	101.679
445.011	54.85
449.024	39.605
453.036	53.634
457.045	56.895
461.053	82.909
465.059	34.182
469.063	88.308
473.065	62.277
477.065	36.66
481.063	57.815
485.06	12.797
489.054	21.877
493.047	29.25
497.038	65.456
501.027	23.402
505.014	18.298
508.999	37.143
512.982	70.931
516.964	40.667
520.944	4.655
524.921	23.951
528.897	36.486
532.871	8.932
536.844	5.704
540.814	0.439
544.783	20.719
548.749	0.243
552.714	22.402
556.677	1.761
560.638	6.754
564.597	54.146
568.555	38.427
572.511	24.581
576.464	18.396
580.416	1.48
584.366	36.199
588.315	21.27
592.261	19.899
596.206	1.321
600.148	5.093
604.089	1.032
608.028	21.17
611.965	10.405
615.901	27.935
619.834	41.271
623.766	2.463
627.696	37.525
631.624	27.491
635.551	44.346
639.475	69.12
643.398	43.805
647.318	8.597
651.237	43.893
655.155	60.308
659.07	116.649
662.984	70.969
666.895	49.301
670.805	58.66
674.713	59.734
678.62	138.383
682.524	98.333
686.427	102.1
690.328	75.708
694.227	133.034
698.124	91.67
702.02	68.062
705.913	35.754
709.805	90.907
713.695	115.169
717.584	111.439
721.47	93.489
725.355	77.503
729.238	55.837
733.119	30.058
736.998	95.46
740.876	96.945
744.752	6.812
748.626	32.03
752.498	23.122
756.368	37.827
760.237	41.549
764.104	21.177
767.969	9.329
771.832	3.452
775.693	86.172
779.553	116.867
783.411	104.23
787.267	189.986
791.122	538.344
794.974	2455.93
798.825	3180.74
802.674	855.131
806.522	199.903
810.367	55.511
814.211	57.377
818.053	103.3
821.893	39.284
825.732	31.31
829.568	70.412
833.403	191.571
837.236	505.798
841.068	536.091
844.898	274.444
848.726	175.863
852.552	206.362
856.376	247.953
860.199	385.641
864.02	407.462
867.839	455.386
871.656	444.395
875.472	547.479
879.286	1175.65
883.098	2237.91
886.909	2362.25
890.717	1946.69
894.524	2381.24
898.33	3933.85
902.133	8187.62
905.935	19480.5
909.735	44842.9
913.533	46316.6
917.33	15779.6
921.124	5913.38
924.918	3082.66
928.709	2034.1
932.499	1688.65
936.286	1264.59
940.073	886.273
943.857	690.787
947.64	568.704
951.421	543.166
955.2	462.39
958.978	387.719
962.753	325.781
966.527	284.695
970.3	257.807
974.071	235.037
977.84	245.64
981.607	214.086
985.372	164.268
989.136	144.129
992.898	106.58
996.659	190.1
1000.42	178.462
1004.17	223.453
1007.93	122.558
1011.68	82.199
1015.43	79.884
1019.18	50.667
1022.93	99.469
1026.68	65.28
1030.42	39.205
1034.17	83.067
1037.91	15.956
1041.65	47.985
1045.39	117.921
1049.12	47.868
1052.86	96.829
1056.59	21.798
1060.33	16.221
1064.06	16.747
1067.78	10.278
1071.51	19.687
1075.23	78.603
1078.96	64.432
1082.68	29.245
1086.4	16.048
1090.12	11.12
1093.83	18.322
1097.55	6.601
1101.26	20.034
1104.97	74.634
1108.68	34.195
1112.39	7.287
1116.1	13.797
1119.8	18.369
1123.5	29.993
1127.2	53.308
1130.9	53.677
1134.6	55.07
1138.3	27.203
1141.99	57.354
1145.69	12.623
1149.38	47.833
1153.07	27.945
1156.76	79.326
1160.44	87.296
1164.13	109.634
1167.81	86.39
1171.49	71.341
1175.17	46.097
1178.85	151.331
1182.52	145.206
1186.2	148.078
1189.87	143.935
1193.54	182.805
1197.21	131.34
1200.88	93.727
1204.55	76.002
1208.21	126.589
1211.88	211.849
1215.54	160.221
1219.2	245.162
1222.86	157.393
1226.51	132.938
1230.17	77.967
1233.82	180.117
1237.47	140.191
1241.12	209.638
1244.77	160.083
1248.42	195.092
1252.06	230.233
1255.71	169.583
1259.35	156.025
1262.99	110.337
1266.63	104.381
1270.26	133.641
1273.9	139.169
1277.53	216.125
1281.16	216.125
1284.8	155.306
1288.42	123.077
1292.05	25.423
1295.68	6.87
1299.3	25.105
1302.92	7.112
1306.55	61.042
1310.16	63.996
1313.78	136.763
1317.4	90.427
1321.01	53.981
1324.62	64.342
1328.24	6.65
1331.85	8.836
1335.45	12.813
1339.06	0.803
1342.66	109.693
1346.27	88.506
1349.87	32.22
1353.47	36.868
1357.07	17.468
1360.66	33.023
1364.26	44.562
1367.85	43.153
1371.44	5.939
1375.04	14.562
1378.62	94.61
1382.21	126.649
1385.8	78.706
1389.38	75.701
1392.96	105.637
1396.54	82.552
1400.12	75.316
1403.7	30.035
1407.28	36.193
1410.85	43.227
1414.42	149.96
1417.99	175.325
1421.56	228.008
1425.13	202.345
1428.7	103.826
1432.26	149.062
1435.83	62.203
1439.39	48.11
1442.95	88.274
1446.51	72.365
1450.06	114.312
1453.62	181.321
1457.17	197.305
1460.73	287.313
1464.28	229.754
1467.83	235.182
1471.37	202.283
1474.92	133.855
1478.46	91.68
1482.01	166.538
1485.55	51.569
1489.09	113.248
1492.63	139.437
1496.16	165.552
1499.7	209.537
1503.23	153.5
1506.76	272.331
1510.29	224.606
1513.82	136.822
1517.35	58.417
