Measurement: Raman, 514 nm, depolarized, Raman Data Processed
Mineral: Scheelite
Rruff sample: R040173
Ideal chemistry: CaW^6+^O_4_
Locality: Santa Cruz, Sonora, Mexico
Source: University of Arizona Mineral Museum
Description: Yellow crystal fragments
Measured chemistry: Ca_1.00_W_1.00_O_4_
Pin_id: M00457
Orientation: Laser parallel to -a* (-1 0 0). Fiducial mark perpendicular to laser is parallel to c [0 0 1]
Raman shift (cm-1)	intensity
61.962	0
66.157	20.374
70.349	73.719
74.54	366.063
78.729	2073.13
82.916	15091.2
87.101	3796.43
91.284	1033.51
95.465	606.769
99.644	372.593
103.82	334.953
107.995	589.759
112.168	2213.37
116.339	3782.52
120.508	1135.69
124.675	982.386
128.84	487.052
133.003	228.42
137.164	142.418
141.323	69.089
145.48	74.482
149.635	13.912
153.788	33.544
157.939	84.036
162.088	65.739
166.235	75.794
170.38	14.109
174.523	43.291
178.664	131.232
182.803	350.554
186.94	726.079
191.076	1141.53
195.209	1885.38
199.34	3089.67
203.47	4473.17
207.597	5994.28
211.722	7246.99
215.846	4722.33
219.967	3716.3
224.087	3252.91
228.204	2892.52
232.32	2528.88
236.434	2361.93
240.545	2029.1
244.655	1804.15
248.763	1585.99
252.869	1285.56
256.973	1857.64
261.075	1784.38
265.175	1923.95
269.273	1757.32
273.369	1535.36
277.463	1065.45
281.556	760.91
285.646	685.248
289.734	960.993
293.821	1026.36
297.905	814.394
301.988	911.917
306.069	1459.05
310.147	2163.24
314.224	2842.14
318.299	3813.49
322.372	6246.14
326.443	12872.6
330.512	27929.5
334.579	23452.3
338.645	11404.4
342.708	6168.77
346.769	3732.6
350.829	3408.89
354.887	4311.66
358.942	2931.92
362.996	1692.67
367.048	2063.93
371.098	3556.69
375.146	2254.95
379.192	1274.71
383.236	945.956
387.279	1122.69
391.319	1502.9
395.358	3076.54
399.394	6316.6
403.429	5363.07
407.462	3072.95
411.493	1360.26
415.522	929.003
419.549	1026.19
423.575	695.92
427.598	142.244
431.619	75.799
435.639	92.215
439.657	22.037
443.673	66.24
447.687	102.781
451.699	1.32
455.709	11.099
459.717	71.553
463.724	137.695
467.728	265.421
471.731	723.716
475.732	1000.55
479.731	1064.98
483.728	1052.07
487.723	931.845
491.716	772.264
495.708	515.291
499.697	295.828
503.685	300.882
507.671	415.532
511.655	404.813
515.637	393.649
519.617	403.954
523.596	489.671
527.572	662.745
531.547	632.16
535.52	706.908
539.491	860.986
543.46	1152.38
547.427	1330.07
551.393	1475.06
555.356	1743.32
559.318	2269.86
563.278	2613.65
567.236	2840.7
571.192	2977.98
575.147	3257.88
579.099	3403.91
583.05	3276.99
586.999	2899.03
590.946	2789.45
594.891	3055.21
598.834	3328.79
602.776	3454.08
606.715	3291.79
610.653	3333.84
614.589	3655.06
618.523	3941.71
622.456	3721.8
626.386	3265.25
630.315	2871.4
634.242	2597.46
638.167	2220.39
642.09	1791.27
646.012	1601.07
649.931	1470.8
653.849	1375.75
657.765	1227.06
661.679	1033.32
665.592	847.827
669.502	748.235
673.411	686.358
677.318	548.731
681.223	439.304
685.126	315.613
689.028	291.697
692.927	255.061
696.825	260.032
700.721	206.583
704.616	167.672
708.508	165.49
712.399	144.032
716.288	183.293
720.175	129.271
724.06	80.961
727.944	73.36
731.825	49.457
735.705	33.191
739.584	17.586
743.46	63.992
747.334	75.106
751.207	50.996
755.078	39.662
758.947	72.113
762.815	62.426
766.68	55.537
770.544	31.458
774.406	11.179
778.267	32.4
782.125	35.47
785.982	159.1
789.837	618.369
793.69	2589.28
797.542	3574.84
801.391	903.046
805.239	219.893
809.085	31.379
812.93	10.384
816.772	4.239
820.613	38.655
824.452	12.884
828.29	30.227
832.125	80.831
835.959	329.019
839.791	340.858
843.621	208.355
847.45	133.501
851.277	140.295
855.102	239.748
858.925	347.902
862.746	394.883
866.566	479.769
870.384	571.625
874.2	1055.49
878.015	2004.37
881.828	4466.28
885.639	4193.6
889.448	2707.64
893.256	2825.27
897.061	4267.64
900.865	8225.08
904.668	19217.3
908.468	46317.8
912.267	55465.5
916.064	19443.6
919.86	7382.68
923.653	3493.98
927.445	2079.29
931.236	1505.78
935.024	1132.68
938.811	853.339
942.596	610.366
946.379	590.268
950.161	497.052
953.94	377.723
957.719	356.287
961.495	321.422
965.27	284.298
969.043	325.924
972.814	394.774
976.583	408.3
980.351	493.219
984.117	594.728
987.882	851.685
991.644	1218.75
995.405	1758.8
999.165	2820.06
1002.92	3959.83
1006.68	5142.53
1010.43	6800.65
1014.18	7484.72
1017.93	6151.96
1021.68	4863.02
1025.43	4489.23
1029.18	4630.21
1032.92	4380.08
1036.66	3964.9
1040.4	3237.79
1044.14	2271.49
1047.88	1526.53
1051.62	1139.16
1055.35	1064.05
1059.08	1094.2
1062.81	1226.63
1066.54	1533.38
1070.27	2170.39
1073.99	3667.67
1077.72	4243.22
1081.44	3316.93
1085.16	2539.76
1088.88	2848.67
1092.59	3725.63
1096.31	2938.66
1100.02	2299.74
1103.73	1787.91
1107.44	1279.14
1111.15	945.478
1114.86	838.981
1118.57	650.734
1122.27	615.821
1125.97	540.202
1129.67	413.809
1133.37	215.576
1137.07	128.463
1140.76	140.456
1144.45	172.558
1148.15	132.781
1151.84	127.125
1155.53	61.583
1159.21	4.965
1162.9	96.737
1166.58	120.888
1170.26	198.495
1173.94	151.629
1177.62	174.279
1181.3	81.488
1184.97	9.968
1188.65	44.323
1192.32	39.749
1195.99	39.306
1199.66	106.033
1203.33	233.944
1206.99	234.044
1210.65	392.343
1214.32	423.843
1217.98	556.55
1221.64	708.476
1225.29	745.636
1228.95	760.052
1232.6	886.71
1236.26	969.623
1239.91	1146.81
1243.56	1392.28
1247.2	1609.04
1250.85	1876.07
1254.49	2005.26
1258.13	2421.59
1261.78	2779.06
1265.41	3291.68
1269.05	3873.46
1272.69	4586.39
1276.32	5051.47
1279.95	5392.71
1283.59	5688.14
1287.21	6095.77
1290.84	6383.65
1294.47	7134.79
1298.09	7637.21
1301.72	8642.27
1305.34	9169.25
1308.96	9677.57
1312.58	10072.7
1316.19	10153.3
1319.81	11128.3
1323.42	12077.9
1327.03	12646.7
1330.64	14014.2
1334.25	16488.4
1337.86	19065.4
1341.46	20364.6
1345.07	19075.1
1348.67	16516
1352.27	13758
1355.87	11350.3
1359.46	9563.09
1363.06	8347.25
1366.65	7421.64
1370.25	6609.82
1373.84	6137.91
1377.43	5572.93
1381.02	5171.18
1384.6	4637.95
1388.18	4187.4
1391.77	3610.71
1395.35	3111.6
1398.93	2794.58
1402.51	2460.91
1406.08	2183.61
1409.66	2068.68
1413.23	1880.13
1416.8	1754.97
1420.37	1456.28
1423.94	1308.83
1427.51	1195.36
1431.08	1063.26
1434.64	925.199
1438.2	883.249
1441.76	950.116
1445.32	916.736
1448.88	986.075
1452.43	951.054
1455.99	869.518
1459.54	761.434
1463.09	549.664
1466.64	408.539
1470.19	262.007
1473.74	199.284
1477.28	74.594
1480.83	64.142
1484.37	66.846
1487.91	82.549
1491.45	89.37
1494.98	100.587
1498.52	114.662
1502.05	77.297
1505.59	63.075
1509.12	20.459
1512.65	25.099
1516.17	65.314
1519.7	16.451
1523.23	6.429
1526.75	75.739
1530.27	7.87
1533.79	0
