Measurement: Raman, 514 nm, depolarized, Raman Data Processed
Mineral: Scheelite
Rruff sample: R040172
Ideal chemistry: CaW^6+^O_4_
Locality: Sonora, Mexico
Source: University of Arizona Mineral Museum
Description: Colorless water worn single crystal
Measured chemistry: Ca_1.01_W_1.00_O_4_
Pin_id: L00480
Orientation: Laser parallel to -c* (0 0 -1). Fiducial mark perpendicular to laser is parallel to a [1 0 0]
Raman shift (cm-1)	intensity
50.765	0
54.966	16.308
59.164	20.202
63.36	4.562
67.554	18.443
71.747	7.758
75.937	268.067
80.125	1830.46
84.311	21633.2
88.496	6324.89
92.678	1462.41
96.858	793.598
101.036	523.295
105.212	351.579
109.387	311.822
113.559	383.27
117.729	525.01
121.897	243.881
126.063	208.978
130.228	198.308
134.39	125.857
138.55	91.456
142.709	115.084
146.865	94.786
151.019	52.592
155.171	70.282
159.322	69.735
163.47	76.545
167.617	24.49
171.761	75.595
175.904	88.869
180.044	2.694
184.183	77.902
188.319	101.716
192.454	95.673
196.586	238.834
200.717	564.173
204.846	1629.67
208.972	5319.32
213.097	7731.04
217.22	2730.11
221.341	1011.94
225.46	501.008
229.577	337.19
233.692	201.854
237.805	81.56
241.916	36.623
246.025	79.843
250.132	57.202
254.237	5.318
258.34	17.732
262.442	11.96
266.541	8.276
270.639	7.474
274.734	50.381
278.828	138.299
282.919	155.28
287.009	131.859
291.097	196.966
295.183	370.419
299.266	400.632
303.348	392.575
307.428	694.873
311.507	1028.27
315.583	1366.79
319.657	2040.66
323.729	3744.08
327.8	7321.52
331.868	13161.8
335.935	12951.2
339.999	7338.59
344.062	3875.26
348.123	2020.47
352.182	1319.02
356.239	1094.01
360.294	938.04
364.347	637.212
368.398	503.91
372.448	485.386
376.495	512.293
380.54	551.962
384.584	573.389
388.626	982.509
392.666	1737.21
396.704	3773.94
400.74	6415.1
404.774	2983.8
408.806	1101.77
412.836	494.532
416.865	194.149
420.891	177.776
424.916	170.796
428.939	141.376
432.959	64.864
436.978	63.542
440.996	103.592
445.011	90.137
449.024	29.057
453.036	30.623
457.045	62.912
461.053	66.619
465.059	26.963
469.063	43.259
473.065	66.553
477.065	75.9
481.063	38.032
485.06	2.137
489.054	21.794
493.047	43.741
497.038	79.675
501.027	6.723
505.014	28.255
508.999	73.659
512.982	57.646
516.964	13.94
520.944	7.01
524.921	61.287
528.897	83.207
532.871	74.214
536.844	37.971
540.814	17.649
544.783	87.564
548.749	116.989
552.714	46.868
556.677	15.091
560.638	55.019
564.597	79.427
568.555	117.844
572.511	59.743
576.464	66.092
580.416	52.824
584.366	117.061
588.315	87.643
592.261	36.273
596.206	97.926
600.148	85.176
604.089	136.476
608.028	43.139
611.965	20.342
615.901	31.668
619.834	145.685
623.766	93.839
627.696	45.914
631.624	61.545
635.551	96.1
639.475	120.15
643.398	96.822
647.318	0.789
651.237	0.236
655.155	119.39
659.07	88.375
662.984	55.289
666.895	1.58
670.805	71.423
674.713	76.431
678.62	85.431
682.524	90.041
686.427	10.504
690.328	21.102
694.227	84.16
698.124	80.167
702.02	59.032
705.913	22.173
709.805	14.954
713.695	60.62
717.584	86.706
721.47	47.747
725.355	1.434
729.238	10.305
733.119	62.197
736.998	71.658
740.876	84.435
744.752	2.886
748.626	6.326
752.498	83.419
756.368	63.695
760.237	50.443
764.104	27.301
767.969	45.067
771.832	22.993
775.693	48.584
779.553	95.262
783.411	51.88
787.267	31.418
791.122	19.099
794.974	238.762
798.825	223.681
802.674	167.358
806.522	65.123
810.367	97.953
814.211	213.947
818.053	317.502
821.893	331.927
825.732	494.088
829.568	813.258
833.403	1877.61
837.236	5077.74
841.068	5003.05
844.898	2124.6
848.726	1073.24
852.552	719.933
856.376	716.375
860.199	834.68
864.02	908.627
867.839	766.63
871.656	852.065
875.472	1032.83
879.286	1913.44
883.098	3809.67
886.909	3648.43
890.717	2567.81
894.524	2726.66
898.33	4444.09
902.133	9138.5
905.935	21462.4
909.735	49904.3
913.533	53638.3
917.33	18790.1
921.124	6949.91
924.918	3651.47
928.709	2439.46
932.499	1910.92
936.286	1391.84
940.073	1027.03
943.857	773.401
947.64	677.845
951.421	627.835
955.2	528.857
958.978	436.81
962.753	271.558
966.527	214.37
970.3	221.062
974.071	274.6
977.84	248.275
981.607	200.861
985.372	118.762
989.136	83.771
992.898	96.131
996.659	146.664
1000.42	206.902
1004.17	248.94
1007.93	145.65
1011.68	44.293
1015.43	35.134
1019.18	103.063
1022.93	125.995
1026.68	115.984
1030.42	95.028
1034.17	66.352
1037.91	13.079
1041.65	43.184
1045.39	92.481
1049.12	163.439
1052.86	135.724
1056.59	76.079
1060.33	30.44
1064.06	2.895
1067.78	2.825
1071.51	93.487
1075.23	197.857
1078.96	159.318
1082.68	67.695
1086.4	49.129
1090.12	5.716
1093.83	23.22
1097.55	49.783
1101.26	117.279
1104.97	178.733
1108.68	90.176
1112.39	48.653
1116.1	12.924
1119.8	24.557
1123.5	87.895
1127.2	99.164
1130.9	127.786
1134.6	145.881
1138.3	55.948
1141.99	28.078
1145.69	21.795
1149.38	16.033
1153.07	102.515
1156.76	156.855
1160.44	150.993
1164.13	102.86
1167.81	29.963
1171.49	30.628
1175.17	31.163
1178.85	94.714
1182.52	159.087
1186.2	183.399
1189.87	126.451
1193.54	129.767
1197.21	81.002
1200.88	29.239
1204.55	40.253
1208.21	72.014
1211.88	163.801
1215.54	235.729
1219.2	179.488
1222.86	155.524
1226.51	126.32
1230.17	71.863
1233.82	55.569
1237.47	127.263
1241.12	159.723
1244.77	269.212
1248.42	250.037
1252.06	199.924
1255.71	139.87
1259.35	74.112
1262.99	80.571
1266.63	47.957
1270.26	181.02
1273.9	188.087
1277.53	269.278
1281.16	237.33
1284.8	148.37
1288.42	130.58
1292.05	71.198
1295.68	24.636
1299.3	22.173
1302.92	64.085
1306.55	130.942
1310.16	139.525
1313.78	213.913
1317.4	150.338
1321.01	100.759
1324.62	267
1328.24	153.892
1331.85	27.468
1335.45	93.593
1339.06	133.716
1342.66	144.842
1346.27	186.464
1349.87	160.179
1353.47	135.912
1357.07	51.521
1360.66	76.139
1364.26	20.735
1367.85	64.219
1371.44	6.99
1375.04	82.069
1378.62	179.233
1382.21	197.938
1385.8	260.501
1389.38	218.967
1392.96	107.424
1396.54	69.724
1400.12	46.504
1403.7	30.5
1407.28	97.44
1410.85	148.922
1414.42	148.812
1417.99	233.951
1421.56	249.829
1425.13	218.766
1428.7	101.326
1432.26	110.721
1435.83	94.242
1439.39	23.862
1442.95	75.653
1446.51	121.492
1450.06	182.472
1453.62	166.135
1457.17	283.01
1460.73	284.377
1464.28	290.426
1467.83	207.476
1471.37	181.495
1474.92	99.016
1478.46	1.966
1482.01	87.631
1485.55	42.383
1489.09	85.668
1492.63	150.236
1496.16	207.671
1499.7	212.147
1503.23	220.171
1506.76	224.934
1510.29	255.556
1513.82	106.185
1517.35	1.192
