Measurement: Raman, 514 nm, depolarized, Raman Data Processed
Mineral: Scheelite
Rruff sample: R040173
Ideal chemistry: CaW^6+^O_4_
Locality: Santa Cruz, Sonora, Mexico
Source: University of Arizona Mineral Museum
Description: Yellow crystal fragments
Measured chemistry: Ca_1.00_W_1.00_O_4_
Pin_id: M00301
Orientation: Laser parallel to c* (0 0 1). Fiducial mark perpendicular to laser is parallel to a [1 0 0]
Raman shift (cm-1)	intensity
61.962	0
66.157	10.918
70.349	82.755
74.54	500.695
78.729	3462.45
82.916	12066.2
87.101	3579.88
91.284	1019.55
95.465	528.348
99.644	306.113
103.82	291.827
107.995	550.552
112.168	1484.79
116.339	1641.49
120.508	588.442
124.675	433.6
128.84	197.862
133.003	75.074
137.164	29.224
141.323	22.678
145.48	27.625
149.635	55.658
153.788	47.78
157.939	54.075
162.088	13.652
166.235	35.404
170.38	138.974
174.523	297.03
178.664	531.601
182.803	1012.02
186.94	1676.75
191.076	2459.17
195.209	3591.15
199.34	5992.56
203.47	8930.63
207.597	12583.4
211.722	12756.8
215.846	9740.89
219.967	7894.69
224.087	6420.19
228.204	4451.15
232.32	3175.55
236.434	2742.85
240.545	2495.49
244.655	2491.27
248.763	2378.13
252.869	1765.89
256.973	1434.55
261.075	1231.27
265.175	1038.06
269.273	866.409
273.369	668.191
277.463	496.109
281.556	512.449
285.646	757.339
289.734	1211.41
293.821	1308.25
297.905	963.702
301.988	1158.91
306.069	1975.26
310.147	2407.87
314.224	2740.73
318.299	3279.88
322.372	4768.86
326.443	8399.63
330.512	13722.1
334.579	13086.1
338.645	9300.55
342.708	6501.56
346.769	5286.1
350.829	6674.15
354.887	8173.73
358.942	4906.84
362.996	2663.47
367.048	2729.64
371.098	3180.32
375.146	2366.52
379.192	2094.24
383.236	1805.45
387.279	1854.17
391.319	2418.38
395.358	4784.08
399.394	7600.27
403.429	6298.95
407.462	3636.11
411.493	1973.75
415.522	1573.87
419.549	1421.51
423.575	845.689
427.598	289.519
431.619	95.087
435.639	17.561
439.657	2.418
443.673	19.438
447.687	2.385
451.699	9.036
455.709	58.482
459.717	117.277
463.724	156.459
467.728	10.087
471.731	63.992
475.732	212.731
479.731	325.074
483.728	489.982
487.723	586.402
491.716	688.27
495.708	739.549
499.697	890.283
503.685	999.481
507.671	1160.11
511.655	1345.11
515.637	1531.46
519.617	1745.15
523.596	2025.16
527.572	2172.49
531.547	2308.13
535.52	2518.06
539.491	2743.27
543.46	3125.76
547.427	3453.51
551.393	3963.5
555.356	4403.74
559.318	5138.21
563.278	5572.89
567.236	5874.78
571.192	6119.86
575.147	5980.38
579.099	5605.25
583.05	4839.69
586.999	4109.18
590.946	3595.47
594.891	3415.22
598.834	3427.59
602.776	3356.52
606.715	3400.45
610.653	3755.77
614.589	4074.65
618.523	4202.44
622.456	3962.02
626.386	3448.8
630.315	2873.24
634.242	2612.97
638.167	2249.46
642.09	2028.79
646.012	1825.95
649.931	1705.93
653.849	1585.45
657.765	1481.66
661.679	1406.06
665.592	1243.29
669.502	1076.2
673.411	874.87
677.318	699.279
681.223	588.423
685.126	516.294
689.028	444.883
692.927	400.184
696.825	348.187
700.721	333.886
704.616	314.273
708.508	278.341
712.399	260.085
716.288	225.499
720.175	207.581
724.06	191.328
727.944	123.741
731.825	106.808
735.705	81.487
739.584	31.33
743.46	63.877
747.334	56.292
751.207	89.606
755.078	96.885
758.947	74.222
762.815	83.605
766.68	94.045
770.544	97.575
774.406	38.144
778.267	67.589
782.125	59.834
785.982	96.188
789.837	455.751
793.69	2135.96
797.542	1865.82
801.391	429.337
805.239	127.512
809.085	18.306
812.93	47.595
816.772	99.405
820.613	195.802
824.452	470.871
828.29	1102.62
832.125	2855.07
835.959	6862.21
839.791	5344.06
843.621	2066.61
847.45	962.876
851.277	602.863
855.102	566.578
858.925	538.027
862.746	570.229
866.566	572.274
870.384	762.291
874.2	1247.38
878.015	2394.55
881.828	4626.78
885.639	3628.65
889.448	2561.1
893.256	2859.37
897.061	4564.63
900.865	9146.59
904.668	22042.1
908.468	52064.8
912.267	48486.1
916.064	16808
919.86	6360.48
923.653	2892.11
927.445	1726.66
931.236	1172.88
935.024	893.131
938.811	609.673
942.596	398.861
946.379	303.367
950.161	219.932
953.94	217.565
957.719	291.98
961.495	313.189
965.27	245.246
969.043	285.08
972.814	317.594
976.583	416.823
980.351	556.182
984.117	756.678
987.882	1049.32
991.644	1411.11
995.405	2055.07
999.165	3140.18
1002.92	4417.48
1006.68	6114.94
1010.43	8304.6
1014.18	8747.02
1017.93	7445.09
1021.68	6203.84
1025.43	6590.86
1029.18	6814.1
1032.92	5329.19
1036.66	3659.01
1040.4	2589.07
1044.14	2002.71
1047.88	1615.06
1051.62	1650.33
1055.35	1977.06
1059.08	2461.29
1062.81	3063.07
1066.54	3650.39
1070.27	5337.26
1073.99	8488.72
1077.72	8944.75
1081.44	6565.3
1085.16	4731.32
1088.88	4628.69
1092.59	5120.3
1096.31	4555.13
1100.02	4124.17
1103.73	3366.42
1107.44	2567.9
1111.15	2075.63
1114.86	1814.68
1118.57	1425.01
1122.27	1203.59
1125.97	1039.39
1129.67	744.41
1133.37	534.647
1137.07	551.101
1140.76	666.774
1144.45	676.664
1148.15	536.772
1151.84	318.098
1155.53	140.643
1159.21	28.406
1162.9	68.666
1166.58	156.794
1170.26	181.225
1173.94	149.076
1177.62	120.334
1181.3	108.037
1184.97	60.058
1188.65	24.185
1192.32	16.226
1195.99	75.872
1199.66	95.194
1203.33	203.742
1206.99	238.516
1210.65	318.504
1214.32	316.705
1217.98	489.118
1221.64	690.741
1225.29	774.577
1228.95	846.626
1232.6	893.878
1236.26	974.333
1239.91	1089.94
1243.56	1244.85
1247.2	1450.92
1250.85	1692.19
1254.49	2016.59
1258.13	2436.12
1261.78	2943.77
1265.41	3488.55
1269.05	4040.45
1272.69	4639.47
1276.32	4926.6
1279.95	4946.86
1283.59	4923.23
1287.21	4982.76
1290.84	5262.45
1294.47	5636.33
1298.09	6189.4
1301.72	6358.66
1305.34	6447.12
1308.96	6067.49
1312.58	5590.39
1316.19	5176.42
1319.81	4872.93
1323.42	4666.37
1327.03	4383.45
1330.64	4434.21
1334.25	4696.47
1337.86	4866.19
1341.46	4936.26
1345.07	4348.91
1348.67	3904.23
1352.27	3303.16
1355.87	2932.45
1359.46	2577.25
1363.06	2380.33
1366.65	2237.18
1370.25	2166.96
1373.84	2097.33
1377.43	2193.9
1381.02	2179.01
1384.6	2160.25
1388.18	2083.07
1391.77	1818.28
1395.35	1527.28
1398.93	1357.97
1402.51	1123.81
1406.08	1001.81
1409.66	846.969
1413.23	751.278
1416.8	617.73
1420.37	534.313
1423.94	470.255
1427.51	376.602
1431.08	395.875
1434.64	362.898
1438.2	382.779
1441.76	375.086
1445.32	393.75
1448.88	369.783
1452.43	325.143
1455.99	283.77
1459.54	209.668
1463.09	121.806
1466.64	76.342
1470.19	47.776
1473.74	19.239
1477.28	46.119
1480.83	2.869
1484.37	16.135
1487.91	12.45
1491.45	17.835
1494.98	34.438
1498.52	50.488
1502.05	48.313
1505.59	20.044
1509.12	8.601
1512.65	0.303
1516.17	25.968
1519.7	12.399
1523.23	22.564
1526.75	5.859
1530.27	39.587
1533.79	0
