Measurement: Raman, 514 nm, depolarized, Raman Data Processed
Mineral: Scholzite
Rruff sample: R050238
Ideal chemistry: CaZn^2+^_2_(PO_4_)_2_2H_2_O
Locality: near Blinman, South Australia, Australia
Source: Marcus Origlieri
Description: Colorless bladed crystals
Measured chemistry: Ca_1.00_Zn_2.00_(P_1.00_O_4_)_2_Â·2H_2_O
Pin_id: M00184
Orientation: Laser parallel to -a* (-1 0 0). Fiducial mark perpendicular to laser is parallel to -b [0 -1 0]
Raman shift (cm-1)	intensity
135.356	0
140.271	19.8652
145.184	191.662
150.094	155.816
155.002	620.418
159.908	841.248
164.811	1564.64
169.711	931.262
174.61	547.979
179.505	275.522
184.399	305.457
189.29	137.412
194.178	256.109
199.064	362.209
203.948	417.342
208.829	161.732
213.708	110.492
218.585	479.57
223.459	888.416
228.33	1451.17
233.199	1549.47
238.066	2283.31
242.93	1750.98
247.792	1172.11
252.651	930.041
257.508	1151.33
262.363	866.885
267.215	1271.37
272.064	1882.73
276.912	2071.1
281.756	2031.88
286.598	2136.9
291.438	2010.71
296.276	1451.24
301.111	1290.72
305.943	1230.65
310.773	1457.04
315.601	1395.17
320.426	1063.33
325.248	691.697
330.068	721.889
334.886	576.707
339.701	534.805
344.514	437.125
349.324	473.496
354.132	252.125
358.938	226.258
363.741	24.0996
368.541	125.152
373.339	122.316
378.135	143.133
382.928	256.836
387.718	305.414
392.506	320.865
397.292	675.189
402.075	1246.4
406.856	2307.49
411.634	2769.46
416.41	1712.34
421.183	878.09
425.954	648.717
430.722	537.277
435.488	6.82031
440.251	104.221
445.012	95.0332
449.77	45.3008
454.526	194.185
459.28	358.682
464.03	104.811
468.779	296.68
473.525	11.3301
478.268	178.691
483.009	109.428
487.747	25.9258
492.483	83.9414
497.217	3.72266
501.948	180.846
506.676	21.5195
511.402	330.471
516.125	290.961
520.846	319.193
525.565	508.629
530.281	690.881
534.994	406.299
539.705	929.357
544.413	1802.94
549.119	3832.22
553.822	6179.68
558.523	2979.13
563.222	1130.47
567.917	675.945
572.611	701.555
577.302	495.41
581.99	430.014
586.676	353.643
591.359	832.312
596.04	829.014
600.718	856.01
605.394	720.572
610.067	501.426
614.737	667.318
619.406	661.01
624.071	568.816
628.734	789.547
633.395	417.25
638.053	508.301
642.708	551.273
647.361	321.295
652.012	421.006
656.66	625.25
661.305	748.119
665.948	435.121
670.588	159.631
675.226	60.375
679.861	308.996
684.494	253.647
689.124	32.6328
693.752	271.908
698.377	53.2793
702.999	357.178
707.619	116.328
712.237	90.0176
716.852	220.924
721.464	223.635
726.074	231.262
730.681	52.998
735.286	442.316
739.888	325.705
744.488	9.43555
749.085	207.209
753.68	86.5312
758.272	328.062
762.861	117.814
767.448	57.3379
772.033	495.172
776.614	52.1191
781.194	246.277
785.77	82.457
790.345	308.758
794.916	306.16
799.485	48.4141
804.052	133.828
808.616	290.871
813.177	165.148
817.736	463.793
822.292	23.5547
826.846	387.438
831.397	212.289
835.945	28.9102
840.491	434.676
845.035	21.293
849.576	120.004
854.114	51.0938
858.65	313.203
863.183	643.934
867.713	220.602
872.241	393.699
876.767	416.684
881.29	65.1602
885.81	50.457
890.328	204.762
894.843	340.746
899.356	36.9648
903.866	147.637
908.373	472.109
912.878	417.906
917.38	884.672
921.88	1898.62
926.377	2409.03
930.872	1326.35
935.364	1007.74
939.853	711.68
944.34	459.941
948.824	137.719
953.306	322.719
957.785	629.457
962.261	644.281
966.735	578.816
971.207	731.961
975.675	1064.54
980.141	1534.96
984.605	3175.95
989.066	5540.4
993.524	9920.35
997.98	15615.7
1002.43	18187.5
1006.88	11512.2
1011.33	4976.39
1015.78	2602.53
1020.22	1397.14
1024.66	1396.58
1029.1	1047.52
1033.53	104.66
1037.97	311.613
1042.4	417.266
1046.82	251.578
1051.25	142.219
1055.67	835.539
1060.09	414.356
1064.51	219.133
1068.92	787.887
1073.33	648.164
1077.74	694.594
1082.15	1372.29
1086.55	1344.2
1090.95	1376.7
1095.35	1177.48
1099.75	1063.7
1104.14	686.438
1108.53	556.836
1112.92	686.039
1117.31	868.262
1121.69	1032.83
1126.07	690.363
1130.45	214.324
1134.82	138.273
1139.19	84.457
1143.57	266.031
1147.93	319.336
1152.3	208.742
1156.66	522.863
1161.02	436.586
1165.38	353.074
1169.73	752.426
1174.08	876.496
1178.43	438.816
1182.78	210.582
1187.12	42.5469
1191.46	92.7344
1195.8	355.359
1200.14	87.7109
1204.47	106.004
1208.8	86.8047
1213.13	166.887
1217.46	195.324
1221.78	135.953
1226.1	3.35938
1230.42	77.7227
1234.73	104.582
1239.04	112.231
1243.35	272.555
1247.66	52.9609
1251.97	306.055
1256.27	1016.2
1260.57	396.328
1264.86	396.82
1269.16	468.035
1273.45	512.309
1277.74	514.555
1282.03	341.684
1286.31	836.352
1290.59	129.207
1294.87	315.062
1299.14	541.344
1303.42	600.086
1307.69	538.582
1311.95	443.898
1316.22	238.414
1320.48	580.727
1324.74	435.195
1329	527.254
1333.26	675.34
1337.51	666.141
1341.76	673.648
1346	330.527
1350.25	84.7227
1354.49	475.402
1358.73	306.086
1362.96	269.102
1367.2	118.789
1371.43	373.422
1375.66	273.656
1379.88	347.848
1384.11	236.43
1388.33	217.731
1392.54	37.6328
1396.76	235.738
1400.97	270.789
1405.18	6.51172
1409.39	195.594
1413.59	17.4453
1417.8	12.5898
1421.99	1.64844
1426.19	35.043
1430.38	392.191
1434.58	79.293
1438.77	288.004
1442.95	380.363
1447.13	405.977
1451.32	513.57
1455.49	461.562
1459.67	262.656
1463.84	607.121
1468.01	86.1055
1472.18	424.547
1476.35	354.102
1480.51	517.074
1484.67	573.949
1488.83	321.324
1492.98	383.445
1497.13	325.269
1501.28	749.051
1505.43	543.621
1509.57	516.977
1513.71	773.316
1517.85	766.137
1521.99	697.371
1526.12	563.562
1530.25	469.473
1534.38	629.371
1538.5	403.961
1542.62	658.262
1546.74	1457.29
1550.86	181.496
1554.98	464.684
1559.09	449.094
1563.2	403.492
1567.31	50.0508
1571.41	390.457
