Measurement: Raman, 514 nm, depolarized, Raman Data Processed
Mineral: Scholzite
Rruff sample: R050238
Ideal chemistry: CaZn^2+^_2_(PO_4_)_2_2H_2_O
Locality: near Blinman, South Australia, Australia
Source: Marcus Origlieri
Description: Colorless bladed crystals
Measured chemistry: Ca_1.00_Zn_2.00_(P_1.00_O_4_)_2_Â·2H_2_O
Pin_id: M00305
Orientation: Laser parallel to b* (0 1 0). Fiducial mark perpendicular to laser is parallel to -b [0 -1 0]
Raman shift (cm-1)	intensity
127.979	0
132.898	369.329
137.814	1773.44
142.728	2270.61
147.639	1285.96
152.549	1361.1
157.455	3269.1
162.359	5307.39
167.261	4485.62
172.161	2058.14
177.058	665.529
181.952	583.498
186.845	596.497
191.734	521.477
196.622	39.8023
201.507	244.586
206.389	78.021
211.269	1996.18
216.147	6227.03
221.022	9418.41
225.895	6967.66
230.765	3101
235.633	1363.92
240.498	695.466
245.361	226.394
250.222	214.915
255.08	486.353
259.936	1469.47
264.789	2679.86
269.64	3835.54
274.488	4370.48
279.334	4678.42
284.178	4929.08
289.019	4706.75
293.857	4333.37
298.693	4150.08
303.527	3851.21
308.358	3753.2
313.187	3139.27
318.013	2458.96
322.837	1787.25
327.659	1566.22
332.478	1592.74
337.294	1507.46
342.108	1456.9
346.92	996.728
351.729	504.953
356.535	172.923
361.34	72.2915
366.141	35.8516
370.94	162.579
375.737	334.505
380.531	652.658
385.323	1133.09
390.113	1928.49
394.9	3581.18
399.684	6721.98
404.466	11371.1
409.245	14234.7
414.022	10801.6
418.797	5562.95
423.569	2561.51
428.338	1231.23
433.105	663.062
437.87	302.007
442.632	68.9853
447.391	29.186
452.149	33.8682
456.903	79.0654
461.655	77.1367
466.405	92.1064
471.152	1.84546
475.897	30.9175
480.639	114.689
485.378	233.268
490.116	413.529
494.85	630.221
499.582	949.367
504.312	1486.33
509.039	1620.56
513.764	1647.87
518.486	1487.17
523.206	1303.22
527.923	1311.11
532.638	1527.31
537.35	2663.21
542.059	5879.2
546.766	11810.2
551.471	16148.2
556.173	10697.7
560.873	4237.71
565.57	2279.21
570.264	1548.35
574.957	1364.24
579.646	1439.37
584.333	1515.37
589.018	1755.39
593.7	1984.06
598.379	2170.43
603.056	2008.01
607.73	1584.84
612.402	1025.22
617.072	843.026
621.739	894.14
626.403	974.381
631.065	1250.52
635.724	1266.61
640.381	1016.94
645.035	684.726
649.687	475.086
654.336	354.014
658.983	226.508
663.627	177.277
668.268	170.487
672.907	26.5259
677.544	69.7022
682.178	19.833
686.809	83.061
691.438	103.19
696.065	149.484
700.688	190.144
705.31	257.247
709.929	367.089
714.545	349.364
719.158	477.031
723.77	453.726
728.378	540.913
732.984	384.275
737.588	418.794
742.189	325.868
746.787	189.631
751.383	244.619
755.976	149.239
760.567	144.952
765.155	87.5644
769.741	133.994
774.324	70.1938
778.904	119.151
783.482	82.8657
788.058	90.2319
792.631	34.1821
797.201	74.8379
801.769	68.251
806.334	68.2812
810.897	88.8989
815.457	74.5523
820.014	36.9619
824.569	31.04
829.122	48.144
833.671	23.9189
838.219	12.4106
842.763	43.6592
847.306	36.6753
851.845	92.666
856.382	42.4683
860.917	70.3657
865.448	2.79785
869.978	13.2944
874.505	28.6631
879.029	144.523
883.55	96.916
888.069	35.1919
892.586	110.375
897.1	300.487
901.611	517.406
906.12	978.991
910.626	2182.4
915.129	4954.66
919.63	9496.02
924.129	11443.3
928.625	9169.01
933.118	5671.77
937.609	3855.9
942.097	2777.45
946.582	2147.07
951.065	1722.34
955.546	1400.54
960.023	1339.72
964.499	1455.02
968.971	1974.93
973.441	2696.31
977.909	4161.82
982.374	7621.28
986.836	15455.1
991.295	28308.4
995.753	44481.9
1000.21	54546.6
1004.66	41868.2
1009.11	20025.3
1013.55	8490.46
1018	4707.67
1022.44	4252.54
1026.88	3060.16
1031.32	1790.18
1035.75	1196.61
1040.18	965.425
1044.61	1042.63
1049.04	1040.24
1053.46	1400.25
1057.88	1034.75
1062.3	703.725
1066.71	436.125
1071.13	368.647
1075.54	188.213
1079.94	375.885
1084.35	486.277
1088.75	525.671
1093.15	458.555
1097.55	434.009
1101.94	434.911
1106.34	568.391
1110.73	966.051
1115.11	1801.94
1119.5	1249.02
1123.88	434.485
1128.26	193.515
1132.63	347.707
1137.01	56.1704
1141.38	134.183
1145.75	340.862
1150.12	582.207
1154.48	1034.36
1158.84	1937.75
1163.2	4071.36
1167.55	8860.9
1171.91	13448.8
1176.26	8141.72
1180.61	3045.81
1184.95	1299.05
1189.29	712.516
1193.63	349.025
1197.97	151.659
1202.31	115.384
1206.64	70.1973
1210.97	46.7544
1215.29	52.9053
1219.62	26.1953
1223.94	34.4707
1228.26	15.4927
1232.57	34.4541
1236.89	30.6567
1241.2	5.61719
1245.51	62.2329
1249.81	16.501
1254.12	41.4985
1258.42	6.31738
1262.72	18.273
1267.01	54.3457
1271.3	38.3257
1275.59	85.4917
1279.88	17.4624
1284.17	23.0347
1288.45	63.96
1292.73	87.8394
1297.01	55.2251
1301.28	166.049
1305.55	165.016
1309.82	109.08
1314.09	93.709
1318.35	114.112
1322.61	146.268
1326.87	190.193
1331.13	220.894
1335.38	204.353
1339.63	184.112
1343.88	141.824
1348.12	233.747
1352.37	173.931
1356.61	86.8652
1360.85	206.4
1365.08	135.104
1369.31	101.489
1373.54	214.302
1377.77	122.266
1381.99	45.3267
1386.22	152.444
1390.43	28.2949
1394.65	118.992
1398.87	129.191
1403.08	65.5718
1407.29	84.0029
1411.49	168.511
1415.69	68.8325
1419.89	28.8154
1424.09	87.7437
1428.29	57.5488
1432.48	109.24
1436.67	151.994
1440.86	193.382
1445.04	122.172
1449.23	175.166
1453.4	190.488
1457.58	199.125
1461.76	148.775
1465.93	136.007
1470.1	106.83
1474.26	244.751
1478.43	156.385
1482.59	21.7441
1486.75	129.985
1490.9	58.5415
1495.06	95.9531
1499.21	13.7319
1503.35	78.6392
1507.5	132.313
1511.64	219.887
1515.78	163.28
1519.92	128.308
1524.05	24.3257
1528.18	92.6924
1532.31	126.935
1536.44	164.873
1540.56	86.3897
1544.69	105.964
1548.8	128.768
1552.92	216.609
1557.03	12.0532
1561.14	137.59
1565.25	32.6748
1569.36	31.1973
