Measurement: Raman, 514 nm, depolarized, Raman Data Processed
Mineral: Scholzite
Rruff sample: R050238
Ideal chemistry: CaZn^2+^_2_(PO_4_)_2_2H_2_O
Locality: near Blinman, South Australia, Australia
Source: Marcus Origlieri
Description: Colorless bladed crystals
Measured chemistry: Ca_1.00_Zn_2.00_(P_1.00_O_4_)_2_Â·2H_2_O
Pin_id: M00218
Orientation: Laser parallel to c* (0 0 1). Fiducial mark perpendicular to laser is parallel to a [1 0 0]
Raman shift (cm-1)	intensity
135.356	0
140.271	529.839
145.184	645.076
150.094	1262.5
155.002	2073.55
159.908	3870.99
164.811	5062.41
169.711	2802.84
174.61	801.106
179.505	170.064
184.399	131.707
189.29	3.75977
194.178	33.0107
199.064	255.226
203.948	400.367
208.829	803.036
213.708	3467.04
218.585	7362.46
223.459	8767.13
228.33	6515.09
233.199	5368.94
238.066	5333.48
242.93	3486.87
247.792	2413.6
252.651	1899.02
257.508	2458.78
262.363	2409.08
267.215	3442.65
272.064	4147.36
276.912	4744.97
281.756	5174.23
286.598	5370.26
291.438	5019.6
296.276	4445.98
301.111	4340.96
305.943	4511.89
310.773	4239.65
315.601	3557.11
320.426	2807.31
325.248	2515.02
330.068	1937.87
334.886	1813.82
339.701	1522.16
344.514	1174.7
349.324	746.182
354.132	332.364
358.938	138.723
363.741	57.9395
368.541	115.721
373.339	132.954
378.135	9.22461
382.928	54.0195
387.718	258.425
392.506	616.668
397.292	1447.05
402.075	3011.15
406.856	4749.64
411.634	5466.33
416.41	4140.3
421.183	1748.54
425.954	895.055
430.722	635.616
435.488	409.102
440.251	294.458
445.012	294.212
449.77	125.709
454.526	75.4394
459.28	6.22949
464.03	2.75488
468.779	55.6289
473.525	33.2188
478.268	88.3828
483.009	3.11719
487.747	70.8857
492.483	321.628
497.217	282.715
501.948	368.738
506.676	558.625
511.402	500.313
516.125	620.814
520.846	292.152
525.565	314.008
530.281	237.337
534.994	442.748
539.705	710.629
544.413	1149.08
549.119	1847.38
553.822	1903.4
558.523	1202.35
563.222	759.375
567.917	865.072
572.611	989.826
577.302	1162.31
581.99	1281.02
586.676	1269.07
591.359	1328.58
596.04	1246.04
600.718	1091.62
605.394	787.885
610.067	659.266
614.737	521.657
619.406	323.928
624.071	426.217
628.734	404.087
633.395	403.371
638.053	516.253
642.708	355.568
647.361	344.466
652.012	301.925
656.66	260.29
661.305	334.378
665.948	150.866
670.588	239.616
675.226	64.458
679.861	18.1318
684.494	69.5371
689.124	69.7969
693.752	69.7461
698.377	105.108
702.999	76.4434
707.619	11.4902
712.237	139.052
716.852	137.952
721.464	78.9736
726.074	282.184
730.681	140.164
735.286	194.414
739.888	136.556
744.488	108.909
749.085	123.423
753.68	120.742
758.272	130.659
762.861	18.1396
767.448	112.57
772.033	19.1045
776.614	71.0215
781.194	63.3565
785.77	19.9004
790.345	162.165
794.916	5.40527
799.485	2.32617
804.052	167.158
808.616	38.7988
813.177	242.547
817.736	46.126
822.292	167.031
826.846	57.2275
831.397	166.362
835.945	14.5166
840.491	57.1572
845.035	67.4473
849.576	105.183
854.114	19.8994
858.65	162.618
863.183	0.007813
867.713	84.7598
872.241	70.1445
876.767	12.709
881.29	62.4248
885.81	53.459
890.328	34.0361
894.843	126.612
899.356	288.751
903.866	466.163
908.373	1125.95
912.878	2458.16
917.38	5082.7
921.88	8064.15
926.377	8162.02
930.872	6420.1
935.364	4432.8
939.853	3315.24
944.34	2360.91
948.824	1502.95
953.306	1200.22
957.785	894.461
962.261	808.981
966.735	1112.81
971.207	1411.17
975.675	2122.01
980.141	4061.09
984.605	7913.99
989.066	14980.3
993.524	24214.6
997.98	33777
1002.43	33058.1
1006.88	19754.6
1011.33	9231.27
1015.78	4593.84
1020.22	3308.98
1024.66	2964.31
1029.1	1701.54
1033.53	1019.66
1037.97	672.33
1042.4	435.526
1046.82	668.255
1051.25	552.449
1055.67	819.105
1060.09	765.247
1064.51	616.894
1068.92	659.025
1073.33	881.627
1077.74	1112.78
1082.15	1340.28
1086.55	1420.58
1090.95	1595.95
1095.35	1347.31
1099.75	1567.94
1104.14	1940.33
1108.53	3672.19
1112.92	7278.54
1117.31	7358.15
1121.69	3192.74
1126.07	1279.99
1130.45	827.607
1134.82	580.848
1139.19	543.581
1143.57	363.687
1147.93	455.454
1152.3	856.027
1156.66	1545.01
1161.02	2912.38
1165.38	6502.81
1169.73	10486.2
1174.08	8510.69
1178.43	3576.29
1182.78	1452.9
1187.12	759.501
1191.46	437.08
1195.8	177.619
1200.14	85.9004
1204.47	3.33887
1208.8	58.625
1213.13	139.026
1217.46	15.3584
1221.78	66.2656
1226.1	48.1309
1230.42	101.003
1234.73	73.9385
1239.04	126.543
1243.35	20.8271
1247.66	54.6123
1251.97	57.5391
1256.27	147.14
1260.57	71.5019
1264.86	125.035
1269.16	79.3106
1273.45	110.213
1277.74	87.0078
1282.03	20.5762
1286.31	59.4668
1290.59	291.824
1294.87	156.844
1299.14	179.529
1303.42	223.748
1307.69	310.057
1311.95	329.975
1316.22	271.537
1320.48	504.697
1324.74	238.434
1329	413.766
1333.26	275.707
1337.51	94.1152
1341.76	227.127
1346	306.332
1350.25	73.2519
1354.49	164.461
1358.73	121.939
1362.96	206.406
1367.2	291.057
1371.43	120.527
1375.66	64.6894
1379.88	60.0312
1384.11	97.7109
1388.33	126.752
1392.54	10.5352
1396.76	57.8086
1400.97	37.0781
1405.18	154.744
1409.39	68.3594
1413.59	105.055
1417.8	136.025
1421.99	86.1152
1426.19	75.6289
1430.38	188.207
1434.58	305.531
1438.77	450.57
1442.95	503.787
1447.13	500.068
1451.32	614.988
1455.49	359.16
1459.67	350.744
1463.84	456.336
1468.01	154.275
1472.18	165.381
1476.35	208.897
1480.51	172.279
1484.67	97.0293
1488.83	22.0098
1492.98	329.078
1497.13	127.785
1501.28	70.9258
1505.43	353.164
1509.57	90.0019
1513.71	58.6641
1517.85	168.164
1521.99	314.721
1526.12	51.8965
1530.25	38.834
1534.38	150.951
1538.5	214.443
1542.62	170.447
1546.74	175.697
1550.86	413.727
1554.98	522.859
1559.09	270.471
1563.2	183.94
1567.31	262.281
1571.41	21.5527
