Measurement: Raman, 514 nm, depolarized, Raman Data Processed
Mineral: Scolecite
Rruff sample: R050083
Ideal chemistry: Ca(Si_3_Al_2_)O_10_3H_2_O
Locality: near Ahmednagar, Maharashtra, India
Source: Rock Currier
Description: Colorless acicular single crystals associated with fluorapophyllite
Measured chemistry: (Ca_.992_Na_.008_)[Al_2_Si_3_O_10_]Â·3H_2_O
Pin_id: M00346
Orientation: Laser parallel to b* (0 1 0). Fiducial mark perpendicular to laser is parallel to c [0 0 1]
Raman shift (cm-1)	intensity
91.262	0
95.458	128.733
99.652	427.544
103.843	681.375
108.033	1449.36
112.22	2819.34
116.406	1739.57
120.589	799.438
124.77	593.35
128.949	633.666
133.126	232.429
137.301	124.048
141.473	531.892
145.644	452.952
149.812	217.953
153.979	779.403
158.143	1933.52
162.305	1762.84
166.465	1001.54
170.623	650.596
174.778	561.792
178.932	942.055
183.083	1585.44
187.233	1386.23
191.38	670.375
195.525	300.076
199.669	294.515
203.81	449.467
207.949	407.83
212.085	78.389
216.22	65.808
220.353	450.624
224.483	1027.18
228.612	714.686
232.738	398.083
236.863	113.36
240.985	143.277
245.105	129.584
249.223	83.681
253.339	279.622
257.453	589.886
261.565	262.251
265.675	13.018
269.783	39.68
273.888	196.891
277.992	207.392
282.093	488.987
286.193	523.554
290.29	367.022
294.386	119.348
298.479	3.619
302.57	58.042
306.659	36.992
310.746	38.623
314.831	180.88
318.914	261.873
322.995	250.657
327.074	308.22
331.151	362.367
335.226	308.808
339.299	314.647
343.37	367.384
347.438	399.813
351.505	358.169
355.57	318.449
359.632	295.608
363.693	292.101
367.751	253.192
371.808	226.215
375.862	221.18
379.914	217.664
383.965	124.502
388.013	103.283
392.06	109.987
396.104	112.62
400.146	229.183
404.186	463.866
408.225	515.592
412.261	314.91
416.295	207.308
420.327	187.625
424.357	337.903
428.386	616.338
432.412	1114.02
436.436	1548
440.458	1532.88
444.478	1326.64
448.496	1267.29
452.513	1116.97
456.527	824.447
460.539	528.205
464.549	310.371
468.557	162.263
472.563	49.227
476.567	39.116
480.57	41.108
484.57	38.288
488.568	97.363
492.564	108.163
496.558	125.917
500.551	206.678
504.541	222.456
508.529	303.217
512.515	450.939
516.5	731.626
520.482	1120.29
524.462	1882.94
528.441	3561.58
532.417	7106.19
536.391	10504.8
540.364	7532.35
544.334	3811.61
548.303	1889.32
552.269	1016.24
556.234	824.715
560.197	503.021
564.157	392.538
568.116	329.445
572.073	277.734
576.027	218.109
579.98	161.457
583.931	126.78
587.88	111.092
591.827	82.489
595.772	111.88
599.715	72.248
603.656	47.59
607.595	7.907
611.532	11.195
615.468	45.457
619.401	46.285
623.332	10.807
627.262	23.276
631.189	13.073
635.115	21.976
639.039	39.095
642.96	0.207
646.88	34.396
650.798	75.519
654.714	116.064
658.628	152.625
662.54	193.376
666.45	266.808
670.358	315.31
674.264	377.813
678.169	317.036
682.071	188.866
685.972	142.862
689.87	137.145
693.767	188.122
697.662	188.128
701.555	222.939
705.446	370.612
709.335	435.241
713.222	385.151
717.107	300.785
720.99	260.31
724.872	219.026
728.751	235.562
732.629	276.91
736.504	233.327
740.378	188.085
744.25	202.073
748.12	200.4
751.988	290.806
755.854	297.794
759.719	275.697
763.581	277.677
767.442	156.1
771.3	134.799
775.157	39.264
779.012	17.305
782.865	26.785
786.716	5.136
790.565	54.966
794.413	1.547
798.258	18.486
802.102	11.785
805.943	25.889
809.783	15.578
813.621	16.226
817.457	34.938
821.292	18.915
825.124	7.015
828.954	20.058
832.783	6.251
836.61	17.455
840.435	20.075
844.258	28.627
848.079	54.115
851.898	39.539
855.715	72.9
859.531	83.214
863.345	15.478
867.157	26.68
870.967	80.823
874.775	24.916
878.581	53.963
882.386	60.96
886.188	68.906
889.989	11.807
893.788	20.66
897.585	0.529
901.38	78.23
905.174	34.956
908.965	57.631
912.755	74.262
916.543	29.852
920.329	89.402
924.113	120.915
927.895	196.301
931.676	218.575
935.454	173.819
939.231	150.458
943.006	109.921
946.78	183.421
950.551	188.181
954.32	189.594
958.088	100.292
961.854	76.987
965.618	69.964
969.38	59.184
973.141	96.157
976.9	134.02
980.656	197.375
984.411	357.368
988.165	456.548
991.916	374.593
995.665	237.758
999.413	297.035
1003.16	417.11
1006.9	521.077
1010.65	418.041
1014.39	345.419
1018.12	398.549
1021.86	329.356
1025.6	318.592
1029.33	385.416
1033.06	528.873
1036.79	517.596
1040.52	642.778
1044.25	938.133
1047.97	1170.34
1051.69	835.465
1055.41	395.614
1059.13	243.129
1062.85	181.881
1066.57	227.413
1070.28	230.039
1073.99	156.995
1077.7	133.614
1081.41	178.281
1085.12	149.991
1088.82	224.826
1092.52	344.722
1096.22	471.538
1099.92	485.391
1103.62	409.423
1107.32	267.414
1111.01	208.407
1114.7	99.451
1118.39	125.568
1122.08	121.781
1125.77	56.938
1129.45	104.095
1133.14	53.514
1136.82	67.726
1140.5	72.271
1144.18	22.582
1147.85	21.914
1151.53	90.178
1155.2	30.496
1158.87	5.189
1162.54	40.418
1166.21	29.761
1169.88	44.216
1173.54	52.429
1177.2	85.547
1180.86	64.835
1184.52	32.198
1188.18	21.975
1191.83	18.096
1195.49	2.4
1199.14	29.824
1202.79	65.909
1206.44	51.816
1210.08	38.738
1213.73	65.903
1217.37	4.506
1221.01	34.694
1224.65	41.127
1228.29	38.058
1231.93	13.135
1235.56	44.533
1239.19	76.333
1242.83	57.252
1246.46	72.015
1250.08	82.833
1253.71	32.5
1257.33	62.634
1260.96	82.91
1264.58	62.762
1268.19	91.477
1271.81	120.033
1275.43	84.535
1279.04	89.982
1282.65	6.381
1286.27	38.629
1289.87	31.871
1293.48	51.023
1297.09	48.17
1300.69	49.54
1304.29	63.75
1307.89	31.594
1311.49	14.363
1315.09	28.677
1318.68	67.348
1322.28	31.405
1325.87	22.729
1329.46	29.855
1333.05	31.218
1336.63	19.541
1340.22	45.662
1343.8	35.193
1347.38	44.257
1350.96	33.378
1354.54	9.126
1358.12	0.962
1361.69	3.434
1365.26	50.302
1368.83	18.005
1372.4	65.68
1375.97	19.39
1379.54	80.647
1383.1	8.543
1386.66	22.163
1390.23	13.935
1393.79	38.529
1397.34	91.128
1400.9	76.201
1404.45	18.911
1408.01	57.328
1411.56	111.376
1415.11	96.143
1418.66	50.799
1422.2	26.199
1425.75	60.697
1429.29	29.393
1432.83	50.231
1436.37	32.987
1439.91	139.903
1443.44	112.096
1446.98	150.391
1450.51	133.862
1454.04	179.974
1457.57	121.085
1461.1	116.42
1464.63	93.068
1468.15	20.348
1471.67	26.427
1475.19	39.759
1478.71	64.857
1482.23	87.214
1485.75	90.886
1489.26	99.426
1492.78	91.314
1496.29	94.422
1499.8	0.71
1503.31	63.873
1506.81	45.568
1510.32	29.535
1513.82	0.523
1517.32	0
