Measurement: Raman, 514 nm, depolarized, Raman Data Processed
Mineral: Scolecite
Rruff sample: R040111
Ideal chemistry: Ca(Si_3_Al_2_)O_10_3H_2_O
Locality: Bombay-Poona area, Mahahashtra Province, India
Source: National Museums of Canada
Description: Pale pink prismatic crystals in parallel or near parallel aggregates
Measured chemistry: Ca_0.98_(Si_3.05_Al_1.95_)O_10_Â·3H_2_O
Pin_id: M00095
Orientation: Laser parallel to -b* (0 -1 0). Fiducial mark perpendicular to laser is parallel to -c [0 0 -1]
Raman shift (cm-1)	intensity
78.031	0
82.218	180.251
86.404	1266.51
90.587	3491.37
94.768	6109.58
98.947	7383.45
103.124	9710.22
107.3	14435.5
111.473	18248.8
115.644	9908.95
119.813	6638.79
123.981	4573.52
128.146	3334.06
132.309	708.224
136.47	153.771
140.63	1173.25
144.787	1117.75
148.942	1146.87
153.096	4424.77
157.247	9150.58
161.396	8313.42
165.544	4795.97
169.689	2421.57
173.833	2351.25
177.974	4864.56
182.114	7515.7
186.251	5613.54
190.387	2468.14
194.52	1100.79
198.652	1482.81
202.782	2053.6
206.909	1622.44
211.035	512.462
215.159	1303.82
219.281	4079.29
223.4	6556.58
227.518	4072.64
231.634	2364.41
235.748	732.573
239.86	360.652
243.97	370.947
248.079	601.604
252.185	2799.72
256.289	3528.17
260.391	1332.08
264.492	273.72
268.59	590.98
272.687	1210.07
276.781	1522.4
280.874	2740.52
284.964	2490.09
289.053	1087.73
293.14	73.303
297.225	510.469
301.308	681.733
305.389	386.092
309.468	58.865
313.545	856.548
317.62	1330.85
321.693	1417
325.765	2048.58
329.834	2385.69
333.902	1883.73
337.967	1938.5
342.031	2199.38
346.093	1988.47
350.153	1613.74
354.21	1225.05
358.267	1539.41
362.321	1628.72
366.373	1033.28
370.423	1115.03
374.471	1210.93
378.518	892.961
382.563	613.102
386.605	573.336
390.646	340.627
394.685	530.945
398.722	1420.28
402.757	2407.61
406.79	2558.71
410.821	1432.39
414.851	768.924
418.878	788.736
422.904	1397.72
426.927	3146.8
430.949	5553.92
434.969	7659.03
438.987	7560.09
443.003	7374.07
447.018	6999.95
451.03	5440.18
455.041	3588.5
459.049	2136.44
463.056	1072.1
467.061	489.527
471.064	67.743
475.065	59.415
479.064	14.653
483.062	37.762
487.057	180.814
491.051	49.845
495.043	25.596
499.032	249.898
503.02	600.173
507.007	1147.47
510.991	2006.79
514.973	3130.02
518.954	4861.21
522.933	8575.33
526.91	16294.4
530.885	31164.4
534.858	44864.2
538.829	31682
542.799	14945.7
546.766	7365.29
550.732	4279.2
554.696	2761.78
558.658	1989.01
562.618	1450.2
566.576	1014.87
570.533	748.7
574.488	546.387
578.44	555.918
582.391	613.291
586.341	596.5
590.288	593.541
594.233	566.407
598.177	488.101
602.119	282.617
606.059	219.955
609.997	106.102
613.933	61.146
617.868	62.24
621.801	471.424
625.731	396.931
629.66	171.431
633.588	140.096
637.513	155.614
641.437	449.984
645.358	588.547
649.278	763.776
653.196	741
657.113	920.683
661.027	1131.08
664.94	1519.86
668.851	2204.61
672.76	2205.71
676.667	1684.58
680.572	838.692
684.476	573.371
688.378	453.792
692.278	252.056
696.176	607.807
700.072	908.332
703.967	1391.63
707.86	1483.74
711.751	1302.66
715.64	841.345
719.527	966.801
723.413	1052.02
727.297	1089.99
731.179	1385.72
735.059	1255.21
738.937	982.449
742.814	729.443
746.689	875.195
750.562	1276.7
754.433	1391.96
758.303	1116.98
762.17	786.756
766.036	589.899
769.901	294.229
773.763	113.286
777.624	123.747
781.482	130.256
785.339	46.481
789.195	114.401
793.048	8.803
796.9	28.037
800.75	67.607
804.598	219.952
808.445	138.086
812.289	27.729
816.132	90.911
819.973	67.27
823.813	111.981
827.65	4.355
831.486	98.42
835.32	269.211
839.152	229.87
842.983	235.493
846.812	412.935
850.639	641.189
854.464	684.439
858.288	649.574
862.11	691.482
865.93	600.191
869.748	443.67
873.564	338.928
877.379	456.979
881.192	348.861
885.004	459.572
888.813	302.068
892.621	399.346
896.427	507.408
900.232	543.32
904.034	377.088
907.835	544.629
911.634	488.955
915.432	481.078
919.227	358.01
923.021	616.631
926.813	692.918
930.604	616.85
934.393	602.205
938.18	405.953
941.965	533.488
945.749	890.207
949.53	1044.95
953.311	612.865
957.089	426.564
960.866	175.564
964.641	234.199
968.414	211.547
972.185	252.498
975.955	298.08
979.723	700.848
983.49	1446.23
987.254	2166.4
991.017	1784.06
994.779	1264.37
998.538	1193.1
1002.3	2271.09
1006.05	2043.25
1009.81	1603.13
1013.56	1348.12
1017.31	1687.26
1021.06	2087.25
1024.81	1625.93
1028.55	1942.76
1032.3	2336.18
1036.04	2413.68
1039.78	2402.89
1043.52	3021.53
1047.26	4344.52
1050.99	3616.99
1054.73	1784.56
1058.46	978.715
1062.19	794.234
1065.92	480.68
1069.65	439.578
1073.37	586.443
1077.1	522.1
1080.82	791.322
1084.54	885.74
1088.26	1048.6
1091.97	1395.49
1095.69	1777.58
1099.4	2198.53
1103.12	1671.96
1106.83	1263.91
1110.54	719.678
1114.24	632.564
1117.95	394.619
1121.65	410.531
1125.35	331.125
1129.06	293.527
1132.75	59.713
1136.45	202.375
1140.15	120.111
1143.84	18.318
1147.53	22.701
1151.22	41.463
1154.91	41.887
1158.6	94.963
1162.28	149.242
1165.97	137.936
1169.65	137.578
1173.33	108.215
1177.01	95.561
1180.69	7.803
1184.36	40.625
1188.04	129.027
1191.71	160.688
1195.38	58.98
1199.05	180.926
1202.71	291.482
1206.38	161.945
1210.04	79.664
1213.71	110.66
1217.37	321.672
1221.03	128.357
1224.68	225.412
1228.34	259.236
1231.99	61.809
1235.65	465.486
1239.3	245.561
1242.95	271.691
1246.59	368.299
1250.24	257.596
1253.88	264.639
1257.53	136.967
1261.17	218.949
1264.81	229.387
1268.45	416.258
1272.08	406.891
1275.72	369.74
1279.35	383.207
1282.98	277.789
1286.61	131.531
1290.24	207.258
1293.87	299.229
1297.49	331.424
1301.11	77.676
1304.73	33.951
1308.36	112.875
1311.97	288.914
1315.59	229.756
1319.2	366.4
1322.82	387.623
1326.43	283.352
1330.04	145.367
1333.65	9.488
1337.26	65.545
1340.86	49.773
1344.47	22.125
1348.07	120.551
1351.67	61.732
1355.27	76.545
1358.87	6.699
1362.46	153.02
1366.06	165.555
1369.65	8.088
1373.24	235.018
1376.83	170.561
1380.42	98.795
1384	303.582
1387.59	368.434
1391.17	242.023
1394.75	249.664
1398.33	254.004
1401.91	184.008
1405.49	324.592
1409.06	550.113
1412.64	202.932
1416.21	423.211
1419.78	304.947
1423.35	350.582
1426.91	414.416
1430.48	452.857
1434.05	491.898
1437.61	728.967
1441.17	1029.68
1444.73	1323.45
1448.29	1387.25
1451.84	1618.82
1455.4	1625.24
1458.95	1650.94
1462.5	1424.43
1466.05	1428.21
1469.6	988.223
1473.15	1004.34
1476.69	576.885
1480.24	1065.72
1483.78	618.539
1487.32	434.723
1490.86	287.682
1494.39	319.033
1497.93	394.367
1501.46	78.605
1505	60.275
1508.53	247.408
1512.06	339.701
1515.59	363.053
1519.11	324.699
