Measurement: Raman, 514 nm, depolarized, Raman Data Processed
Mineral: Scolecite
Rruff sample: R040111
Ideal chemistry: Ca(Si_3_Al_2_)O_10_3H_2_O
Locality: Bombay-Poona area, Mahahashtra Province, India
Source: National Museums of Canada
Description: Pale pink prismatic crystals in parallel or near parallel aggregates
Measured chemistry: Ca_0.98_(Si_3.05_Al_1.95_)O_10_Â·3H_2_O
Pin_id: L00238
Orientation: Laser parallel to (-1 0 -1). Fiducial mark perpendicular to laser is parallel to b [0 1 0]
Raman shift (cm-1)	intensity
79.427	0
83.614	184.399
87.798	1467.94
91.981	4034.95
96.161	5328.03
100.34	5568.76
104.516	8672.26
108.691	16424.5
112.864	13460.8
117.034	3680.1
121.203	693.178
125.369	493.479
129.534	111.768
133.696	131.041
137.857	2381.45
142.016	5030.77
146.172	2904.24
150.327	3089.59
154.48	7840.33
158.63	13514.9
162.779	10318.7
166.926	5295.42
171.07	3423.8
175.213	3925.42
179.354	6015.55
183.493	8178.67
187.63	6106.6
191.765	2717.76
195.898	1210.91
200.029	1172.08
204.158	1858.52
208.285	1632.06
212.41	1159.52
216.533	2390.69
220.654	5410.49
224.773	5644.82
228.891	2997.67
233.006	1811.57
237.119	356.153
241.231	272.565
245.34	36.172
249.448	1434.98
253.553	3987.16
257.657	2524.6
261.758	295.545
265.858	385.146
269.956	315.829
274.052	280.072
278.146	473.211
282.237	1709.24
286.327	1685.85
290.416	1100.83
294.502	13.047
298.586	239.482
302.668	273.963
306.749	202.031
310.827	852.19
314.903	1140.59
318.978	1116.23
323.051	780.945
327.121	302.811
331.19	373.251
335.257	481.852
339.322	699.041
343.385	1088.4
347.446	1192.92
351.505	910.695
355.563	579.641
359.618	901.972
363.672	694.611
367.723	603.542
371.773	507.749
375.821	412.222
379.866	230.949
383.91	188.924
387.952	276.111
391.992	519.525
396.031	1170.16
400.067	1935.99
404.101	2860.76
408.134	2639.11
412.165	1500.87
416.193	902.972
420.22	1055.32
424.245	1865.87
428.268	3263.91
432.289	5100.19
436.309	5398.84
440.326	5709.53
444.342	6746.8
448.355	7552.19
452.367	7856.74
456.377	6280.89
460.385	3785.41
464.391	1949.5
468.395	994.769
472.398	727.707
476.398	601.078
480.397	645.052
484.394	738.218
488.389	1014.7
492.382	1273.61
496.373	1550.88
500.362	1843.45
504.349	2317.3
508.335	2864.44
512.319	3868.9
516.3	5485.56
520.28	8162.42
524.259	13438.5
528.235	25617.7
532.209	45415.1
536.182	51032.7
540.152	28874.4
544.121	14058.7
548.088	7558.02
552.053	4884.1
556.017	3458.31
559.978	2578.62
563.938	2138.17
567.895	1846.34
571.851	1356.68
575.805	1062.1
579.758	843.595
583.708	597.16
587.657	523.092
591.603	383.022
595.548	258.727
599.491	152.714
603.432	179.739
607.372	9.203
611.309	5.161
615.245	108.823
619.179	91.899
623.111	123.963
627.041	50.59
630.97	8.528
634.896	146.665
638.821	202.086
642.744	406.412
646.665	506.665
650.584	664.814
654.502	895.573
658.418	1084.43
662.331	1124.24
666.244	1767.69
670.154	2279.82
674.062	2436.11
677.969	1810.5
681.874	1114.28
685.777	613.361
689.678	669.958
693.577	724.624
697.475	737.062
701.371	1125.31
705.265	1901.64
709.157	1728.82
713.047	1148.52
716.936	902.241
720.823	911.13
724.708	1099.37
728.591	1089.53
732.472	843.169
736.352	540.024
740.23	490.604
744.106	604.854
747.98	697.5
751.853	972.878
755.723	1132.98
759.592	1012.8
763.459	876.994
767.325	609.333
771.188	461.492
775.05	275.91
778.91	210.044
782.768	17.272
786.625	60.986
790.479	74.979
794.332	42.133
798.183	128.334
802.033	135.611
805.88	12.767
809.726	71.575
813.57	12.967
817.413	86.951
821.253	9.49
825.092	75.463
828.929	109.06
832.764	203.328
836.598	122.312
840.429	251.985
844.259	285.368
848.088	200.474
851.914	333.526
855.739	306.972
859.562	263.435
863.383	309.671
867.203	268.67
871.02	207.457
874.836	188.021
878.65	154.355
882.463	184.537
886.274	113.504
890.083	107.255
893.89	93.812
897.695	311.157
901.499	271.309
905.301	424.267
909.102	978.032
912.9	474.62
916.697	440.032
920.492	701.293
924.285	1087.42
928.077	2088.39
931.867	3436.03
935.655	3019.5
939.442	1603.43
943.226	611.371
947.009	500.229
950.791	555.178
954.57	559.291
958.348	525.911
962.124	639.367
965.899	1136.41
969.671	2215.11
973.442	2400.98
977.211	1339.22
980.979	970.252
984.745	1036.17
988.509	1310.55
992.271	1540.99
996.032	1566.57
999.791	1397.15
1003.55	1356.78
1007.3	1727.02
1011.06	2982.64
1014.81	5211.9
1018.56	6966.62
1022.31	6116.6
1026.06	5535.24
1029.8	4215.95
1033.55	2589.38
1037.29	2147.97
1041.03	2318.14
1044.77	2065.1
1048.5	1638.68
1052.24	1204.3
1055.97	1317.31
1059.7	1390.58
1063.43	1640.53
1067.16	1961.31
1070.89	2058.58
1074.61	1682.79
1078.34	1384.99
1082.06	1042.89
1085.78	1086.51
1089.5	1356.43
1093.21	1797.72
1096.93	2654.61
1100.64	2790.78
1104.35	2440.23
1108.06	1732.69
1111.77	1304.22
1115.48	795.092
1119.18	504.185
1122.89	662.578
1126.59	366.296
1130.29	264.785
1133.99	145.122
1137.68	111.175
1141.38	25.859
1145.07	100.679
1148.76	24.675
1152.45	18.938
1156.14	93.747
1159.83	166.929
1163.51	86.073
1167.19	130.723
1170.88	41.108
1174.56	241.977
1178.23	102.567
1181.91	157.704
1185.59	34.189
1189.26	86.391
1192.93	23.675
1196.6	216.463
1200.27	38.39
1203.94	229.443
1207.6	9.395
1211.27	106.737
1214.93	230.859
1218.59	205.657
1222.25	216.507
1225.9	108.742
1229.56	255.214
1233.21	64.27
1236.86	112.185
1240.51	170.881
1244.16	98.654
1247.81	3.023
1251.45	108.166
1255.1	152.183
1258.74	50.928
1262.38	187.348
1266.02	19.392
1269.66	114.312
1273.29	110.661
1276.93	125.877
1280.56	37.908
1284.19	144.942
1287.82	81.684
1291.45	30.965
1295.07	71.476
1298.7	118.782
1302.32	38.354
1305.94	23.189
1309.56	17.299
1313.18	1.658
1316.8	152.776
1320.41	164.473
1324.02	5.769
1327.63	118.889
1331.24	14.016
1334.85	46.418
1338.46	13.367
1342.06	3.377
1345.67	53.742
1349.27	16.893
1352.87	214.232
1356.47	208.941
1360.07	198.697
1363.66	289.652
1367.25	200.688
1370.85	165.43
1374.44	272.035
1378.03	197.312
1381.61	219.67
1385.2	369.52
1388.78	248.852
1392.37	189.627
1395.95	370.33
1399.53	252.037
1403.1	308.043
1406.68	332.055
1410.26	292.404
1413.83	287.756
1417.4	186.158
1420.97	339.625
1424.54	326.885
1428.1	283.799
1431.67	171.953
1435.23	233.207
1438.8	314.768
1442.36	414.912
1445.91	444.475
1449.47	357.115
1453.03	409.396
1456.58	463.252
1460.13	546.51
1463.68	651.98
1467.23	227.605
1470.78	377.074
1474.33	307.893
1477.87	186.133
1481.42	388.027
1484.96	260.141
1488.5	268.537
1492.04	385.758
1495.57	205.529
1499.11	53.15
1502.64	78.469
1506.17	156.166
1509.71	181.092
1513.23	325.867
1516.76	123.424
1520.29	0
