Measurement: Raman, 514 nm, depolarized, Raman Data Processed
Mineral: Scolecite
Rruff sample: R050083
Ideal chemistry: Ca(Si_3_Al_2_)O_10_3H_2_O
Locality: near Ahmednagar, Maharashtra, India
Source: Rock Currier
Description: Colorless acicular single crystals associated with fluorapophyllite
Measured chemistry: (Ca_.992_Na_.008_)[Al_2_Si_3_O_10_]Â·3H_2_O
Pin_id: M00476
Orientation: Laser parallel to a* (1 0 0). Fiducial mark perpendicular to laser is parallel to b [0 1 0]
Raman shift (cm-1)	intensity
103.843	0
108.033	971.146
112.22	1783.66
116.406	650.564
120.589	358.413
124.77	333.361
128.949	205.808
133.126	775.695
137.301	2129.01
141.473	4310.53
145.644	2844.86
149.812	1824.3
153.979	3810.39
158.143	5096.77
162.305	3615.65
166.465	2043.5
170.623	1504.34
174.778	1548.44
178.932	2675.51
183.083	3772.9
187.233	3861.21
191.38	2757.59
195.525	1994.33
199.669	1301.64
203.81	939.613
207.949	1128.83
212.085	1172.17
216.22	842.252
220.353	940.294
224.483	1281.48
228.612	824.881
232.738	43.464
236.863	209.787
240.985	9.499
245.105	117.276
249.223	132.848
253.339	521.997
257.453	1186.48
261.565	630.365
265.675	27.337
269.783	494.456
273.888	873.734
277.992	459.292
282.093	894.947
286.193	1885.97
290.29	1789.84
294.386	731.37
298.479	26.32
302.57	370.412
306.659	583.228
310.746	72.596
314.831	47.634
318.914	508.411
322.995	331.909
327.074	220.07
331.151	76.609
335.226	763.272
339.299	931.164
343.37	589.325
347.438	645.365
351.505	1065.38
355.57	1063.38
359.632	364.388
363.693	369.386
367.751	877.251
371.808	590.709
375.862	79.019
379.914	93.467
383.965	644.377
388.013	640.043
392.06	103.707
396.104	298.1
400.146	922.521
404.186	1522.76
408.225	1117.82
412.261	874.613
416.295	999.916
420.327	995.301
424.357	620.78
428.386	915.607
432.412	2471.3
436.436	3247.07
440.458	1789.65
444.478	685.405
448.496	1092.84
452.513	1668.32
456.527	1341.54
460.539	880.357
464.549	973.501
468.557	1197.23
472.563	826.091
476.567	302.36
480.57	597.254
484.57	1538.67
488.568	2060.64
492.564	1766.93
496.558	1565.66
500.551	1771.14
504.541	2066.66
508.529	1612.29
512.515	1358.02
516.5	2434.05
520.482	4079.81
524.462	6035.57
528.441	10702
532.417	20267.7
536.391	27478.2
540.364	18903.5
544.334	9226.11
548.303	4662.19
552.269	2895.78
556.234	2591.97
560.197	1898.25
564.157	1024.89
568.116	882.129
572.073	1259.86
576.027	1290.05
579.98	757.998
583.931	177.307
587.88	396.895
591.827	894.787
595.772	952.664
599.715	270.409
603.656	201.872
607.595	195.528
611.532	652.715
615.468	459.372
619.401	12.649
623.332	51.124
627.262	663.393
631.189	958.881
635.115	495.604
639.039	40.384
642.96	25.98
646.88	711.595
650.798	1127.83
654.714	888.914
658.628	166.976
662.54	346.267
666.45	792.196
670.358	1113.41
674.264	660.033
678.169	186.012
682.071	436.243
685.972	1021.72
689.87	1418.07
693.767	954.337
697.662	522.89
701.555	808.1
705.446	1731.39
709.335	1836.25
713.222	954.789
717.107	292.169
720.99	548.805
724.872	1073.02
728.751	1350.54
732.629	584.684
736.504	76.294
740.378	90.039
744.25	883.197
748.12	1336.23
751.988	1202.09
755.854	677.657
759.719	436.523
763.581	968.554
767.442	1460.42
771.3	1004.27
775.157	280.432
779.012	241.279
782.865	168.842
786.716	818.802
790.565	1076.39
794.413	486.646
798.258	104.749
802.102	49.487
805.943	608.635
809.783	1066.44
813.621	883.91
817.457	301.154
821.292	201.896
825.124	264.492
828.954	960.423
832.783	1116.41
836.61	552.123
840.435	36.99
844.258	77.73
848.079	657.15
851.898	1081.67
855.715	1095.78
859.531	569.573
863.345	26.877
867.157	126.403
870.967	729.493
874.775	1062.4
878.581	755.126
882.386	87.655
886.188	102.424
889.989	288.091
893.788	1028.65
897.585	1419.63
901.38	1100.89
905.174	401.954
908.965	117.06
912.755	333.723
916.543	1164.47
920.329	1555.26
924.113	1356.13
927.895	870.085
931.676	1052.62
935.454	2153.08
939.231	2854.87
943.006	2054.96
946.78	1557.67
950.551	818.404
954.32	413.178
958.088	269.767
961.854	1055.61
965.618	1491.15
969.38	1188.69
973.141	637.056
976.9	88.139
980.656	488.225
984.411	1608.95
988.165	2205.46
991.916	1805.58
995.665	1119.93
999.413	937.807
1003.16	1475.6
1006.9	2156.66
1010.65	3189.73
1014.39	2947.48
1018.12	2348.99
1021.86	1401.39
1025.6	842.07
1029.33	975.19
1033.06	2053.64
1036.79	2455.85
1040.52	2945.3
1044.25	3642.02
1047.97	3712.69
1051.69	1772.42
1055.41	892.344
1059.13	1012.76
1062.85	1553.62
1066.57	1774.83
1070.28	1516.55
1073.99	1298.57
1077.7	140.81
1081.41	143.47
1085.12	1036.39
1088.82	1919.62
1092.52	2303.65
1096.22	1818.45
1099.92	1293.79
1103.62	779.473
1107.32	375.601
1111.01	562.742
1114.7	891.261
1118.39	1420.97
1122.08	1221.81
1125.77	823.871
1129.45	177.312
1133.14	42.339
1136.82	399.22
1140.5	1108.19
1144.18	1539.69
1147.85	1375.78
1151.53	936.676
1155.2	412.663
1158.87	28.066
1162.54	190.485
1166.21	529.806
1169.88	1521.94
1173.54	1829.77
1177.2	1682.39
