Measurement: Raman, 514 nm, depolarized, Raman Data Processed
Mineral: Scolecite
Rruff sample: R050083
Ideal chemistry: Ca(Si_3_Al_2_)O_10_3H_2_O
Locality: near Ahmednagar, Maharashtra, India
Source: Rock Currier
Description: Colorless acicular single crystals associated with fluorapophyllite
Measured chemistry: (Ca_.992_Na_.008_)[Al_2_Si_3_O_10_]Â·3H_2_O
Pin_id: M00267
Orientation: Laser parallel to -c* (0 0 -1). Fiducial mark perpendicular to laser is parallel to -a [-1 0 0]
Raman shift (cm-1)	intensity
49.184	0
53.401	35.181
57.617	218.916
61.83	471.112
66.041	566.316
70.25	557.856
74.456	534.943
78.661	347.425
82.863	147.133
87.064	39.205
91.262	40.083
95.458	347.002
99.652	633.913
103.843	737.577
108.033	1199.09
112.22	2460.98
116.406	2164.41
120.589	902.854
124.77	720.5
128.949	1121.32
133.126	678.432
137.301	598.092
141.473	1304.33
145.644	1458.43
149.812	931.236
153.979	1556.71
158.143	3239.7
162.305	3496.37
166.465	2053.11
170.623	1247.57
174.778	944.63
178.932	981.795
183.083	1289.63
187.233	1517.66
191.38	965.908
195.525	557.639
199.669	489.648
203.81	651.401
207.949	687.119
212.085	410.806
216.22	445.181
220.353	1099.57
224.483	2129.14
228.612	1557.07
232.738	997.57
236.863	613.779
240.985	135.337
245.105	65.415
249.223	134.108
253.339	586.071
257.453	915.286
261.565	394.408
265.675	4.906
269.783	91.367
273.888	114.157
277.992	48.621
282.093	377.177
286.193	431.622
290.29	384.97
294.386	153.232
298.479	30.41
302.57	10.473
306.659	35.401
310.746	121.235
314.831	211.887
318.914	293.498
322.995	249.1
327.074	155.214
331.151	92.735
335.226	86.238
339.299	69.713
343.37	118.055
347.438	200.342
351.505	321.639
355.57	345.946
359.632	324.24
363.693	337.529
367.751	323.838
371.808	270.171
375.862	281.529
379.914	178.138
383.965	72.062
388.013	37.055
392.06	44.886
396.104	78.599
400.146	270.249
404.186	480.747
408.225	586.163
412.261	484.634
416.295	294.001
420.327	361.087
424.357	533.323
428.386	964.699
432.412	1694.22
436.436	2216.45
440.458	2061.6
444.478	1687.08
448.496	1514.38
452.513	1551.7
456.527	1858.98
460.539	2050.29
464.549	1446.02
468.557	813.165
472.563	469.524
476.567	348.182
480.57	301.773
484.57	299.304
488.568	354.973
492.564	467.994
496.558	437.893
500.551	470.706
504.541	480.981
508.529	564.111
512.515	721.46
516.5	1016.9
520.482	1541.42
524.462	2544.01
528.441	4606.66
532.417	8977.37
536.391	13305.1
540.364	9892.97
544.334	4941.67
548.303	2591.76
552.269	1451.7
556.234	1052.47
560.197	857.516
564.157	598.616
568.116	521.798
572.073	436.076
576.027	352.416
579.98	235.794
583.931	223.203
587.88	137.661
591.827	88.283
595.772	128.202
599.715	62.417
603.656	33.697
607.595	71
611.532	61.323
615.468	5.66
619.401	37.025
623.332	17.349
627.262	10.575
631.189	62.679
635.115	29.762
639.039	23.611
642.96	45.031
646.88	61.561
650.798	102.278
654.714	199.104
658.628	148.805
662.54	195.409
666.45	226.693
670.358	332.733
674.264	459.872
678.169	458.658
682.071	304.226
685.972	194.769
689.87	215.505
693.767	184.368
697.662	202.475
701.555	243.39
705.446	375.247
709.335	471.391
713.222	338.077
717.107	220.759
720.99	234.579
724.872	284.278
728.751	427.876
732.629	370.707
736.504	233.983
740.378	152.192
744.25	163.481
748.12	186.558
751.988	260.508
755.854	270.377
759.719	238.232
763.581	272.931
767.442	178.545
771.3	174.773
775.157	101.93
779.012	62.778
782.865	48.549
786.716	7.651
790.565	35.581
794.413	23.398
798.258	20.735
802.102	49.423
805.943	17.367
809.783	0.516
813.621	0.157
817.457	4.692
821.292	4.915
825.124	28.679
828.954	19.361
832.783	40.266
836.61	7.031
840.435	55.662
844.258	14.164
848.079	50.544
851.898	74.823
855.715	40.013
859.531	57.114
863.345	57.132
867.157	92.075
870.967	11.944
874.775	30.725
878.581	75.422
882.386	3.039
886.188	45.568
889.989	47.019
893.788	36.4
897.585	40.109
901.38	71.938
905.174	77.1
908.965	32.193
912.755	129.217
916.543	127.179
920.329	221.078
924.113	328.919
927.895	664.704
931.676	839.169
935.454	605.491
939.231	427.99
943.006	208.776
946.78	191.276
950.551	155.623
954.32	141.037
958.088	108.065
961.854	178.008
965.618	230.036
969.38	343.345
973.141	470.104
976.9	292.147
980.656	226.825
984.411	290.791
988.165	347.311
991.916	430.623
995.665	595.033
999.413	547.714
1003.16	448.961
1006.9	366.201
1010.65	490.66
1014.39	730.827
1018.12	1127.5
1021.86	1961.76
1025.6	2470.17
1029.33	1503.66
1033.06	876.061
1036.79	612.52
1040.52	682.519
1044.25	560.263
1047.97	499.801
1051.69	531.519
1055.41	481.248
1059.13	640.924
1062.85	754.971
1066.57	770.965
1070.28	618.756
1073.99	423.588
1077.7	318.399
1081.41	225.231
1085.12	293.127
1088.82	283.076
1092.52	508.208
1096.22	645.462
1099.92	794.805
1103.62	681.018
1107.32	544.663
1111.01	391.294
1114.7	252.933
1118.39	252.51
1122.08	217.365
1125.77	113.962
1129.45	76.639
1133.14	67.761
1136.82	35.624
1140.5	71.445
1144.18	32.183
1147.85	8.42
1151.53	46.12
1155.2	27.695
1158.87	25.235
1162.54	6.734
1166.21	0.928
1169.88	3.981
1173.54	14.086
1177.2	48.286
1180.86	56.448
1184.52	5.303
1188.18	0.227
1191.83	26.219
1195.49	29.886
1199.14	47.354
1202.79	54.529
1206.44	19.39
1210.08	16.289
1213.73	96.985
1217.37	42.457
1221.01	30.712
1224.65	38.56
1228.29	59.946
1231.93	59.634
1235.56	87.457
1239.19	107.637
1242.83	69.788
1246.46	59.21
1250.08	15.611
1253.71	5.496
1257.33	10.426
1260.96	62.104
1264.58	21.114
1268.19	103.734
1271.81	53.323
1275.43	90.08
1279.04	41.548
1282.65	36.865
1286.27	1.846
1289.87	6.977
1293.48	0.915
1297.09	18.796
1300.69	30.556
1304.29	50.368
1307.89	7.7
1311.49	4.335
1315.09	7.587
1318.68	9.375
1322.28	14.226
1325.87	41.589
1329.46	64.149
1333.05	31.18
1336.63	100.399
1340.22	50.989
1343.8	59.046
1347.38	4.074
1350.96	32.881
1354.54	35.901
1358.12	61.681
1361.69	92.128
1365.26	52.436
1368.83	35.682
1372.4	85.858
1375.97	57.745
1379.54	52.186
1383.1	47.368
1386.66	23.318
1390.23	40.441
1393.79	44.456
1397.34	82.272
1400.9	36.034
1404.45	80.727
1408.01	89.906
1411.56	105.59
1415.11	55.209
1418.66	46.496
1422.2	72.444
1425.75	41.621
1429.29	2.047
1432.83	90.058
1436.37	53.767
1439.91	74.326
1443.44	141.895
1446.98	186.509
1450.51	89.913
1454.04	107.659
1457.57	105.283
1461.1	67.316
1464.63	41.07
1468.15	110.467
1471.67	33.306
1475.19	29.77
1478.71	101.764
1482.23	96.772
1485.75	121.635
1489.26	88.188
1492.78	71.164
1496.29	26.743
1499.8	30.344
1503.31	14.304
1506.81	29.314
1510.32	0.295
