Measurement: Raman, 514 nm, depolarized, Raman Data Processed
Mineral: Scolecite
Rruff sample: R050083
Ideal chemistry: Ca(Si_3_Al_2_)O_10_3H_2_O
Locality: near Ahmednagar, Maharashtra, India
Source: Rock Currier
Description: Colorless acicular single crystals associated with fluorapophyllite
Measured chemistry: (Ca_.992_Na_.008_)[Al_2_Si_3_O_10_]Â·3H_2_O
Pin_id: M00106
Orientation: Laser parallel to (1 0 1). Fiducial mark perpendicular to laser is parallel to b [0 1 0]
Raman shift (cm-1)	intensity
49.184	0
53.401	66.147
57.617	224.503
61.83	295.936
66.041	365.365
70.25	449.504
74.456	241.1
78.661	162.318
82.863	13.863
87.064	62.549
91.262	130.836
95.458	1049.54
99.652	1921.67
103.843	2502.52
108.033	5717.93
112.22	11036.4
116.406	5207.41
120.589	1767.49
124.77	1244.78
128.949	1425.56
133.126	818.15
137.301	1659.1
141.473	4370.35
145.644	3868.47
149.812	2346.24
153.979	4561.54
158.143	9984.06
162.305	10020.1
166.465	5883.99
170.623	3377.55
174.778	3063.71
178.932	3962.56
183.083	6245.25
187.233	6443.76
191.38	3191.34
195.525	1380.95
199.669	1001.57
203.81	1324.21
207.949	1564.88
212.085	973.598
216.22	1207.66
220.353	3112.45
224.483	5169.95
228.612	3127.52
232.738	2016.65
236.863	843.115
240.985	10.89
245.105	24.805
249.223	565.704
253.339	2458.67
257.453	3074.53
261.565	917.673
265.675	81.488
269.783	180.987
273.888	39.049
277.992	200.489
282.093	1083.85
286.193	1449.08
290.29	1239.22
294.386	456.284
298.479	59.704
302.57	132.858
306.659	120.777
310.746	520.434
314.831	816.618
318.914	846.857
322.995	704.095
327.074	427.427
331.151	302.391
335.226	343.379
339.299	513.466
343.37	723.178
347.438	794.923
351.505	765.792
355.57	509.788
359.632	593.913
363.693	587.169
367.751	480.558
371.808	478.082
375.862	375.74
379.914	119.501
383.965	157.155
388.013	204.712
392.06	273.221
396.104	583.73
400.146	1153.29
404.186	2014.31
408.225	2180.65
412.261	1342.15
416.295	677.419
420.327	656.037
424.357	1021.78
428.386	1830.84
432.412	3270.8
436.436	4334.5
440.458	4445.59
444.478	4625.91
448.496	5476.36
452.513	5919.95
456.527	5230.01
460.539	3233.19
464.549	1794.73
468.557	1090.93
472.563	693.863
476.567	461.346
480.57	442.602
484.57	458.758
488.568	775.268
492.564	970.074
496.558	1130.2
500.551	1316.64
504.541	1708.35
508.529	2071.28
512.515	2609.43
516.5	3449.84
520.482	5193.44
524.462	8236.23
528.441	14526.2
532.417	27996.3
536.391	41086.5
540.364	28106.9
544.334	13337.5
548.303	6868.12
552.269	4006.92
556.234	2890.85
560.197	2245.91
564.157	1805.12
568.116	1420.7
572.073	1224.54
576.027	995.495
579.98	755.546
583.931	542.689
587.88	432.957
591.827	269.699
595.772	255.911
599.715	232.378
603.656	52.922
607.595	5.529
611.532	48.194
615.468	35.908
619.401	41.657
623.332	128.363
627.262	113.538
631.189	65.297
635.115	37.106
639.039	105.283
642.96	176.973
646.88	323.724
650.798	510.983
654.714	612.79
658.628	673.496
662.54	811.054
666.45	1046.57
670.358	2070.74
674.264	2166.59
678.169	2794.77
682.071	946.832
685.972	577.782
689.87	446.587
693.767	513.653
697.662	546.517
701.555	675.34
705.446	1161.13
709.335	1333.6
713.222	1150.65
717.107	705.792
720.99	589.754
724.872	663.335
728.751	908.843
732.629	766.051
736.504	481.898
740.378	346.666
744.25	369.111
748.12	491.408
751.988	728.378
755.854	900.147
759.719	800.712
763.581	630.066
767.442	518.213
771.3	452.811
775.157	268.51
779.012	108.25
782.865	13.821
786.716	9.157
790.565	19.011
794.413	56.465
798.258	18.073
802.102	41.258
805.943	49.946
809.783	16.199
813.621	0.067
817.457	21.92
821.292	0.429
825.124	25.451
828.954	30.275
832.783	43.717
836.61	44.872
840.435	35.779
844.258	65.436
848.079	38.862
851.898	62.062
855.715	83.042
859.531	119.801
863.345	113.343
867.157	42.675
870.967	81.8
874.775	94.726
878.581	107.453
882.386	83.99
886.188	82.333
889.989	63.491
893.788	111.467
897.585	97.27
901.38	156.906
905.174	153.377
908.965	161.683
912.755	178.829
916.543	246.818
920.329	372.653
924.113	629.344
927.895	1084.93
931.676	2006.15
935.454	2366.32
939.231	1285.96
943.006	607.246
946.78	420.311
950.551	358.582
954.32	286.835
958.088	310.393
961.854	376.976
965.618	648.464
969.38	1382.99
973.141	1731.43
976.9	950.491
980.656	659.185
984.411	760.848
988.165	938.286
991.916	1105.62
995.665	1133.28
999.413	909.265
1003.16	891.572
1006.9	1080.85
1010.65	1769.1
1014.39	3244.36
1018.12	4858.68
1021.86	4611.74
1025.6	3801.61
1029.33	3550.85
1033.06	2070.63
1036.79	1472.57
1040.52	1726.71
1044.25	1734.02
1047.97	1250.44
1051.69	975.562
1055.41	794.047
1059.13	751.573
1062.85	980.144
1066.57	1216.75
1070.28	1297.41
1073.99	1183.49
1077.7	958.243
1081.41	703.555
1085.12	722.437
1088.82	852.441
1092.52	1308.59
1096.22	1842.17
1099.92	2146.82
1103.62	1919.87
1107.32	1383.08
1111.01	920.01
1114.7	708.644
1118.39	500.296
1122.08	396.059
1125.77	271.627
1129.45	208.438
1133.14	103.629
1136.82	73.758
1140.5	91.408
1144.18	17.931
1147.85	59.237
1151.53	57.102
1155.2	23.614
1158.87	44.43
1162.54	7.369
1166.21	28.538
1169.88	21.824
1173.54	40.586
1177.2	50.033
1180.86	77.496
1184.52	47.681
1188.18	5.811
1191.83	12.561
1195.49	31.161
1199.14	1.811
1202.79	13.316
1206.44	44.787
1210.08	56.62
1213.73	65.325
1217.37	21.627
1221.01	20.878
1224.65	18.106
1228.29	7.879
1231.93	44.904
1235.56	20.816
1239.19	35.541
1242.83	44.48
1246.46	7.07
1250.08	2.271
1253.71	14.633
1257.33	2.953
1260.96	1.736
1264.58	14.135
1268.19	50.525
1271.81	9.735
1275.43	48.887
1279.04	38.958
1282.65	2.152
1286.27	17.225
1289.87	1.612
1293.48	18.769
1297.09	35.068
1300.69	15.308
1304.29	57.435
1307.89	0.363
1311.49	6.319
1315.09	3.064
1318.68	28.296
1322.28	8.336
1325.87	4.208
1329.46	23.882
1333.05	12.776
1336.63	82.558
1340.22	77.498
1343.8	5.296
1347.38	29.825
1350.96	23.177
1354.54	48.402
1358.12	9.519
1361.69	28.589
1365.26	101.096
1368.83	30.232
1372.4	67.907
1375.97	91.325
1379.54	104.164
1383.1	31.328
1386.66	75.244
1390.23	57.484
1393.79	56.4
1397.34	42.536
1400.9	58.645
1404.45	123.499
1408.01	113.535
1411.56	141.129
1415.11	104.75
1418.66	85.717
1422.2	30.827
1425.75	6.502
1429.29	34.233
1432.83	60.753
1436.37	53.82
1439.91	60.129
1443.44	92.171
1446.98	114.251
1450.51	98.413
1454.04	97.783
1457.57	125.995
1461.1	72.505
1464.63	46.791
1468.15	50.312
1471.67	56.719
1475.19	14.849
1478.71	51.089
1482.23	77.8
1485.75	102.365
1489.26	97.562
1492.78	97.278
1496.29	67.235
1499.8	100.683
1503.31	66.096
1506.81	5.608
1510.32	43.686
1513.82	6.322
1517.32	0.284
