Measurement: Raman, 514 nm, depolarized, Raman Data Processed
Mineral: Scolecite
Rruff sample: R040111
Ideal chemistry: Ca(Si_3_Al_2_)O_10_3H_2_O
Locality: Bombay-Poona area, Mahahashtra Province, India
Source: National Museums of Canada
Description: Pale pink prismatic crystals in parallel or near parallel aggregates
Measured chemistry: Ca_0.98_(Si_3.05_Al_1.95_)O_10_Â·3H_2_O
Pin_id: M00424
Orientation: Laser parallel to -c* (0 0 -1). Fiducial mark perpendicular to laser is parallel to -a [-1 0 0]
Raman shift (cm-1)	intensity
78.031	0
82.218	20.824
86.404	723.5
90.587	2638.7
94.768	4771.79
98.947	3801.91
103.124	3604.54
107.3	5748.28
111.473	9935.32
115.644	5713.1
119.813	1793.58
123.981	1730.59
128.146	2598.18
132.309	916.168
136.47	1140.57
140.63	4196.25
144.787	6497.26
148.942	2576.42
153.096	5712.3
157.247	12253.4
161.396	10631.6
165.544	5510.81
169.689	3071.2
173.833	2695.84
177.974	3040.83
182.114	4217.33
186.251	4708.99
190.387	2883.55
194.52	1647.25
198.652	1622.75
202.782	2333.27
206.909	2238.69
211.035	1340.88
215.159	1885.55
219.281	5073.62
223.4	8042
227.518	4948.69
231.634	3239.66
235.748	1510.27
239.86	136.824
243.97	99.81
248.079	567.935
252.185	2317.78
256.289	2922.09
260.391	896.417
264.492	275.149
268.59	573.704
272.687	389.312
276.781	172.02
280.874	1182.8
284.964	1390.99
289.053	1063.46
293.14	416.045
297.225	151.568
301.308	278.805
305.389	124.973
309.468	350.377
313.545	736.734
317.62	843.137
321.693	808.602
325.765	543.887
329.834	240.87
333.902	165.854
337.967	149.802
342.031	419.78
346.093	879.598
350.153	1367.59
354.21	1314.95
358.267	1185.02
362.321	1149.23
366.373	1111.66
370.423	1134.28
374.471	1007.1
378.518	466.096
382.563	268.278
386.605	117.64
390.646	178.169
394.685	395.87
398.722	1148.73
402.757	2154.76
406.79	2374.48
410.821	1724.04
414.851	1136.83
418.878	1253.78
422.904	2149.84
426.927	3982.98
430.949	6659.94
434.969	8412.51
438.987	7327.02
443.003	5934.46
447.018	5487.98
451.03	5588.57
455.041	7180.3
459.049	8007.52
463.056	5707.21
467.061	3168.9
471.064	1737.07
475.065	1265.63
479.064	1112.23
483.062	1282.8
487.057	1379.11
491.051	1542.77
495.043	1546.8
499.032	1777.15
503.02	1836.8
507.007	2109.69
510.991	2841.85
514.973	3930.3
518.954	6032.03
522.933	10198
526.91	18837.2
530.885	35503.6
534.858	50455.2
538.829	35683
542.799	16982.9
546.766	8962.64
550.732	5601.84
554.696	3905.22
558.658	2889.75
562.618	2329.42
566.576	1942.75
570.533	1509.47
574.488	1122.73
578.44	785.104
582.391	657.591
586.341	524.255
590.288	349.842
594.233	388.657
598.177	251.135
602.119	105.713
606.059	201.374
609.997	59.111
613.933	28.918
617.868	21.055
621.801	75.587
625.731	153.974
629.66	131.189
633.588	138.674
637.513	95.554
641.437	129.676
645.358	279.663
649.278	423.964
653.196	544.886
657.113	689.127
661.027	668.691
664.94	841.507
668.851	1356.6
672.76	1863.01
676.667	1750.18
680.572	1175.02
684.476	751.872
688.378	588.931
692.278	468.24
696.176	693.15
700.072	892.811
703.967	1383.29
707.86	1531.89
711.751	1376.62
715.64	906.396
719.527	825.179
723.413	1107.44
727.297	1416.54
731.179	1470.88
735.059	981.069
738.937	763.028
742.814	556.43
746.689	583.584
750.562	744.476
754.433	964.126
758.303	793.529
762.17	716.682
766.036	583.58
769.901	439.156
773.763	241.094
777.624	105.402
781.482	69.964
785.339	48.29
789.195	91.669
793.048	152.521
796.9	6.638
800.75	13.036
804.598	113.173
808.445	8.866
812.289	3.739
816.132	1.849
819.973	53.4
823.813	35.481
827.65	8.895
831.486	23.952
835.32	84.349
839.152	38.527
842.983	107.394
846.812	167.982
850.639	205.284
854.464	161.31
858.288	88.1
862.11	70.645
865.93	174.916
869.748	133.952
873.564	202.742
877.379	190.28
881.192	156.612
885.004	134.731
888.813	116.592
892.621	173.213
896.427	191.639
900.232	273.837
904.034	210.81
907.835	298.555
911.634	425.078
915.432	432.386
919.227	721.478
923.021	1225.36
926.813	2540.03
930.604	3763.9
934.393	2406.67
938.18	1377.23
941.965	708.49
945.749	560.898
949.53	454.546
953.311	341.627
957.089	464.376
960.866	403.287
964.641	642.346
968.414	1340.85
972.185	2022.67
975.955	1257.49
979.723	647.499
983.49	635.353
987.254	952.701
991.017	1478.52
994.779	2406.1
998.538	2391.95
1002.3	1788.93
1006.05	1428.16
1009.81	1639.25
1013.56	2366.34
1017.31	3973.48
1021.06	7498.15
1024.81	10314.7
1028.55	6526.36
1032.3	3300.6
1036.04	2381.69
1039.78	2157.95
1043.52	1803.06
1047.26	1371.08
1050.99	1582.21
1054.73	1626.88
1058.46	2263.51
1062.19	2866.62
1065.92	3006.1
1069.65	2158.57
1073.37	1442.25
1077.1	1047.85
1080.82	770.917
1084.54	861.139
1088.26	977.884
1091.97	1261.58
1095.69	2007.53
1099.4	2623.8
1103.12	2340.57
1106.83	1716.3
1110.54	1229.4
1114.24	988.508
1117.95	696.037
1121.65	488.255
1125.35	462.63
1129.06	271.089
1132.75	180.525
1136.45	79.901
1140.15	77.102
1143.84	70.636
1147.53	36.381
1151.22	21.693
1154.91	22.547
1158.6	28
1162.28	30.886
1165.97	75.382
1169.65	156.404
1173.33	140.027
1177.01	76.955
1180.69	35.376
1184.36	104.396
1188.04	1.712
1191.71	73.015
1195.38	25.446
1199.05	70.821
1202.71	94.223
1206.38	201.62
1210.04	166.772
1213.71	94.848
1217.37	101.889
1221.03	159.384
1224.68	145.669
1228.34	20.043
1231.99	45.133
1235.65	195.435
1239.3	128.335
1242.95	172.174
1246.59	46.94
1250.24	84.622
1253.88	124.174
1257.53	117.414
1261.17	20.514
1264.81	78.545
1268.45	120.959
1272.08	80.106
1275.72	52.955
1279.35	80.604
1282.98	41.003
1286.61	2.856
1290.24	140.141
1293.87	0.794
1297.49	60.178
1301.11	20.617
1304.73	13.491
1308.36	8.217
1311.97	37.847
1315.59	14.018
1319.2	191.892
1322.82	42.854
1326.43	4.466
1330.04	76.081
1333.65	50.977
1337.26	132.401
1340.86	68.562
1344.47	96.801
1348.07	57.239
1351.67	23.54
1355.27	21.213
1358.87	53.38
1362.46	99.528
1366.06	246.297
1369.65	187.354
1373.24	246.724
1376.83	162.555
1380.42	156.539
1384	217.593
1387.59	268.64
1391.17	175.017
1394.75	101.747
1398.33	205.808
1401.91	163.956
1405.49	311.953
1409.06	270.643
1412.64	114.216
1416.21	233.508
1419.78	164.066
1423.35	174.273
1426.91	160.653
1430.48	144.829
1434.05	294.9
1437.61	150.243
1441.17	259.797
1444.73	253.711
1448.29	328.544
1451.84	291.643
1455.4	384.633
1458.95	304.758
1462.5	334.15
1466.05	388.21
1469.6	92.397
1473.15	54.977
1476.69	187.206
1480.24	222.89
1483.78	128.729
1487.32	338.75
1490.86	59.233
1494.39	149.195
1497.93	182.848
1501.46	71.646
1505	243.104
1508.53	63.985
1512.06	91.254
1515.59	181.454
1519.11	0.418
