Measurement: Raman, 514 nm, depolarized, Raman Data Processed
Mineral: Scolecite
Rruff sample: R040111
Ideal chemistry: Ca(Si_3_Al_2_)O_10_3H_2_O
Locality: Bombay-Poona area, Mahahashtra Province, India
Source: National Museums of Canada
Description: Pale pink prismatic crystals in parallel or near parallel aggregates
Measured chemistry: Ca_0.98_(Si_3.05_Al_1.95_)O_10_Â·3H_2_O
Pin_id: L00237
Orientation: Laser parallel to a* (1 0 0). Fiducial mark perpendicular to laser is parallel to b [0 1 0]
Raman shift (cm-1)	intensity
75.239	0
79.427	206.924
83.614	1567.44
87.798	3491.29
91.981	6795.98
96.161	6902.17
100.34	5325.12
104.516	5475.12
108.691	5873.05
112.864	4328.8
117.034	4848.55
121.203	1686.59
125.369	1407.18
129.534	1909.73
133.696	2171.76
137.857	5719.14
142.016	5783.11
146.172	3023.34
150.327	3713.61
154.48	7450.51
158.63	6879.96
162.779	3799.72
166.926	2216.63
171.07	2231.16
175.213	3099.74
179.354	4240.5
183.493	5203.43
187.63	4614.87
191.765	2892.04
195.898	1764.17
200.029	1732.87
204.158	1743.38
208.285	1316.65
212.41	738.632
216.533	1205.18
220.654	1656.91
224.773	758.719
228.891	255.353
233.006	120.588
237.119	333.624
241.231	477.052
245.34	408.104
249.448	35.333
253.553	727.951
257.657	724.985
261.758	290.813
265.858	394.361
269.956	878.876
274.052	560.849
278.146	1037.88
282.237	2235.67
286.327	2060.83
290.416	1349.19
294.502	418.901
298.586	51.26
302.668	85.627
306.749	2.545
310.827	81.039
314.903	105.234
318.978	179.094
323.051	135.344
327.121	333.677
331.19	73.764
335.257	544.919
339.322	855.948
343.385	1060.83
347.446	876.556
351.505	764.125
355.563	431.946
359.618	372.151
363.672	227.148
367.723	285.964
371.773	159.261
375.821	17.32
379.866	73.999
383.91	83.227
387.952	221.991
391.992	341.2
396.031	796.949
400.067	995.474
404.101	1585.26
408.134	1594.12
412.165	772.247
416.193	570.093
420.22	624.868
424.245	1288.49
428.268	2311.9
432.289	3570.06
436.309	2800.93
440.326	1506.58
444.342	1049.95
448.355	1240.88
452.367	1489.91
456.377	1531.07
460.385	1110.2
464.391	804.658
468.395	573.66
472.398	908.729
476.398	777.336
480.397	1160.56
484.394	1791.4
488.389	2320.05
492.382	2481.63
496.373	2260.39
500.362	2005.96
504.349	1753.37
508.335	1961.28
512.319	2371.12
516.3	3630.07
520.28	5678.8
524.259	10215.1
528.235	20387.6
532.209	34648.9
536.182	33358.5
540.152	17754.8
544.121	8624.41
548.088	4836.1
552.053	2774.14
556.017	2098.51
559.978	1469.99
563.938	1104.82
567.895	1159.78
571.851	917.852
575.805	728.992
579.758	651.572
583.708	661.635
587.657	403.207
591.603	248.365
595.548	256.258
599.491	228.023
603.432	161.635
607.372	78.934
611.309	203.828
615.245	152.682
619.179	355.102
623.111	827.512
627.041	1085.86
630.97	577.238
634.896	27.336
638.821	260.516
642.744	646.545
646.665	1117.53
650.584	875.705
654.502	937.012
658.418	529.986
662.331	139.098
666.244	202.283
670.154	190.529
674.062	107.746
677.969	174.541
681.874	201.92
685.777	351.184
689.678	586.387
693.577	719.609
697.475	487.986
701.371	967.508
705.265	1662.04
709.157	1375.48
713.047	574.807
716.936	296.014
720.823	125.096
724.708	22.971
728.591	62.482
732.472	17.244
736.352	229.775
740.23	24.627
744.106	310.309
747.98	357.854
751.853	613.271
755.723	585.471
759.592	733.5
763.459	591.012
767.325	139.963
771.188	68.855
775.05	98.541
778.91	26.029
782.768	58.934
786.625	147.389
790.479	95.809
794.332	28.328
798.183	162.211
802.033	85.693
805.88	137.146
809.726	10.461
813.57	74.707
817.413	40.34
821.253	61.73
825.092	109.533
828.929	280.801
832.764	309.141
836.598	274.088
840.429	642.416
844.259	704.707
848.088	610.023
851.914	743.336
855.739	890.74
859.562	1292.38
863.383	1352.85
867.203	824.266
871.02	646.727
874.836	590.037
878.65	661.584
882.463	574.098
886.274	461.422
890.083	537.48
893.89	598.664
897.695	560.742
901.499	769.441
905.301	829.457
909.102	674.395
912.9	717.264
916.697	422.072
920.492	828.924
924.285	953.496
928.077	1317.53
931.867	2263.99
935.655	3386.97
939.442	2394.38
943.226	1197.79
947.009	1147.22
950.791	1152.64
954.57	859.035
958.348	451.801
962.124	383.941
965.899	397.586
969.671	368.617
973.442	333.424
977.211	488.396
980.979	1024.88
984.745	1944.36
988.509	1997.25
992.271	1179.48
996.032	1634.39
999.791	3092.6
1003.55	3558.98
1007.3	3498.6
1011.06	3276.2
1014.81	2147.58
1018.56	1590.24
1022.31	1578.85
1026.06	1714.83
1029.8	2096.61
1033.55	2775.34
1037.29	2456.56
1041.03	3043.92
1044.77	4528.51
1048.5	4988.48
1052.24	2380.05
1055.97	1651.56
1059.7	998.004
1063.43	720.936
1067.16	1016.2
1070.89	835.553
1074.61	733.891
1078.34	747.334
1082.06	1000.31
1085.78	1117.49
1089.5	1033.68
1093.21	1070.89
1096.93	1508.1
1100.64	1299.24
1104.35	1301.45
1108.06	691.697
1111.77	513.818
1115.48	243.492
1119.18	22.268
1122.89	424.828
1126.59	494.15
1130.29	452.203
1133.99	34.033
1137.68	371.268
1141.38	51.213
1145.07	49.223
1148.76	107.752
1152.45	47.734
1156.14	9.135
1159.83	63.338
1163.51	111.391
1167.19	381.365
1170.88	96.951
1174.56	323.26
1178.23	256.229
1181.91	227.725
1185.59	299.777
1189.26	162.965
1192.93	58.914
1196.6	213.756
1200.27	274.357
1203.94	344.836
1207.6	398.398
1211.27	431.17
1214.93	306.42
1218.59	272.893
1222.25	67.068
1225.9	329.428
1229.56	484.111
1233.21	488.576
1236.86	794.77
1240.51	780.68
1244.16	531.615
1247.81	531.994
1251.45	683.84
1255.1	592.062
1258.74	432.064
1262.38	481.322
1266.02	624.137
1269.66	443.963
1273.29	703.75
1276.93	455.301
1280.56	628.352
1284.19	392.162
1287.82	554.08
1291.45	382.076
1295.07	572.725
1298.7	738.773
1302.32	225.104
1305.94	438.305
1309.56	603.168
1313.18	426.086
1316.8	815.289
1320.41	754.707
1324.02	616.395
1327.63	324
1331.24	495.58
1334.85	99.553
1338.46	87.016
1342.06	8.727
1345.67	119.104
1349.27	206.699
1352.87	468.336
1356.47	276.279
1360.07	466.135
1363.66	418.777
1367.25	420.551
1370.85	295.387
1374.44	338.514
1378.03	413.781
1381.61	451.787
1385.2	500.631
1388.78	419.953
1392.37	214.99
1395.95	412.107
1399.53	253.549
1403.1	216.275
1406.68	26.584
1410.26	1.512
1413.83	258.799
1417.4	110.918
1420.97	92.227
