Measurement: Raman, 514 nm, depolarized, Raman Data Processed
Mineral: Senegalite
Rruff sample: R050239
Ideal chemistry: Al_2_PO_4_(OH)_3_H_2_O
Locality: Kourondicko iron ore (magnetite) deposit, Faleme River Basin, Senegal
Source: Marcus Origlieri
Description: Colorless prismatic crystals
Measured chemistry: Al_2.00_P_1.00_O_4_(OH)_3_Â·H_2_O
Pin_id: M00152
Orientation: Laser parallel to c* (0 0 1). Fiducial mark perpendicular to laser is parallel to a [1 0 0]
Raman shift (cm-1)	intensity
95.948	0
100.883	487.297
105.815	373.277
110.744	157.492
115.671	159.606
120.596	505.525
125.519	1288.13
130.439	2230.99
135.356	2167.56
140.271	898.277
145.184	614.41
150.094	401.299
155.002	483.848
159.908	544.85
164.811	705.012
169.711	581.346
174.61	467.94
179.505	444.773
184.399	819.578
189.29	1088.5
194.178	1553.7
199.064	893.231
203.948	756.084
208.829	501.225
213.708	359.6
218.585	588.102
223.459	1001.44
228.33	1664.45
233.199	2022.46
238.066	1774.7
242.93	1198.28
247.792	350.492
252.651	89.5703
257.508	43.5781
262.363	250.769
267.215	132.043
272.064	155.803
276.912	235.094
281.756	369.613
286.598	595.129
291.438	949.369
296.276	1585.49
301.111	2075.1
305.943	1662.23
310.773	1032.81
315.601	1101.8
320.426	736.106
325.248	370.603
330.068	368.328
334.886	39.207
339.701	36.7832
344.514	42.8047
349.324	303.141
354.132	423.084
358.938	743.041
363.741	832.981
368.541	761.639
373.339	435.172
378.135	270.211
382.928	6.99805
387.718	3.98633
392.506	64.3125
397.292	37.168
402.075	113.144
406.856	13.3633
411.634	446.834
416.41	461.324
421.183	399.789
425.954	649.193
430.722	968.51
435.488	1508.71
440.251	1534.76
445.012	1449
449.77	1199.9
454.526	1085.06
459.28	1173.94
464.03	1338.97
468.779	1982.84
473.525	3537.42
478.268	3736.75
483.009	2887.07
487.747	1170.39
492.483	721.168
497.217	870.262
501.948	820.906
506.676	200.957
511.402	132.758
516.125	114.012
520.846	64.4727
525.565	72.0703
530.281	81.0781
534.994	489.203
539.705	539.18
544.413	822.496
549.119	626.969
553.822	683.356
558.523	628.141
563.222	569.328
567.917	171.918
572.611	145.828
577.302	154.035
581.99	273.695
586.676	150.453
591.359	69.2422
596.04	47.6836
600.718	123.195
605.394	73.6328
610.067	473.336
614.737	334.769
619.406	486.676
624.071	646.062
628.734	910.852
633.395	657.531
638.053	439.312
642.708	526.074
647.361	392.715
652.012	313.891
656.66	48.0547
661.305	186.152
665.948	323.43
670.588	635.578
675.226	751.832
679.861	416.84
684.494	273.457
689.124	361.082
693.752	642.023
698.377	1020.01
702.999	969.719
707.619	545.445
712.237	499.519
716.852	259.492
721.464	138.777
726.074	242.32
730.681	87.168
735.286	248.648
739.888	377.199
744.488	77.9883
749.085	322.562
753.68	14.6641
758.272	17.5977
762.861	97.4531
767.448	69.9023
772.033	120.234
776.614	151.551
781.194	72.5742
785.77	63.2578
790.345	213.16
794.916	309.262
799.485	204.641
804.052	282.383
808.616	408.082
813.177	243.34
817.736	564.785
822.292	386.914
826.846	396.973
831.397	592.5
835.945	122.195
840.491	479.34
845.035	467.801
849.576	269.332
854.114	409.602
858.65	427.812
863.183	195.043
867.713	250.266
872.241	488.375
876.767	555.586
881.29	404.422
885.81	724.617
890.328	343.102
894.843	475.199
899.356	460.418
903.866	334.82
908.373	47.9531
912.878	379.555
917.38	174.828
921.88	28.9258
926.377	185.984
930.872	190.098
935.364	223.414
939.853	14.9414
944.34	16.4844
948.824	285.445
953.306	362.344
957.785	333.938
962.261	30.1328
966.735	75.9727
971.207	293.617
975.675	54.6836
980.141	301.344
984.605	46.2266
989.066	575.883
993.524	607.469
997.98	466.109
1002.43	394.496
1006.88	500.59
1011.33	1044.72
1015.78	1340.34
1020.22	1974.52
1024.66	2910.17
1029.1	2483.35
1033.53	1634.7
1037.97	971.051
1042.4	788.387
1046.82	575.246
1051.25	656.012
1055.67	1005.58
1060.09	1595.56
1064.51	1565.75
1068.92	1432.44
1073.33	1735.65
1077.74	1566.93
1082.15	1092.55
1086.55	611.074
1090.95	232.469
1095.35	450.133
1099.75	49.9961
1104.14	135.086
1108.53	340.043
1112.92	160.777
1117.31	135.945
1121.69	369.125
1126.07	382.289
1130.45	210.992
1134.82	299.203
1139.19	501.316
1143.57	675.266
1147.93	789.062
1152.3	899.727
1156.66	494.269
1161.02	434.715
1165.38	297.062
1169.73	201.398
1174.08	433.68
1178.43	454.922
1182.78	514.141
1187.12	352.488
1191.46	355.984
1195.8	126.113
1200.14	272.434
1204.47	74.4336
1208.8	253.375
1213.13	295.445
1217.46	330.602
1221.78	398.832
1226.1	151.773
1230.42	330.023
1234.73	332.871
1239.04	479.379
1243.35	656.082
1247.66	50.1211
1251.97	276.769
1256.27	266.656
1260.57	99.8672
1264.86	251.59
1269.16	203.488
1273.45	421.582
1277.74	541.879
1282.03	490.387
1286.31	534.141
1290.59	228.156
1294.87	379.449
1299.14	158.035
1303.42	707.934
1307.69	619.141
1311.95	436.672
1316.22	270.59
1320.48	707.91
1324.74	318.641
1329	564.332
1333.26	184.082
1337.51	1072.38
1341.76	621.031
1346	878.195
1350.25	741.051
1354.49	612.973
1358.73	777.422
1362.96	736.051
1367.2	764.75
1371.43	336.227
1375.66	687.738
1379.88	496.039
1384.11	401.828
1388.33	419.133
1392.54	627.969
1396.76	219.352
1400.97	410.281
1405.18	412.644
1409.39	264.637
1413.59	311.359
1417.8	590.953
1421.99	274.16
1426.19	296.008
1430.38	440.387
1434.58	198.012
1438.77	145.984
1442.95	68.4414
1447.13	472.574
1451.32	271.66
1455.49	105.852
1459.67	210.492
1463.84	183.309
1468.01	262.309
1472.18	277.914
1476.35	272.562
1480.51	260.672
1484.67	166.863
1488.83	111.012
