Measurement: Raman, 514 nm, depolarized, Raman Data Processed
Mineral: Senegalite
Rruff sample: R050239
Ideal chemistry: Al_2_PO_4_(OH)_3_H_2_O
Locality: Kourondicko iron ore (magnetite) deposit, Faleme River Basin, Senegal
Source: Marcus Origlieri
Description: Colorless prismatic crystals
Measured chemistry: Al_2.00_P_1.00_O_4_(OH)_3_Â·H_2_O
Pin_id: M00389
Orientation: Laser parallel to -b* (0 -1 0). Fiducial mark perpendicular to laser is parallel to -c [0 0 -1]
Raman shift (cm-1)	intensity
114.44	0
119.365	11.8457
124.288	158.727
129.209	916.189
134.127	1274.51
139.043	774.215
143.956	696.012
148.867	372.182
153.775	459.594
158.681	495.254
163.585	734.557
168.486	419.623
173.385	575.887
178.282	522.939
183.176	823.588
188.067	1046.75
192.956	1399.72
197.843	1415.49
202.727	1355.53
207.609	637.084
212.489	662.285
217.366	525.172
222.24	663.754
227.112	910.019
231.982	1823.93
236.849	1431.46
241.714	885.615
246.577	474.906
251.437	326.269
256.294	347.435
261.149	485.789
266.002	620.34
270.852	527.207
275.7	799.115
280.545	513.768
285.388	866.711
290.229	1235.64
295.067	1655.33
299.902	1216.61
304.735	883.342
309.566	500.43
314.394	859.791
319.22	719.356
324.043	858.064
328.864	1084.86
333.682	677.688
338.498	403.502
343.311	6.29883
348.122	58.0781
352.931	182.822
357.737	349.518
362.54	745.144
367.341	851.635
372.14	567.674
376.936	549.328
381.73	341.68
386.521	218.012
391.31	27.3418
396.096	84.0781
400.88	7.42578
405.661	103.65
410.44	47.3906
415.216	147.484
419.99	341.33
424.761	308.1
429.53	904.93
434.297	1019.27
439.061	1527.63
443.822	1362.82
448.581	1075.78
453.337	787.523
458.091	963.006
462.843	1192.21
467.592	1787.17
472.338	2856.85
477.082	3376.46
481.824	2787.88
486.563	1263.24
491.3	747.391
496.034	288.273
500.765	246.859
505.494	38.0723
510.221	66.0957
514.945	64.1621
519.666	11.541
524.385	3.36328
529.102	319.156
533.816	273.094
538.527	413.121
543.236	564.1
547.943	474.744
552.647	869.957
557.348	546.021
562.047	663.789
566.744	618.012
571.438	504.648
576.129	360.644
580.818	249.305
585.504	395.951
590.188	102.941
594.87	319.156
599.549	497.643
604.225	550.352
608.899	800.375
613.57	1137.59
618.239	1298.39
622.905	1015.31
627.569	1137.67
632.23	741.606
636.889	432.574
641.545	595.363
646.198	649.254
650.849	242.387
655.498	386.969
660.144	349.125
664.787	220.363
669.428	250.406
674.067	444.035
678.703	290.481
683.336	140.844
687.967	185.848
692.595	282.016
697.221	564.008
701.844	591.301
706.465	477.172
711.083	510.965
715.698	405.801
720.311	111.773
724.922	226.441
729.53	125.801
734.135	241.398
738.738	271.348
743.338	346.32
747.936	278.449
752.531	89.0391
757.124	6.78516
761.714	60.5391
766.302	4.73047
770.887	8.26562
775.469	133.508
780.049	70.5156
784.626	35.707
789.201	239.738
793.773	48.0117
798.343	290.246
802.91	50.8633
807.475	462.766
812.037	182.941
816.596	19.7461
821.153	221.504
825.707	339.543
830.259	408.562
834.808	199.488
839.355	82.5312
843.899	430.293
848.441	247.332
852.98	467.328
857.516	485.379
862.05	517.969
866.581	393.922
871.11	344.309
875.636	268.445
880.159	292.992
884.68	337.793
889.199	569.59
893.714	383.508
898.228	387.348
902.738	328.516
907.246	252.668
911.752	405.125
916.255	228.004
920.755	376.293
925.253	284.426
929.748	323.766
934.241	48.5
938.731	293.402
943.218	143.633
947.703	214.973
952.186	59.668
956.665	328.262
961.142	291.144
965.617	62.7656
970.089	49.2656
974.558	181.004
979.025	280.832
983.489	326.062
987.951	194.223
992.41	389.035
996.866	633.633
1001.32	480.816
1005.77	494.152
1010.22	1050.15
1014.67	1488.78
1019.11	1953.51
1023.55	2954.93
1027.99	3601.25
1032.42	3225.69
1036.86	2233.16
1041.29	1529.08
1045.72	761.891
1050.14	638.309
1054.56	961.723
1058.98	582.703
1063.4	1178.15
1067.82	1345.28
1072.23	790.762
1076.64	822.285
1081.05	565.106
1085.45	667.512
1089.85	244.664
1094.25	229.965
1098.65	62.5039
1103.04	46.625
1107.43	197.469
1111.82	3.94141
1116.21	51.7969
1120.59	286.125
1124.97	300.863
1129.35	292.879
1133.73	307.273
1138.1	235.594
1142.47	367.996
1146.84	609.18
1151.21	484.297
1155.57	527.356
1159.93	729.816
1164.29	287.793
1168.64	490.773
1172.99	129.629
1177.34	274.199
1181.69	161.797
1186.04	200.34
1190.38	30.9961
1194.72	40.4141
1199.05	54.8711
1203.39	155.293
1207.72	322.859
1212.05	126.609
1216.37	19.6133
1220.7	231.164
1225.02	275.973
1229.34	158.324
1233.65	135.766
1237.97	110.25
1242.28	246.223
1246.59	97.7852
1250.89	3.96094
1255.19	104.606
1259.49	229.555
1263.79	540.902
1268.09	227.262
1272.38	118.957
1276.67	500.625
1280.95	418.438
1285.24	59.4023
1289.52	333.516
1293.8	606.082
1298.08	214.531
1302.35	513.414
1306.62	132.734
1310.89	237.719
1315.15	386.453
1319.42	581.574
1323.68	307.043
1327.94	456.758
1332.19	290.566
1336.44	360.676
1340.69	544.984
1344.94	119.16
1349.19	613.883
1353.43	476.023
1357.67	242.441
1361.9	449.074
1366.14	327.848
1370.37	342.293
1374.6	579.34
1378.83	434.527
1383.05	329.164
1387.27	302.82
1391.49	145.668
1395.7	192.934
1399.92	165.25
1404.13	192.09
1408.34	314.285
1412.54	541.508
1416.74	560.172
1420.94	41.707
1425.14	40.4219
1429.34	310.492
1433.53	337.109
1437.72	412.863
1441.9	118.527
1446.09	308.285
1450.27	296.481
1454.45	177.562
1458.63	401.129
1462.8	414.203
1466.97	536.898
1471.14	174.211
1475.31	386.762
1479.47	495.754
1483.63	329.426
1487.79	609.441
1491.94	199.125
1496.09	130.453
1500.24	181.352
1504.39	393.25
1508.54	265.676
1512.68	456.055
1516.82	286.481
1520.95	244.379
1525.09	392.254
1529.22	334.231
1533.35	267.41
1537.47	560.211
1541.6	299.258
1545.72	453.32
1549.83	386.305
1553.95	153.836
1558.06	401.981
1562.17	206.371
1566.28	256.137
1570.38	151.664
