Measurement: Raman, 514 nm, depolarized, Raman Data Processed
Mineral: Senegalite
Rruff sample: R050239
Ideal chemistry: Al_2_PO_4_(OH)_3_H_2_O
Locality: Kourondicko iron ore (magnetite) deposit, Faleme River Basin, Senegal
Source: Marcus Origlieri
Description: Colorless prismatic crystals
Measured chemistry: Al_2.00_P_1.00_O_4_(OH)_3_Â·H_2_O
Pin_id: M00172
Orientation: Laser parallel to -a* (-1 0 0). Fiducial mark perpendicular to laser is parallel to b [0 1 0]
Raman shift (cm-1)	intensity
102.116	0
107.047	18.0547
111.976	25.1641
116.903	247.416
121.827	880.908
126.749	2215.45
131.668	4198.95
136.585	2450.78
141.5	907.113
146.412	826.488
151.321	591.641
156.229	686.229
161.134	809.383
166.036	1316.47
170.936	510.33
175.834	810.504
180.729	759.146
185.622	950.438
190.512	1029.53
195.4	1151.71
200.286	1381.14
205.169	1691.87
210.049	678.885
214.928	482.174
219.803	523.686
224.677	709.377
229.548	1370.2
234.416	2141.12
239.282	1775.92
244.146	1473.25
249.007	588.848
253.866	313.039
258.722	441.738
263.576	339.09
268.427	246.234
273.276	579.797
278.123	910.324
282.967	816.623
287.809	1544.32
292.648	2756.23
297.485	2666.23
302.319	2573.22
307.151	1515.1
311.98	947.811
316.807	1035.29
321.631	1069.44
326.454	1533.19
331.273	1472.52
336.09	1008.44
340.905	396.92
345.717	353.957
350.527	280.522
355.334	217.602
360.139	132.178
364.941	605.227
369.741	20.2812
374.538	6.48633
379.333	214.502
384.126	39.9023
388.916	30.8359
393.703	91.8633
398.488	56.3789
403.271	11.4082
408.051	281.238
412.828	565.281
417.603	723.684
422.376	693.064
427.146	845.449
431.914	1183.25
436.679	1957.55
441.442	2803.26
446.202	3046.47
450.96	2353.05
455.715	1780.96
460.467	1975.2
465.218	2802.76
469.965	4351.64
474.711	5573.86
479.454	5611.58
484.194	4246.62
488.932	2407.99
493.667	1219.73
498.4	622.703
503.13	423.945
507.858	397.57
512.583	533.856
517.306	298.951
522.026	225.269
526.744	12.1445
531.459	333.357
536.172	112.438
540.882	170.312
545.59	265.133
550.295	121.678
554.998	99.5606
559.698	281.66
564.396	55.2441
569.091	240.928
573.784	360.332
578.474	639.227
583.162	948.541
587.847	951.59
592.529	775.438
597.209	846.898
601.887	635.188
606.562	844.646
611.235	932.107
615.905	1198.84
620.572	1424.97
625.237	1442.33
629.9	1432.11
634.56	1440.17
639.217	1036.83
643.872	1116.28
648.524	516.549
653.174	414.606
657.821	516.566
662.466	397.617
667.108	174.93
671.748	283.973
676.385	333.969
681.02	169.113
685.652	353.016
690.281	229.664
694.908	157.18
699.533	11.6484
704.155	191.371
708.774	94.3203
713.391	1.98438
718.005	207.715
722.617	22.1914
727.226	353.008
731.833	299.156
736.437	243.816
741.039	314.59
745.638	82.8906
750.234	21.8242
754.828	75.1875
759.419	21.0938
764.008	15.3516
768.595	155.082
773.178	341.344
777.759	180.137
782.338	34.3281
786.914	188.852
791.488	156.852
796.059	97.0977
800.627	131.434
805.193	182.238
809.756	82.5742
814.317	150.301
818.875	267.797
823.431	66.4531
827.984	336.144
832.534	522.047
837.082	342.148
841.627	361.945
846.17	465.969
850.71	276.383
855.248	269.691
859.783	375.644
864.316	438.199
868.846	345.688
873.373	215.09
877.898	421.25
882.42	452.644
886.94	155.688
891.457	465.031
895.971	174.594
900.483	83.832
904.993	248.996
909.5	211.289
914.004	340.32
918.505	169.992
923.004	111.699
927.501	179.316
931.995	57.2266
936.486	64.582
940.975	88.9336
945.461	180.734
949.945	350.547
954.426	76.9648
958.904	267.539
963.38	93.9297
967.853	284.695
972.324	244.168
976.792	216.34
981.258	202.203
985.72	227.809
990.181	166.633
994.639	396.559
999.094	533.688
1003.55	579.902
1008	981.852
1012.44	801.062
1016.89	1037.08
1021.33	1349.56
1025.77	2269.8
1030.21	3034.38
1034.64	4124.92
1039.07	3620.67
1043.5	2390.12
1047.93	1512.55
1052.35	1305.59
1056.78	1571.14
1061.19	2242.72
1065.61	2639.09
1070.02	1825.37
1074.43	1322.6
1078.84	696.891
1083.25	506.332
1087.65	264.688
1092.05	261.238
1096.45	301.488
1100.85	258.484
1105.24	317.359
1109.63	182.715
1114.02	384.25
1118.4	146.941
1122.78	253.316
1127.16	217.465
1131.54	590.668
1135.92	322.957
1140.29	249.414
1144.66	593.922
1149.02	1236.7
1153.39	2301.36
1157.75	2166.13
1162.11	1046.99
1166.46	364.965
1170.82	302.062
1175.17	215.266
1179.52	305.574
1183.86	362.016
1188.21	160.586
1192.55	457.332
1196.89	136.117
1201.22	200.926
1205.55	239.07
1209.88	151.394
1214.21	65.9531
1218.54	356.465
1222.86	85.5117
1227.18	33.3594
1231.5	41.6836
1235.81	99.1758
1240.12	9.875
1244.43	265.828
1248.74	287.004
1253.04	490.504
1257.34	177.172
1261.64	190.184
1265.94	151.445
1270.23	310.875
1274.52	245.383
1278.81	114.109
1283.1	382.062
1287.38	183.281
1291.66	153.664
1295.94	472.328
1300.21	340.219
1304.48	438.344
1308.75	275.691
1313.02	417.305
1317.29	529.164
1321.55	545.207
1325.81	401.172
1330.06	518.047
1334.32	472.648
1338.57	859.469
1342.82	564.16
1347.06	513.758
1351.31	329.891
1355.55	529.856
1359.79	292.953
1364.02	353.375
1368.26	653.117
1372.49	420.883
1376.71	152.184
1380.94	71.2109
1385.16	402.07
1389.38	475.43
1393.6	100.894
1397.81	261.656
1402.02	347.766
1406.23	17.8516
1410.44	282.953
1414.64	110
1418.85	125
1423.04	182.797
1427.24	135.867
1431.43	84.5469
1435.62	349.84
1439.81	78.3242
1444	160.731
1448.18	220.66
1452.36	280.191
1456.54	187.156
1460.71	365.879
1464.89	164.047
1469.06	183.711
1473.22	358.723
1477.39	287.086
1481.55	463.68
1485.71	476.473
1489.86	257.852
1494.02	88.3945
1498.17	147.656
1502.32	85.125
1506.46	257.973
1510.61	172.648
1514.75	158.805
1518.88	123.148
1523.02	344.277
1527.15	596.16
1531.28	288.102
1535.41	407.18
1539.53	139.492
1543.66	32.1211
1547.78	129.992
1551.89	50.3789
1556.01	115.418
1560.12	19.1992
1564.23	346.09
1568.33	115.254
