Measurement: Raman, 514 nm, depolarized, Raman Data Processed
Mineral: Serandite
Rruff sample: R050261
Ideal chemistry: NaMn^2+^_2_Si_3_O_8_(OH)
Locality: Mont Saint-Hilaire, Rouville County, Quebec, Canada
Source: Marcus Origlieri
Description: Orange tabular single crystal associated with aegirine and microcline
Measured chemistry: Na_0.96_(Mn_0.92_Ca_0.06_Fe_0.01_)_2_Si_3.03_O_8_(OH)
Pin_id: L01217
Orientation: Laser parallel to (0 -1 -1). Fiducial mark perpendicular to laser is parallel to -a [-1 0 0]
Raman shift (cm-1)	intensity
93.48	0
98.416	13.6641
103.349	249.811
108.28	1701.58
113.208	1841.14
118.134	2760
123.058	3168.9
127.979	831.358
132.898	1488.21
137.814	2785.64
142.728	2120.42
147.639	180.674
152.549	64.9976
157.455	95.9707
162.359	827.193
167.261	1555.38
172.161	1788.47
177.058	949.539
181.952	627.262
186.845	335.454
191.734	355.5
196.622	873.116
201.507	1258.28
206.389	934.905
211.269	710.012
216.147	755.669
221.022	784.991
225.895	1183.67
230.765	1158.67
235.633	1158.96
240.498	971.043
245.361	451.57
250.222	303.204
255.08	792.342
259.936	1654.26
264.789	1558.28
269.64	1271.07
274.488	1107.19
279.334	1160.07
284.178	1607.61
289.019	1928.73
293.857	1743.37
298.693	1555.71
303.527	1246.63
308.358	686.183
313.187	316.887
318.013	74.2441
322.837	271.788
327.659	294.463
332.478	331.633
337.294	346.101
342.108	200.125
346.92	308.159
351.729	615.219
356.535	860.292
361.34	1095.37
366.141	1363.43
370.94	1063.47
375.737	411.477
380.531	106.452
385.323	46.6807
390.113	30.1401
394.9	77.9702
399.684	52.6782
404.466	221.174
409.245	682.681
414.022	1309.17
418.797	1667.63
423.569	1262.24
428.338	540.393
433.105	244.201
437.87	15.8877
442.632	19.249
447.391	31.0122
452.149	27.9121
456.903	285.486
461.655	560.756
466.405	463.555
471.152	166.164
475.897	65.5654
480.639	11.2188
485.378	234.708
490.116	468.613
494.85	884.571
499.582	727.579
504.312	450.429
509.039	416.238
513.764	435.063
518.486	196.878
523.206	299.621
527.923	408.366
532.638	427.261
537.35	421.161
542.059	375.503
546.766	395.231
551.471	307.72
556.173	176.944
560.873	94.874
565.57	140.485
570.264	8.21484
574.957	73.6616
579.646	45.4692
584.333	84.4053
589.018	10.5957
593.7	48.2778
598.379	85.1836
603.056	130.752
607.73	180.997
612.402	274.26
617.072	444.774
621.739	572.612
626.403	809.723
631.065	946.987
635.724	1354.51
640.381	1950.05
645.035	2867.18
649.687	4401.05
654.336	7576.52
658.983	15149
663.627	30855.2
668.268	52142.9
672.907	40599.1
677.544	17019.4
682.178	8231.12
686.809	5135.41
691.438	3879.22
696.065	4388.16
700.688	5942.8
705.31	7098.46
709.929	4629.59
714.545	2678.31
719.158	2170.11
723.77	1636.14
728.378	987.849
732.984	619.815
737.588	298.692
742.189	251.273
746.787	237.815
751.383	71.0527
755.976	59.9522
760.567	65.3574
765.155	27.6182
769.741	54.6509
774.324	26.0928
778.904	29.8648
783.482	66.7383
788.058	16.896
792.631	38.8897
797.201	73.7827
801.769	29.9653
806.334	78.4414
810.897	30.7148
815.457	13.6167
820.014	133.352
824.569	50.0073
829.122	96.4731
833.671	113.885
838.219	76.2524
842.763	167.589
847.306	160.92
851.845	298.29
856.382	290.022
860.917	418.294
865.448	404.897
869.978	446.552
874.505	457.252
879.029	346.038
883.55	478.892
888.069	819.326
892.586	1730.08
897.1	2923.42
901.611	3366.55
906.12	2290.38
910.626	1472.48
915.129	992.831
919.63	954.691
924.129	921.686
928.625	843.322
933.118	986.04
937.609	921.964
942.097	1058.72
946.582	1319.71
951.065	1864.06
955.546	2755.45
960.023	3967.24
964.499	5696.27
968.971	7307.62
973.441	8924.29
977.909	9250.3
982.374	8374.63
986.836	7307.28
991.295	6824.26
995.753	7170.6
1000.21	8018.28
1004.66	8419.32
1009.11	10213.7
1013.55	16270.3
1018	25972.5
1022.44	29787.4
1026.88	19679
1031.32	10413.6
1035.75	5999.76
1040.18	3988.48
1044.61	2786.56
1049.04	2206.18
1053.46	1828.17
1057.88	1416.4
1062.3	1175.6
1066.71	1174.11
1071.13	905.302
1075.54	821.396
1079.94	779.133
1084.35	608.601
1088.75	471.176
1093.15	455.803
1097.55	432.393
1101.94	244.781
1106.34	176.548
1110.73	153.016
1115.11	134.478
1119.5	194.594
1123.88	350.964
1128.26	270.012
1132.63	112.956
1137.01	4.57617
1141.38	36.7598
1145.75	15.7979
1150.12	22.7461
1154.48	5.35059
1158.84	19.8398
1163.2	7.97266
1167.55	36.6484
1171.91	112.824
1176.26	98.8106
1180.61	14.4443
1184.95	50.7588
1189.29	10.8291
1193.63	24.3936
1197.97	12.6309
1202.31	103.47
1206.64	53.9824
1210.97	48.0342
1215.29	122.361
1219.62	308.353
1223.94	94.9883
1228.26	104.25
1232.57	288.147
1236.89	205.677
1241.2	136.827
1245.51	229.602
1249.81	213.018
1254.12	159.045
1258.42	69.6172
1262.72	306.073
1267.01	289.704
1271.3	267.246
1275.59	163.449
1279.88	243.083
1284.17	210.832
1288.45	292.994
1292.73	395.739
1297.01	356.067
1301.28	310.438
1305.55	264.334
1309.82	284.165
1314.09	492.073
1318.35	368.743
1322.61	295.16
1326.87	296.012
1331.13	252.948
1335.38	231.388
1339.63	162.686
1343.88	189.874
1348.12	466.969
1352.37	392.56
1356.61	823.344
1360.85	553.543
1365.08	712.174
1369.31	731.34
1373.54	948.301
1377.77	872.181
1381.99	846.513
1386.22	733.332
1390.43	499.347
1394.65	457.748
1398.87	192.269
1403.08	313.8
1407.29	192.329
1411.49	130.844
1415.69	152.007
1419.89	181.523
1424.09	87.7978
1428.29	112.376
1432.48	72.4268
1436.67	236.164
1440.86	340
1445.04	212.676
1449.23	512.759
1453.4	401.281
1457.58	423.245
1461.76	472.459
1465.93	338.743
1470.1	303.117
1474.26	245.609
1478.43	182.284
1482.59	222.008
1486.75	78.707
1490.9	88.4531
1495.06	43.3799
1499.21	88.0781
1503.35	34.3369
1507.5	212.91
1511.64	92.043
1515.78	189.924
1519.92	34.9902
1524.05	170.923
1528.18	92.6807
1532.31	200.484
1536.44	176.318
1540.56	110.386
1544.69	56.6309
1548.8	102.373
1552.92	263.986
1557.03	158.096
1561.14	3.78613
1565.25	170.223
1569.36	70.7578
