Measurement: Raman, 514 nm, depolarized, Raman Data Processed
Mineral: Serandite
Rruff sample: R050261
Ideal chemistry: NaMn^2+^_2_Si_3_O_8_(OH)
Locality: Mont Saint-Hilaire, Rouville County, Quebec, Canada
Source: Marcus Origlieri
Description: Orange tabular single crystal associated with aegirine and microcline
Measured chemistry: Na_0.96_(Mn_0.92_Ca_0.06_Fe_0.01_)_2_Si_3.03_O_8_(OH)
Pin_id: L01713
Orientation: Laser parallel to -a* (-1 0 0). Fiducial mark perpendicular to laser is parallel to b [0 1 0]
Raman shift (cm-1)	intensity
93.48	0
98.416	24.0254
103.349	430.374
108.28	2623.93
113.208	1708.74
118.134	2725.36
123.058	1249.5
127.979	1770.25
132.898	3806.91
137.814	4532.51
142.728	2119.62
147.639	327.382
152.549	513.247
157.455	1524.14
162.359	2785.72
167.261	2837.31
172.161	1590.57
177.058	420.327
181.952	132.684
186.845	358.742
191.734	772.622
196.622	1021.13
201.507	1050.88
206.389	673.883
211.269	202.038
216.147	310.313
221.022	392.484
225.895	512.47
230.765	359.221
235.633	55.147
240.498	218.414
245.361	25.6904
250.222	280.953
255.08	1116.52
259.936	1698.81
264.789	1556.16
269.64	1525.15
274.488	1332.51
279.334	1265.98
284.178	1770.35
289.019	2018.58
293.857	2064.59
298.693	1689.42
303.527	1316.51
308.358	635.325
313.187	479.131
318.013	570.203
322.837	1081.73
327.659	1346.45
332.478	1205.09
337.294	763.965
342.108	762.212
346.92	969.787
351.729	1487.61
356.535	2594.64
361.34	4269.85
366.141	5099.23
370.94	3714.77
375.737	1782.43
380.531	610.13
385.323	188.991
390.113	10.0723
394.9	112
399.684	399.036
404.466	1291.32
409.245	2946.81
414.022	5101.45
418.797	5813.34
423.569	4336.11
428.338	2457.16
433.105	939.626
437.87	334.442
442.632	13.7427
447.391	155.016
452.149	136.15
456.903	145.471
461.655	357.699
466.405	228.517
471.152	35.271
475.897	93.8071
480.639	237.197
485.378	683.463
490.116	1533.64
494.85	1667.77
499.582	816.96
504.312	514.18
509.039	697.327
513.764	442.394
518.486	624.36
523.206	1062.25
527.923	1259.53
532.638	1137.23
537.35	1028.65
542.059	753.852
546.766	734.738
551.471	411.236
556.173	194.319
560.873	284.964
565.57	116.136
570.264	143.698
574.957	143.661
579.646	143.976
584.333	63.2324
589.018	7.28516
593.7	44.6938
598.379	34.1768
603.056	119.297
607.73	240.917
612.402	307.093
617.072	519.114
621.739	597.669
626.403	816.442
631.065	1180.69
635.724	1890.21
640.381	2552.34
645.035	4045.38
649.687	6823.2
654.336	13161.6
658.983	27826.1
663.627	48810.9
668.268	49846.1
672.907	25252.5
677.544	11491.4
682.178	6451.59
686.809	4319.53
691.438	3626.61
696.065	3999.87
700.688	4963.9
705.31	4181.76
709.929	2976.3
714.545	2521.05
719.158	2582.97
723.77	1647.11
728.378	942.954
732.984	561.028
737.588	495.712
742.189	285.076
746.787	272.627
751.383	13.144
755.976	56.8154
760.567	112.643
765.155	35.5894
769.741	49.3648
774.324	1.48389
778.904	33.9297
783.482	42.5024
788.058	48.8428
792.631	2.10449
797.201	93.5762
801.769	74.5518
806.334	9.95605
810.897	4.28613
815.457	0.585938
820.014	181.59
824.569	31.8887
829.122	68.5752
833.671	113.251
838.219	60.2305
842.763	66.2627
847.306	73.8682
851.845	187.043
856.382	125.84
860.917	80.4121
865.448	139.803
869.978	167.123
874.505	318.231
879.029	473.05
883.55	844.625
888.069	1394.86
892.586	2722.99
897.1	4182.93
901.611	3667.09
906.12	2242.41
910.626	1442.12
915.129	946.149
919.63	771.218
924.129	769.857
928.625	772.151
933.118	771.398
937.609	746.796
942.097	1032.86
946.582	1490.15
951.065	2173.87
955.546	3391.27
960.023	4758.62
964.499	6968.79
968.971	9584.06
973.441	12558.4
977.909	14803.4
982.374	13126.2
986.836	9461.67
991.295	8097.91
995.753	7626.67
1000.21	8092.56
1004.66	8667.77
1009.11	11064.6
1013.55	17733.7
1018	25932.7
1022.44	25629.4
1026.88	16920.8
1031.32	9506.61
1035.75	5498.19
1040.18	3558.09
1044.61	2454.92
1049.04	1901.13
1053.46	1551.12
1057.88	1233.56
1062.3	1091.7
1066.71	829.486
1071.13	788.119
1075.54	593.664
1079.94	545.394
1084.35	317.743
1088.75	369.673
1093.15	169.105
1097.55	185.401
1101.94	185.136
1106.34	93.9277
1110.73	162.674
1115.11	39.3662
1119.5	401.687
1123.88	609.467
1128.26	351.045
1132.63	162.326
1137.01	132.284
1141.38	83.7188
1145.75	165.902
1150.12	55.4639
1154.48	45.1719
1158.84	115.814
1163.2	38.1143
1167.55	11.1963
1171.91	74.6279
1176.26	119.292
1180.61	12.6787
1184.95	15.1748
1189.29	39.9023
1193.63	67.4551
1197.97	76.6406
1202.31	110.627
1206.64	48.4228
1210.97	90.3955
1215.29	269.405
1219.62	244.103
1223.94	155.054
1228.26	95.0557
1232.57	184.962
1236.89	301.69
1241.2	240.778
1245.51	240.923
1249.81	200.891
1254.12	149.148
1258.42	122.031
1262.72	59.251
1267.01	279.986
1271.3	154.425
1275.59	36.0391
1279.88	90.1836
1284.17	187.434
1288.45	189.273
1292.73	225.504
1297.01	223.727
1301.28	107.383
1305.55	135.578
1309.82	23.7656
1314.09	223.867
1318.35	375.945
1322.61	7.47656
1326.87	275.977
1331.13	187.975
1335.38	307.377
1339.63	378.969
1343.88	284.486
1348.12	267.869
1352.37	279.842
1356.61	404.949
1360.85	412.94
1365.08	476.959
1369.31	529.426
1373.54	676.396
1377.77	477.475
1381.99	434.746
1386.22	315.043
1390.43	238.545
1394.65	209.59
1398.87	153.631
1403.08	144.641
1407.29	134.406
1411.49	5.93359
1415.69	114.551
1419.89	93.4356
1424.09	210.65
1428.29	21.0352
1432.48	17.8828
1436.67	115.557
1440.86	31.7969
1445.04	101.723
1449.23	144.09
1453.4	75.4473
1457.58	56.9219
1461.76	304.379
1465.93	347.387
1470.1	156.006
1474.26	222.529
1478.43	144.371
1482.59	348
1486.75	221.352
1490.9	236.607
1495.06	285.635
1499.21	210.816
1503.35	314.057
1507.5	255.377
1511.64	288.432
1515.78	291.113
1519.92	218.268
1524.05	278.127
1528.18	323.555
1532.31	294.607
1536.44	267.07
1540.56	132.957
1544.69	305.818
1548.8	235.707
1552.92	181.223
1557.03	366.84
1561.14	72.8144
1565.25	69.6602
1569.36	63.4824
