Measurement: Raman, 514 nm, depolarized, Raman Data Processed
Mineral: Serandite
Rruff sample: R050261
Ideal chemistry: NaMn^2+^_2_Si_3_O_8_(OH)
Locality: Mont Saint-Hilaire, Rouville County, Quebec, Canada
Source: Marcus Origlieri
Description: Orange tabular single crystal associated with aegirine and microcline
Measured chemistry: Na_0.96_(Mn_0.92_Ca_0.06_Fe_0.01_)_2_Si_3.03_O_8_(OH)
Pin_id: L01881
Orientation: Laser parallel to (1 1 0). Fiducial mark perpendicular to laser is parallel to -c [0 0 -1]
Raman shift (cm-1)	intensity
93.48	0
98.416	5.80762
103.349	252.027
108.28	1222.96
113.208	1516.83
118.134	2482.34
123.058	1934.87
127.979	478.932
132.898	1423.63
137.814	3108.5
142.728	2913.73
147.639	618.728
152.549	55.3638
157.455	319.267
162.359	1365.33
167.261	2325.94
172.161	2661.77
177.058	1271.64
181.952	821.006
186.845	652.043
191.734	1006.8
196.622	1298.3
201.507	729.439
206.389	247.331
211.269	0.799805
216.147	4.69531
221.022	74.9995
225.895	76.6948
230.765	385.595
235.633	634.506
240.498	507.273
245.361	275.991
250.222	303.376
255.08	825.812
259.936	1600.71
264.789	1411.93
269.64	872.203
274.488	753.321
279.334	831.109
284.178	1240.48
289.019	1624.37
293.857	1816.73
298.693	1885.5
303.527	1633.2
308.358	933.377
313.187	828.754
318.013	756.384
322.837	1026.24
327.659	1553.29
332.478	1508.55
337.294	802.977
342.108	377.576
346.92	259.32
351.729	469.174
356.535	1073.11
361.34	2198.27
366.141	3126.26
370.94	2476.55
375.737	1039.82
380.531	220.167
385.323	52.3926
390.113	194.084
394.9	28.6123
399.684	163.63
404.466	559.043
409.245	1392.61
414.022	2814.3
418.797	3697.1
423.569	3311.01
428.338	1892.99
433.105	838.201
437.87	345.485
442.632	7.3418
447.391	45.2466
452.149	15.5771
456.903	101.329
461.655	358.929
466.405	455.544
471.152	496.17
475.897	620.802
480.639	833.45
485.378	1466.15
490.116	2461.92
494.85	3152.73
499.582	2205.61
504.312	1379.63
509.039	953.846
513.764	755.4
518.486	748.248
523.206	1197.43
527.923	1461.56
532.638	1031.15
537.35	798.301
542.059	832.628
546.766	679.228
551.471	543.844
556.173	393.478
560.873	233.1
565.57	196.684
570.264	118.22
574.957	23.6875
579.646	121.039
584.333	68.0718
589.018	21.2188
593.7	38.6773
598.379	38.2285
603.056	103.957
607.73	95.4043
612.402	153.165
617.072	314.062
621.739	410.114
626.403	683.65
631.065	1626.73
635.724	1306.49
640.381	2064.99
645.035	2878.72
649.687	4647.41
654.336	8164.13
658.983	16865
663.627	34879.1
668.268	53267.6
672.907	37316.5
677.544	15606.1
682.178	7869.56
686.809	5014.28
691.438	3889.22
696.065	4345.07
700.688	6025.39
705.31	6550.92
709.929	4300.33
714.545	2463.17
719.158	1921.85
723.77	1535.11
728.378	854.158
732.984	570.968
737.588	378.966
742.189	236.783
746.787	100.248
751.383	149.352
755.976	36.103
760.567	2.44434
765.155	4.29492
769.741	42.1084
774.324	12.5264
778.904	54.8023
783.482	6.54394
788.058	73.4009
792.631	72.2192
797.201	61.1094
801.769	56.9902
806.334	7.55762
810.897	38.5727
815.457	26.2637
820.014	37.4707
824.569	22.1182
829.122	96.8384
833.671	19.584
838.219	0.60498
842.763	33.5073
847.306	91.0454
851.845	141.9
856.382	41.4595
860.917	65.3091
865.448	104.953
869.978	232.435
874.505	313.851
879.029	302.123
883.55	540.13
888.069	984.08
892.586	1839.49
897.1	3164.89
901.611	3124.46
906.12	1857.37
910.626	1202.5
915.129	1020.31
919.63	895.068
924.129	819.682
928.625	822.248
933.118	868.22
937.609	1023.9
942.097	1243.42
946.582	1823.94
951.065	2597.62
955.546	3862.64
960.023	5796.57
964.499	8752.6
968.971	11933.3
973.441	15194.8
977.909	17515.4
982.374	16362.3
986.836	12397.7
991.295	9700.1
995.753	8997.02
1000.21	9012.93
1004.66	9123.05
1009.11	10863.7
1013.55	16025.8
1018	24673.5
1022.44	26911.9
1026.88	17368.8
1031.32	9227.85
1035.75	5386.91
1040.18	3703.91
1044.61	2816.93
1049.04	2215.29
1053.46	1677.55
1057.88	1625.41
1062.3	1364.17
1066.71	1194.92
1071.13	1081.79
1075.54	917.455
1079.94	934.007
1084.35	709.409
1088.75	548.251
1093.15	485.736
1097.55	358.993
1101.94	336.319
1106.34	199.483
1110.73	160.605
1115.11	114.136
1119.5	153.547
1123.88	272.304
1128.26	231.132
1132.63	57.0435
1137.01	50.4565
1141.38	53.3272
1145.75	99.8374
1150.12	91.8272
1154.48	60.3579
1158.84	47.3525
1163.2	8.84326
1167.55	23.8535
1171.91	26.543
1176.26	108.859
1180.61	3.1543
1184.95	22.6338
1189.29	77.1626
1193.63	42.5684
1197.97	66.3887
1202.31	76.145
1206.64	3.59326
1210.97	92.7373
1215.29	17.4004
1219.62	108.039
1223.94	121.112
1228.26	7.96924
1232.57	167.542
1236.89	66.9316
1241.2	87.0879
1245.51	102.146
1249.81	101.929
1254.12	88.4404
1258.42	75.7261
1262.72	220.786
1267.01	114.832
1271.3	109.857
1275.59	199.571
1279.88	171.849
1284.17	178.113
1288.45	160.28
1292.73	213.907
1297.01	237.906
1301.28	359.286
1305.55	279.775
1309.82	226.779
1314.09	388.923
1318.35	345.021
1322.61	338.106
1326.87	406.402
1331.13	232.728
1335.38	181.61
1339.63	227.645
1343.88	264.582
1348.12	214.574
1352.37	248.433
1356.61	306.652
1360.85	395.275
1365.08	307.424
1369.31	425.243
1373.54	303.26
1377.77	359.325
1381.99	381.412
1386.22	294.12
1390.43	169.391
1394.65	251.751
1398.87	270.89
1403.08	196.981
1407.29	170.842
1411.49	152.949
1415.69	20.5576
1419.89	119.013
1424.09	23.7979
1428.29	118.097
1432.48	128.621
1436.67	110.519
1440.86	60.7051
1445.04	108.724
1449.23	237.583
1453.4	195.112
1457.58	177.81
1461.76	238.798
1465.93	110.941
1470.1	182.022
1474.26	162.749
1478.43	50.4307
1482.59	114.111
1486.75	156.861
1490.9	135.621
1495.06	64.8066
1499.21	138.852
1503.35	95.2998
1507.5	144.641
1511.64	64.7754
1515.78	146.31
1519.92	156.366
1524.05	214.099
1528.18	147.265
1532.31	258.402
1536.44	89.959
1540.56	164.719
1544.69	198.298
1548.8	72.6397
1552.92	226.673
1557.03	11.3359
1561.14	114.38
1565.25	130.233
1569.36	135.597
