Measurement: Raman, 514 nm, depolarized, Raman Data Processed
Mineral: Serandite
Rruff sample: R050261
Ideal chemistry: NaMn^2+^_2_Si_3_O_8_(OH)
Locality: Mont Saint-Hilaire, Rouville County, Quebec, Canada
Source: Marcus Origlieri
Description: Orange tabular single crystal associated with aegirine and microcline
Measured chemistry: Na_0.96_(Mn_0.92_Ca_0.06_Fe_0.01_)_2_Si_3.03_O_8_(OH)
Pin_id: L01850
Orientation: Laser parallel to -b* (0 -1 0). Fiducial mark perpendicular to laser is parallel to c [0 0 1]
Raman shift (cm-1)	intensity
93.48	0
98.416	12.8623
103.349	752.415
108.28	1746.74
113.208	1866.26
118.134	2656.45
123.058	857.168
127.979	475.547
132.898	1741.79
137.814	2463.61
142.728	1078.82
147.639	78.9526
152.549	312.201
157.455	665.864
162.359	1383.34
167.261	1738.46
172.161	1137.46
177.058	455.33
181.952	243.003
186.845	610.767
191.734	1423.78
196.622	1595.11
201.507	1221.5
206.389	508.741
211.269	449.178
216.147	379.741
221.022	625.368
225.895	609.997
230.765	681.562
235.633	332.79
240.498	345.527
245.361	301.842
250.222	747.033
255.08	1634.81
259.936	2319.35
264.789	1923.31
269.64	1775.18
274.488	1660.27
279.334	1891.61
284.178	2381.81
289.019	2710.32
293.857	2794.86
298.693	2397.82
303.527	1742.09
308.358	1051.28
313.187	652.553
318.013	867.911
322.837	1264.14
327.659	1642.82
332.478	1392.91
337.294	779.396
342.108	450.252
346.92	497.442
351.729	642.926
356.535	1163.68
361.34	2002.69
366.141	2491.92
370.94	1401.37
375.737	447.993
380.531	103.789
385.323	35.6357
390.113	246.381
394.9	114.976
399.684	74.0635
404.466	423.381
409.245	1177.98
414.022	2220.87
418.797	2771.21
423.569	1898.5
428.338	1088.36
433.105	330.106
437.87	171.631
442.632	25.3604
447.391	120.864
452.149	234.056
456.903	255.922
461.655	436.6
466.405	449.973
471.152	466.251
475.897	582.428
480.639	847.51
485.378	1381.48
490.116	2319.43
494.85	2139.49
499.582	1555.78
504.312	1093.03
509.039	944.108
513.764	806.084
518.486	688.045
523.206	893.055
527.923	877.38
532.638	390.559
537.35	253.1
542.059	267.429
546.766	238.575
551.471	260.558
556.173	298.279
560.873	90.7637
565.57	126.944
570.264	110.311
574.957	175.372
579.646	97.1543
584.333	21.3213
589.018	90.8906
593.7	46.169
598.379	78.1953
603.056	150.556
607.73	252.544
612.402	256.038
617.072	295.119
621.739	510.62
626.403	609.892
631.065	937.663
635.724	1225.88
640.381	1769.95
645.035	2678.26
649.687	4209.1
654.336	7371.59
658.983	15885
663.627	33451.2
668.268	41816.9
672.907	22964.7
677.544	9693.42
682.178	5230.91
686.809	3650.34
691.438	3037.72
696.065	3484.31
700.688	5028.17
705.31	4720.97
709.929	2782.4
714.545	2021.05
719.158	1945.99
723.77	1311.4
728.378	732.913
732.984	317.517
737.588	332.756
742.189	386.568
746.787	73.8691
751.383	96.7754
755.976	57.2744
760.567	98.3389
765.155	4.0293
769.741	37.044
774.324	29.1309
778.904	26.7695
783.482	31.1484
788.058	43.124
792.631	98.4473
797.201	29.1543
801.769	26.0479
806.334	85.5293
810.897	14.3242
815.457	26.4678
820.014	19.8779
824.569	13.9385
829.122	146.669
833.671	243.188
838.219	77.4502
842.763	126.561
847.306	128.669
851.845	80.8545
856.382	101.932
860.917	153.977
865.448	332.173
869.978	255.509
874.505	261.051
879.029	395.718
883.55	373.946
888.069	731.056
892.586	1288.72
897.1	2369.52
901.611	2236.68
906.12	1359.33
910.626	1057.85
915.129	808.571
919.63	663.975
924.129	655.592
928.625	793.196
933.118	817.597
937.609	739.138
942.097	1122.59
946.582	1414.73
951.065	2196.39
955.546	3218.44
960.023	5242.43
964.499	7598.45
968.971	10375.8
973.441	13011.3
977.909	13921.4
982.374	11423.8
986.836	8249.52
991.295	6862.52
995.753	6360.83
1000.21	6335.45
1004.66	6152.43
1009.11	7289.1
1013.55	10935
1018	16352.8
1022.44	15316.5
1026.88	8971.97
1031.32	4946.91
1035.75	3130.22
1040.18	2214.71
1044.61	1655.79
1049.04	1393.91
1053.46	1237.97
1057.88	1061.24
1062.3	1086.24
1066.71	892.731
1071.13	543.096
1075.54	647.894
1079.94	469.997
1084.35	452.905
1088.75	289.228
1093.15	380.324
1097.55	152.045
1101.94	238.529
1106.34	139.565
1110.73	95.4111
1115.11	8.55371
1119.5	240.387
1123.88	667.338
1128.26	309.408
1132.63	65.5332
1137.01	91.4473
1141.38	49.7578
1145.75	118.832
1150.12	118.949
1154.48	164.66
1158.84	90.9336
1163.2	169.092
1167.55	8.39648
1171.91	48.7578
1176.26	66.4414
1180.61	98.6133
1184.95	115.59
1189.29	42.1953
1193.63	22.3867
1197.97	72.3438
1202.31	133.272
1206.64	18.2598
1210.97	43.5938
1215.29	32.3008
1219.62	26.4648
1223.94	110.598
1228.26	70.0449
1232.57	282.215
1236.89	131.959
1241.2	130.283
1245.51	18.248
1249.81	297.857
1254.12	13.1934
1258.42	102.189
1262.72	146.81
1267.01	1.95117
1271.3	221.551
1275.59	174.699
1279.88	51.1797
1284.17	190.469
1288.45	229.887
1292.73	258.935
1297.01	204.072
1301.28	358.695
1305.55	99.584
1309.82	87.0059
1314.09	155.812
1318.35	159.828
1322.61	287.537
1326.87	16.0391
1331.13	148.674
1335.38	317.932
1339.63	295.08
1343.88	241.988
1348.12	81.3535
1352.37	343.201
1356.61	522.623
1360.85	457.572
1365.08	521.025
1369.31	536.547
1373.54	374.455
1377.77	656.793
1381.99	470.029
1386.22	532.701
1390.43	174.863
1394.65	256.01
1398.87	107.377
1403.08	404.758
1407.29	308.957
1411.49	309.603
1415.69	143.141
1419.89	85.2891
1424.09	178.693
1428.29	11.2402
1432.48	20.9434
1436.67	176.266
1440.86	102.539
1445.04	62.9785
1449.23	160.82
1453.4	98.8691
1457.58	57.4355
1461.76	318.725
1465.93	269.373
1470.1	202.045
1474.26	197.816
1478.43	138.475
1482.59	293.144
1486.75	133.84
1490.9	289.277
1495.06	320.121
1499.21	191.467
1503.35	96.7461
1507.5	152.603
1511.64	55.1113
1515.78	315.916
1519.92	63.9785
1524.05	146.113
1528.18	93.8301
1532.31	36
1536.44	235.891
1540.56	308.543
1544.69	80.082
1548.8	7.25195
1552.92	408.565
1557.03	121.707
1561.14	109.057
1565.25	374.891
1569.36	19.5586
