Measurement: Raman, 514 nm, depolarized, Raman Data Processed
Mineral: Serandite
Rruff sample: R050261
Ideal chemistry: NaMn^2+^_2_Si_3_O_8_(OH)
Locality: Mont Saint-Hilaire, Rouville County, Quebec, Canada
Source: Marcus Origlieri
Description: Orange tabular single crystal associated with aegirine and microcline
Measured chemistry: Na_0.96_(Mn_0.92_Ca_0.06_Fe_0.01_)_2_Si_3.03_O_8_(OH)
Pin_id: L00791
Orientation: Laser parallel to -c* (0 0 -1). Fiducial mark perpendicular to laser is parallel to -a [-1 0 0]
Raman shift (cm-1)	intensity
93.48	0
98.416	48.6162
103.349	492.131
108.28	2676.41
113.208	3014.73
118.134	5173.84
123.058	5231.56
127.979	718.207
132.898	832.433
137.814	1818.61
142.728	766.356
147.639	58.5398
152.549	19.0938
157.455	294.784
162.359	982.18
167.261	1889.49
172.161	2303.63
177.058	1028.5
181.952	733.585
186.845	288.631
191.734	453.738
196.622	846.648
201.507	1215.25
206.389	918.141
211.269	841.291
216.147	1083.68
221.022	1350.27
225.895	1963.04
230.765	2087.98
235.633	2072.06
240.498	1834.7
245.361	1179.48
250.222	1098.51
255.08	1623.92
259.936	2681.47
264.789	2384.38
269.64	1796.15
274.488	1470.73
279.334	1438.92
284.178	2034.58
289.019	2331.63
293.857	2075.26
298.693	1543.06
303.527	1190.96
308.358	668.071
313.187	393.317
318.013	266.632
322.837	474.945
327.659	700.233
332.478	841.495
337.294	657.726
342.108	385.921
346.92	290.089
351.729	270.223
356.535	443.316
361.34	726.366
366.141	1145.37
370.94	894.316
375.737	277.211
380.531	25.9574
385.323	136.739
390.113	105.933
394.9	37.2565
399.684	28.8789
404.466	224.408
409.245	613.902
414.022	1209.36
418.797	1597.79
423.569	1137.17
428.338	607.5
433.105	268.763
437.87	157.723
442.632	78.9522
447.391	119.416
452.149	130.637
456.903	279.747
461.655	598.744
466.405	512.625
471.152	418.385
475.897	491.023
480.639	613.54
485.378	958.972
490.116	1294.43
494.85	1868.85
499.582	1666.33
504.312	1241.86
509.039	1082.52
513.764	838.233
518.486	549.015
523.206	398.346
527.923	243.797
532.638	78.8544
537.35	35.9286
542.059	56.646
546.766	109.958
551.471	107.76
556.173	76.4988
560.873	79.1677
565.57	55.7582
570.264	30.2655
574.957	7.68604
579.646	58.9921
584.333	27.7098
589.018	11.0763
593.7	36.8789
598.379	5.58069
603.056	115.172
607.73	175.651
612.402	232.015
617.072	363.288
621.739	520.9
626.403	641.743
631.065	911.177
635.724	1287.74
640.381	1896.61
645.035	2887.24
649.687	4358.61
654.336	7393.01
658.983	14676.5
663.627	32068.6
668.268	57729.2
672.907	43388.6
677.544	17635.9
682.178	8676.59
686.809	5562.52
691.438	4536.99
696.065	5351.58
700.688	8393.57
705.31	10494.3
709.929	6695.82
714.545	3514.08
719.158	2191.34
723.77	1531.91
728.378	935.652
732.984	633.983
737.588	443.09
742.189	293.975
746.787	228.643
751.383	183.096
755.976	45.3397
760.567	91.3652
765.155	22.0369
769.741	55.2327
774.324	2.99109
778.904	44.7788
783.482	33.1838
788.058	47.2288
792.631	13.864
797.201	20.0892
801.769	28.8934
806.334	2.82043
810.897	46.7682
815.457	7.7251
820.014	26.1283
824.569	84.8317
829.122	10.5736
833.671	73.9091
838.219	78.309
842.763	75.6381
847.306	102.908
851.845	90.1372
856.382	151.329
860.917	164.524
865.448	183.767
869.978	236.01
874.505	173.647
879.029	235.533
883.55	338.839
888.069	501.442
892.586	1002.53
897.1	1858.71
901.611	2468.91
906.12	1790.79
910.626	1297.59
915.129	1198.04
919.63	1184.24
924.129	1082.25
928.625	1034.47
933.118	1055.27
937.609	1193.54
942.097	1377.29
946.582	1792.02
951.065	2551.06
955.546	3570.66
960.023	5247.09
964.499	7545.59
968.971	10273.7
973.441	12337.1
977.909	12902.8
982.374	11788.8
986.836	10746.1
991.295	9787.7
995.753	9711.62
1000.21	10258.9
1004.66	9792.36
1009.11	10387.5
1013.55	14871.6
1018	23865.9
1022.44	27927.2
1026.88	18484.1
1031.32	9870.4
1035.75	5886.7
1040.18	4052.77
1044.61	2952.76
1049.04	2347.63
1053.46	2012.9
1057.88	1704.83
1062.3	1538.12
1066.71	1401.7
1071.13	1165.13
1075.54	1058.81
1079.94	945.212
1084.35	840.545
1088.75	681.81
1093.15	636.805
1097.55	451.674
1101.94	429.176
1106.34	281.44
1110.73	269.029
1115.11	208.437
1119.5	416.274
1123.88	553.852
1128.26	421.863
1132.63	137.148
1137.01	60.5425
1141.38	5.30689
1145.75	1.44189
1150.12	18.1939
1154.48	37.9607
1158.84	3.58301
1163.2	5.60498
1167.55	2.63965
1171.91	31.481
1176.26	27.4253
1180.61	42.1504
1184.95	51.2974
1189.29	33.8852
1193.63	17.2869
1197.97	0.741699
1202.31	15.3508
1206.64	78.3643
1210.97	65.3469
1215.29	41.6506
1219.62	86.5798
1223.94	76.1582
1228.26	66.4387
1232.57	63.3992
1236.89	48.0337
1241.2	30.332
1245.51	70.2642
1249.81	57.3389
1254.12	54.0554
1258.42	69.8772
1262.72	78.3232
1267.01	89.4898
1271.3	86.7729
1275.59	102.085
1279.88	77.7041
1284.17	104.257
1288.45	86.4358
1292.73	75.2236
1297.01	148.572
1301.28	190.88
1305.55	148.363
1309.82	121.837
1314.09	89.3979
1318.35	99.019
1322.61	102.553
1326.87	214.151
1331.13	182.552
1335.38	150.524
1339.63	201.253
1343.88	231.02
1348.12	268.048
1352.37	380.51
1356.61	484.371
1360.85	527.432
1365.08	600.48
1369.31	733.741
1373.54	785.04
1377.77	766
1381.99	669.899
1386.22	695.094
1390.43	542.476
1394.65	394.207
1398.87	336.034
1403.08	348.32
1407.29	208.067
1411.49	154.833
1415.69	139.238
1419.89	10.7717
1424.09	64.5576
1428.29	25.1194
1432.48	61.6489
1436.67	15.2188
1440.86	19.8242
1445.04	35.2075
1449.23	33.0251
1453.4	58.5654
1457.58	49.2612
1461.76	33.0339
1465.93	11.706
1470.1	93.3044
1474.26	19.8953
1478.43	23.5361
1482.59	158.277
1486.75	129.121
1490.9	89.082
1495.06	152.163
1499.21	16.801
1503.35	75.9651
1507.5	66.8357
1511.64	21.447
1515.78	34.7249
1519.92	20.2671
1524.05	72.4539
1528.18	9.73071
1532.31	41.3291
1536.44	95.4275
1540.56	98.4231
1544.69	46.0007
1548.8	47.218
1552.92	191.014
1557.03	85.6611
1561.14	90.9465
1565.25	76.6321
1569.36	0.102539
