Measurement: Raman, 514 nm, depolarized, Raman Data Processed
Mineral: Serandite
Rruff sample: R050261
Ideal chemistry: NaMn^2+^_2_Si_3_O_8_(OH)
Locality: Mont Saint-Hilaire, Rouville County, Quebec, Canada
Source: Marcus Origlieri
Description: Orange tabular single crystal associated with aegirine and microcline
Measured chemistry: Na_0.96_(Mn_0.92_Ca_0.06_Fe_0.01_)_2_Si_3.03_O_8_(OH)
Pin_id: L01880
Orientation: Laser parallel to (1 0 1). Fiducial mark perpendicular to laser is parallel to b [0 1 0]
Raman shift (cm-1)	intensity
93.48	0
98.416	163.337
103.349	1253.37
108.28	2382.55
113.208	2688.13
118.134	3403.33
123.058	978.105
127.979	335.085
132.898	1222.94
137.814	2072.12
142.728	786.981
147.639	138.789
152.549	36.2002
157.455	687.467
162.359	1531.45
167.261	1928.79
172.161	1404.53
177.058	851.102
181.952	496.276
186.845	772.025
191.734	1698.42
196.622	1443.03
201.507	738.573
206.389	183.784
211.269	63.7773
216.147	108.211
221.022	339.055
225.895	615.279
230.765	892.847
235.633	915.727
240.498	768.45
245.361	739.007
250.222	1052.32
255.08	1626.24
259.936	2141.42
264.789	1891.68
269.64	1351.91
274.488	1008.31
279.334	1157.63
284.178	1748.72
289.019	2401.46
293.857	2683.89
298.693	2541.29
303.527	1778.85
308.358	1050.57
313.187	641.493
318.013	585.007
322.837	908.614
327.659	1205.01
332.478	1150.53
337.294	761.159
342.108	531.887
346.92	477.705
351.729	787.571
356.535	1477.46
361.34	2639.35
366.141	3099.25
370.94	1888.14
375.737	688.023
380.531	112.894
385.323	59.3314
390.113	122.166
394.9	86.019
399.684	143.515
404.466	591.085
409.245	1415.7
414.022	2597.35
418.797	2892.04
423.569	2284.75
428.338	1281.47
433.105	587.174
437.87	216.891
442.632	28.8289
447.391	48.3677
452.149	76.339
456.903	11.6748
461.655	111.188
466.405	118.612
471.152	274.957
475.897	517.221
480.639	780.408
485.378	1529.53
490.116	2579.62
494.85	2516.73
499.582	1541.86
504.312	1116.04
509.039	933.28
513.764	606.6
518.486	459.107
523.206	559.766
527.923	493.19
532.638	396.95
537.35	359.995
542.059	372.082
546.766	376.783
551.471	294.464
556.173	224.176
560.873	205.848
565.57	158.465
570.264	91.0078
574.957	114.472
579.646	119.846
584.333	55.3884
589.018	89.9385
593.7	56.0525
598.379	88.326
603.056	147.146
607.73	220.836
612.402	317.657
617.072	410.533
621.739	517.87
626.403	806.719
631.065	1067.76
635.724	1583.31
640.381	2353.19
645.035	3593.42
649.687	5760.45
654.336	10525.7
658.983	23024.3
663.627	46541
668.268	56123.7
672.907	31237.2
677.544	13439.5
682.178	7126.35
686.809	4810.35
691.438	4197.89
696.065	5307.86
700.688	7220.19
705.31	6373.69
709.929	3540.48
714.545	2110.57
719.158	1425.39
723.77	943.819
728.378	637.169
732.984	499.691
737.588	294.434
742.189	248.074
746.787	160.481
751.383	104.656
755.976	27.5951
760.567	0.278687
765.155	11.6575
769.741	1.67481
774.324	5.80933
778.904	1.25
783.482	7.22864
788.058	15.2643
792.631	69.9448
797.201	34.4467
801.769	7.35779
806.334	32.3326
810.897	15.4823
815.457	13.9813
820.014	7.1499
824.569	20.96
829.122	10.4164
833.671	13.7402
838.219	13.3447
842.763	7.32422
847.306	28.7943
851.845	50.0718
856.382	82.1765
860.917	86.1201
865.448	118.912
869.978	137.554
874.505	214.084
879.029	341.572
883.55	507.938
888.069	977.629
892.586	1812.94
897.1	2844.45
901.611	2584.87
906.12	1664.96
910.626	1214.35
915.129	1054.19
919.63	916.643
924.129	869.218
928.625	858.542
933.118	942.086
937.609	1043.73
942.097	1325.41
946.582	1882.49
951.065	2703.78
955.546	4213.4
960.023	6157.83
964.499	8977.54
968.971	11990.8
973.441	14559
977.909	15498.5
982.374	13526
986.836	10593.1
991.295	9150.29
995.753	8604.85
1000.21	8706.56
1004.66	9337.71
1009.11	12102.8
1013.55	19385.2
1018	28366.9
1022.44	25167.9
1026.88	14520.5
1031.32	7769.88
1035.75	4782.85
1040.18	3279.29
1044.61	2409.46
1049.04	1892.13
1053.46	1591.55
1057.88	1300.21
1062.3	1090.66
1066.71	918.563
1071.13	787.715
1075.54	695.215
1079.94	520.825
1084.35	427.896
1088.75	357.393
1093.15	293.357
1097.55	230.639
1101.94	134.223
1106.34	139.559
1110.73	96.526
1115.11	139.155
1119.5	100.703
1123.88	134.915
1128.26	99.4077
1132.63	37.3628
1137.01	13.6892
1141.38	43.6691
1145.75	5.41833
1150.12	27.3613
1154.48	18.3311
1158.84	46.5693
1163.2	37.1428
1167.55	72.9062
1171.91	21.0221
1176.26	6.02026
1180.61	4.42114
1184.95	10.111
1189.29	3.10913
1193.63	7.87683
1197.97	17.1394
1202.31	18.0252
1206.64	0.712524
1210.97	39.8105
1215.29	78.238
1219.62	36.1091
1223.94	63.5051
1228.26	40.692
1232.57	39.6096
1236.89	36.2759
1241.2	38.6909
1245.51	19.8596
1249.81	52.7244
1254.12	17.2849
1258.42	82.5447
1262.72	76.5198
1267.01	9.34863
1271.3	51.2371
1275.59	55.0293
1279.88	68.6389
1284.17	104.558
1288.45	70.2158
1292.73	93.1133
1297.01	129.975
1301.28	97.2788
1305.55	116.992
1309.82	30.394
1314.09	60.8962
1318.35	109.288
1322.61	88.4544
1326.87	66.624
1331.13	89.697
1335.38	27.4121
1339.63	43.7402
1343.88	110.531
1348.12	163.125
1352.37	157.935
1356.61	143.373
1360.85	191.517
1365.08	229.529
1369.31	224.986
1373.54	212.508
1377.77	224.374
1381.99	190.314
1386.22	167.191
1390.43	192.599
1394.65	143.484
1398.87	96.3057
1403.08	98.5337
1407.29	88.1692
1411.49	59.6645
1415.69	34.2598
1419.89	54.5798
1424.09	34.7078
1428.29	11.0061
1432.48	39.3433
1436.67	18.7383
1440.86	37.7656
1445.04	21.0181
1449.23	47.5335
1453.4	49.4788
1457.58	20.1977
1461.76	47.2256
1465.93	26.4922
1470.1	5.58716
1474.26	59.4958
1478.43	16.3406
1482.59	110.488
1486.75	67.856
1490.9	96.5586
1495.06	59.3184
1499.21	136.407
1503.35	49.032
1507.5	33.1531
1511.64	57.9558
1515.78	69.084
1519.92	93.6238
1524.05	94.1021
1528.18	129.678
1532.31	4.01074
1536.44	79.4277
1540.56	66.1912
1544.69	13.3994
1548.8	101.934
1552.92	106.569
1557.03	24.7764
1561.14	64.4143
1565.25	19.241
1569.36	18.9849
