Measurement: Raman, 514 nm, depolarized, Raman Data Processed
Mineral: Shortite
Rruff sample: R050248
Ideal chemistry: Na_2_Ca_2_(CO_3_)_3_
Locality: Stauffer mine, Green River, Wyoming, USA
Source: Marcus Origlieri
Description: Colorless wedge-shaped single crystal
Measured chemistry: Na_2.00_Ca_2.00_(CO_3_)_3_ ; CO2 not measured but estimated by difference and stoichiometry.
Pin_id: L01884
Orientation: Laser parallel to c* (0 0 1). Fiducial mark perpendicular to laser is parallel to a [1 0 0]
Raman shift (cm-1)	intensity
102.92	0
107.875	83.7607
112.827	58.0269
117.777	248.336
122.723	794.898
127.667	2786.81
132.608	4536.68
137.547	6298.21
142.482	3908.86
147.415	1567.15
152.345	1919.15
157.272	1612.43
162.197	578.116
167.118	204.818
172.037	296.461
176.954	485.396
181.867	991.337
186.778	1119.24
191.685	1910.53
196.591	3287.49
201.493	3558.02
206.393	2543.2
211.289	1333.32
216.184	497.579
221.075	200.628
225.964	50.8477
230.849	47.7891
235.732	146.55
240.613	411.096
245.49	751.077
250.365	1361.37
255.237	2871.58
260.107	6672.61
264.973	10733.9
269.837	9277.36
274.698	3516.56
279.557	1355.56
284.412	526.566
289.265	315.675
294.116	209.703
298.963	166.294
303.808	44.5144
308.65	32.698
313.489	21.6177
318.325	2.1958
323.159	9.16895
327.99	38.376
332.819	17.9968
337.644	47.5195
342.467	32.9341
347.287	16.7302
352.105	27.6726
356.92	58.0278
361.732	1.80395
366.541	0.129639
371.348	7.95654
376.152	31.3789
380.953	56.0137
385.751	70.2788
390.547	31.875
395.34	105.835
400.13	82.8259
404.918	37.8413
409.703	77.9075
414.485	72.9985
419.265	80.147
424.041	3.80444
428.816	95.0481
433.587	57.1558
438.356	8.52173
443.122	109.004
447.885	147.626
452.646	57.3648
457.404	3.29663
462.159	54.9712
466.911	96.9788
471.661	51.512
476.409	43.4766
481.153	92.5986
485.895	74.9993
490.634	139.739
495.37	124.878
500.104	40.585
504.835	149.764
509.564	117.284
514.289	123.267
519.013	142.689
523.733	58.9829
528.451	54.0305
533.166	65.2849
537.878	142.116
542.588	108.557
547.295	58.3879
551.999	156.855
556.701	43.207
561.4	28.6379
566.096	90.4507
570.79	5.42188
575.481	98.6621
580.169	71.4568
584.855	16.8606
589.538	67.3411
594.219	115.666
598.896	116.768
603.571	53.636
608.244	12.2039
612.914	71.9946
617.581	31.5713
622.245	30.335
626.907	105.391
631.566	78.6103
636.223	69.3731
640.877	86.0305
645.528	98.7678
650.177	72.5833
654.823	59.3372
659.466	16.8806
664.107	12.802
668.745	34.5347
673.38	18.8511
678.013	5.43359
682.643	174.243
687.271	397.882
691.896	1173.46
696.518	1477.54
701.138	322.824
705.755	544.412
710.369	843.379
714.981	233.407
719.59	113.229
724.197	678.742
728.801	2100.45
733.402	980.131
738.001	92.4653
742.597	105.77
747.19	4.67236
751.781	74.9922
756.369	36.8867
760.955	21.7129
765.538	2.45996
770.118	42.2183
774.696	38.0122
779.271	40.6216
783.844	6.26221
788.414	60.7305
792.981	57.8418
797.546	1.72705
802.108	95.7622
806.667	59.6582
811.224	27.1362
815.779	68.3184
820.33	108.961
824.88	20.4443
829.426	44.3901
833.97	51.8877
838.512	79.2427
843.05	130.21
847.587	34.5171
852.12	0.655762
856.651	178.8
861.18	557.981
865.706	568.123
870.229	160.081
874.75	51.6728
879.268	40.4419
883.783	51.2891
888.296	22.6333
892.807	44.0693
897.314	62.5767
901.82	36.624
906.322	76.5703
910.822	64.9668
915.32	89.8701
919.815	70.896
924.307	113.853
928.797	53.73
933.284	122.668
937.769	7.54102
942.251	47.4136
946.731	31.1602
951.208	3.97217
955.682	145.79
960.154	70.5864
964.623	117.33
969.09	29.3745
973.554	10.0576
978.016	87.5254
982.475	44.4775
986.931	131.871
991.385	33.5147
995.837	46.0532
1000.29	80.6602
1004.73	63.8149
1009.18	36.9385
1013.62	177.578
1018.06	121.218
1022.49	61.1665
1026.93	142.053
1031.36	96.6821
1035.79	151.335
1040.21	66.9414
1044.63	199.065
1049.06	435.265
1053.47	461.266
1057.89	656.992
1062.3	1984.21
1066.71	19125.5
1071.12	39607.3
1075.53	6226.19
1079.93	1757.97
1084.33	9127.47
1088.73	52657.2
1093.13	18062.8
1097.52	1094.11
1101.91	434.29
1106.3	215.412
1110.68	138.271
1115.07	96.9522
1119.45	143.882
1123.83	172.093
1128.2	83.2271
1132.57	51.1836
1136.94	96.1816
1141.31	64.1851
1145.68	103.193
1150.04	99.2056
1154.4	96.23
1158.76	109.6
1163.11	2.66992
1167.47	23.2549
1171.82	121.846
1176.16	30.1943
1180.51	2.67236
1184.85	68.3379
1189.19	6.35254
1193.53	137.415
1197.87	98.4131
1202.2	131.395
1206.53	48.6069
1210.86	78.5132
1215.18	75.4214
1219.51	24.314
1223.83	124.003
1228.15	33.1538
1232.46	114.122
1236.77	22.102
1241.09	94.0972
1245.39	72.0815
1249.7	31.7334
1254	14.8306
1258.3	127.055
1262.6	85.8384
1266.9	108.589
1271.19	65.3403
1275.48	25.0942
1279.77	83.8511
1284.05	123.61
1288.34	81.3843
1292.62	21.1655
1296.9	107.211
1301.17	12.3315
1305.44	198.799
1309.72	117.809
1313.98	34.6318
1318.25	104.656
1322.51	85.3198
1326.78	43.6138
1331.03	104.478
1335.29	32.6831
1339.54	64.5684
1343.8	72.6069
1348.04	150.633
1352.29	104.528
1356.53	69.438
1360.78	8.89697
1365.02	31.8623
1369.25	5.8584
1373.49	158.071
1377.72	15.71
1381.95	82.3413
1386.17	103.211
1390.4	125.147
1394.62	297.078
1398.84	743.043
1403.06	1585.05
1407.27	405.098
1411.48	94.1924
1415.69	67.3535
1419.9	100.603
1424.1	23.9395
1428.31	3.69043
1432.51	65.7261
1436.7	102.311
1440.9	68.3799
1445.09	95.8398
1449.28	117.115
1453.47	96.5601
1457.65	89.813
1461.84	107.46
1466.02	493.162
1470.2	1421.94
1474.37	691.536
1478.55	1157.91
1482.72	294.139
1486.88	152.531
1491.05	38.0518
1495.21	20.71
1499.38	50.4497
1503.54	178.1
1507.69	418.315
1511.85	2428.59
1516	1951.92
1520.15	402.414
1524.29	223.073
1528.44	199.018
1532.58	154.02
1536.72	77.624
1540.86	186.465
1544.99	93.0181
1549.12	73.5693
1553.25	121.595
1557.38	96.6943
1561.51	36.2412
1565.63	54.6284
1569.75	80.043
