Measurement: Raman, 514 nm, depolarized, Raman Data Processed
Mineral: Shortite
Rruff sample: R050248
Ideal chemistry: Na_2_Ca_2_(CO_3_)_3_
Locality: Stauffer mine, Green River, Wyoming, USA
Source: Marcus Origlieri
Description: Colorless wedge-shaped single crystal
Measured chemistry: Na_2.00_Ca_2.00_(CO_3_)_3_ ; CO2 not measured but estimated by difference and stoichiometry.
Pin_id: L00721
Orientation: Laser parallel to b* (0 1 0). Fiducial mark perpendicular to laser is parallel to -c [0 0 -1]
Raman shift (cm-1)	intensity
108.28	0
113.208	1.25977
118.134	134.484
123.058	89.5688
127.979	364.094
132.898	1019.68
137.814	2193.85
142.728	1318.63
147.639	526.721
152.549	510.014
157.455	463.838
162.359	965.92
167.261	2226.89
172.161	1846.35
177.058	905.359
181.952	827.737
186.845	582.356
191.734	786.346
196.622	1616.18
201.507	1737.63
206.389	1239.48
211.269	705.143
216.147	352.26
221.022	253.372
225.895	300.163
230.765	308.802
235.633	483.094
240.498	525.394
245.361	855.304
250.222	1225.29
255.08	1890.31
259.936	3085.18
264.789	3556.43
269.64	2434.61
274.488	1258.87
279.334	716.837
284.178	334.045
289.019	211.971
293.857	99.4912
298.693	339.398
303.527	12.7598
308.358	100.339
313.187	55.1055
318.013	12.7705
322.837	102.743
327.659	157.691
332.478	63.877
337.294	41.8633
342.108	69.4199
346.92	32.752
351.729	103.239
356.535	103.689
361.34	80.4111
366.141	99.8037
370.94	56.0732
375.737	72.8799
380.531	1.71582
385.323	98.9648
390.113	76.8975
394.9	49.9707
399.684	156.06
404.466	174.482
409.245	139.224
414.022	49.5264
418.797	46.0928
423.569	2.66797
428.338	48.4346
433.105	208.299
437.87	145.637
442.632	82.3926
447.391	23.8125
452.149	7.38379
456.903	24.4443
461.655	17.7764
466.405	86.5459
471.152	110.261
475.897	83.6836
480.639	134.631
485.378	188.76
490.116	98.0537
494.85	104.147
499.582	102.052
504.312	46.75
509.039	182.072
513.764	122.177
518.486	138.073
523.206	126.453
527.923	147.475
532.638	174.816
537.35	61.3701
542.059	140.792
546.766	137.416
551.471	129.554
556.173	260.812
560.873	149.066
565.57	100.536
570.264	138.642
574.957	70.5635
579.646	28.916
584.333	40.2685
589.018	38.6426
593.7	163.501
598.379	35.3506
603.056	260.38
607.73	104.019
612.402	152.27
617.072	195.824
621.739	107.606
626.403	63.6113
631.065	43.4434
635.724	96.458
640.381	72.2871
645.035	51.4678
649.687	116.967
654.336	164.184
658.983	134.061
663.627	6.71289
668.268	199.656
672.907	246.894
677.544	131.027
682.178	101.43
686.809	208.09
691.438	343.297
696.065	502.606
700.688	101.662
705.31	377.422
709.929	803.725
714.545	388.057
719.158	613.199
723.77	128.912
728.378	47.9844
732.984	246.498
737.588	144.807
742.189	45.6992
746.787	178.545
751.383	114.057
755.976	87.5977
760.567	17.7363
765.155	161.242
769.741	85.8242
774.324	204.096
778.904	237.58
783.482	13.2441
788.058	220.648
792.631	116.246
797.201	122.188
801.769	101.416
806.334	261.467
810.897	141.119
815.457	166.648
820.014	187.84
824.569	315.867
829.122	68.6894
833.671	59.7637
838.219	157.41
842.763	99.1484
847.306	56.4922
851.845	134.078
856.382	151.832
860.917	256.285
865.448	389.725
869.978	179.359
874.505	130.022
879.029	163.578
883.55	286.223
888.069	156.629
892.586	253.697
897.1	233.918
901.611	69.9863
906.12	182.553
910.626	197.621
915.129	218.803
919.63	274.369
924.129	2.90625
928.625	91.6914
933.118	72.6133
937.609	256.807
942.097	224.281
946.582	196.381
951.065	294.205
955.546	249.69
960.023	245.121
964.499	186.647
968.971	216.293
973.441	195.998
977.909	187.961
982.374	206.965
986.836	235.553
991.295	222.773
995.753	261.094
1000.21	222.742
1004.66	173.014
1009.11	24.9316
1013.55	210.713
1018	28.3809
1022.44	104.967
1026.88	94.4102
1031.32	275.961
1035.75	159.603
1040.18	91.9394
1044.61	0.244141
1049.04	112.539
1053.46	237.83
1057.88	245.783
1062.3	500.238
1066.71	2206.18
1071.13	7177
1075.54	1582.68
1079.94	964.242
1084.35	3154.72
1088.75	24720.1
1093.15	10068.9
1097.55	906.564
1101.94	492.025
1106.34	226.852
1110.73	116.748
1115.11	204.85
1119.5	171.857
1123.88	192.58
1128.26	237.596
1132.63	239.398
1137.01	8.45312
1141.38	195.703
1145.75	58.2812
1150.12	224.775
1154.48	247.602
1158.84	120.596
1163.2	189.553
1167.55	121.314
1171.91	316.398
1176.26	140.795
1180.61	123.277
1184.95	2.89648
1189.29	179.877
1193.63	333.525
1197.97	165.207
1202.31	308.156
1206.64	220.705
1210.97	136.914
1215.29	209.787
1219.62	239.793
1223.94	236.932
1228.26	94.6816
1232.57	266.51
1236.89	322.777
1241.2	215.086
1245.51	398.56
1249.81	252.537
1254.12	41.0059
1258.42	21.6426
1262.72	177.617
1267.01	355.518
1271.3	181.387
1275.59	289.961
1279.88	106.518
1284.17	288.4
1288.45	76.0254
1292.73	161.889
1297.01	93.6523
1301.28	86.7988
1305.55	147.393
1309.82	402.133
1314.09	133.916
1318.35	407.24
1322.61	213.246
1326.87	373.371
1331.13	292.619
1335.38	344.863
1339.63	283.578
1343.88	391.731
1348.12	327.269
1352.37	255.881
1356.61	276.633
1360.85	138.484
1365.08	525.805
1369.31	194.387
1373.54	358.461
1377.77	198.367
1381.99	337.91
1386.22	456.144
1390.43	343.359
1394.65	178.246
1398.87	154.625
1403.08	359.531
1407.29	428.656
1411.49	216.269
1415.69	205.414
1419.89	61.2852
1424.09	119.027
1428.29	387.719
1432.48	14.4336
1436.67	141.648
1440.86	164.309
1445.04	166.367
1449.23	174.941
1453.4	36.668
1457.58	143.719
1461.76	273.438
1465.93	293.777
1470.1	870.969
1474.26	310.859
1478.43	344.406
1482.59	167.754
1486.75	354.238
1490.9	467.621
1495.06	303.473
1499.21	130.773
1503.35	416.106
1507.5	410.648
1511.64	413.394
1515.78	451.754
1519.92	12.1016
1524.05	179.945
1528.18	133.543
1532.31	382.5
1536.44	240.363
1540.56	82.6328
1544.69	212.359
1548.8	414.719
1552.92	279.629
1557.03	380.59
1561.14	274.406
1565.25	267.715
1569.36	121.781
