Measurement: Raman, 514 nm, depolarized, Raman Data Processed
Mineral: Shortite
Rruff sample: R040184
Ideal chemistry: Na_2_Ca_2_(CO_3_)_3_
Locality: Green River, Wyoming, USA
Source: University of Arizona Mineral Museum
Description: Colorless single crystal fragments
Measured chemistry: (Na_1.47_Ca_0.27_[box]_0.26_)_Î£=2_Ca_2.00_(CO_3_)_3_
Pin_id: L00189
Orientation: Laser parallel to -a* (-1 0 0). Fiducial mark perpendicular to laser is parallel to b [0 1 0]
Raman shift (cm-1)	intensity
113.329	0
117.519	47.012
121.706	122.75
125.892	694.878
130.075	1602.61
134.256	2608.36
138.435	3968.19
142.611	1498.78
146.786	569.611
150.958	854.9
155.128	1178.04
159.296	474.372
163.462	59.332
167.625	69.64
171.786	28.375
175.946	71.336
180.103	396.215
184.258	435.94
188.41	400.776
192.561	698.534
196.709	1716.71
200.856	1856.62
205	1565.37
209.142	990.121
213.281	485.959
217.419	236.927
221.554	105.348
225.688	41.447
229.819	24.723
233.948	85.69
238.075	143.979
242.2	202.65
246.322	346.373
250.443	649.695
254.561	1014.38
258.677	1840.13
262.791	4245.69
266.903	7010.76
271.013	4217.33
275.121	1647.77
279.226	764.646
283.33	455.915
287.431	230.51
291.53	227.728
295.627	187.712
299.722	102.258
303.815	47.267
307.906	81.659
311.995	128.332
316.081	60.379
320.166	5.455
324.248	9.327
328.328	44.929
332.406	66.33
336.482	0.119
340.556	7.312
344.628	53.904
348.697	20.498
352.765	13.893
356.83	19.701
360.894	41.298
364.955	17.138
369.014	0.614
373.071	31.87
377.126	9.313
381.179	10.946
385.23	22.709
389.279	54.571
393.325	9.719
397.37	24.832
401.413	20.074
405.453	0.87
409.491	110.59
413.528	3.491
417.562	0.096
421.594	58.131
425.624	23.174
429.652	5.108
433.678	36.853
437.702	50.973
441.724	139.071
445.743	48.637
449.761	146.638
453.777	76.296
457.79	144.882
461.802	139.146
465.811	84.912
469.819	115.411
473.824	98.968
477.827	140.949
481.829	155.584
485.828	21.98
489.825	115.77
493.82	122.04
497.813	169.818
501.804	93.584
505.793	156.312
509.78	158.422
513.765	211.008
517.748	122.753
521.729	110.146
525.708	79.29
529.685	148.104
533.659	126.281
537.632	177.08
541.603	88.783
545.571	160.316
549.538	197.135
553.503	32.597
557.465	105.53
561.426	117.647
565.385	55.529
569.341	98.559
573.296	116.246
577.248	130.998
581.199	68.707
585.147	117.423
589.094	99.351
593.038	18.38
596.981	91.327
600.922	131.656
604.86	66.024
608.797	91.526
612.731	48.894
616.664	45.083
620.594	94.351
624.523	15.304
628.449	20.228
632.374	38.431
636.296	90.853
640.217	82.449
644.135	91.31
648.052	3.672
651.967	22.756
655.879	99.545
659.79	101.731
663.698	60.856
667.605	5.869
671.51	12.686
675.413	125.404
679.313	96.024
683.212	127.863
687.109	131.61
691.004	336.165
694.897	1405.9
698.788	382.481
702.677	78.799
706.564	247.012
710.449	693.569
714.332	224.987
718.213	126.148
722.092	160.441
725.969	251.793
729.844	1674.21
733.718	287.308
737.589	129.586
741.458	175.7
745.326	62.914
749.191	15.604
753.055	146.613
756.916	141.252
760.776	139.363
764.634	110.773
768.489	80.356
772.343	73.122
776.195	12.249
780.045	144.621
783.893	140.546
787.739	77.701
791.583	66.63
795.425	32.65
799.266	74.186
803.104	1.497
806.94	58.441
810.775	44.35
814.608	49.998
818.438	139.197
822.267	137.165
826.094	89.523
829.919	140.613
833.742	13.183
837.563	49.999
841.382	176.977
845.199	113.768
849.014	88.962
852.828	121.379
856.639	78.051
860.449	306.341
864.257	607.586
868.062	145.964
871.866	126.227
875.668	18.473
879.468	43.395
883.267	69.76
887.063	116.866
890.857	69.941
894.65	111.972
898.44	13.782
902.229	81.48
906.016	55.206
909.801	62.009
913.584	158.619
917.365	40.608
921.144	30.912
924.922	75.549
928.697	13.556
932.471	266.853
936.242	99.952
940.012	8.299
943.78	50.43
947.546	76.499
951.311	114.424
955.073	95.192
958.834	199.179
962.592	79.946
966.349	17.037
970.104	120.024
973.857	44.601
977.608	161.301
981.357	119.126
985.105	142.228
988.85	65.875
992.594	11.628
996.336	18.147
1000.08	113.627
1003.81	324.255
1007.55	169.893
1011.28	157.314
1015.02	66.275
1018.75	234.694
1022.48	201.654
1026.2	261.532
1029.93	250.797
1033.65	332.32
1037.37	230.35
1041.09	247.949
1044.81	352.737
1048.53	559.846
1052.24	704.5
1055.95	561.037
1059.66	833.963
1063.37	1698.36
1067.08	11389.3
1070.79	24667.8
1074.49	2618.25
1078.19	1356.19
1081.89	1666.74
1085.59	6167.24
1089.28	40297.4
1092.98	2924.7
1096.67	631.664
1100.36	482.685
1104.05	403.768
1107.73	307.833
1111.42	265.893
1115.1	110.109
1118.78	138.826
1122.46	302.826
1126.14	126.615
1129.82	233.896
1133.49	303.607
1137.16	264.131
1140.83	162.535
1144.5	64.558
1148.17	49.581
1151.83	245.25
1155.5	229.486
1159.16	215.191
1162.82	252.859
1166.47	118.252
1170.13	120.274
1173.79	25.999
1177.44	81.654
1181.09	91.268
1184.74	189.006
1188.38	243.182
1192.03	198.634
1195.67	101.766
1199.31	120.425
1202.95	85.508
1206.59	50.227
1210.23	125.536
1213.86	230.914
1217.5	276.312
1221.13	301.205
1224.76	153.014
1228.38	285.566
1232.01	213.45
1235.63	169.621
1239.26	266.941
1242.88	274.391
1246.49	284.594
1250.11	253.945
1253.73	276.759
1257.34	129.248
1260.95	181.125
1264.56	13.206
1268.17	146.146
1271.78	260.188
1275.38	281.883
1278.98	453.116
1282.58	294.1
1286.18	165.526
1289.78	136.199
1293.38	67.034
1296.97	5.654
1300.56	23.76
1304.15	193.597
1307.74	51.562
1311.33	266.029
1314.91	260.258
1318.5	219.164
1322.08	155.648
1325.66	111.2
1329.23	66.171
1332.81	18.486
1336.39	146.436
1339.96	140.719
1343.53	265.354
1347.1	240.599
1350.67	335.9
1354.23	140.177
1357.8	214.636
1361.36	109.114
1364.92	22.365
1368.48	84.804
1372.04	27.997
1375.59	230.226
1379.15	292.771
1382.7	407.25
1386.25	435.371
1389.8	322.487
1393.35	208.303
1396.89	493.174
1400.43	928.816
1403.98	347.094
1407.52	77.752
1411.06	192.044
1414.59	359.714
1418.13	506.413
1421.66	313.29
1425.19	375.314
1428.72	213.595
1432.25	130.169
1435.78	20.021
1439.3	101.367
1442.83	111.814
1446.35	309
1449.87	153.355
1453.38	430.469
1456.9	478.251
1460.41	666.537
1463.93	614.451
1467.44	1299.23
1470.95	487.387
1474.46	508.081
1477.96	469.597
1481.47	97.727
1484.97	109.508
1488.47	102.567
1491.97	158.137
1495.47	264.917
1498.96	363.311
1502.46	642.96
1505.95	692.152
1509.44	1916.25
1512.93	1396.98
1516.42	340.223
1519.9	2.184
