Measurement: Raman, 514 nm, depolarized, Raman Data Processed
Mineral: Shortite
Rruff sample: R050248
Ideal chemistry: Na_2_Ca_2_(CO_3_)_3_
Locality: Stauffer mine, Green River, Wyoming, USA
Source: Marcus Origlieri
Description: Colorless wedge-shaped single crystal
Measured chemistry: Na_2.00_Ca_2.00_(CO_3_)_3_ ; CO2 not measured but estimated by difference and stoichiometry.
Pin_id: L01144
Orientation: Laser parallel to a* (1 0 0). Fiducial mark perpendicular to laser is parallel to -b [0 -1 0]
Raman shift (cm-1)	intensity
102.92	0
107.875	228.773
112.827	226.857
117.777	178.456
122.723	187.678
127.667	518.27
132.608	749.344
137.547	1117.6
142.482	925.866
147.415	853.268
152.345	1131.74
157.272	848.966
162.197	917.361
167.118	891.338
172.037	699.699
176.954	526.08
181.867	430.796
186.778	353.06
191.685	701.546
196.591	1156.26
201.493	1514.41
206.393	1078.08
211.289	401.063
216.184	287.188
221.075	370.549
225.964	243.815
230.849	339.772
235.732	385.89
240.613	480.648
245.49	456.126
250.365	624.672
255.237	1440.27
260.107	2596.25
264.973	2580.93
269.837	1527.47
274.698	600.755
279.557	326.948
284.412	297.955
289.265	35.5459
294.116	190.835
298.963	131.204
303.808	95.1006
308.65	21.208
313.489	117.172
318.325	12.6855
323.159	107.033
327.99	102.046
332.819	16.4609
337.644	171.951
342.467	171.114
347.287	35.419
352.105	169.616
356.92	99.0781
361.732	305.408
366.541	164.98
371.348	67.3438
376.152	9.40625
380.953	139.248
385.751	62.1123
390.547	281.018
395.34	175.275
400.13	213.622
404.918	135.117
409.703	69.8389
414.485	23.2002
419.265	18.3838
424.041	17.9824
428.816	31.4609
433.587	29.2217
438.356	212.417
443.122	37.9092
447.885	9.80664
452.646	252.497
457.404	254.831
462.159	91.543
466.911	208.022
471.661	42.5234
476.409	129.266
481.153	105.639
485.895	186.254
490.634	64.1621
495.37	276.398
500.104	176.094
504.835	95.6348
509.564	310.465
514.289	303.598
519.013	367.654
523.733	293.918
528.451	239.088
533.166	272.275
537.878	144.279
542.588	112.654
547.295	21.7012
551.999	238.897
556.701	328.619
561.4	139.008
566.096	113.01
570.79	37.0664
575.481	94.4727
580.169	57.2031
584.855	35.9629
589.538	271.477
594.219	207.945
598.896	143.049
603.571	97.3594
608.244	51.2148
612.914	5.04688
617.581	116.998
622.245	296.041
626.907	32.7441
631.566	12.0977
636.223	203.478
640.877	237.357
645.528	217.164
650.177	179.731
654.823	291.207
659.466	247.404
664.107	138.859
668.745	73.7012
673.38	77.9883
678.013	33.1562
682.643	132.877
687.271	329.621
691.896	639.379
696.518	584.85
701.138	290.846
705.755	648.441
710.369	1000.26
714.981	707.129
719.59	304.133
724.197	302.215
728.801	200.523
733.402	229.32
738.001	139.67
742.597	268.66
747.19	209.375
751.781	321.068
756.369	140.459
760.955	91.1777
765.538	119.228
770.118	10.0918
774.696	136.435
779.271	59.7812
783.844	147.973
788.414	169.115
792.981	234.672
797.546	17.8047
802.108	211.459
806.667	259.715
811.224	445.457
815.779	336.934
820.33	320.43
824.88	10.2324
829.426	371.668
833.97	161.397
838.512	390.549
843.05	34.6484
847.587	110.195
852.12	136.953
856.651	269.537
861.18	281.16
865.706	237.373
870.229	276.631
874.75	230.262
879.268	34.6016
883.783	168.228
888.296	171.281
892.807	14.0547
897.314	113.152
901.82	94.9512
906.322	219.228
910.822	138.502
915.32	165.434
919.815	78.5527
924.307	397.039
928.797	232.894
933.284	135.053
937.769	1.14453
942.251	134.56
946.731	252.102
951.208	132.728
955.682	164.065
960.154	145.1
964.623	132.004
969.09	243.078
973.554	156.475
978.016	186.512
982.475	440.185
986.931	188.176
991.385	35.832
995.837	396.33
1000.29	163.203
1004.73	2.50781
1009.18	214.106
1013.62	297.4
1018.06	46.4961
1022.49	141.215
1026.93	253.9
1031.36	307.705
1035.79	184.908
1040.21	18.7344
1044.63	48.0176
1049.06	332.641
1053.47	218.361
1057.89	422.014
1062.3	746.424
1066.71	4914.55
1071.12	10512.2
1075.53	2362.39
1079.93	998.094
1084.33	5151.17
1088.73	27607.5
1093.13	8460.38
1097.52	905.504
1101.91	440.256
1106.3	312.262
1110.68	81.6211
1115.07	356.275
1119.45	596.623
1123.83	245.791
1128.2	310.033
1132.57	214.527
1136.94	132.68
1141.31	267.148
1145.68	364.852
1150.04	158.09
1154.4	189.043
1158.76	190.734
1163.11	210.902
1167.47	224.535
1171.82	198.277
1176.16	233.613
1180.51	326.844
1184.85	60.8125
1189.19	410.957
1193.53	205.504
1197.87	239.922
1202.2	117.25
1206.53	71.0625
1210.86	248.297
1215.18	450.074
1219.51	301.844
1223.83	483.246
1228.15	144.363
1232.46	18.4883
1236.77	191.824
1241.09	253.199
1245.39	415.797
1249.7	42.5977
1254	284.859
1258.3	334.977
1262.6	307.574
1266.9	401.875
1271.19	64.1523
1275.48	223.926
1279.77	43.457
1284.05	191.465
1288.34	402.133
1292.62	123.219
1296.9	537.441
1301.17	405.035
1305.44	453.641
1309.72	193.891
1313.98	350.731
1318.25	505.016
1322.51	300.945
1326.78	44.2773
1331.03	314.008
1335.29	419.977
1339.54	204.93
1343.8	137.441
1348.04	146.656
1352.29	160.461
1356.53	145.098
1360.78	131.637
1365.02	228.723
1369.25	366.789
1373.49	192.648
1377.72	219.035
1381.95	114.914
1386.17	290.766
1390.4	357.723
1394.62	210.859
1398.84	182.332
1403.06	237.008
1407.27	456.984
1411.48	433.449
1415.69	827.047
1419.9	1180.46
1424.1	395.793
1428.31	89.3672
1432.51	507.25
1436.7	385.184
1440.9	408.344
1445.09	448.426
1449.28	366.785
1453.47	260.922
1457.65	297.785
1461.84	325.781
1466.02	278.957
1470.2	441.664
1474.37	541.418
1478.55	214.871
1482.72	302.363
1486.88	148.18
1491.05	511.719
1495.21	171.508
1499.38	310.516
1503.54	352.871
1507.69	670.996
1511.85	620.137
1516	407.926
1520.15	605.961
1524.29	558.695
1528.44	188.812
1532.58	351.731
1536.72	492
1540.86	419.035
1544.99	232.523
1549.12	487.559
1553.25	173.598
1557.38	28.7969
1561.51	134.098
1565.63	283.508
1569.75	17.8711
