Measurement: Raman, 514 nm, depolarized, Raman Data Processed
Mineral: Shortite
Rruff sample: R040184
Ideal chemistry: Na_2_Ca_2_(CO_3_)_3_
Locality: Green River, Wyoming, USA
Source: University of Arizona Mineral Museum
Description: Colorless single crystal fragments
Measured chemistry: (Na_1.47_Ca_0.27_[box]_0.26_)_Î£=2_Ca_2.00_(CO_3_)_3_
Pin_id: L00388
Orientation: Laser parallel to -c* (0 0 -1). Fiducial mark perpendicular to laser is parallel to a [1 0 0]
Raman shift (cm-1)	intensity
114.726	0
118.915	65.018
123.102	121.247
127.286	112.468
131.469	159.345
135.649	752.045
139.827	1158.49
144.003	452.479
148.177	375.126
152.348	972.809
156.517	1063.18
160.685	421.953
164.85	401.057
169.012	655.167
173.173	615.064
177.332	267.49
181.488	238.424
185.642	234.754
189.794	245.665
193.944	472.304
198.092	1125.42
202.237	1652.47
206.38	1106.41
210.522	498.915
214.661	182.444
218.798	107.228
222.932	46.607
227.065	191.401
231.196	236.954
235.324	226.958
239.45	315.625
243.574	399.717
247.696	314.087
251.816	441.763
255.933	914.485
260.049	2273.15
264.162	3869.7
268.274	2619.75
272.383	979.468
276.49	516.393
280.595	269.767
284.697	110.143
288.798	169.567
292.896	160.785
296.993	34.507
301.087	26.865
305.179	222.198
309.269	156.633
313.357	0.983
317.443	13.273
321.527	156.47
325.608	141.576
329.688	28.382
333.765	50.097
337.84	198.603
341.913	232.222
345.984	25.046
350.053	58.835
354.12	163.852
358.185	119.863
362.248	10.032
366.308	36.678
370.367	126.357
374.423	91.942
378.478	46.385
382.53	55.983
386.58	148.47
390.628	109.233
394.674	20.448
398.718	1.018
402.76	97.738
406.799	204.001
410.837	40.957
414.873	30.85
418.906	170.07
422.938	237.709
426.967	51.327
430.994	80.642
435.02	188.558
439.043	288.525
443.064	66.318
447.083	19.784
451.1	117.094
455.115	222.373
459.128	103.779
463.139	32.803
467.147	45.038
471.154	272.449
475.159	181.686
479.161	56.223
483.162	90.172
487.161	337.393
491.157	308.53
495.151	77.129
499.144	25.713
503.134	148.457
507.123	311.559
511.109	211.888
515.093	42.133
519.075	75.197
523.055	330.798
527.034	277.316
531.01	118.28
534.984	26.324
538.956	237.667
542.926	294.439
546.894	166.074
550.86	16.888
554.824	100.199
558.786	184.911
562.746	220.056
566.704	11.259
570.66	97.89
574.614	128.983
578.565	206.493
582.515	195.233
586.463	70.766
590.409	106.498
594.353	252.363
598.295	334.112
602.235	256.189
606.172	56.602
610.108	173.229
614.042	302.825
617.974	315.738
621.904	84.478
625.832	9.459
629.758	178.217
633.681	355.499
637.603	234.969
641.523	106.886
645.441	60.938
649.357	343.6
653.271	473.271
657.183	251.995
661.093	61.96
665.001	26.946
668.907	267.736
672.811	332.054
676.713	226.606
680.613	63.972
684.511	28.874
688.407	329.517
692.302	727.446
696.194	1111.3
700.084	150.582
703.972	57.79
707.859	627.557
711.743	1452.55
715.626	1069.44
719.506	301.745
723.384	85.644
727.261	303.261
731.136	433.065
735.008	399.788
738.879	80.398
742.748	45.24
746.614	290.446
750.479	456.471
754.342	411.551
758.203	108.246
762.062	1.023
765.919	115.642
769.774	309.515
773.627	315.841
777.479	161.679
781.328	63.617
785.175	82.314
789.021	407.457
792.864	435.824
796.706	310.759
800.545	5.671
804.383	50.723
808.219	135.437
812.053	320.067
815.885	225.901
819.715	282.647
823.543	40.91
827.369	99.905
831.193	313.855
835.016	457.788
838.836	316.98
842.654	0.714
846.471	4.62
850.286	131.798
854.099	465.37
857.909	519.538
861.718	293.174
865.525	76.654
869.331	89.879
873.134	163.021
876.935	485.703
880.735	538.216
884.532	220.341
888.328	12.489
892.122	134.395
895.913	236.369
899.703	538.561
903.491	480.386
907.278	212.623
911.062	69.898
914.844	121.006
918.625	172.718
922.404	504.196
926.18	505.982
929.955	336.104
933.728	72.461
937.499	153.797
941.269	194.904
945.036	486
948.801	616.779
952.565	307.172
956.327	118.021
960.087	108.777
963.845	237.831
967.601	521.133
971.355	571.011
975.107	307.922
978.858	58.547
982.607	63.694
986.353	85.939
990.098	255.288
993.841	480.943
997.583	545.432
1001.32	336.584
1005.06	12.987
1008.79	77.996
1012.53	258.972
1016.26	638.72
1019.99	839.501
1023.72	570.16
1027.45	136.646
1031.17	187.24
1034.89	197.652
1038.61	544.855
1042.33	815.186
1046.05	786.286
1049.77	570.553
1053.48	282.157
1057.19	392.856
1060.9	688.478
1064.61	1599.15
1068.32	10449.6
1072.02	10019.3
1075.72	1769.43
1079.42	1099.93
1083.12	1629.65
1086.82	15189.9
1090.51	24980.7
1094.21	2417.96
1097.9	1248.93
1101.59	829.484
1105.28	289.135
1108.96	79.361
1112.65	170.234
1116.33	399.146
1120.01	678.139
1123.69	825.316
1127.37	774.202
1131.04	146.24
1134.71	31.301
1138.39	180.425
1142.06	186.755
1145.72	673.532
1149.39	840.891
1153.05	761.751
1156.72	500.974
1160.38	275.526
1164.04	47.526
1167.69	126.4
1171.35	364.581
1175	753.414
1178.65	852.867
1182.31	651.828
1185.95	279.04
1189.6	95.788
1193.24	47.884
1196.89	165.631
1200.53	305.766
1204.17	701.536
1207.81	849.832
1211.44	854.57
1215.07	530.465
1218.71	239.433
1222.34	154.514
1225.97	299.102
1229.59	476.992
1233.22	751.185
1236.84	1084.79
1240.46	917.115
1244.08	619.159
1247.7	357.455
1251.32	191.175
1254.93	73.711
1258.54	266.613
1262.15	295.691
1265.76	766.012
1269.37	1127.12
1272.98	777.281
1276.58	421.789
1280.18	240.141
1283.78	8.857
1287.38	71.803
1290.98	371.602
1294.57	709.223
1298.17	825.883
1301.76	1121.39
1305.35	826.463
1308.94	711.055
1312.52	156.133
1316.11	60.688
1319.69	32.008
1323.27	94.273
1326.85	377.008
1330.43	801.219
1334	922.391
1337.58	948.766
1341.15	608.203
1344.72	436.957
1348.29	4.85
1351.86	106.596
1355.42	171.432
1358.99	398.998
1362.55	845.994
1366.11	1212.75
1369.67	929.918
1373.22	827.615
1376.78	652.605
1380.33	587.314
1383.88	410.789
1387.43	206.424
1390.98	36.52
1394.53	358.371
1398.07	657.52
1401.62	1014.14
1405.16	1135.9
1408.7	1339.56
1412.23	1239.63
1415.77	1370.31
1419.31	1764.43
1422.84	590.09
1426.37	86.41
1429.9	220.738
1433.43	232.314
1436.95	559.588
1440.48	1114.35
1444	1423.98
1447.52	1395.73
1451.04	1366.31
1454.56	906.746
1458.07	591.381
1461.59	286.781
1465.1	2.414
1468.61	209.17
1472.12	576.896
1475.62	835.799
1479.13	873.883
1482.63	1234.23
1486.14	1351.09
1489.64	1421.68
1493.14	1240.63
1496.63	879.965
1500.13	325.561
1503.62	75.25
1507.12	75.162
1510.61	5.229
1514.09	1.283
