Measurement: Raman, 514 nm, depolarized, Raman Data Processed
Mineral: Shortite
Rruff sample: R040184
Ideal chemistry: Na_2_Ca_2_(CO_3_)_3_
Locality: Green River, Wyoming, USA
Source: University of Arizona Mineral Museum
Description: Colorless single crystal fragments
Measured chemistry: (Na_1.47_Ca_0.27_[box]_0.26_)_Î£=2_Ca_2.00_(CO_3_)_3_
Pin_id: L00385
Orientation: Laser parallel to -b* (0 -1 0). Fiducial mark perpendicular to laser is parallel to -c [0 0 -1]
Raman shift (cm-1)	intensity
111.932	0
116.123	5.238
120.311	206.781
124.497	256.874
128.681	296.023
132.862	941.469
137.042	2081.08
141.219	1185.35
145.394	469.762
149.567	382.188
153.738	227.901
157.907	308.226
162.073	615.571
166.237	1160.77
170.4	1380.72
174.559	553.307
178.717	597.844
182.873	480.42
187.026	299.065
191.178	566.786
195.327	1063.17
199.474	1291.54
203.618	1104.18
207.761	884.707
211.902	642.579
216.04	234.078
220.176	187.396
224.31	210.686
228.442	184.269
232.572	156.213
236.7	343.292
240.825	343.338
244.948	370.63
249.07	446.261
253.189	864.759
257.306	1334.72
261.42	1761.7
265.533	2319.13
269.643	1856.8
273.752	781.139
277.858	347.429
281.962	290.173
286.064	345.466
290.164	151.201
294.262	13.012
298.358	208.889
302.451	444.046
306.543	5.729
310.632	56.842
314.719	32.32
318.804	191.107
322.887	17.129
326.968	40.22
331.047	122.242
335.124	180.343
339.198	42.857
343.271	29.736
347.341	238.33
351.409	302.49
355.475	56.748
359.539	24.521
363.601	225.83
367.661	203.298
371.719	29.705
375.775	108.156
379.828	113.628
383.88	153.057
387.929	73.582
391.977	8.554
396.022	153.259
400.065	232.45
404.106	70.871
408.146	61.936
412.182	160.199
416.217	318.661
420.25	168.075
424.281	26.383
428.31	204.668
432.336	332.346
436.361	146.172
440.383	16.279
444.404	132.148
448.422	334.936
452.438	152.591
456.453	16.049
460.465	107.061
464.475	318.843
468.483	297.571
472.489	87.528
476.493	75.427
480.495	294.182
484.495	339.463
488.493	49.497
492.489	12.556
496.482	98.027
500.474	329.071
504.464	185.169
508.451	58.168
512.437	64.545
516.421	360.703
520.402	347.615
524.382	64.008
528.359	99.716
532.335	275.89
536.308	311.234
540.279	255.467
544.249	31.911
548.216	12.777
552.181	317.155
556.145	261.505
560.106	85.623
564.065	3.864
568.023	210.696
571.978	380.788
575.931	363.405
579.882	65.847
583.831	79.892
587.779	381.599
591.724	394.903
595.667	167.151
599.608	37.909
603.547	126.09
607.485	408.726
611.42	440.823
615.353	17.86
619.284	26.539
623.213	203.033
627.141	464.265
631.066	404.967
634.989	16.807
638.91	149.017
642.829	319.011
646.747	493.248
650.662	390.354
654.575	40.396
658.486	138.323
662.396	262.415
666.303	560.83
670.209	371.375
674.112	18.851
678.013	125.964
681.913	380.527
685.81	597.849
689.706	391.361
693.599	348.765
697.491	165.984
701.38	352.232
705.268	657.692
709.154	983.452
713.037	353.678
716.919	488.461
720.799	581.319
724.677	625.812
728.553	531.678
732.427	143.378
736.299	96.196
740.169	270.473
744.037	644.471
747.903	552.131
751.767	259.516
755.629	67.466
759.49	316.354
763.348	624.602
767.204	657.707
771.059	281.113
774.911	29.711
778.762	162.182
782.611	533.307
786.457	773.148
790.302	342.223
794.145	126.706
797.986	237.144
801.825	333.25
805.662	532.205
809.497	443.646
813.33	133.424
817.162	117.255
820.991	47.218
824.818	521.906
828.644	660.804
832.468	400.559
836.289	150.09
840.109	80.344
843.927	296.113
847.743	444.99
851.557	507.797
855.369	405.365
859.179	53.457
862.988	291.145
866.794	379.076
870.599	756.068
874.401	713.484
878.202	239.713
882.001	94.096
885.798	291.172
889.593	536.703
893.386	742.156
897.177	697.055
900.966	312.023
904.754	196.855
908.539	135.844
912.323	530.697
916.105	844.623
919.885	668.631
923.663	162.58
927.439	65.572
931.213	259.352
934.985	802.76
938.756	785.959
942.525	747.604
946.291	257.949
950.056	371.066
953.819	282.668
957.58	685.318
961.339	775.055
965.097	897.986
968.852	481.314
972.606	66.482
976.358	43.287
980.108	415.215
983.856	543.195
987.602	777.924
991.346	246.527
995.089	76.9
998.829	220.977
1002.57	395.367
1006.3	574.34
1010.04	843.477
1013.77	883.551
1017.5	313.959
1021.23	153.434
1024.96	172.424
1028.69	654.391
1032.41	874.41
1036.13	933.742
1039.85	815.529
1043.57	454.711
1047.29	300.918
1051	534.867
1054.72	693.271
1058.43	960.496
1062.14	1517.36
1065.84	2044.22
1069.55	8210.83
1073.25	1267.05
1076.95	663.018
1080.66	1179.59
1084.35	2815.11
1088.05	32630.2
1091.74	5116.56
1095.44	958.928
1099.13	405.314
1102.82	240.707
1106.51	686.268
1110.19	801.131
1113.87	705.621
1117.56	785.539
1121.24	364.102
1124.91	36.656
1128.59	70.432
1132.27	242.998
1135.94	727.73
1139.61	1309.9
1143.28	1223.84
1146.95	760.883
1150.61	297.959
1154.28	9.615
1157.94	140.156
1161.6	382.646
1165.26	874.859
1168.91	1116.81
1172.57	987.047
1176.22	427.984
1179.87	57.938
1183.52	202.578
1187.17	138.561
1190.81	228.217
1194.46	776.748
1198.1	1227.93
1201.74	1236.2
1205.38	875.775
1209.02	228.672
1212.65	232.373
1216.29	675.926
1219.92	889.338
1223.55	1452.64
1227.17	1555.86
1230.8	1388.45
1234.42	1038.07
1238.05	249.568
1241.67	132.623
1245.29	331.893
1248.91	714.879
1252.52	1236.65
1256.13	1845.37
1259.75	1675.2
1263.36	1223.51
1266.97	652.404
1270.57	417.123
1274.18	8.195
1277.78	37.51
1281.38	619.059
1284.98	1225.93
1288.58	1130.68
1292.18	1325.74
1295.77	988.57
1299.36	381.191
1302.95	4.912
1306.54	8.734
1310.13	40.777
1313.72	633.355
1317.3	979.219
1320.88	1377.22
1324.46	1612.53
1328.04	1515.19
1331.62	902.26
1335.19	407.518
1338.77	13.654
1342.34	240.326
1345.91	438.846
1349.48	846.09
