Measurement: Raman, 514 nm, depolarized, Raman Data Processed
Mineral: Siderite
Rruff sample: R040034
Ideal chemistry: Fe^2+^CO_3_
Locality: Pribram, Czech Republic
Source: University of Arizona Mineral Museum
Description: Group of tan colored flattened rhombohedra
Measured chemistry: (Fe_0.72_Mg_0.24_Mn_0.03_Ca_0.01_)_Î£=1_C_1.00_O_3_; CO_2_ estimated by difference
Pin_id: M00043
Orientation: Laser parallel to -a* (-1 0 0). Fiducial mark perpendicular to laser is parallel to c [0 0 1]
Raman shift (cm-1)	intensity
97.554	0
101.732	32.806
105.908	79.803
110.082	115.549
114.254	227.375
118.424	148.947
122.592	132.514
126.758	148.01
130.922	133.737
135.083	161.2
139.243	142.1
143.401	141.25
147.557	121.378
151.711	118.292
155.863	194.861
160.013	186.132
164.161	347.781
168.308	391.888
172.452	539.384
176.594	770.476
180.734	1108.4
184.872	1612.44
189.008	1908.53
193.143	1538.71
197.275	755.973
201.405	407.328
205.534	220.793
209.66	102.382
213.784	39.095
217.907	3.068
222.027	29.888
226.146	87.958
230.263	38.138
234.377	3.577
238.49	56.993
242.601	72.465
246.709	96.918
250.816	128.2
254.921	185.597
259.024	221.535
263.125	351.845
267.224	441.553
271.321	700.927
275.416	991.03
279.51	1662.27
283.601	2860.86
287.69	4584.67
291.778	5840.71
295.863	5455.96
299.947	3824.38
304.029	2435.94
308.108	1538.65
312.186	933.531
316.262	659.542
320.336	504.646
324.408	327.836
328.478	290.105
332.546	265.981
336.612	200.105
340.677	155.25
344.739	119.714
348.799	126.231
352.858	147.812
356.915	109.441
360.969	120.093
365.022	133.773
369.073	74.487
373.122	28.244
377.169	83.022
381.215	72.791
385.258	91.339
389.299	15.673
393.339	21.093
397.376	0.82
401.412	10.447
405.446	23.739
409.478	82.91
413.508	94.421
417.536	26.175
421.562	18.812
425.586	1.401
429.609	34.229
433.629	0.284
437.648	41.353
441.665	1.205
445.68	32.964
449.693	67.873
453.704	119.954
457.713	68.021
461.721	147.773
465.726	215.522
469.73	234.237
473.731	245.913
477.731	249.376
481.729	343.411
485.725	374.07
489.72	398.01
493.712	440.051
497.703	472.764
501.691	501.408
505.678	503.425
509.663	523.138
513.646	485.76
517.627	507.46
521.607	484.512
525.584	375.653
529.56	487.711
533.534	437.905
537.506	346.255
541.476	366.448
545.444	237.597
549.41	290.949
553.375	263.836
557.337	230.304
561.298	266.898
565.257	252.664
569.214	134.48
573.17	101.501
577.123	88.669
581.075	47.079
585.024	90.25
588.972	165.288
592.918	31.288
596.863	68.435
600.805	29.958
604.746	105.19
608.685	27.948
612.621	14.498
616.557	96.188
620.49	13.621
624.421	114.43
628.351	16.283
632.279	73.851
636.205	79.209
640.129	116.118
644.051	24.703
647.972	33.444
651.89	144.78
655.807	13.192
659.722	123.827
663.636	19.098
667.547	27.342
671.457	54.05
675.365	44.271
679.271	107.354
683.175	99.169
687.077	26.473
690.978	63.087
694.877	106.655
698.774	100.438
702.669	46.956
706.562	158.513
710.454	83.745
714.344	247.615
718.232	360.328
722.118	468.893
726.002	795.367
729.885	900.141
733.766	736.168
737.645	742.126
741.522	669.499
745.397	564.409
749.271	445.896
753.143	389.735
757.013	243.736
760.881	182.797
764.748	161.135
768.613	134.892
772.476	153.467
776.337	58.461
780.196	152.875
784.054	113.544
787.91	99.379
791.764	103.096
795.616	7.787
799.467	35.735
803.316	79.094
807.163	66.078
811.008	43.246
814.851	5.384
818.693	31.836
822.533	116.491
826.371	70.627
830.208	85.503
834.042	7.296
837.875	173.378
841.706	65.35
845.536	21.616
849.363	114.219
853.189	65.926
857.013	90.225
860.836	169.021
864.656	157.295
868.475	259.029
872.292	175.665
876.108	116.192
879.922	68.681
883.733	12.097
887.544	171.408
891.352	124.62
895.159	69.74
898.964	44.736
902.767	171.625
906.568	50.438
910.368	7.175
914.166	134.84
917.962	163.434
921.757	26.966
925.55	104.153
929.341	82.065
933.13	70.994
936.918	146.819
940.703	123.512
944.488	21.217
948.27	57.591
952.051	17.524
955.83	167.872
959.607	83.17
963.383	63.151
967.156	77.41
970.928	77.734
974.699	198.15
978.468	92.132
982.234	155.314
986	99.979
989.763	77.547
993.525	176.832
997.285	87.968
1001.04	98.08
1004.8	160.516
1008.55	134.11
1012.31	217.377
1016.06	215.847
1019.81	285.868
1023.56	333.812
1027.31	237.132
1031.05	314.529
1034.79	330.828
1038.53	558.888
1042.27	756.441
1046.01	846.479
1049.75	1002.42
1053.48	1259.54
1057.22	1662.84
1060.95	2302.54
1064.68	3012.91
1068.4	3814.51
1072.13	5249.04
1075.86	7768.2
1079.58	13390.6
1083.3	27576.8
1087.02	45093
1090.74	34256.9
1094.45	16286.6
1098.17	7471.17
1101.88	4044.27
1105.59	2345.1
1109.3	1548.3
1113.01	976.351
1116.71	783.963
1120.42	671.402
1124.12	508.597
1127.82	224.513
1131.52	278.115
1135.22	334.91
1138.91	36.807
1142.61	159.969
1146.3	74.168
1149.99	74.892
1153.68	52.423
1157.37	64.441
1161.06	101.232
1164.74	43.365
1168.42	71.172
1172.1	13.354
1175.78	0.094
1179.46	63.65
1183.14	94.229
1186.81	117.471
1190.48	10.672
1194.15	24.487
1197.83	143.249
1201.49	104.831
1205.16	73.762
1208.82	0.892
1212.49	172.68
1216.15	74.878
1219.81	78.839
1223.46	93.414
1227.12	90.704
1230.78	11.993
1234.43	171.511
1238.08	63.784
1241.73	203.666
1245.38	194.324
1249.03	135.564
1252.67	92.194
1256.31	42.423
1259.95	19.499
1263.6	164.559
1267.23	124.632
1270.87	94.112
1274.51	113.38
1278.14	121.417
1281.77	134.107
1285.4	130.396
1289.03	16.463
1292.66	98.224
1296.28	40.668
1299.91	21.125
1303.53	55.075
1307.15	19.446
1310.77	20.138
1314.38	117.077
1318	33.479
1321.61	113.592
1325.23	117.104
1328.84	58.969
1332.45	15.05
1336.06	43.259
1339.66	128.773
1343.27	32.14
1346.87	97.013
1350.47	132.811
1354.07	79.578
1357.67	186.904
1361.26	111.134
1364.86	92.472
1368.45	154.29
1372.04	72.839
1375.63	128.877
1379.22	176.245
1382.81	87.28
1386.39	225.528
1389.98	149.565
1393.56	59.847
1397.14	192.969
1400.72	245.993
1404.3	74.984
1407.87	3.784
1411.45	278.913
1415.02	359.626
1418.59	339.281
1422.16	281.633
1425.73	310.483
1429.29	351.993
1432.86	541.083
1436.42	509.201
1439.98	438.231
1443.54	487.671
1447.1	445.43
1450.66	496.215
1454.21	564.952
1457.77	503.046
1461.32	450.109
1464.87	474.701
1468.42	448.373
1471.96	333.233
1475.51	345.063
1479.06	326.039
1482.6	356.684
1486.14	247.439
1489.68	264.692
1493.22	299.172
1496.75	236.288
1500.29	216.143
1503.82	222.222
1507.35	200.732
1510.88	274.41
1514.41	36.062
1517.94	0
