Measurement: Raman, 514 nm, depolarized, Raman Data Processed
Mineral: Siderite
Rruff sample: R040034
Ideal chemistry: Fe^2+^CO_3_
Locality: Pribram, Czech Republic
Source: University of Arizona Mineral Museum
Description: Group of tan colored flattened rhombohedra
Measured chemistry: (Fe_0.72_Mg_0.24_Mn_0.03_Ca_0.01_)_Î£=1_C_1.00_O_3_; CO_2_ estimated by difference
Pin_id: M00031
Orientation: Laser parallel to c* (0 0 1). Fiducial mark perpendicular to laser is parallel to a [1 0 0]
Raman shift (cm-1)	intensity
91.981	0
96.161	32.337
100.34	22.27
104.516	69.792
108.691	101.348
112.864	106.144
117.034	214.2
121.203	148.932
125.369	49.89
129.534	93.389
133.696	4.51
137.857	108.437
142.016	77.242
146.172	89.967
150.327	147.643
154.48	226.462
158.63	195.46
162.779	337.549
166.926	376.127
171.07	668.056
175.213	924.275
179.354	1390.54
183.493	2053.61
187.63	2317.25
191.765	1820.67
195.898	958.136
200.029	407.638
204.158	149.176
208.285	47.75
212.41	5.347
216.533	9.968
220.654	37.612
224.773	0.721
228.891	8.972
233.006	12.688
237.119	52.408
241.231	46.169
245.34	91.559
249.448	162.473
253.553	248.261
257.657	261.662
261.758	424.611
265.858	561.175
269.956	848.091
274.052	1255.9
278.146	2097.78
282.237	3635.73
286.327	5879.71
290.416	7788.72
294.502	7165.73
298.586	5040.74
302.668	3145.78
306.749	1919.82
310.827	1321.88
314.903	874.952
318.978	696.053
323.051	553.054
327.121	412.968
331.19	361.939
335.257	325.314
339.322	238.931
343.385	261.943
347.446	165.981
351.505	201.029
355.563	150.1
359.618	125.198
363.672	145.307
367.723	131.422
371.773	98.535
375.821	35.649
379.866	82.792
383.91	41.961
387.952	3.479
391.992	24.885
396.031	48.959
400.067	18.966
404.101	19.937
408.134	52.869
412.165	8.697
416.193	31.749
420.22	17.256
424.245	37.002
428.268	9.736
432.289	47.454
436.309	46.039
440.326	33.247
444.342	60.119
448.355	47.881
452.367	124.799
456.377	144.887
460.385	150.203
464.391	182.503
468.395	254.689
472.398	265.763
476.398	306.488
480.397	386.856
484.394	414.7
488.389	426.8
492.382	471.763
496.373	529.646
500.362	496.597
504.349	531.659
508.335	556.095
512.319	555.708
516.3	548.33
520.28	549.646
524.259	511.221
528.235	479.132
532.209	443.513
536.182	406.912
540.152	350.169
544.121	300.157
548.088	306.71
552.053	312.352
556.017	259.58
559.978	226.277
563.938	155.465
567.895	158.904
571.851	133.952
575.805	94.237
579.758	116.495
583.708	61.989
587.657	62.061
591.603	61.031
595.548	27.085
599.491	32.039
603.432	59.899
607.372	21.677
611.309	17.394
615.245	22.037
619.179	8.976
623.111	16.824
627.041	33.29
630.97	50.911
634.896	16.566
638.821	42.466
642.744	24.953
646.665	17.412
650.584	27.687
654.502	34.538
658.418	71.427
662.331	63.13
666.244	40.793
670.154	38.228
674.062	42.683
677.969	1.004
681.874	52.661
685.777	70.381
689.678	40.021
693.577	53.212
697.475	81.01
701.371	17.238
705.265	155.138
709.157	167.703
713.047	220.183
716.936	287.6
720.823	504.92
724.708	762.996
728.591	925.697
732.472	970.908
736.352	847.509
740.23	770.793
744.106	746.184
747.98	601.898
751.853	367.294
755.723	249.574
759.592	176.012
763.459	121.928
767.325	121.994
771.188	37.979
775.05	46.059
778.91	88.669
782.768	85.758
786.625	49.578
790.479	1.047
794.332	8.27
798.183	13.094
802.033	55.005
805.88	99.021
809.726	48.065
813.57	42.171
817.413	18.491
821.253	41.974
825.092	39.684
828.929	24.547
832.764	99.91
836.598	29.823
840.429	46.003
844.259	73.704
848.088	2.59
851.914	8.839
855.739	24.563
859.562	98.894
863.383	151.607
867.203	193.276
871.02	151.871
874.836	40.379
878.65	14.796
882.463	53.108
886.274	8.331
890.083	15.533
893.89	32.504
897.695	59.439
901.499	49.235
905.301	40.904
909.102	20.598
912.9	50.176
916.697	52.313
920.492	57.044
924.285	54.062
928.077	92.872
931.867	3.835
935.655	14.256
939.442	32.812
943.226	10.92
947.009	93.155
950.791	86.353
954.57	63.761
958.348	25.942
962.124	4.925
965.899	87.168
969.671	47.214
973.442	56.36
977.211	55.461
980.979	24.333
984.745	116.473
988.509	81.669
992.271	130.941
996.032	129.201
999.791	177.907
1003.55	119.236
1007.3	87.304
1011.06	196.855
1014.81	179.196
1018.56	218.636
1022.31	234.137
1026.06	276.494
1029.8	406.73
1033.55	518.601
1037.29	628.81
1041.03	772.979
1044.77	899.201
1048.5	1166.47
1052.24	1432.83
1055.97	1963.61
1059.7	2344.81
1063.43	3069.27
1067.16	4068.46
1070.89	5292.05
1074.61	7719.98
1078.34	12372.7
1082.06	23907.1
1085.78	46433.6
1089.5	46159.2
1093.21	23454.7
1096.93	10632.5
1100.64	5260.23
1104.35	2934.04
1108.06	1816.8
1111.77	1322.69
1115.48	870.594
1119.18	573.417
1122.89	698.249
1126.59	443.11
1130.29	344
1133.99	190.876
1137.68	187.792
1141.38	101.709
1145.07	134.772
1148.76	142.93
1152.45	91.925
1156.14	101.228
1159.83	59.165
1163.51	51.106
1167.19	14.188
1170.88	34.43
1174.56	1.704
1178.23	40.562
1181.91	75.112
1185.59	17.811
1189.26	60.53
1192.93	6.002
1196.6	93.383
1200.27	65.01
1203.94	118.852
1207.6	8.664
1211.27	1.146
1214.93	63.466
1218.59	83.09
1222.25	116.722
1225.9	102.237
1229.56	108.526
1233.21	103.071
1236.86	141.587
1240.51	153.974
1244.16	59.578
1247.81	138.289
1251.45	81.84
1255.1	30.342
1258.74	34.719
1262.38	114.032
1266.02	92.323
1269.66	50.581
1273.29	116.797
1276.93	6.016
1280.56	80.124
1284.19	136.146
1287.82	91.081
1291.45	119.838
1295.07	95.498
1298.7	39.087
1302.32	65.614
1305.94	53.054
1309.56	113.588
1313.18	8.923
1316.8	81.024
1320.41	38.919
1324.02	16.347
1327.63	11.175
1331.24	74.027
1334.85	48.902
1338.46	31.938
1342.06	15.589
1345.67	62.667
1349.27	8.59
1352.87	22.408
1356.47	66.256
1360.07	36.269
1363.66	77.248
1367.25	8.571
1370.85	25.415
1374.44	30.408
1378.03	71.294
1381.61	14.604
1385.2	92.014
1388.78	73.424
1392.37	26.783
1395.95	93.387
1399.53	137.564
1403.1	133.416
1406.68	166.448
1410.26	155.935
1413.83	328.975
1417.4	273.683
1420.97	339.616
1424.54	372.8
1428.1	416.421
1431.67	349.457
1435.23	418.782
1438.8	420.229
1442.36	350.732
1445.91	474.226
1449.47	340.436
1453.03	372.251
1456.58	416.691
1460.13	494.562
1463.68	406.802
1467.23	243.02
1470.78	389.833
1474.33	363.151
1477.87	261.539
1481.42	207.593
1484.96	190.553
1488.5	58.567
1492.04	182.067
1495.57	223.367
1499.11	155.972
1502.64	52.213
1506.17	44.258
1509.71	93.486
1513.23	85.226
1516.76	63.93
1520.29	0.831
1523.81	0
