Measurement: Raman, 514 nm, depolarized, Raman Data Processed
Mineral: Silicon
Rruff sample: R050145
Ideal chemistry: Si
Locality: synthetic from Dupont
Source: Gerry Gibbs
Description: Dark gray synthetic fragment
Measured chemistry: Si
Pin_id: L00283
Orientation: Laser parallel to -a* (-1 0 0). Fiducial mark perpendicular to laser is parallel to -b [0 -1 0]
Raman shift (cm-1)	intensity
114.351	0
118.527	43.605
122.701	154.117
126.873	67.211
131.042	343.871
135.21	491.371
139.376	1262.64
143.539	1055.14
147.701	926.996
151.861	815.379
156.018	714.676
160.174	449.646
164.327	351.945
168.479	456.105
172.628	437.18
176.776	507.391
180.922	418.486
185.065	446.469
189.207	486.07
193.346	434.723
197.484	276.139
201.619	262.418
205.753	70.336
209.884	62.906
214.014	14.225
218.141	21.123
222.267	34.359
226.391	56.434
230.512	23.75
234.632	54.963
238.749	46.396
242.865	137.553
246.979	211.211
251.09	206.125
255.2	2.08
259.308	28.626
263.414	30.331
267.517	132.411
271.619	87.182
275.719	73.434
279.817	246.557
283.913	513.778
288.007	842.746
292.099	1020.6
296.189	1300.5
300.277	1453.35
304.363	1571.19
308.447	1472.23
312.529	1453.42
316.609	1358.11
320.687	1338.03
324.764	1313.65
328.838	1373.45
332.91	1359.64
336.981	1325.48
341.049	1283.18
345.116	1313.37
349.18	1188.8
353.243	1171.3
357.304	1139.39
361.362	1160.23
365.419	1168.68
369.474	1159.35
373.527	1025.22
377.578	981.748
381.627	947.188
385.674	897.282
389.719	822.973
393.762	917.66
397.804	882.925
401.843	807.639
405.881	770.29
409.916	805.95
413.95	831.018
417.981	874.344
422.011	862.277
426.039	890.812
430.065	971.84
434.089	933.539
438.111	957.451
442.131	991.737
446.149	978.141
450.166	1043.33
454.18	857.648
458.193	1020.68
462.203	1024.23
466.212	1056.47
470.219	1085.71
474.224	1181.62
478.227	1116.49
482.228	1298.95
486.227	1320.59
490.224	1301.16
494.22	1459.53
498.213	1638.53
502.205	1875
506.194	2970.03
510.182	3664.88
514.168	8769.45
518.152	29593.6
522.134	49607.2
526.114	27241.5
530.093	10215.2
534.069	4179.25
538.044	2282.56
542.017	1497.09
545.987	1376.46
549.956	1119.22
553.923	690.38
557.889	621.798
561.852	455.561
565.813	578.854
569.773	361.939
573.731	339.346
577.686	356.331
581.64	180.381
585.593	730.856
589.543	562.415
593.491	132.128
597.438	6.364
601.382	89.754
605.325	149.638
609.266	135.859
613.205	169.994
617.142	246.234
621.078	210.984
625.011	228.78
628.943	143.694
632.872	69.114
636.8	73.304
640.726	107.748
644.651	121.395
648.573	174.827
652.494	8.076
656.412	152.668
660.329	235.554
664.244	108.306
668.157	100.911
672.069	13.376
675.978	145.705
679.886	67.908
683.792	129.975
687.696	11.902
691.598	13.682
695.498	21.014
699.397	23.21
703.293	29.054
707.188	99.938
711.081	39.232
714.972	18.85
718.862	79.125
722.749	10.44
726.635	41.005
730.519	2.701
734.401	15.164
738.281	50.96
742.16	0.823
746.036	2.949
749.911	28.203
753.784	24.3
757.655	67.405
761.525	10.151
765.392	73.417
769.258	57.047
773.122	31.371
776.984	65.62
780.844	40.187
784.703	103.944
788.56	47.616
792.415	30.752
796.268	164.104
800.119	466.828
803.969	169.982
807.816	7.235
811.662	95.721
815.506	129.288
819.349	92.536
823.189	205.367
827.028	277.983
830.865	121.222
834.7	253.951
838.534	166.358
842.365	158.434
846.195	129.862
850.023	81.737
853.85	161.592
857.674	147.998
861.497	195.335
865.318	101.085
869.137	147.473
872.955	137.396
876.77	123.339
880.584	113.426
884.396	93.434
888.207	212.448
892.015	206.747
895.822	102.672
899.627	179.307
903.43	257.27
907.232	237.033
911.032	140.375
914.83	259.203
918.626	123.163
922.42	237.19
926.213	509.879
930.004	644.24
933.793	905.86
937.581	1340.29
941.366	1863.93
945.15	2058.54
948.932	2182.92
952.713	2257.85
956.491	2252.87
960.268	2296.43
964.044	2391.62
967.817	2446.88
971.589	2422.22
975.359	2467.66
979.127	2533.2
982.893	2428.81
986.658	2344.53
990.421	2093
994.183	1782.69
997.942	1378.87
1001.7	1140.04
1005.46	886.533
1009.21	782.125
1012.96	685.242
1016.71	596.518
1020.46	566.359
1024.21	524.081
1027.96	491.863
1031.7	460.504
1035.44	408.483
1039.18	246.399
1042.92	135.317
1046.66	184.035
1050.39	214.247
1054.13	286.62
1057.86	125.966
1061.59	126.251
1065.32	236.062
1069.05	205.113
1072.77	103.956
1076.49	172.828
1080.22	281.951
1083.94	121.277
1087.65	103.323
1091.37	132.277
1095.09	141.19
1098.8	200.503
1102.51	91.022
1106.22	110.396
1109.93	110.375
1113.63	39.838
1117.34	8.888
1121.04	99.442
1124.74	100.637
1128.44	29.619
1132.14	171.367
1135.84	49.438
1139.53	15.463
1143.22	14.32
1146.91	85.557
1150.61	3.362
1154.29	2.008
1157.98	42.129
1161.66	30.058
1165.35	37.065
1169.03	45.925
1172.71	23.675
1176.38	0.602
1180.06	48.757
1183.73	109.866
1187.41	50.44
1191.08	119.326
1194.75	36.062
1198.41	106.616
1202.08	152.849
1205.74	138.892
1209.41	45.775
1213.07	71.308
1216.73	156.075
1220.38	191.203
1224.04	165.728
1227.69	100.055
1231.35	124.495
1235	168.682
1238.65	162.537
1242.3	76.006
1245.94	89.303
1249.59	182.403
1253.23	25.286
1256.87	127.979
1260.51	160.345
1264.15	42.502
1267.78	4.388
1271.42	145.92
1275.05	27.017
1278.68	77.857
1282.31	14.313
1285.94	175.964
1289.56	63.133
1293.19	97.529
1296.81	106.784
1300.43	85.499
1304.05	25.758
1307.67	16.044
1311.29	59.665
1314.9	64.716
1318.52	161.676
1322.13	58.152
1325.74	5.242
1329.34	18.627
1332.95	2.411
1336.56	63.101
1340.16	41.788
1343.76	162.424
1347.36	94.043
1350.96	118.586
1354.56	163.44
1358.15	187.465
1361.74	92.199
1365.34	116.724
1368.93	120.787
1372.52	154.148
1376.1	167.668
1379.69	135.899
1383.27	201.659
1386.85	167.422
1390.43	233.618
1394.01	215.482
1397.59	217.724
1401.17	184.889
1404.74	147.23
1408.31	190.279
1411.88	228.014
1415.45	216.439
1419.02	138.976
1422.59	153.283
1426.15	165.353
1429.71	48.726
1433.28	118.295
1436.84	105.7
1440.39	205.718
1443.95	175.874
1447.5	134.423
1451.06	173.373
1454.61	152.035
1458.16	100.008
1461.71	227.838
1465.26	195.512
1468.8	164.169
1472.34	292.943
1475.89	178.766
1479.43	127.745
1482.97	97.306
1486.5	195.069
1490.04	137.216
1493.57	37.95
1497.11	169.883
1500.64	153.007
1504.17	27.837
1507.69	82.76
1511.22	90.563
1514.74	0
