Measurement: Raman, 514 nm, depolarized, Raman Data Processed
Mineral: Smithsonite
Rruff sample: R040051
Ideal chemistry: Zn^2+^CO_3_
Locality: Berg Aukas mine, Grootfontein, Namibia
Source: University of Arizona Mineral Museum
Description: Yellowish brown botryoidal groups
Measured chemistry: (Zn_0.94_Ca_0.02_Mg_0.02_)C_1.01_O_3_
Pin_id: M00001
Orientation: Laser parallel to -a* (-1 0 0). Fiducial mark perpendicular to laser is parallel to c [0 0 1]
Raman shift (cm-1)	intensity
91.981	0
96.161	50.054
100.34	34.414
104.516	113.94
108.691	73.102
112.864	156.845
117.034	415.716
121.203	175.762
125.369	58.661
129.534	56.031
133.696	47.542
137.857	9.289
142.016	3.279
146.172	11.041
150.327	31.023
154.48	46.013
158.63	19.618
162.779	92.682
166.926	121.354
171.07	211.398
175.213	287.497
179.354	465.961
183.493	801.605
187.63	1862.34
191.765	3645.1
195.898	4254.81
200.029	2533.39
204.158	1035.73
208.285	380.927
212.41	190.072
216.533	117.2
220.654	39.298
224.773	46.354
228.891	45.512
233.006	77.344
237.119	9.809
241.231	67.192
245.34	100.354
249.448	97.251
253.553	77.302
257.657	136.521
261.758	216.88
265.858	206.915
269.956	277.295
274.052	372.739
278.146	558.002
282.237	810.535
286.327	1270
290.416	2152.09
294.502	4066.92
298.586	7394.92
302.668	10037
306.749	8527.73
310.827	4916.76
314.903	2537.8
318.978	1331.07
323.051	771.103
327.121	492.944
331.19	317.683
335.257	269.077
339.322	239.719
343.385	145.171
347.446	123.856
351.505	92.26
355.563	100.615
359.618	57.056
363.672	59.445
367.723	46.813
371.773	26.06
375.821	23.463
379.866	30.145
383.91	26.214
387.952	45.454
391.992	42.443
396.031	68.201
400.067	8.616
404.101	33.596
408.134	4.537
412.165	61.602
416.193	10.113
420.22	3.884
424.245	47.504
428.268	5.864
432.289	69.135
436.309	38.309
440.326	1.599
444.342	16.408
448.355	5.572
452.367	36.436
456.377	4.22
460.385	1.943
464.391	20.644
468.395	67.317
472.398	11.001
476.398	30.825
480.397	38.77
484.394	39.855
488.389	65.37
492.382	36.853
496.373	55.271
500.362	83.609
504.349	51.002
508.335	46.391
512.319	63.299
516.3	61.941
520.28	61.841
524.259	46.443
528.235	127.45
532.209	73.099
536.182	44.399
540.152	93.413
544.121	36.351
548.088	10.562
552.053	63.925
556.017	85.476
559.978	61.052
563.938	82.448
567.895	119.756
571.851	114.231
575.805	63.934
579.758	125.316
583.708	82.336
587.657	99.701
591.603	112.885
595.548	84.355
599.491	68.869
603.432	93.241
607.372	49.991
611.309	75.365
615.245	134.163
619.179	209.084
623.111	283.91
627.041	283.956
630.97	166.8
634.896	119.125
638.821	167.685
642.744	169.26
646.665	240.24
650.584	188.293
654.502	146.054
658.418	103.294
662.331	86.613
666.244	90.55
670.154	41.271
674.062	0.3
677.969	27.474
681.874	14.549
685.777	8.206
689.678	22.369
693.577	9.536
697.475	6.499
701.371	4.568
705.265	36.363
709.157	79.262
713.047	16.746
716.936	70.089
720.823	202.798
724.708	581.474
728.591	2055.23
732.472	1222.96
736.352	324.5
740.23	139.026
744.106	113.656
747.98	76.242
751.853	20.791
755.723	16.293
759.592	16.755
763.459	59.595
767.325	10.315
771.188	9.342
775.05	54.921
778.91	1.761
782.768	8.645
786.625	0.649
790.479	24.374
794.332	14.158
798.183	1.979
802.033	26.194
805.88	9.497
809.726	28.163
813.57	21.806
817.413	33.665
821.253	65.57
825.092	73.008
828.929	70.563
832.764	55.714
836.598	163.481
840.429	119.593
844.259	148.769
848.088	119.318
851.914	196.077
855.739	231.867
859.562	314.771
863.383	301.086
867.203	201.677
871.02	112.189
874.836	126.736
878.65	118.297
882.463	93.867
886.274	58.445
890.083	136.044
893.89	102.658
897.695	120.289
901.499	146.939
905.301	117.487
909.102	74.043
912.9	125.571
916.697	85.296
920.492	47.833
924.285	89.622
928.077	8.108
931.867	98.345
935.655	64.713
939.442	6.498
943.226	30.871
947.009	68.105
950.791	106.833
954.57	64.929
958.348	39.962
962.124	67.085
965.899	87.285
969.671	0.458
973.442	22.263
977.211	3.055
980.979	12.452
984.745	57.893
988.509	74.373
992.271	47.907
996.032	86.501
999.791	329.164
1003.55	321.07
1007.3	139.651
1011.06	161.458
1014.81	137.587
1018.56	195.468
1022.31	299.392
1026.06	348.254
1029.8	395.23
1033.55	395.194
1037.29	523.65
1041.03	576.108
1044.77	684.196
1048.5	891.54
1052.24	998.744
1055.97	1097.66
1059.7	1175.98
1063.43	1342.4
1067.16	1778.78
1070.89	2288.91
1074.61	3010.82
1078.34	4942.22
1082.06	8574.09
1085.78	16780.2
1089.5	35684.1
1093.21	52604.6
1096.93	29891.2
1100.64	11602.8
1104.35	5161.48
1108.06	2659.72
1111.77	1667.54
1115.48	1007.23
1119.18	688.478
1122.89	578.673
1126.59	346.359
1130.29	315.042
1133.99	173.848
1137.68	235.557
1141.38	53.306
1145.07	66.967
1148.76	36.312
1152.45	20.27
1156.14	31.829
1159.83	59.486
1163.51	46.014
1167.19	50.499
1170.88	30.028
1174.56	26.368
1178.23	5.255
1181.91	124.087
1185.59	6.399
1189.26	38.873
1192.93	52.187
1196.6	55.11
1200.27	38.25
1203.94	96.44
1207.6	17.995
1211.27	47.422
1214.93	2.297
1218.59	3.393
1222.25	20.371
1225.9	23.941
1229.56	41.67
1233.21	70.251
1236.86	135.775
1240.51	60.231
1244.16	63.596
1247.81	84.03
1251.45	56.374
1255.1	5.348
1258.74	87.877
1262.38	67.066
1266.02	126.217
1269.66	105.32
1273.29	68.394
1276.93	17.433
1280.56	73.437
1284.19	42.409
1287.82	63.344
1291.45	58.182
1295.07	141.69
1298.7	147.224
1302.32	76.918
1305.94	40.177
1309.56	79.535
1313.18	43.932
1316.8	190.382
1320.41	111.71
1324.02	72.589
1327.63	70.851
1331.24	81.056
1334.85	4.896
1338.46	7.039
1342.06	9.93
1345.67	12.027
1349.27	36.659
1352.87	25.651
1356.47	64.261
1360.07	40.56
1363.66	118.867
1367.25	104.37
1370.85	75.753
1374.44	144.257
1378.03	113.215
1381.61	217.845
1385.2	391.952
1388.78	470.401
1392.37	434.977
1395.95	609.149
1399.53	991.338
1403.1	2498.32
1406.68	6910.26
1410.26	7429.19
1413.83	2740.25
1417.4	1146.09
1420.97	667.104
1424.54	569.17
1428.1	357.24
1431.67	380.863
1435.23	404.199
1438.8	414.85
1442.36	599.884
1445.91	589.267
1449.47	627.836
1453.03	643.37
1456.58	697.96
1460.13	671.543
1463.68	639.21
1467.23	467.826
1470.78	375.458
1474.33	380.878
1477.87	387.275
1481.42	268.471
1484.96	278.697
1488.5	193.309
1492.04	207.333
1495.57	62.899
1499.11	78.23
1502.64	20.717
1506.17	30.315
1509.71	16.142
1513.23	81.192
1516.76	103.399
1520.29	60.136
1523.81	0
