Measurement: Raman, 514 nm, depolarized, Raman Data Processed
Mineral: Smithsonite
Rruff sample: R040051
Ideal chemistry: Zn^2+^CO_3_
Locality: Berg Aukas mine, Grootfontein, Namibia
Source: University of Arizona Mineral Museum
Description: Yellowish brown botryoidal groups
Measured chemistry: (Zn_0.94_Ca_0.02_Mg_0.02_)C_1.01_O_3_
Pin_id: M00015
Orientation: Laser parallel to c* (0 0 1). Fiducial mark perpendicular to laser is parallel to a [1 0 0]
Raman shift (cm-1)	intensity
97.554	0
101.732	91.699
105.908	161.764
110.082	112.133
114.254	250.201
118.424	163.053
122.592	97.857
126.758	51.276
130.922	48.768
135.083	60.19
139.243	90.162
143.401	89.585
147.557	0.613
151.711	19.512
155.863	59.802
160.013	94.281
164.161	131.537
168.308	253.049
172.452	335.777
176.594	449.75
180.734	834.304
184.872	1695.08
189.008	3297.93
193.143	5955.83
197.275	5567.77
201.405	2381.67
205.534	1084.48
209.66	506.189
213.784	245.818
217.907	153.52
222.027	46.205
226.146	76.791
230.263	28.35
234.377	3.738
238.49	12.52
242.601	32.327
246.709	34.989
250.816	7.788
254.921	149.408
259.024	100.666
263.125	237.134
267.224	248.726
271.321	286.347
275.416	387.984
279.51	546.935
283.601	769.01
287.69	1204.15
291.778	2232.61
295.863	4012.14
299.947	6505.16
304.029	7716.09
308.108	6402.52
312.186	3633.12
316.262	1885.7
320.336	1072.42
324.408	633.09
328.478	391.61
332.546	252.251
336.612	260.323
340.677	195.597
344.739	178.622
348.799	133.84
352.858	88.868
356.915	93.966
360.969	134.769
365.022	71.39
369.073	44.923
373.122	17.611
377.169	57.266
381.215	29.895
385.258	41.284
389.299	125.502
393.339	44.299
397.376	28.732
401.412	2.49
405.446	45.876
409.478	11.693
413.508	24.979
417.536	36.171
421.562	42.697
425.586	23.781
429.609	35.104
433.629	12.289
437.648	6.557
441.665	61.108
445.68	9.755
449.693	15.243
453.704	5.448
457.713	89.696
461.721	115.748
465.726	106.673
469.73	155.46
473.731	51.107
477.731	66.605
481.729	85.958
485.725	49.163
489.72	30.771
493.712	55.082
497.703	105.732
501.691	121.219
505.678	46.572
509.663	38.162
513.646	106.318
517.627	202.531
521.607	165.857
525.584	82.064
529.56	128.937
533.534	72.362
537.506	109.225
541.476	154.23
545.444	130.823
549.41	174.536
553.375	67.91
557.337	107.826
561.298	146.751
565.257	177.434
569.214	208.994
573.17	148.456
577.123	87.488
581.075	179.225
585.024	199.526
588.972	230.947
592.918	223.302
596.863	231.904
600.805	158.514
604.746	203.051
608.685	191.077
612.621	202.375
616.557	337.695
620.49	420.681
624.421	516.444
628.351	403.081
632.279	270.296
636.205	291.275
640.129	388.399
644.051	411.792
647.972	450.793
651.89	360.593
655.807	227.729
659.722	227.833
663.636	178.08
667.547	94.209
671.457	11.749
675.365	46.727
679.271	19.742
683.175	12.449
687.077	12.59
690.978	16.456
694.877	95.242
698.774	128.659
702.669	16.606
706.562	111.229
710.454	44.558
714.344	203.863
718.232	274.49
722.118	533.086
726.002	1772.51
729.885	3924.01
733.766	1415.13
737.645	586.548
741.522	251.069
745.397	242.542
749.271	124.978
753.143	67.385
757.013	78.753
760.881	51.712
764.748	52.404
768.613	57.696
772.476	58.906
776.337	9.002
780.196	48.042
784.054	69.241
787.91	35.253
791.764	63.252
795.616	107.238
799.467	115.208
803.316	94.444
807.163	126.39
811.008	157.551
814.851	120.478
818.693	121.487
822.533	205.755
826.371	183.641
830.208	235.299
834.042	144.397
837.875	165.216
841.706	192.19
845.536	326.354
849.363	342.136
853.189	292.666
857.013	444.288
860.836	518.35
864.656	404.162
868.475	400.376
872.292	253.635
876.108	227.938
879.922	159.29
883.733	251.688
887.544	255.136
891.352	215.641
895.159	254.207
898.964	247.853
902.767	206.59
906.568	300.593
910.368	142.59
914.166	148.69
917.962	105.897
921.757	32.413
925.55	84.122
929.341	11.777
933.13	124.834
936.918	223.578
940.703	122.391
944.488	63.271
948.27	134.218
952.051	192.585
955.83	147.524
959.607	123.448
963.383	6.642
967.156	174.405
970.928	65.245
974.699	86.129
978.468	75.576
982.234	107.092
986	122.658
989.763	75.379
993.525	84.198
997.285	196.144
1001.04	518.31
1004.8	256.115
1008.55	171.64
1012.31	177.151
1016.06	271.745
1019.81	400.454
1023.56	398.19
1027.31	431.047
1031.05	428.939
1034.79	478.807
1038.53	593.868
1042.27	689.762
1046.01	789.485
1049.75	903.381
1053.48	980.707
1057.22	1173.71
1060.95	1289.97
1064.68	1526.3
1068.4	2220.1
1072.13	2857.98
1075.86	4016.38
1079.58	6779.21
1083.3	12278.1
1087.02	24365.4
1090.74	49428.4
1094.45	48933.2
1098.17	22048
1101.88	9493.96
1105.59	4704.53
1109.3	2830.4
1113.01	1772.28
1116.71	1130.96
1120.42	804.972
1124.12	644.855
1127.82	397.729
1131.52	199.233
1135.22	300.958
1138.91	44.794
1142.61	19.688
1146.3	33.329
1149.99	29.098
1153.68	13.824
1157.37	46.505
1161.06	74.533
1164.74	58.735
1168.42	50.285
1172.1	29.787
1175.78	74.238
1179.46	93.638
1183.14	80.996
1186.81	48.288
1190.48	4.754
1194.15	26.663
1197.83	32.955
1201.49	155.359
1205.16	74.947
1208.82	11.768
1212.49	96.125
1216.15	26.895
1219.81	54.465
1223.46	10.453
1227.12	55.855
1230.78	19.583
1234.43	73.924
1238.08	187.179
1241.73	213.353
1245.38	212.462
1249.03	137.505
1252.67	208.477
1256.31	44.377
1259.95	13.206
1263.6	148.954
1267.23	272.605
1270.87	337.184
1274.51	190.684
1278.14	296.119
1281.77	232.483
1285.4	180.768
1289.03	20.151
1292.66	203.643
1296.28	242.215
1299.91	150.174
1303.53	208.365
1307.15	240.554
1310.77	192.641
1314.38	323.586
1318	343.477
1321.61	201.217
1325.23	290.884
1328.84	155.541
1332.45	48.965
1336.06	41.728
1339.66	65.831
1343.27	1.872
1346.87	122.664
1350.47	106.434
1354.07	166.812
1357.67	46.252
1361.26	110.748
1364.86	52.86
1368.45	189.733
1372.04	78.523
1375.63	253.271
1379.22	208.461
1382.81	227.385
1386.39	300.764
1389.98	349.483
1393.56	343.967
1397.14	579.68
1400.72	994.103
1404.3	2129.4
1407.87	3725.47
1411.45	2366.98
1415.02	1115.81
1418.59	817.552
1422.16	390.199
1425.73	377.755
1429.29	352.202
1432.86	396.773
1436.42	601.114
1439.98	675.411
1443.54	972.28
1447.1	987.484
1450.66	1057.12
1454.21	1148.63
1457.77	1189.49
1461.32	1144.9
1464.87	875.082
1468.42	761.071
1471.96	636.943
1475.51	568.531
1479.06	423.166
1482.6	410.449
1486.14	371.836
1489.68	356.822
1493.22	232.26
1496.75	107.396
1500.29	148.612
1503.82	32.507
1507.35	121.233
1510.88	115.299
1514.41	86.259
1517.94	44.743
1521.46	59.077
1524.99	0
