Measurement: Raman, 514 nm, ccw, Raman Data Processed
Mineral: Sodalite
Rruff sample: R060435
Ideal chemistry: Na_4_Si_3_Al_3_O_12_Cl
Locality: Koksha Valley, Badakshan Province, Afghanistan
Source: Herb Obodda
Description: Pale purple fragment
Measured chemistry: (Na_0.99_K_0.01_)_8_Al_6.00_Si_6.00_O_24_Cl_2_
Pin_id: L00857
Orientation: Laser parallel to a* (1 0 0). Fiducial mark perpendicular to laser is parallel to b [0 1 0]
Raman shift (cm-1)	intensity
69.761	0
74.718	1835.81
79.673	1313.56
84.626	1008.56
89.575	1592.88
94.523	2025.59
99.467	2105.91
104.409	2987.09
109.349	3467.5
114.286	3803.12
119.22	1384.81
124.152	1690.53
129.081	1901
134.008	3007.97
138.932	2738.5
143.854	5231.91
148.773	4993.47
153.69	6316.84
158.604	9129.25
163.515	16346.6
168.424	16901.3
173.33	9394.53
178.234	6271.56
183.135	3859.69
188.034	3815.88
192.93	2927.31
197.823	3006
202.714	2989.97
207.602	4297.38
212.488	2267.75
217.371	3092.91
222.252	2982.69
227.13	4942.72
232.005	5492.62
236.878	4228.75
241.749	5235.03
246.616	7826.56
251.482	11991.8
256.344	17927.2
261.204	25282.6
266.062	26137.7
270.917	18249.7
275.769	12143.7
280.619	8510.5
285.466	6437.75
290.311	6560.09
295.153	9045.34
299.992	5018.59
304.829	2763.75
309.663	512.688
314.495	722.25
319.324	1153.41
324.151	1583.22
328.975	745.688
333.796	909.781
338.615	85.2188
343.432	122.281
348.245	234.438
353.056	15.1875
357.865	308.625
362.671	22.7188
367.474	144.312
372.275	54.375
377.073	161.5
381.869	1168.5
386.662	28.5
391.452	530.125
396.24	918.375
401.025	384.625
405.808	2674.62
410.588	5060.75
415.366	3112.25
420.141	2778
424.913	2876.06
429.683	2976.44
434.45	4226.88
439.214	5059.06
443.976	9091.56
448.736	15766.9
453.493	35921.1
458.247	79688.2
462.998	137110
467.747	103945
472.494	46302.5
477.238	23579.3
481.979	14998.3
486.718	9203.62
491.454	8898.5
496.187	7333.56
500.918	6679.94
505.646	4027.88
510.372	3824.75
515.095	3086.12
519.816	2702.62
524.534	1523.62
529.249	2471.88
533.962	1365.94
538.672	2079.44
543.379	2310.44
548.084	1592.75
552.786	1072.94
557.486	775.062
562.183	875.938
566.878	997.938
571.57	483.375
576.259	243
580.946	1795.88
585.63	727.375
590.311	3142.62
594.99	2528.81
599.667	2467.31
604.34	2995.12
609.012	3927.44
613.68	1712.19
618.346	2807.62
623.009	1435.81
627.67	2940.88
632.328	2411
636.984	2212.31
641.636	2683.62
646.287	2272.75
650.934	2641.38
655.579	1965.31
660.222	1731.56
664.862	2193
669.499	2948.31
674.134	2652.31
678.766	1804.5
683.395	2398.44
688.022	202.75
692.646	1153.38
697.268	2103.5
701.887	3995.88
706.503	2705.69
711.117	3419.88
715.728	2206.44
720.337	840.5
724.943	484.25
729.546	2581.38
734.147	2964.81
738.745	3161.06
743.341	5450
747.933	5161.69
752.524	6488.25
757.111	5637.75
761.697	5717.69
766.279	6715
770.859	5511.12
775.436	5273.81
780.011	4092.25
784.583	3809.88
789.152	4298.94
793.719	269
798.283	2200
802.845	1822.19
807.404	2042.5
811.96	3404.5
816.514	5063.62
821.065	5154.69
825.613	5285
830.159	3960.06
834.703	5407.94
839.243	6572.25
843.781	6088
848.317	5898.12
852.849	6470.69
857.38	6440
861.907	5067.81
866.432	5306.12
870.954	6444.5
875.474	4944.19
879.991	4557.38
884.506	5153.19
889.018	5485.62
893.527	4008.88
898.034	3952.44
902.538	3686.5
907.039	5062.94
911.538	4491.25
916.034	5133.69
920.528	5807.06
925.018	3973.06
929.507	3693.75
933.992	3673.31
938.476	2476.44
942.956	3252.75
947.434	3287.62
951.909	2628.06
956.382	3457.06
960.852	3542
965.319	6681.25
969.784	7511.06
974.246	7853.19
978.705	12051.9
983.162	25587.3
987.616	41506.3
992.068	19197.6
996.517	8615.19
1000.96	6845.12
1005.41	4973.19
1009.85	4982.38
1014.29	3375.62
1018.72	1361.12
1023.16	1277.12
1027.59	1063.75
1032.02	1074.44
1036.44	1602.31
1040.86	463.938
1045.28	581.688
1049.7	115.625
1054.12	4622.94
1058.53	5130.94
1062.94	6175.88
1067.35	3482.25
1071.75	1414.5
1076.15	80.1875
1080.55	1323.12
1084.95	431.062
1089.34	505.5
1093.73	2327.19
1098.12	1085.12
1102.51	2108.44
1106.89	2932.81
1111.27	2447.88
1115.65	1795.06
1120.03	2447.5
1124.4	1860.81
1128.77	2298.38
1133.14	2108.06
1137.5	391.375
1141.86	2209.62
1146.22	2317.81
1150.58	847.812
1154.93	2799.25
1159.29	2624.06
1163.64	84.8125
1167.98	1915.94
1172.33	1699.62
1176.67	15.3125
1181.01	1731.5
1185.34	1133.31
1189.68	287.125
1194.01	1137.69
1198.34	835.5
1202.66	868.875
1206.99	3218.81
1211.31	449.312
1215.62	1049.56
1219.94	2849.25
1224.25	1532.56
1228.56	1383.62
1232.87	2832.31
1237.17	2236.38
1241.48	1442.69
1245.78	869
1250.07	1708.38
1254.37	2594.5
1258.66	376.188
1262.95	215.562
1267.23	2112
1271.52	519
1275.8	2337.19
1280.08	1734.44
1284.35	933.125
1288.63	1651.5
1292.9	2227.75
1297.16	1829.25
1301.43	1728.5
1305.69	1761.06
1309.95	1990.31
1314.21	1089.88
1318.46	2028.19
1322.72	1628.81
1326.97	2384.62
1331.21	1161.69
1335.46	1479
1339.7	1952.69
1343.94	2616.94
1348.18	2617.56
1352.41	1549.69
1356.64	2262.88
1360.87	2674.19
1365.1	1179.75
1369.32	3638.5
1373.54	3040.44
1377.76	2419.31
1381.97	4652.38
1386.19	2712.88
1390.4	4587.19
1394.6	2648.81
1398.81	2232.44
1403.01	4898.38
1407.21	2618
1411.41	5209.31
1415.6	4013.12
1419.79	3580.44
1423.98	4546.62
1428.17	3106.38
1432.35	4347
1436.54	3275
1440.71	1461.38
1444.89	4327.06
1449.06	1724.62
1453.23	3539.75
1457.4	2306.69
1461.57	1837.06
1465.73	3241.12
1469.89	795.688
1474.05	2810.31
1478.2	1149.81
1482.36	1464.94
1486.51	1882.19
1490.65	319.25
1494.8	2972.5
1498.94	1018.25
1503.08	1636.5
1507.22	690.312
1511.35	98.75
1515.48	2573
1519.61	378.188
1523.74	1991.19
1527.86	1836.44
1531.98	1202.25
1536.1	3380.44
1540.22	320.625
1544.33	3516.62
1548.44	816.562
1552.55	1173.38
1556.65	939.875
1560.76	1411.38
1564.86	2696.19
1568.95	1532.94
1573.05	2389.75
1577.14	1926.81
