Measurement: Raman, 514 nm, ccw, Raman Data Processed
Mineral: Sodalite
Rruff sample: R060354
Ideal chemistry: Na_4_Si_3_Al_3_O_12_Cl
Locality: Koksha Valley, Badakshan Province, Afghanistan
Source: Herb Obodda
Description: Pale purple transparent fragment
Measured chemistry: (Na_0.99_K_0.01_)_8_Al_6.00_Si_6.00_O_24_Cl_2.00_
Pin_id: L01562
Orientation: Laser parallel to a* (1 0 0). Fiducial mark perpendicular to laser is parallel to -c [0 0 -1]
Raman shift (cm-1)	intensity
61.448	0
66.421	303.68
71.392	392.09
76.36	355.172
81.325	905.367
86.287	589.523
91.246	415
96.203	851.938
101.156	577.023
106.107	749.711
111.055	585.125
116.001	842.992
120.944	4497.06
125.883	421.945
130.821	361.648
135.755	323.086
140.686	295.766
145.615	318.82
150.541	315.359
155.464	1457.19
160.385	3084.54
165.303	7309.32
170.218	4503.1
175.13	2626.86
180.039	1706.31
184.946	732.109
189.85	402.289
194.751	17.1094
199.649	273.25
204.545	132.773
209.438	45.4531
214.328	425.258
219.215	502.055
224.1	746.281
228.982	1022.72
233.861	1670.19
238.737	2027.59
243.611	2300.97
248.482	3584.02
253.35	5553.8
258.216	9226.52
263.078	12132.1
267.938	10564
272.795	6474.27
277.65	4046.19
282.502	3195.05
287.351	3225.8
292.197	4735.23
297.041	4520.81
301.881	1929.71
306.72	1131.98
311.555	371.594
316.388	568.422
321.218	568.977
326.045	372.781
330.869	276.953
335.691	94.4297
340.51	24.8672
345.327	168.172
350.14	134.648
354.951	176.461
359.76	308.586
364.565	198.188
369.368	509.641
374.168	279.836
378.966	544.672
383.76	246.336
388.552	172.875
393.342	147.648
398.128	404.227
402.912	426.758
407.693	1022.34
412.472	585.016
417.248	1370.85
422.021	900.914
426.792	1433.38
431.559	1764.28
436.324	2092.79
441.087	3403.68
445.847	5402.91
450.604	9145.5
455.358	19927.5
460.11	48309.9
464.859	67778.6
469.605	34788.4
474.349	15829.8
479.09	8870.21
483.828	5638.63
488.564	4714.84
493.297	3251.49
498.027	2610.11
502.755	1846.33
507.48	1416.06
512.202	1579.54
516.922	792.25
521.639	957.281
526.353	1066.06
531.065	1175.33
535.774	1131.13
540.48	519.562
545.184	816.75
549.885	786.555
554.583	936.406
559.279	727.328
563.972	727.438
568.662	394.773
573.35	560.633
578.035	374.258
582.718	386.688
587.398	554.242
592.075	896.953
596.75	733.812
601.422	820.844
606.091	501.047
610.758	713.508
615.422	215.258
620.083	236.375
624.742	216.938
629.398	433.391
634.051	94.4375
638.702	590.945
643.351	632.867
647.996	305.891
652.639	89.4766
657.28	219.609
661.917	75.0625
666.553	182.57
671.185	195.328
675.815	527.297
680.442	41.3828
685.067	140.094
689.689	37.75
694.309	898.578
698.926	401.578
703.54	256.844
708.151	103.391
712.761	576.211
717.367	690.094
721.971	946.172
726.572	326.148
731.171	995.93
735.767	717.406
740.36	459.992
744.951	860.797
749.539	954.797
754.125	745.031
758.708	542.484
763.288	249.016
767.866	753.734
772.442	686.016
777.014	749.25
781.584	548.859
786.152	238.719
790.717	462.578
795.279	78.4531
799.839	154.219
804.396	552.703
808.951	973.266
813.503	1262.06
818.053	1039.31
822.599	1147.58
827.144	1200.08
831.686	1153.83
836.225	1513.84
840.761	877.812
845.295	1053.27
849.827	836.625
854.356	1128.56
858.882	1208.14
863.406	568.062
867.927	949.344
872.446	843
876.962	801.172
881.476	792.844
885.987	933.125
890.495	929.797
895.001	90.1406
899.505	33.3125
904.005	20.2031
908.504	337.969
912.999	827.344
917.493	1094.88
921.983	917.625
926.471	1003.78
930.957	1012.14
935.44	1094.09
939.92	533.891
944.398	287.594
948.874	1723.92
953.346	1263.14
957.817	1292.02
962.285	2371.53
966.75	2859.23
971.213	3649.39
975.673	3522.83
980.13	6397.11
984.586	17073.5
989.038	17250.3
993.488	6683.77
997.936	2873.86
1002.38	2082.58
1006.82	921.141
1011.26	1897.16
1015.7	1298.5
1020.14	512.812
1024.57	248.75
1029	265.406
1033.43	259.578
1037.85	1170.14
1042.27	658.406
1046.69	893.875
1051.11	1387
1055.53	1558.83
1059.94	2595.91
1064.35	2877.48
1068.76	2094.06
1073.16	1132.95
1077.56	624
1081.96	849.172
1086.36	659.188
1090.75	438.641
1095.15	365.859
1099.54	712.188
1103.92	399.953
1108.31	383.094
1112.69	228.625
1117.07	663.453
1121.45	616.609
1125.82	100.062
1130.2	480.844
1134.57	368.922
1138.93	412.484
1143.3	21.375
1147.66	134.047
1152.02	496.812
1156.38	556.984
1160.73	859.328
1165.09	580.25
1169.44	424.312
1173.79	150.297
1178.13	301.797
1182.47	612.281
1186.81	343.516
1191.15	253.688
1195.49	263.531
1199.82	624.094
1204.15	145.609
1208.48	17.6406
1212.8	591.828
1217.13	168
1221.45	16.9844
1225.77	723.016
1230.08	1025.8
1234.39	727.375
1238.7	400.703
1243.01	627.703
1247.32	318.062
1251.62	78.3594
1255.92	189.328
1260.22	391.844
1264.52	560.984
1268.81	178.531
1273.1	180.5
1277.39	845.406
1281.68	680.594
1285.96	991.578
1290.24	237.984
1294.52	108.188
1298.8	301.812
1303.07	317.891
1307.35	647.453
1311.62	281.656
1315.88	450.094
1320.15	524.234
1324.41	360.172
1328.67	71.875
1332.92	380.625
1337.18	107.328
1341.43	783.766
1345.68	658.625
1349.93	312.953
1354.17	737.453
1358.42	221.375
1362.66	263.094
1366.89	992.75
1371.13	562.328
1375.36	645.828
1379.59	713.703
1383.82	888.422
1388.05	1102.53
1392.27	1118.52
1396.49	705.75
1400.71	811.172
1404.93	199.625
1409.14	1063.5
1413.35	647.156
1417.56	782.609
1421.77	1225.28
1425.97	543.109
1430.17	815.594
1434.37	1151.91
1438.57	552.844
1442.76	756.703
1446.96	787.062
1451.15	536.172
1455.33	685.547
1459.52	669.531
1463.7	619.234
1467.88	796
1472.06	430.781
1476.23	530.734
1480.41	114.922
1484.58	836.281
1488.75	561.672
1492.91	870.266
1497.08	835.625
1501.24	334.562
1505.4	282.656
1509.55	177.641
1513.71	157.578
1517.86	532.703
1522.01	281.266
1526.15	370.969
1530.3	182.078
1534.44	486.062
1538.58	393.031
1542.72	785.594
1546.85	686.75
1550.99	629.875
1555.12	421.734
1559.24	340.93
1563.37	558.562
1567.49	533.219
1571.62	462.133
1575.73	149.344
