Measurement: Raman, 514 nm, ccw, Raman Data Processed
Mineral: Sodalite
Rruff sample: R060355
Ideal chemistry: Na_4_Si_3_Al_3_O_12_Cl
Locality: Mont Saint-Hilaire, Quebec, Canada
Source: Herb Obodda
Description: Clear colorless fragment
Measured chemistry: (Na_0.98_[box]_0.02_)_8_Al_6.00_(Si_0.99_Al_0.01_)_6_O_24_Cl_1.82_
Pin_id: L00616
Orientation: Laser parallel to a* (1 0 0). Fiducial mark perpendicular to laser is parallel to -c [0 0 -1]
Raman shift (cm-1)	intensity
125.385	0
130.313	833.336
135.239	140.637
140.163	284.938
145.084	121.266
150.002	61.2852
154.918	1176.66
159.832	4098.61
164.742	9122.78
169.651	6886.73
174.556	3063.43
179.459	1761.4
184.36	509.16
189.258	10.3125
194.153	263.695
199.046	250.426
203.936	304.422
208.824	216.363
213.709	289.555
218.592	306.691
223.472	982.711
228.349	1638.48
233.224	2874.8
238.096	3215.18
242.966	4243.83
247.833	6330.57
252.698	10598.1
257.56	17541.6
262.419	22737.3
267.276	19375.4
272.13	12530.7
276.982	8010.9
281.831	5776.36
286.677	6110.32
291.521	8879.88
296.363	8586.98
301.202	3850.61
306.038	1382.93
310.872	635.926
315.703	550.965
320.531	243.141
325.357	445.504
330.181	173.898
335.001	40.2188
339.82	147.188
344.635	12.2148
349.448	104.215
354.259	50.0625
359.067	146.656
363.872	128.066
368.675	28.3242
373.475	345.969
378.272	76.2695
383.067	112.262
387.86	231.512
392.649	387.887
397.437	936.734
402.221	1597.38
407.003	2632.23
411.783	2528.7
416.56	1749.54
421.334	2233.85
426.106	2480.43
430.875	3485.21
435.641	4843.97
440.405	6263.66
445.167	10397.5
449.925	19181.7
454.681	39206.6
459.435	88039.3
464.186	124527
468.934	67480.1
473.68	29904.2
478.423	16285.1
483.164	10637.8
487.902	8223.65
492.637	6211.13
497.37	4738.38
502.1	3901.65
506.828	3074.47
511.553	2769.64
516.276	2603.14
520.995	2535.32
525.713	2104.29
530.427	2129.69
535.139	1736.86
539.849	1231.97
544.556	1549.78
549.26	1252.99
553.962	1169.59
558.661	1312.97
563.357	1642.19
568.051	948.832
572.742	1664.98
577.431	552.617
582.117	959.531
586.801	1120.76
591.481	1011.43
596.16	1026.65
600.835	1066.53
605.508	1178.09
610.179	1695.58
614.847	1534.07
619.512	1941.87
624.175	1919.69
628.835	1876.1
633.492	1451.79
638.147	1465.36
642.799	1590.53
647.449	965.606
652.096	623.652
656.74	331.035
661.382	0.160156
666.021	37.9609
670.658	86.9375
675.292	17.5195
679.923	41.5781
684.552	64.793
689.178	225.344
693.802	103.227
698.423	698.91
703.041	1130.51
707.657	2913.62
712.27	5574.31
716.881	6673.14
721.489	5322.34
726.094	4383.56
730.697	3749.64
735.297	4490.42
739.894	3583.76
744.489	2691.11
749.081	2078.5
753.671	2120.12
758.258	1469.06
762.842	1304.81
767.424	1121.09
772.003	1342.11
776.58	2332.91
781.154	3374.88
785.725	1857.9
790.294	609.188
794.86	636.227
799.424	118.195
803.985	114.938
808.543	549.047
813.099	650.289
817.652	923.938
822.202	599.125
826.75	741.305
831.295	891.82
835.838	1530.47
840.378	1932.19
844.915	1870.17
849.45	1621.67
853.982	1467.27
858.512	1898.41
863.039	2139.8
867.563	1072.35
872.085	1008.81
876.604	925.453
881.12	389.141
885.634	152.969
890.145	42.4219
894.654	311.383
899.16	140.008
903.663	239.281
908.164	515.453
912.662	466.422
917.158	804.219
921.651	1445.97
926.141	1359.87
930.628	1187.73
935.113	718.922
939.596	525.641
944.076	220.305
948.553	52.3594
953.027	733.523
957.499	1160.09
961.969	3129.77
966.435	5508.64
970.899	6175.61
975.361	6278.64
979.82	11591.1
984.276	29111.6
988.73	33548.6
993.181	16809.2
997.629	16125.5
1002.08	23936.6
1006.52	9066.88
1010.96	3195.26
1015.4	1302.34
1019.83	1559.75
1024.26	1478.49
1028.69	3139.12
1033.12	2545.6
1037.55	1865.43
1041.97	1309.11
1046.39	1563.11
1050.81	2146.45
1055.22	2554.22
1059.63	3611.77
1064.04	4996.2
1068.45	4436.67
1072.85	2456.25
1077.25	1146.99
1081.65	724.43
1086.05	426.555
1090.44	69.3906
1094.83	115.242
1099.22	249.781
1103.6	114.07
1107.99	140.438
1112.37	5.74219
1116.74	255.492
1121.12	43.4531
1125.49	245.461
1129.86	999.242
1134.23	759.32
1138.59	353.062
1142.95	183.516
1147.31	115.945
1151.67	1039.09
1156.02	1920.55
1160.38	868
1164.72	860.359
1169.07	682.562
1173.41	778.727
1177.75	1980.66
1182.09	1510.36
1186.43	2051.81
1190.76	2757.98
1195.09	1654.93
1199.42	1749.6
1203.74	1254.03
1208.07	1244.26
1212.39	1399.52
1216.7	867.062
1221.02	1259.71
1225.33	2051.39
1229.64	2383.74
1233.95	2233.74
1238.25	1437.91
1242.55	948.281
1246.85	1410.21
1251.15	955.195
1255.44	796.07
1259.73	1368.62
1264.02	1912.66
1268.31	2778.18
1272.59	3446.26
1276.87	3914.78
1281.15	6370.62
1285.42	9501.24
1289.69	9694.88
1293.96	8156.9
1298.23	7030.27
1302.5	4872.39
1306.76	4324.81
1311.02	4235.61
1315.27	3289.8
1319.53	2923.09
1323.78	1125.39
1328.03	1851.55
1332.28	1308.62
1336.52	1357.48
1340.76	1005.34
1345	1316.09
1349.23	1402.43
1353.47	921.617
1357.7	300.867
1361.93	348.07
1366.15	220.859
1370.37	305.789
1374.59	173.984
1378.81	143.766
1383.03	551.086
1387.24	379.648
1391.45	187.82
1395.65	0.023438
1399.86	70.6328
1404.06	213.031
1408.26	557.547
1412.46	368.406
1416.65	658.172
1420.84	1224.91
1425.03	1769.41
1429.22	3091.23
1433.4	5089.52
1437.58	7597.38
1441.76	8471.17
1445.93	8446.48
1450.11	6782.52
1454.28	6345.48
1458.44	5443.62
1462.61	4676.75
1466.77	3405.38
1470.93	3227.48
1475.09	2224.92
1479.24	1915.89
1483.39	1927.03
1487.54	1615.22
1491.69	1029.59
1495.84	940.203
1499.98	1377.91
1504.12	1498.59
1508.25	1414.64
1512.38	320.406
1516.52	815.375
1520.64	772.484
1524.77	230.547
1528.89	257.781
1533.01	541.688
1537.13	271.234
1541.25	529.656
1545.36	983.109
1549.47	1035.16
1553.58	806.938
1557.68	506.688
1561.78	954.047
1565.88	1075
1569.98	852.047
1574.07	315.188
1578.16	0
