Measurement: Raman, 514 nm, depolarized, Raman Data Processed
Mineral: Sodalite
Rruff sample: R040141
Ideal chemistry: Na_4_Si_3_Al_3_O_12_Cl
Locality: Princess Sodalite mine, Bancroft, Ontario, Canada
Source: University of Arizona Mineral Museum
Description: Blue grains in a coarsely crystalline rock
Measured chemistry: Na_7.86_Al_6.00_Si_6.03_O_24_Cl_2.02_
Pin_id: L00469
Orientation: Laser parallel to -a* (-1 0 0). Fiducial mark perpendicular to laser is parallel to -b [0 -1 0]
Raman shift (cm-1)	intensity
52.166	0
56.365	13.904
60.563	34.536
64.758	71.175
68.952	2.87
73.144	17.827
77.333	270.228
81.521	163.262
85.706	154.975
89.89	153.768
94.071	328.585
98.251	529.489
102.428	415.108
106.604	549.706
110.777	1691.55
114.949	1347.9
119.119	374.191
123.286	61.246
127.452	137.127
131.615	417.234
135.777	252.855
139.937	102.008
144.094	76.732
148.25	228.921
152.403	207.516
156.555	558.418
160.705	1738.5
164.853	4402.66
168.998	4830.86
173.142	2580.99
177.284	1403.96
181.424	921.554
185.562	394.784
189.698	128.877
193.831	26.902
197.963	25.126
202.093	62.2
206.221	29.387
210.347	53.128
214.472	43.786
218.594	11.73
222.714	105.315
226.832	317.534
230.948	625.676
235.063	855.401
239.175	912.964
243.286	1189.41
247.394	1645.45
251.501	2536.03
255.605	4164.04
259.708	6619.52
263.808	8260.21
267.907	7225.23
272.004	5144.91
276.099	3527.38
280.192	2595.66
284.283	2323.81
288.372	2470.12
292.459	3675.56
296.544	3865.16
300.627	2231.95
304.709	1074.84
308.788	720.973
312.865	558.556
316.941	465.032
321.015	464.13
325.086	439.468
329.156	352.86
333.224	360.287
337.29	399.726
341.354	379.177
345.416	353.643
349.476	375.13
353.534	335.312
357.591	359.481
361.645	305.4
365.698	387.852
369.748	420.481
373.797	446.077
377.844	319.533
381.889	260.574
385.932	262.066
389.973	331.257
394.012	339.825
398.049	372.349
402.084	441.848
406.118	679.326
410.15	1090.84
414.179	921.16
418.207	743.33
422.233	902.744
426.257	986.521
430.279	1277.44
434.299	1603.45
438.318	1832.77
442.334	2288.77
446.349	3427.93
450.361	5424.36
454.372	9654.84
458.381	20135.5
462.388	42108.7
466.394	48771.3
470.397	27895.6
474.398	13356.9
478.398	7426.28
482.396	4753.4
486.391	3454.34
490.385	2664.4
494.377	2169.14
498.368	2059.57
502.356	1571.91
506.342	1174.35
510.327	988.834
514.31	839.398
518.291	753.082
522.27	709.908
526.247	647.003
530.222	533.362
534.196	485.972
538.167	438.828
542.137	366.885
546.105	332.022
550.071	211.181
554.035	156.347
557.998	146.515
561.958	89.686
565.917	65.858
569.874	5.972
573.829	2.826
577.782	16.726
581.733	3.728
585.683	10.791
589.63	4.885
593.576	16.983
597.52	6.854
601.462	9.371
605.402	81.324
609.341	140
613.277	91.981
617.212	26.752
621.145	2.161
625.076	30.391
629.006	11.459
632.933	2.597
636.859	12.78
640.783	32.836
644.705	1.517
648.625	0.077
652.543	41.937
656.46	76.812
660.375	69.731
664.288	105.158
668.199	120.847
672.108	186.593
676.016	165.996
679.921	182.826
683.825	140.114
687.727	212.43
691.628	182.93
695.526	167.04
699.423	170.661
703.318	194.507
707.211	216.293
711.102	239.814
714.992	278.23
718.879	276.539
722.765	381.742
726.649	345.531
730.532	502.677
734.412	791.295
738.291	705.484
742.168	417.629
746.043	335.275
749.916	211.757
753.788	130.947
757.658	133.168
761.526	86.098
765.392	31.134
769.257	56.059
773.119	101.673
776.98	39.447
780.839	51.455
784.697	30.317
788.552	16.174
792.406	34.092
796.258	53.868
800.108	8.005
803.957	12.16
807.804	7.552
811.649	3.836
815.492	22.106
819.333	20.198
823.173	17.855
827.011	12.108
830.847	16.479
834.681	14.115
838.514	14.655
842.345	3.585
846.174	2.269
850.001	27.235
853.827	16.657
857.651	3.48
861.473	52.234
865.293	56.927
869.112	121.562
872.928	130.142
876.744	101.669
880.557	104.148
884.369	71.593
888.178	45.026
891.987	14.46
895.793	12.125
899.598	42.214
903.401	13.503
907.202	6.771
911.001	36.028
914.799	9.273
918.595	66.247
922.389	51.255
926.182	124.383
929.972	88.883
933.761	177.844
937.549	176.476
941.334	269.553
945.118	393.117
948.9	489.073
952.681	565.614
956.459	655.078
960.236	941.599
964.012	1860.47
967.785	2735.92
971.557	2832.41
975.327	2760.96
979.095	3139.47
982.862	6666.11
986.627	16812.1
990.39	12265.3
994.152	4315.88
997.912	2019.86
1001.67	1125.33
1005.43	789.067
1009.18	706.931
1012.93	827.035
1016.68	562.268
1020.43	317.594
1024.18	235.988
1027.93	170.466
1031.67	125.007
1035.42	287.608
1039.16	253.314
1042.9	376.91
1046.63	523.225
1050.37	754.873
1054.11	1264.54
1057.84	2074.29
1061.57	2537.14
1065.3	2254.05
1069.03	1874.02
1072.75	1230.15
1076.47	753.153
1080.2	521.245
1083.92	361.452
1087.64	262.578
1091.36	225.748
1095.07	187.956
1098.79	148.486
1102.5	182.883
1106.21	131.437
1109.92	111.827
1113.62	141.129
1117.33	102.309
1121.04	141.368
1124.74	242.094
1128.44	113.668
1132.14	105.35
1135.83	95.393
1139.53	100.26
1143.22	118.289
1146.92	104.001
1150.61	128.792
1154.3	109.441
1157.98	82.474
1161.67	77.584
1165.35	104.965
1169.04	89.982
1172.72	94.478
1176.4	84.014
1180.07	83.112
1183.75	86.752
1187.42	49.837
1191.1	19.346
1194.77	52.808
1198.44	50.248
1202.1	59.682
1205.77	73.09
1209.43	71.528
1213.1	67.922
1216.76	38.839
1220.42	59.388
1224.07	56.132
1227.73	22.263
1231.38	54.568
1235.04	88.567
1238.69	105.462
1242.34	87.207
1245.99	75.909
1249.63	16.571
1253.28	66.178
1256.92	80.689
1260.56	57.1
1264.2	65.331
1267.84	90.305
1271.48	26.032
1275.11	24.481
1278.74	37.696
1282.38	24.702
1286.01	26.44
1289.63	31.747
1293.26	36.238
1296.89	29.919
1300.51	46.207
1304.13	2.133
1307.75	18.145
1311.37	2.63
1314.99	6.296
1318.6	5.849
1322.22	26.189
1325.83	16.588
1329.44	32.558
1333.05	96.666
1336.66	268.015
1340.26	262.289
1343.87	128.449
1347.47	98.468
1351.07	48.411
1354.67	73.258
1358.27	25.999
1361.86	79.608
1365.46	57.073
1369.05	86.635
1372.64	59.021
1376.23	98.597
1379.82	104.298
1383.41	112.717
1386.99	115.353
1390.57	99.416
1394.16	144.684
1397.74	147.642
1401.32	124.883
1404.89	157.598
1408.47	200.658
1412.04	155.89
1415.61	130.735
1419.18	121.159
1422.75	80.072
1426.32	86.102
1429.89	90.542
1433.45	89.216
1437.01	84.238
1440.58	104.662
1444.13	171.693
1447.69	145.585
1451.25	146.756
1454.81	159.018
1458.36	160.757
1461.91	69.869
1465.46	151.901
1469.01	72.855
1472.56	89.922
1476.1	43.442
1479.64	94.787
1483.19	52.059
1486.73	84.568
1490.27	104.344
1493.81	55.704
1497.34	44.791
1500.88	34.423
1504.41	41.883
1507.94	20.588
1511.47	21.993
1515	13.114
1518.53	0.723
